data_PCOD9004425
_publ_section_title
;
Structure prediction by ZEFSAII (Michael W. Deem and Ramdas Pophale) SiO2 
 PCOD9004425
Probable space group: P -1
;
_chemical_formula_sum "Si O2"
_cell_formula_units_Z 14
_cell_length_a 8.198393
_cell_length_b 8.685898
_cell_length_c 9.100936
_cell_angle_alpha 109.404372
_cell_angle_beta 74.446822
_cell_angle_gamma 117.523490
_cell_volume 536.973857
_symmetry_space_group_name_H-M "P -1"
_symmetry_group_IT_number 2
_symmetry_cell_setting 'triclinic'
loop_
_space_group_symop_operation_xyz
x,y,z
-x,-y,-z
loop_
_atom_site_type_symbol
_atom_site_label
_atom_site_fract_x
_atom_site_fract_y
_atom_site_fract_z
Si Si1 0.860442 0.081168 0.998561
Si Si2 0.488889 0.743035 0.987811
Si Si3 0.156288 0.969785 0.360164
Si Si4 0.713955 0.628059 0.521859
Si Si5 0.780920 0.363208 0.248873
Si Si6 0.315083 0.508571 0.205883
Si Si7 0.355345 0.803485 0.457592
O O1 0.642998 0.944973 0.045775
O O2 0.873368 0.082266 0.819544
O O3 0.915561 0.280490 0.116253
O O4 0.000000 0.000000 0.000000
O O5 0.390110 0.714860 0.846467
O O6 0.616436 0.633909 0.916958
O O7 0.315507 0.625464 0.098718
O O8 0.294260 0.180019 0.400106
O O9 0.209579 0.829413 0.391378
O O10 0.000000 0.000000 0.500000
O O11 0.500000 0.500000 0.500000
O O12 0.818912 0.568307 0.346820
O O13 0.794068 0.590865 0.649044
O O14 0.733137 0.272941 0.390851
O O15 0.450563 0.685631 0.320152
O O16 0.500000 0.000000 0.500000
#
# Coordination Sequence:
#
# PCOD9004425 Si02
#       7
#     2   2   2   2   2   2   2
#     4  12  25  44  64  99 138 181 219 275 337 404
#     4  11  21  40  69 100 134 166 223 283 335 383
#     4  12  26  47  66  97 142 183 218 280 342 405
#     4  11  21  43  70 102 132 175 225 280 329 400
#     4  11  23  41  71 102 128 173 228 281 328 395
#     4  10  21  37  66  99 128 170 216 278 329 386
#     4  11  22  38  68 100 131 172 227 269 337 400
#
# _framework density 26.072033999999999
#
# number of rings (size 3 to 8) (size 9 to 14) (size 15 to 20)
#    0.000    0.857    2.857    5.571    0.000    1.143 
#    2.571    2.857    0.000    0.000    0.000    0.000 
#    0.000    0.000    0.000    0.000    0.000    0.000 
#
# Total GULP energy -77942.421956 kJ/mol
# GULP energy per Si atom -5567.315854 kJ/mol
# Density = 2.601269 g / cm^3
# Si number density = 26.072034 Si / 1000 Ang^3
#
#
#
# Elastic Constant Matrix: (Units=GPa)
#
#
# Indices 1 2 3 4 5 6 
#
# 1 80.6334 11.4899 24.7582 -20.0620 12.8399 -8.5754
# 2 11.4899 54.8905 45.1899 -13.6028 6.1171 -6.5492
# 3 24.7582 45.1899 143.4287 9.1923 5.8433 -28.9672
# 4 -20.0620 -13.6028 9.1923 49.8381 -24.0677 5.2103
# 5 12.8399 6.1171 5.8433 -24.0677 44.0505 -0.4595
# 6 -8.5754 -6.5492 -28.9672 5.2103 -0.4595 28.0103
#
#
#
# Elastic Compliance Matrix: (Units=1/GPa)
#
#
# Indices 1 2 3 4 5 6 
#
# 1 0.015045 0.001481 -0.003483 0.006932 -0.000341 0.000055
# 2 0.001481 0.030275 -0.012520 0.014301 0.004755 -0.007998
# 3 -0.003483 -0.012520 0.015319 -0.011797 -0.005578 0.013952
# 4 0.006932 0.014301 -0.011797 0.039567 0.019032 -0.013782
# 5 -0.000341 0.004755 -0.005578 0.019032 0.033198 -0.007757
# 6 0.000055 -0.007998 0.013952 -0.013782 -0.007757 0.050713
#
#
# Mechanical properties :
#
#
# Convention : Reuss Voigt Hill
#
# Bulk Modulus (GPa) = 31.65035 49.09207 40.37121
# Shear Modulus (GPa) = 22.35206 37.54743 29.94975
#
# Velocity S-wave (km/s) = 2.93118 3.79904 3.39297
# Velocity P-wave (km/s) = 4.86021 6.17364 5.55588
#
# Compressibility (1/GPa) = 0.03159523
#
# Stress axis : x y z
#
# Youngs Moduli (GPa) = 66.46640 33.03009 65.27860
#
# Poissons Ratio (x) = -0.04890 0.22735
# Poissons Ratio (y) = -0.09840 0.81728
# Poissons Ratio (z) = 0.23149 0.41353
#
# Static dielectric constant tensor:
#      x y z
#    x 2.477510 0.237900 -0.079060 
#    y 0.237900 2.538660 -0.065630 
#    z -0.079060 -0.065630 2.177070 
# 
# From -- ./inp_files/159664.got.cif
#   From: 2010.05.17/outbox.cif.g08.bks.cpg/sg2_80_cif.got.tgz:159664.got - 2010.06.03 11:33:40.
