data_PCOD9004861
_publ_section_title
;
Structure prediction by ZEFSAII (Michael W. Deem and Ramdas Pophale) SiO2 
 PCOD9004861
Probable space group: P -1
;
_chemical_formula_sum "Si O2"
_cell_formula_units_Z 16
_cell_length_a 9.558766
_cell_length_b 12.189917
_cell_length_c 13.407185
_cell_angle_alpha 57.848385
_cell_angle_beta 148.325495
_cell_angle_gamma 121.551830
_cell_volume 685.749697
_symmetry_space_group_name_H-M "P -1"
_symmetry_group_IT_number 2
_symmetry_cell_setting 'triclinic'
loop_
_space_group_symop_operation_xyz
x,y,z
-x,-y,-z
loop_
_atom_site_type_symbol
_atom_site_label
_atom_site_fract_x
_atom_site_fract_y
_atom_site_fract_z
Si Si1 0.779555 0.311968 0.177371
Si Si2 0.924695 0.062404 0.279394
Si Si3 0.772551 0.245775 0.707948
Si Si4 0.669575 0.857442 0.895651
Si Si5 0.701966 0.529006 0.514893
Si Si6 0.311744 0.172407 0.299761
Si Si7 0.263665 0.476288 0.110854
Si Si8 0.568133 0.908153 0.276210
O O1 0.804153 0.193232 0.173442
O O2 0.549105 0.262466 0.140268
O O3 0.072216 0.346930 0.389398
O O4 0.729174 0.439779 0.025289
O O5 0.056135 0.086142 0.239625
O O6 0.180314 0.062424 0.508525
O O7 0.704225 0.936860 0.236611
O O8 0.844958 0.400004 0.658228
O O9 0.556804 0.191784 0.517847
O O10 0.617576 0.221413 0.732692
O O11 0.032255 0.175834 0.897008
O O12 0.618739 0.884392 0.735873
O O13 0.613271 0.980351 0.865776
O O14 0.500000 0.500000 0.500000
O O15 0.523436 0.531687 0.307667
O O16 0.253564 0.320140 0.170327
O O17 0.000000 0.500000 0.000000
#
# Coordination Sequence:
#
# PCOD9004861 Si02
#       8
#     2   2   2   2   2   2   2   2
#     4  11  22  39  59  90 119 152 194 236 293 345
#     4   9  18  37  62  85 115 151 194 247 289 336
#     4  10  22  38  58  85 119 156 193 235 293 346
#     4  11  24  38  61  85 118 158 195 238 285 351
#     4  11  21  35  61  89 118 151 191 240 289 345
#     4  10  21  38  59  87 117 152 194 236 294 341
#     4  11  20  35  60  86 119 153 184 236 290 347
#     4   9  19  38  61  84 114 154 197 242 290 336
#
# _framework density 23.332128999999998
#
# number of rings (size 3 to 8) (size 9 to 14) (size 15 to 20)
#    0.000    1.750    2.500    2.625    0.000    5.000 
#    0.000    3.125    0.000    6.000    0.000    0.000 
#    0.000    0.000    0.000    0.000    0.000    0.000 
#
# Total GULP energy -89549.853065 kJ/mol
# GULP energy per Si atom -5596.865817 kJ/mol
# Density = 2.327902 g / cm^3
# Si number density = 23.332129 Si / 1000 Ang^3
#
#
#
# Elastic Constant Matrix: (Units=GPa)
#
#
# Indices 1 2 3 4 5 6 
#
# 1 98.5695 35.3058 22.8562 13.1827 -4.8407 44.2792
# 2 35.3058 80.4431 45.1991 7.2342 0.1496 26.5741
# 3 22.8562 45.1991 83.8547 -2.9951 -6.3789 11.3810
# 4 13.1827 7.2342 -2.9951 33.4192 -2.1321 5.8531
# 5 -4.8407 0.1496 -6.3789 -2.1321 31.6964 4.7994
# 6 44.2792 26.5741 11.3810 5.8531 4.7994 42.1218
#
#
#
# Elastic Compliance Matrix: (Units=1/GPa)
#
#
# Indices 1 2 3 4 5 6 
#
# 1 0.021488 -0.000600 -0.002313 -0.004394 0.005799 -0.021635
# 2 -0.000600 0.022376 -0.010779 -0.003911 -0.001130 -0.009902
# 3 -0.002313 -0.010779 0.018324 0.004515 0.003191 0.003290
# 4 -0.004394 -0.003911 0.004515 0.032874 0.002310 0.001036
# 5 0.005799 -0.001130 0.003191 0.002310 0.034833 -0.010535
# 6 -0.021635 -0.009902 0.003290 0.001036 -0.010535 0.052898
#
#
# Mechanical properties :
#
#
# Convention : Reuss Voigt Hill
#
# Bulk Modulus (GPa) = 28.73318 52.17662 40.45490
# Shear Modulus (GPa) = 22.54521 32.08122 27.31322
#
# Velocity S-wave (km/s) = 3.11187 3.71210 3.42515
# Velocity P-wave (km/s) = 5.02526 6.38623 5.74618
#
# Compressibility (1/GPa) = 0.03480297
#
# Stress axis : x y z
#
# Youngs Moduli (GPa) = 46.53834 44.69138 54.57470
#
# Poissons Ratio (x) = 0.02680 0.12624
# Poissons Ratio (y) = 0.02790 0.58827
# Poissons Ratio (z) = 0.10765 0.48174
#
# Static dielectric constant tensor:
#      x y z
#    x 1.858490 -0.019260 -0.023700 
#    y -0.019260 1.938420 0.012550 
#    z -0.023700 0.012550 1.889490 
# 
# From -- ./inp_files/271817.got.cif
#   From: 2010.05.17/outbox.cif.g08.bks.cpg/sg2_136_cif.got.tgz:271817.got - 2010.06.03 11:33:40.
