data_PCOD9004986
_publ_section_title
;
Structure prediction by ZEFSAII (Michael W. Deem and Ramdas Pophale) SiO2 
 PCOD9004986
Probable space group: P -1
;
_chemical_formula_sum "Si O2"
_cell_formula_units_Z 16
_cell_length_a 19.250054
_cell_length_b 8.626090
_cell_length_c 7.737726
_cell_angle_alpha 87.881050
_cell_angle_beta 104.306368
_cell_angle_gamma 143.785160
_cell_volume 705.364594
_symmetry_space_group_name_H-M "P -1"
_symmetry_group_IT_number 2
_symmetry_cell_setting 'triclinic'
loop_
_space_group_symop_operation_xyz
x,y,z
-x,-y,-z
loop_
_atom_site_type_symbol
_atom_site_label
_atom_site_fract_x
_atom_site_fract_y
_atom_site_fract_z
Si Si1 0.920907 0.394596 0.286881
Si Si2 0.594935 0.332845 0.437185
Si Si3 0.070094 0.276046 0.882941
Si Si4 0.452592 0.415694 0.676651
Si Si5 0.131644 0.599288 0.209627
Si Si6 0.200182 0.264531 0.162391
Si Si7 0.721388 0.912322 0.961691
Si Si8 0.641900 0.084402 0.445282
O O1 0.894106 0.528408 0.238946
O O2 0.000000 0.500000 0.500000
O O3 0.024499 0.527718 0.202717
O O4 0.796274 0.072558 0.179864
O O5 0.618863 0.545019 0.358129
O O6 0.685871 0.482375 0.654782
O O7 0.453186 0.082814 0.439577
O O8 0.618425 0.215592 0.350054
O O9 0.069452 0.355321 0.068732
O O10 0.169608 0.318597 0.977104
O O11 0.926013 0.966089 0.787394
O O12 0.500000 0.500000 0.500000
O O13 0.571416 0.639102 0.868705
O O14 0.391627 0.135090 0.666594
O O15 0.230794 0.859761 0.134637
O O16 0.214295 0.680653 0.413529
O O17 0.231920 0.154975 0.108381
#
# Coordination Sequence:
#
# PCOD9004986 Si02
#       8
#     2   2   2   2   2   2   2   2
#     4  11  24  38  53  74 108 152 187 222 271 327
#     4  10  18  27  46  84 123 134 163 219 295 328
#     4  10  21  31  55  84 104 136 183 227 278 320
#     4  10  17  28  48  82 115 136 170 224 274 326
#     4  11  17  34  53  78 106 136 180 230 268 319
#     4  11  17  31  53  86 111 132 172 236 277 323
#     4  11  18  34  56  79 108 140 178 229 271 321
#     4  10  18  26  46  81 114 137 168 214 282 327
#
# _framework density 22.683304
#
# number of rings (size 3 to 8) (size 9 to 14) (size 15 to 20)
#    0.000    1.500    8.750    0.750    0.000    0.000 
#    0.000    0.625    0.000    0.750    0.000    1.750 
#    0.000    0.000    0.000    0.000    0.000    0.000 
#
# Total GULP energy -89256.956434 kJ/mol
# GULP energy per Si atom -5578.559777 kJ/mol
# Density = 2.263168 g / cm^3
# Si number density = 22.683304 Si / 1000 Ang^3
#
#
#
# Elastic Constant Matrix: (Units=GPa)
#
#
# Indices 1 2 3 4 5 6 
#
# 1 82.4752 37.4287 19.0352 -0.3848 25.9901 -25.7175
# 2 37.4287 61.6962 39.7811 12.5464 0.4524 -27.5349
# 3 19.0352 39.7811 113.9856 29.2938 18.0874 -1.7712
# 4 -0.3848 12.5464 29.2938 27.2829 1.1873 5.6346
# 5 25.9901 0.4524 18.0874 1.1873 35.0639 -5.1278
# 6 -25.7175 -27.5349 -1.7712 5.6346 -5.1278 42.5862
#
#
#
# Elastic Compliance Matrix: (Units=1/GPa)
#
#
# Indices 1 2 3 4 5 6 
#
# 1 0.027862 -0.021212 0.004885 0.005963 -0.023138 -0.000262
# 2 -0.021212 0.053589 -0.015118 -0.015373 0.027230 0.026523
# 3 0.004885 -0.015118 0.017880 -0.010298 -0.013224 -0.006311
# 4 0.005963 -0.015373 -0.010298 0.058056 -0.003042 -0.014814
# 5 -0.023138 0.027230 -0.013224 -0.003042 0.053698 0.009951
# 6 -0.000262 0.026523 -0.006311 -0.014814 0.009951 0.043368
#
#
# Mechanical properties :
#
#
# Convention : Reuss Voigt Hill
#
# Bulk Modulus (GPa) = 27.44204 50.07189 38.75697
# Shear Modulus (GPa) = 15.17496 31.78075 23.47785
#
# Velocity S-wave (km/s) = 2.58929 3.74714 3.22068
# Velocity P-wave (km/s) = 4.58949 6.39090 5.56359
#
# Compressibility (1/GPa) = 0.03644044
#
# Stress axis : x y z
#
# Youngs Moduli (GPa) = 35.89180 18.66057 55.92728
#
# Poissons Ratio (x) = 0.39584 -0.27323
# Poissons Ratio (y) = 0.76135 0.84551
# Poissons Ratio (z) = -0.17534 0.28211
#
# Static dielectric constant tensor:
#      x y z
#    x 1.860130 -0.021300 0.011950 
#    y -0.021300 1.902600 -0.023820 
#    z 0.011950 -0.023820 1.878830 
# 
# From -- ./inp_files/176508.got.cif
#   From: 2010.05.17/outbox.cif.g08.bks.cpg/sg2_89_cif.got.tgz:176508.got - 2010.06.03 11:33:40.
