data_PCOD9004945
_publ_section_title
;
Structure prediction by ZEFSAII (Michael W. Deem and Ramdas Pophale) SiO2 
 PCOD9004945
Probable space group: P -1
;
_chemical_formula_sum "Si O2"
_cell_formula_units_Z 16
_cell_length_a 8.723238
_cell_length_b 19.672798
_cell_length_c 17.293143
_cell_angle_alpha 151.643668
_cell_angle_beta 148.609910
_cell_angle_gamma 40.427849
_cell_volume 733.560374
_symmetry_space_group_name_H-M "P -1"
_symmetry_group_IT_number 2
_symmetry_cell_setting 'triclinic'
loop_
_space_group_symop_operation_xyz
x,y,z
-x,-y,-z
loop_
_atom_site_type_symbol
_atom_site_label
_atom_site_fract_x
_atom_site_fract_y
_atom_site_fract_z
Si Si1 0.316529 0.056001 0.172666
Si Si2 0.225138 0.109664 0.480324
Si Si3 0.329213 0.347132 0.541921
Si Si4 0.807457 0.931723 0.037091
Si Si5 0.121263 0.371664 0.168866
Si Si6 0.711912 0.465210 0.440204
Si Si7 0.357673 0.676657 0.194881
Si Si8 0.055778 0.045387 0.657466
O O1 0.406951 0.181007 0.393565
O O2 0.252879 0.122721 0.128376
O O3 0.590583 0.942272 0.170717
O O4 0.000000 0.000000 0.000000
O O5 0.369361 0.257613 0.668830
O O6 0.031654 0.079702 0.443820
O O7 0.500000 0.000000 0.500000
O O8 0.040108 0.053868 0.271972
O O9 0.373773 0.436198 0.571914
O O10 0.512601 0.395492 0.743645
O O11 0.981569 0.361906 0.425398
O O12 0.912026 0.795698 0.995307
O O13 0.500000 0.000000 0.000000
O O14 0.422395 0.391984 0.272554
O O15 0.160810 0.450395 0.346500
O O16 0.841549 0.415644 0.039634
O O17 0.139162 0.811192 0.263132
O O18 0.000000 0.000000 0.500000
#
# Coordination Sequence:
#
# PCOD9004945 Si02
#       8
#     2   2   2   2   2   2   2   2
#     4  12  25  37  65 101 133 167 209 262 337 394
#     4  10  21  38  59  96 135 161 198 256 327 400
#     4  11  24  45  64  93 131 171 218 273 322 374
#     4  12  22  38  66  98 128 166 214 260 330 392
#     4  11  23  45  68  91 125 174 222 269 320 377
#     4  10  26  46  66  88 129 173 230 274 301 375
#     4  11  23  41  70  94 133 168 211 266 334 390
#     4  11  22  39  57  99 139 164 195 258 332 403
#
# _framework density 21.811429
#
# number of rings (size 3 to 8) (size 9 to 14) (size 15 to 20)
#    0.000    1.000    6.250    0.750    7.000    1.000 
#    0.000    0.000    0.000    0.000    0.000    0.000 
#    0.000    0.000    0.000    0.000    0.000    0.000 
#
# Total GULP energy -89364.659947 kJ/mol
# GULP energy per Si atom -5585.291247 kJ/mol
# Density = 2.176179 g / cm^3
# Si number density = 21.811429 Si / 1000 Ang^3
#
#
#
# Elastic Constant Matrix: (Units=GPa)
#
#
# Indices 1 2 3 4 5 6 
#
# 1 104.0130 23.8452 27.3063 -7.7768 1.9511 12.2671
# 2 23.8452 68.1038 21.0260 -19.3458 -0.1235 3.4092
# 3 27.3063 21.0260 102.6908 -31.6967 -4.6178 11.2150
# 4 -7.7768 -19.3458 -31.6967 38.2490 1.0817 -9.7409
# 5 1.9511 -0.1235 -4.6178 1.0817 29.2667 -20.7239
# 6 12.2671 3.4092 11.2150 -9.7409 -20.7239 31.1413
#
#
#
# Elastic Compliance Matrix: (Units=1/GPa)
#
#
# Indices 1 2 3 4 5 6 
#
# 1 0.012445 -0.004193 -0.003110 -0.004592 -0.008583 -0.010471
# 2 -0.004193 0.018693 -0.000111 0.009693 0.003552 0.005041
# 3 -0.003110 -0.000111 0.014025 0.011351 0.003431 0.002020
# 4 -0.004592 0.009693 0.011351 0.044324 0.015039 0.020532
# 5 -0.008583 0.003552 0.003431 0.015039 0.074353 0.055941
# 6 -0.010471 0.005041 0.002020 0.020532 0.055941 0.078607
#
#
# Mechanical properties :
#
#
# Convention : Reuss Voigt Hill
#
# Bulk Modulus (GPa) = 32.96610 46.57363 39.76987
# Shear Modulus (GPa) = 18.69943 33.24009 25.96976
#
# Velocity S-wave (km/s) = 2.93118 3.90805 3.45432
# Velocity P-wave (km/s) = 5.15778 6.46243 5.84661
#
# Compressibility (1/GPa) = 0.03033419
#
# Stress axis : x y z
#
# Youngs Moduli (GPa) = 80.35640 53.49454 71.30016
#
# Poissons Ratio (x) = 0.22429 0.22177
# Poissons Ratio (y) = 0.33691 0.00795
# Poissons Ratio (z) = 0.24994 0.00596
#
# Static dielectric constant tensor:
#      x y z
#    x 1.758430 -0.028960 0.000700 
#    y -0.028960 1.804870 0.014970 
#    z 0.000700 0.014970 1.763470 
# 
# From -- ./inp_files/327745.got.cif
#   From: 2010.05.17/outbox.cif.g08.bks.cpg/sg2_164_cif.got.tgz:327745.got - 2010.06.03 11:33:40.
