data_PCOD9004107
_publ_section_title
;
Structure prediction by ZEFSAII (Michael W. Deem and Ramdas Pophale) SiO2 
 PCOD9004107
Probable space group: P -1
;
_chemical_formula_sum "Si O2"
_cell_formula_units_Z 16
_cell_length_a 21.037709
_cell_length_b 6.520920
_cell_length_c 7.627586
_cell_angle_alpha 68.454234
_cell_angle_beta 98.585681
_cell_angle_gamma 137.402507
_cell_volume 646.462657
_symmetry_space_group_name_H-M "P -1"
_symmetry_group_IT_number 2
_symmetry_cell_setting 'triclinic'
loop_
_space_group_symop_operation_xyz
x,y,z
-x,-y,-z
loop_
_atom_site_type_symbol
_atom_site_label
_atom_site_fract_x
_atom_site_fract_y
_atom_site_fract_z
Si Si1 0.137345 0.533715 0.406815
Si Si2 0.368709 0.093444 0.811953
Si Si3 0.677120 0.166225 0.485297
Si Si4 0.250161 0.072402 0.993166
Si Si5 0.412987 0.669360 0.462642
Si Si6 0.926482 0.114718 0.047259
Si Si7 0.569833 0.491429 0.847758
Si Si8 0.031453 0.953650 0.295029
O O1 0.218946 0.675274 0.531471
O O2 0.187224 0.833433 0.205916
O O3 0.042787 0.373060 0.516022
O O4 0.110267 0.256139 0.361239
O O5 0.395634 0.388697 0.630362
O O6 0.458276 0.249046 0.919254
O O7 0.358228 0.900901 0.706890
O O8 0.273232 0.917732 0.930913
O O9 0.673278 0.384143 0.518309
O O10 0.612816 0.827882 0.676151
O O11 0.356273 0.397612 0.007526
O O12 0.180635 0.080233 0.882217
O O13 0.427896 0.671651 0.262839
O O14 0.500000 0.000000 0.500000
O O15 0.967916 0.005836 0.195685
O O16 0.000000 0.500000 0.000000
O O17 0.931112 0.062962 0.859726
#
# Coordination Sequence:
#
# PCOD9004107 Si02
#       8
#     2   2   2   2   2   2   2   2
#     4  10  23  44  65  95 124 170 205 268 315 373
#     4  11  22  39  62  92 131 170 209 258 313 374
#     4  10  21  37  64  90 127 163 216 256 311 376
#     4  11  25  42  64  95 132 170 212 256 321 379
#     4  11  19  38  64  89 119 172 215 254 313 368
#     4  11  24  45  66  94 127 165 206 264 325 379
#     4  10  21  41  60  91 129 169 211 259 308 371
#     4  10  24  46  69  91 130 160 212 266 324 372
#
# _framework density 24.750076
#
# number of rings (size 3 to 8) (size 9 to 14) (size 15 to 20)
#    0.000    1.500    3.750    1.125    5.250    0.500 
#    0.000    0.625    0.000    0.000    0.000    0.000 
#    0.000    0.000    0.000    0.000    0.000    0.000 
#
# Total GULP energy -89529.319999 kJ/mol
# GULP energy per Si atom -5595.582500 kJ/mol
# Density = 2.469374 g / cm^3
# Si number density = 24.750076 Si / 1000 Ang^3
#
#
#
# Elastic Constant Matrix: (Units=GPa)
#
#
# Indices 1 2 3 4 5 6 
#
# 1 145.8505 34.7451 24.2825 4.1208 -18.9829 9.2696
# 2 34.7451 50.5916 13.5515 8.1944 -0.6821 8.4811
# 3 24.2825 13.5515 69.8598 12.0667 -14.4446 -3.3353
# 4 4.1208 8.1944 12.0667 42.4043 -6.6828 1.6371
# 5 -18.9829 -0.6821 -14.4446 -6.6828 32.1821 5.9540
# 6 9.2696 8.4811 -3.3353 1.6371 5.9540 38.3796
#
#
#
# Elastic Compliance Matrix: (Units=1/GPa)
#
#
# Indices 1 2 3 4 5 6 
#
# 1 0.009258 -0.005851 -0.001320 0.001538 0.005427 -0.001965
# 2 -0.005851 0.025919 -0.003422 -0.004046 -0.004588 -0.003728
# 3 -0.001320 -0.003422 0.017310 -0.003275 0.005904 0.001803
# 4 0.001538 -0.004046 -0.003275 0.026008 0.005058 -0.001656
# 5 0.005427 -0.004588 0.005904 0.005058 0.038997 -0.006049
# 6 -0.001965 -0.003728 0.001803 -0.001656 -0.006049 0.028520
#
#
# Mechanical properties :
#
#
# Convention : Reuss Voigt Hill
#
# Bulk Modulus (GPa) = 31.94840 45.71777 38.83308
# Shear Modulus (GPa) = 28.14823 35.50805 31.82814
#
# Velocity S-wave (km/s) = 3.37604 3.79181 3.58995
# Velocity P-wave (km/s) = 5.30409 6.13859 5.73653
#
# Compressibility (1/GPa) = 0.03130047
#
# Stress axis : x y z
#
# Youngs Moduli (GPa) = 108.01736 38.58136 57.77103
#
# Poissons Ratio (x) = 0.22573 0.07627
# Poissons Ratio (y) = 0.63199 0.19770
# Poissons Ratio (z) = 0.14261 0.13203
#
# Static dielectric constant tensor:
#      x y z
#    x 2.001540 -0.004480 0.016920 
#    y -0.004480 1.987930 -0.035580 
#    z 0.016920 -0.035580 1.959330 
# 
# From -- ./inp_files/323474.got.cif
#   From: 2010.05.17/outbox.cif.g08.bks.cpg/sg2_162_cif.got.tgz:323474.got - 2010.06.03 11:33:40.
