data_PCOD9004843
_publ_section_title
;
Structure prediction by ZEFSAII (Michael W. Deem and Ramdas Pophale) SiO2 
 PCOD9004843
Probable space group: P -1
;
_chemical_formula_sum "Si O2"
_cell_formula_units_Z 16
_cell_length_a 10.706944
_cell_length_b 22.331885
_cell_length_c 6.546322
_cell_angle_alpha 107.045969
_cell_angle_beta 127.691574
_cell_angle_gamma 42.306159
_cell_volume 795.671399
_symmetry_space_group_name_H-M "P -1"
_symmetry_group_IT_number 2
_symmetry_cell_setting 'triclinic'
loop_
_space_group_symop_operation_xyz
x,y,z
-x,-y,-z
loop_
_atom_site_type_symbol
_atom_site_label
_atom_site_fract_x
_atom_site_fract_y
_atom_site_fract_z
Si Si1 0.893998 0.266942 0.807348
Si Si2 0.018687 0.648502 0.702731
Si Si3 0.563211 0.916168 0.870439
Si Si4 0.518686 0.148502 0.631647
Si Si5 0.936792 0.583832 0.911685
Si Si6 0.759472 0.086871 0.227303
Si Si7 0.393999 0.766943 0.514534
Si Si8 0.259475 0.586871 0.465388
O O1 0.749999 0.250000 0.719888
O O2 0.786885 0.327670 0.555099
O O3 0.898994 0.321618 0.029431
O O4 0.158719 0.170309 0.933109
O O5 0.750000 0.750000 0.473350
O O6 0.004923 0.586447 0.751046
O O7 0.211634 0.590084 0.658831
O O8 0.495080 0.913553 0.568308
O O9 0.442413 0.897504 0.863156
O O10 0.500000 0.000000 0.000000
O O11 0.601007 0.178381 0.588207
O O12 0.711634 0.090083 0.944605
O O13 0.658722 0.670310 0.724951
O O14 0.000000 0.500000 0.000000
O O15 0.057590 0.602495 0.183325
O O16 0.713113 0.172331 0.325986
O O17 0.000000 0.000000 0.500000
O O18 0.500000 0.500000 0.500000
#
# Coordination Sequence:
#
# PCOD9004843 Si02
#       8
#     2   2   2   2   2   2   2   2
#     4  10  21  38  59  86 118 154 201 250 302 364
#     4   9  20  39  61  85 119 160 201 250 305 362
#     4  10  21  38  59  87 120 156 202 251 301 362
#     4   9  20  39  61  85 119 160 201 250 305 362
#     4  10  21  38  59  87 120 156 202 251 301 362
#     4  11  22  38  60  86 120 158 199 250 306 365
#     4  10  21  38  59  86 118 154 201 250 302 364
#     4  11  22  38  60  86 120 158 199 250 306 365
#
# _framework density 20.108803999999999
#
# number of rings (size 3 to 8) (size 9 to 14) (size 15 to 20)
#    0.000    2.000    0.000    5.250    0.000    6.000 
#    0.000    7.500    0.000    0.000    0.000    0.000 
#    0.000    0.000    0.000    0.000    0.000    0.000 
#
# Total GULP energy -89118.378860 kJ/mol
# GULP energy per Si atom -5569.898679 kJ/mol
# Density = 2.006304 g / cm^3
# Si number density = 20.108804 Si / 1000 Ang^3
#
#
#
# Elastic Constant Matrix: (Units=GPa)
#
#
# Indices 1 2 3 4 5 6 
#
# 1 97.1970 64.5069 44.3468 -0.0307 12.0450 -5.4241
# 2 64.5069 98.7822 65.5327 1.7474 -11.1372 -4.7522
# 3 44.3468 65.5327 102.9847 -13.8435 -1.6074 -0.2917
# 4 -0.0307 1.7474 -13.8435 20.1688 -0.3299 3.0264
# 5 12.0450 -11.1372 -1.6074 -0.3299 38.7051 4.8835
# 6 -5.4241 -4.7522 -0.2917 3.0264 4.8835 29.2069
#
#
#
# Elastic Compliance Matrix: (Units=1/GPa)
#
#
# Indices 1 2 3 4 5 6 
#
# 1 0.022570 -0.016460 0.000744 0.001259 -0.012150 0.003422
# 2 -0.016460 0.033008 -0.015513 -0.013499 0.013701 0.001267
# 3 0.000744 -0.015513 0.021418 0.016494 -0.003244 -0.003339
# 4 0.001259 -0.013499 0.016494 0.063243 -0.002041 -0.008010
# 5 -0.012150 0.013701 -0.003244 -0.002041 0.034108 -0.005551
# 6 0.003422 0.001267 -0.003339 -0.008010 -0.005551 0.036805
#
#
# Mechanical properties :
#
#
# Convention : Reuss Voigt Hill
#
# Bulk Modulus (GPa) = 68.78280 71.97076 70.37678
# Shear Modulus (GPa) = 17.95614 25.92132 21.93873
#
# Velocity S-wave (km/s) = 2.99147 3.59423 3.30661
# Velocity P-wave (km/s) = 6.79790 7.28650 7.04643
#
# Compressibility (1/GPa) = 0.01453852
#
# Stress axis : x y z
#
# Youngs Moduli (GPa) = 44.30711 30.29550 46.68869
#
# Poissons Ratio (x) = 0.49866 -0.03476
# Poissons Ratio (y) = 0.72929 0.72430
# Poissons Ratio (z) = -0.03299 0.46999
#
# Static dielectric constant tensor:
#      x y z
#    x 1.725380 -0.013250 -0.064160 
#    y -0.013250 1.757890 0.004580 
#    z -0.064160 0.004580 1.768910 
# 
# From -- ./inp_files/53321.got.cif
#   From: 2010.05.17/outbox.cif.g08.bks.cpg/sg2_27_cif.got.tgz:53321.got - 2010.06.03 11:33:40.
