data_PCOD9004369
_publ_section_title
;
Structure prediction by ZEFSAII (Michael W. Deem and Ramdas Pophale) SiO2 
 PCOD9004369
Probable space group: P -1
;
_chemical_formula_sum "Si O2"
_cell_formula_units_Z 16
_cell_length_a 23.706216
_cell_length_b 14.654974
_cell_length_c 10.227327
_cell_angle_alpha 35.145380
_cell_angle_beta 47.510438
_cell_angle_gamma 24.369353
_cell_volume 807.140388
_symmetry_space_group_name_H-M "P -1"
_symmetry_group_IT_number 2
_symmetry_cell_setting 'triclinic'
loop_
_space_group_symop_operation_xyz
x,y,z
-x,-y,-z
loop_
_atom_site_type_symbol
_atom_site_label
_atom_site_fract_x
_atom_site_fract_y
_atom_site_fract_z
Si Si1 0.341681 0.189071 0.727214
Si Si2 0.054437 0.151865 0.816304
Si Si3 0.630091 0.372038 0.504549
Si Si4 0.358107 0.398634 0.976962
Si Si5 0.475317 0.881863 0.341980
Si Si6 0.814782 0.775706 0.602641
Si Si7 0.824159 0.385030 0.743677
Si Si8 0.159033 0.261537 0.078708
O O1 0.404930 0.250650 0.596844
O O2 0.273140 0.336437 0.521720
O O3 0.487426 0.831703 0.930647
O O4 0.225504 0.308435 0.862466
O O5 0.940381 0.437500 0.754250
O O6 0.964533 0.235736 0.738456
O O7 0.156236 0.107841 0.649403
O O8 0.132422 0.861850 0.094736
O O9 0.500000 0.500000 0.500000
O O10 0.557919 0.626605 0.412460
O O11 0.257923 0.945771 0.240083
O O12 0.700619 0.350714 0.302925
O O13 0.257824 0.512272 0.114510
O O14 0.395195 0.186848 0.069436
O O15 0.340072 0.016712 0.443359
O O16 0.822460 0.771188 0.754046
O O17 0.000000 0.500000 0.000000
#
# Coordination Sequence:
#
# PCOD9004369 Si02
#       8
#     2   2   2   2   2   2   2   2
#     4  10  23  40  61  89 130 157 200 267 307 364
#     4  10  23  37  64  88 123 167 207 251 307 380
#     4  12  21  40  68  93 119 158 219 255 298 378
#     4  10  21  37  66  90 118 162 203 258 304 360
#     4  10  22  38  64  93 117 162 209 252 313 359
#     4  11  21  42  61  88 126 160 210 260 306 362
#     4  11  21  40  60  92 121 165 210 244 315 372
#     4  12  26  42  63  94 127 165 202 262 319 361
#
# _framework density 19.823069
#
# number of rings (size 3 to 8) (size 9 to 14) (size 15 to 20)
#    0.750    0.500    3.750    2.250    1.750    2.000 
#    0.000    1.875    0.000    0.000    0.000    0.000 
#    0.000    0.000    0.000    0.000    0.000    0.000 
#
# Total GULP energy -89153.855089 kJ/mol
# GULP energy per Si atom -5572.115943 kJ/mol
# Density = 1.977795 g / cm^3
# Si number density = 19.823069 Si / 1000 Ang^3
#
#
#
# Elastic Constant Matrix: (Units=GPa)
#
#
# Indices 1 2 3 4 5 6 
#
# 1 52.3482 31.1345 21.8464 2.5972 -11.6268 -9.5653
# 2 31.1345 111.4271 33.4747 12.1790 -9.2845 -19.7132
# 3 21.8464 33.4747 60.5098 9.0048 -14.4138 -8.3438
# 4 2.5972 12.1790 9.0048 33.7414 2.2875 -5.3745
# 5 -11.6268 -9.2845 -14.4138 2.2875 21.3784 -4.7119
# 6 -9.5653 -19.7132 -8.3438 -5.3745 -4.7119 45.5231
#
#
#
# Elastic Compliance Matrix: (Units=1/GPa)
#
#
# Indices 1 2 3 4 5 6 
#
# 1 0.026625 -0.004715 -0.004050 0.000654 0.010508 0.003975
# 2 -0.004715 0.012516 -0.004075 -0.002589 0.001172 0.003498
# 3 -0.004050 -0.004075 0.024710 -0.005318 0.013856 0.002720
# 4 0.000654 -0.002589 -0.005318 0.032633 -0.007602 0.001107
# 5 0.010508 0.001172 0.013856 -0.007602 0.065612 0.011149
# 6 0.003975 0.003498 0.002720 0.001107 0.011149 0.026100
#
#
# Mechanical properties :
#
#
# Convention : Reuss Voigt Hill
#
# Bulk Modulus (GPa) = 26.19869 44.13293 35.16581
# Shear Modulus (GPa) = 22.06534 29.31720 25.69127
#
# Velocity S-wave (km/s) = 3.33996 3.84988 3.60395
# Velocity P-wave (km/s) = 5.30271 6.48643 5.92421
#
# Compressibility (1/GPa) = 0.03816984
#
# Stress axis : x y z
#
# Youngs Moduli (GPa) = 37.55800 79.90050 40.46994
#
# Poissons Ratio (x) = 0.37677 0.16392
# Poissons Ratio (y) = 0.17710 0.16490
# Poissons Ratio (z) = 0.15213 0.32556
#
# Static dielectric constant tensor:
#      x y z
#    x 1.730120 0.007140 -0.033380 
#    y 0.007140 1.730440 0.014860 
#    z -0.033380 0.014860 1.693580 
# 
# From -- ./inp_files/476997.got.cif
#   From: 2010.05.17/outbox.cif.g08.bks.cpg/sg2_239_cif.got.tgz:476997.got - 2010.06.03 11:33:40.
