data_PCOD9004424
_publ_section_title
;
Structure prediction by ZEFSAII (Michael W. Deem and Ramdas Pophale) SiO2 
 PCOD9004424
Probable space group: P -1
;
_chemical_formula_sum "Si O2"
_cell_formula_units_Z 14
_cell_length_a 9.937656
_cell_length_b 10.164881
_cell_length_c 16.240161
_cell_angle_alpha 135.657244
_cell_angle_beta 149.394366
_cell_angle_gamma 58.157911
_cell_volume 565.661799
_symmetry_space_group_name_H-M "P -1"
_symmetry_group_IT_number 2
_symmetry_cell_setting 'triclinic'
loop_
_space_group_symop_operation_xyz
x,y,z
-x,-y,-z
loop_
_atom_site_type_symbol
_atom_site_label
_atom_site_fract_x
_atom_site_fract_y
_atom_site_fract_z
Si Si1 0.575346 0.417933 0.225150
Si Si2 0.956497 0.564974 0.097752
Si Si3 0.687882 0.944717 0.961128
Si Si4 0.918011 0.556015 0.608547
Si Si5 0.768201 0.668417 0.740109
Si Si6 0.094600 0.893585 0.581392
Si Si7 0.195213 0.998281 0.371898
O O1 0.434360 0.221303 0.109429
O O2 0.824675 0.391403 0.291471
O O3 0.669357 0.556408 0.415590
O O4 0.364928 0.475816 0.080015
O O5 0.072632 0.436876 0.162321
O O6 0.098609 0.790153 0.273956
O O7 0.000000 0.500000 0.000000
O O8 0.724874 0.850095 0.849380
O O9 0.403530 0.012714 0.825295
O O10 0.986113 0.016263 0.195308
O O11 0.933900 0.699515 0.756765
O O12 0.890696 0.332780 0.525661
O O13 0.500000 0.500000 0.500000
O O14 0.000000 0.000000 0.500000
O O15 0.878026 0.872261 0.533628
O O16 0.500000 0.000000 0.500000
#
# Coordination Sequence:
#
# PCOD9004424 Si02
#       7
#     2   2   2   2   2   2   2
#     4   9  19  38  61  97 124 159 214 272 325 373
#     4  11  21  39  67  92 126 165 218 267 326 381
#     4  10  22  44  67  94 129 179 217 270 329 393
#     4  10  21  37  66  99 127 165 214 277 321 390
#     4  12  20  38  66  97 126 165 217 271 330 373
#     4  11  23  42  64  93 139 178 214 253 341 403
#     4  11  25  43  68  97 129 177 220 268 322 400
#
# _framework density 24.749770999999999
#
# number of rings (size 3 to 8) (size 9 to 14) (size 15 to 20)
#    0.000    1.429    5.714    1.286    2.000    0.571 
#    2.571    3.571    3.143    0.000    0.000    0.000 
#    0.000    0.000    0.000    0.000    0.000    0.000 
#
# Total GULP energy -78188.094999 kJ/mol
# GULP energy per Si atom -5584.863929 kJ/mol
# Density = 2.469344 g / cm^3
# Si number density = 24.749771 Si / 1000 Ang^3
#
#
#
# Elastic Constant Matrix: (Units=GPa)
#
#
# Indices 1 2 3 4 5 6 
#
# 1 164.8873 33.4594 52.7290 -13.0883 -22.2545 -19.1894
# 2 33.4594 76.6543 36.0589 -13.7979 0.8131 -1.1739
# 3 52.7290 36.0589 141.0683 -39.1039 8.5540 -7.1128
# 4 -13.0883 -13.7979 -39.1039 48.6729 -7.7365 -3.7406
# 5 -22.2545 0.8131 8.5540 -7.7365 34.8659 -4.3203
# 6 -19.1894 -1.1739 -7.1128 -3.7406 -4.3203 40.8603
#
#
#
# Elastic Compliance Matrix: (Units=1/GPa)
#
#
# Indices 1 2 3 4 5 6 
#
# 1 0.009017 -0.002505 -0.002634 0.001106 0.007272 0.004574
# 2 -0.002505 0.015633 -0.002682 0.001328 -0.001159 -0.001195
# 3 -0.002634 -0.002682 0.010887 0.006931 -0.002636 0.000937
# 4 0.001106 0.001328 0.006931 0.028094 0.005822 0.004952
# 5 0.007272 -0.001159 -0.002636 0.005822 0.036191 0.007283
# 6 0.004574 -0.001195 0.000937 0.004952 0.007283 0.027974
#
#
# Mechanical properties :
#
#
# Convention : Reuss Voigt Hill
#
# Bulk Modulus (GPa) = 50.25990 69.67827 59.96909
# Shear Modulus (GPa) = 33.31779 42.23730 37.77754
#
# Velocity S-wave (km/s) = 3.67302 4.13555 3.91113
# Velocity P-wave (km/s) = 6.19188 7.14268 6.68421
#
# Compressibility (1/GPa) = 0.01989658
#
# Stress axis : x y z
#
# Youngs Moduli (GPa) = 110.90128 63.96528 91.85105
#
# Poissons Ratio (x) = 0.16023 0.24192
# Poissons Ratio (y) = 0.27780 0.24633
# Poissons Ratio (z) = 0.29210 0.17154
#
# Static dielectric constant tensor:
#      x y z
#    x 2.047410 -0.070170 -0.007590 
#    y -0.070170 1.924010 0.048470 
#    z -0.007590 0.048470 2.209540 
# 
# From -- ./inp_files/500923.got.cif
#   From: 2010.05.17/outbox.cif.g08.bks.cpg/sg2_251_cif.got.tgz:500923.got - 2010.06.03 11:33:40.
