data_PCOD9004705
_publ_section_title
;
Structure prediction by ZEFSAII (Michael W. Deem and Ramdas Pophale) SiO2 
 PCOD9004705
Probable space group: P -1
;
_chemical_formula_sum "Si O2"
_cell_formula_units_Z 12
_cell_length_a 16.937077
_cell_length_b 5.053293
_cell_length_c 6.599639
_cell_angle_alpha 49.129748
_cell_angle_beta 77.582947
_cell_angle_gamma 75.161589
_cell_volume 412.020745
_symmetry_space_group_name_H-M "P -1"
_symmetry_group_IT_number 2
_symmetry_cell_setting 'triclinic'
loop_
_space_group_symop_operation_xyz
x,y,z
-x,-y,-z
loop_
_atom_site_type_symbol
_atom_site_label
_atom_site_fract_x
_atom_site_fract_y
_atom_site_fract_z
Si Si1 0.684816 0.582718 0.250066
Si Si2 0.186964 0.425809 0.334603
Si Si3 0.481977 0.424144 0.781686
Si Si4 0.017396 0.391958 0.310961
Si Si5 0.649349 0.427708 0.809653
Si Si6 0.848200 0.758226 0.100886
O O1 0.616300 0.458848 0.202210
O O2 0.670259 0.436301 0.552976
O O3 0.781805 0.513343 0.188746
O O4 0.663654 0.011088 0.062706
O O5 0.114511 0.384284 0.239537
O O6 0.281890 0.351092 0.254291
O O7 0.172212 0.231707 0.649157
O O8 0.171985 0.847937 0.170812
O O9 0.500000 0.500000 0.500000
O O10 0.552251 0.581862 0.790025
O O11 0.500000 0.000000 0.000000
O O12 0.000000 0.500000 0.500000
O O13 0.945914 0.636226 0.104791
O O14 0.000000 0.000000 0.500000
#
# Coordination Sequence:
#
# PCOD9004705 Si02
#       6
#     2   2   2   2   2   2
#     4   8  13  21  36  58  89 124 162 204 251 302
#     4   9  17  31  49  72 101 136 174 217 264 316
#     4   8  12  18  30  54  85 120 158 200 246 298
#     4  10  21  38  58  82 110 144 182 226 274 326
#     4   8  13  21  36  58  89 124 162 204 251 302
#     4   9  17  31  49  72 101 136 174 217 264 316
#
# _framework density 29.124742999999999
#
# number of rings (size 3 to 8) (size 9 to 14) (size 15 to 20)
#    0.000    3.333    0.000    0.500    0.000    0.000 
#    0.000   13.333    0.000    0.000    0.000    1.167 
#    0.000    0.000    0.000  147.667    0.000    8.667 
#
# Total GULP energy -67249.368278 kJ/mol
# GULP energy per Si atom -5604.114023 kJ/mol
# Density = 2.905845 g / cm^3
# Si number density = 29.124743 Si / 1000 Ang^3
#
#
#
# Elastic Constant Matrix: (Units=GPa)
#
#
# Indices 1 2 3 4 5 6 
#
# 1 329.5957 51.9757 10.9132 19.4739 -18.3976 31.0040
# 2 51.9757 96.4898 20.4255 -15.2624 -3.1668 10.5192
# 3 10.9132 20.4255 148.9592 -8.1407 12.6073 -16.8522
# 4 19.4739 -15.2624 -8.1407 28.0083 6.2406 1.6214
# 5 -18.3976 -3.1668 12.6073 6.2406 58.7088 25.7835
# 6 31.0040 10.5192 -16.8522 1.6214 25.7835 63.3561
#
#
#
# Elastic Compliance Matrix: (Units=1/GPa)
#
#
# Indices 1 2 3 4 5 6 
#
# 1 0.004224 -0.002446 -0.000880 -0.005077 0.003282 -0.003101
# 2 -0.002446 0.013547 -0.001395 0.008759 0.000068 -0.001675
# 3 -0.000880 -0.001395 0.008002 0.002886 -0.004346 0.004486
# 4 -0.005077 0.008759 0.002886 0.046497 -0.008460 0.004051
# 5 0.003282 0.000068 -0.004346 -0.008460 0.025596 -0.012973
# 6 -0.003101 -0.001675 0.004486 0.004051 -0.012973 0.023948
#
#
# Mechanical properties :
#
#
# Convention : Reuss Voigt Hill
#
# Bulk Modulus (GPa) = 61.23548 82.40816 71.82182
# Shear Modulus (GPa) = 36.57652 62.79667 49.68659
#
# Velocity S-wave (km/s) = 3.54765 4.64845 4.13485
# Velocity P-wave (km/s) = 6.15240 7.56089 6.89272
#
# Compressibility (1/GPa) = 0.01633040
#
# Stress axis : x y z
#
# Youngs Moduli (GPa) = 236.75453 73.81587 124.96792
#
# Poissons Ratio (x) = 0.18058 0.10998
# Poissons Ratio (y) = 0.57917 0.17433
# Poissons Ratio (z) = 0.20836 0.10297
#
# Static dielectric constant tensor:
#      x y z
#    x 2.456530 0.022740 0.023170 
#    y 0.022740 2.156780 0.153440 
#    z 0.023170 0.153440 2.169790 
# 
# From -- ./inp_files/13412.got.cif
#   From: 2010.05.17/outbox.cif.g08.bks.cpg/sg2_7_cif.got.tgz:13412.got - 2010.06.03 11:33:40.
