data_PCOD9004409
_publ_section_title
;
Structure prediction by ZEFSAII (Michael W. Deem and Ramdas Pophale) SiO2 
 PCOD9004409
Probable space group: P -1
;
_chemical_formula_sum "Si O2"
_cell_formula_units_Z 16
_cell_length_a 11.749770
_cell_length_b 10.101289
_cell_length_c 10.644057
_cell_angle_alpha 54.149739
_cell_angle_beta 44.353966
_cell_angle_gamma 62.205266
_cell_volume 713.333413
_symmetry_space_group_name_H-M "P -1"
_symmetry_group_IT_number 2
_symmetry_cell_setting 'triclinic'
loop_
_space_group_symop_operation_xyz
x,y,z
-x,-y,-z
loop_
_atom_site_type_symbol
_atom_site_label
_atom_site_fract_x
_atom_site_fract_y
_atom_site_fract_z
Si Si1 0.336379 0.846363 0.564639
Si Si2 0.157239 0.920868 0.254497
Si Si3 0.236633 0.363407 0.132692
Si Si4 0.937139 0.248747 0.330873
Si Si5 0.079444 0.092915 0.774472
Si Si6 0.500424 0.890511 0.874750
Si Si7 0.473315 0.646627 0.793398
Si Si8 0.169066 0.395405 0.445919
O O1 0.209821 0.731370 0.662893
O O2 0.455391 0.748341 0.622368
O O3 0.224313 0.976157 0.664421
O O4 0.423275 0.952348 0.333343
O O5 0.144228 0.794330 0.448650
O O6 0.061544 0.866654 0.238382
O O7 0.338411 0.937710 0.054605
O O8 0.053547 0.087573 0.287182
O O9 0.371656 0.215573 0.077529
O O10 0.190276 0.309265 0.340431
O O11 0.070539 0.378280 0.176188
O O12 0.327559 0.528234 0.977616
O O13 0.147494 0.267832 0.645941
O O14 0.000000 0.000000 0.000000
O O15 0.464718 0.771021 0.850077
O O16 0.650961 0.542583 0.713167
O O17 0.000000 0.500000 0.500000
#
# Coordination Sequence:
#
# PCOD9004409 Si02
#       8
#     2   2   2   2   2   2   2   2
#     4  11  23  42  64  94 134 168 212 276 317 375
#     4  10  21  37  66  96 125 167 219 267 315 376
#     4  11  23  41  63  92 129 176 217 260 314 389
#     4  10  22  42  61  93 131 173 222 256 312 388
#     4  11  22  37  64 100 127 164 207 273 330 372
#     4  11  21  39  68  97 123 165 219 274 325 375
#     4  11  25  40  64  98 135 167 207 271 332 377
#     4  11  24  41  63  95 131 169 213 261 326 396
#
# _framework density 22.429904000000001
#
# number of rings (size 3 to 8) (size 9 to 14) (size 15 to 20)
#    0.000    1.250    3.750    4.125    7.000    2.500 
#    0.000    0.000    0.000    3.750    0.000    0.000 
#    0.000    0.000    0.000    0.000    0.000    0.000 
#
# Total GULP energy -89353.823131 kJ/mol
# GULP energy per Si atom -5584.613946 kJ/mol
# Density = 2.237885 g / cm^3
# Si number density = 22.429904 Si / 1000 Ang^3
#
#
#
# Elastic Constant Matrix: (Units=GPa)
#
#
# Indices 1 2 3 4 5 6 
#
# 1 118.1514 31.4823 34.5112 -2.1223 -26.2001 -3.6332
# 2 31.4823 38.4805 35.1641 9.0135 -9.8777 -8.8836
# 3 34.5112 35.1641 141.6171 7.8693 -25.3864 4.8515
# 4 -2.1223 9.0135 7.8693 41.5588 -0.4958 -11.0747
# 5 -26.2001 -9.8777 -25.3864 -0.4958 36.1906 -3.0760
# 6 -3.6332 -8.8836 4.8515 -11.0747 -3.0760 27.7536
#
#
#
# Elastic Compliance Matrix: (Units=1/GPa)
#
#
# Indices 1 2 3 4 5 6 
#
# 1 0.012395 -0.009237 0.000312 0.002783 0.006749 0.000470
# 2 -0.009237 0.046538 -0.009380 -0.005242 0.000493 0.013290
# 3 0.000312 -0.009380 0.010346 -0.001111 0.004507 -0.004714
# 4 0.002783 -0.005242 -0.001111 0.028308 0.001068 0.010295
# 5 0.006749 0.000493 0.004507 0.001068 0.036227 0.004695
# 6 0.000470 0.013290 -0.004714 0.010295 0.004695 0.045799
#
#
# Mechanical properties :
#
#
# Convention : Reuss Voigt Hill
#
# Bulk Modulus (GPa) = 30.61039 55.61824 43.11431
# Shear Modulus (GPa) = 22.01553 34.24002 28.12778
#
# Velocity S-wave (km/s) = 3.13633 3.91133 3.54507
# Velocity P-wave (km/s) = 5.17612 6.72668 6.00169
#
# Compressibility (1/GPa) = 0.03266865
#
# Stress axis : x y z
#
# Youngs Moduli (GPa) = 80.67891 21.48766 96.65977
#
# Poissons Ratio (x) = 0.19848 -0.03017
# Poissons Ratio (y) = 0.74521 0.90671
# Poissons Ratio (z) = -0.02518 0.20156
#
# Static dielectric constant tensor:
#      x y z
#    x 1.882940 0.029310 -0.056590 
#    y 0.029310 1.907080 -0.019390 
#    z -0.056590 -0.019390 1.835460 
# 
# From -- ./inp_files/427502.got.cif
#   From: 2010.05.17/outbox.cif.g08.bks.cpg/sg2_214_cif.got.tgz:427502.got - 2010.06.03 11:33:40.
