data_PCOD9004206
_publ_section_title
;
Structure prediction by ZEFSAII (Michael W. Deem and Ramdas Pophale) SiO2 
 PCOD9004206
Probable space group: P -1
;
_chemical_formula_sum "Si O2"
_cell_formula_units_Z 16
_cell_length_a 13.598835
_cell_length_b 10.665605
_cell_length_c 13.255299
_cell_angle_alpha 143.108173
_cell_angle_beta 123.639527
_cell_angle_gamma 33.315643
_cell_volume 594.543785
_symmetry_space_group_name_H-M "P -1"
_symmetry_group_IT_number 2
_symmetry_cell_setting 'triclinic'
loop_
_space_group_symop_operation_xyz
x,y,z
-x,-y,-z
loop_
_atom_site_type_symbol
_atom_site_label
_atom_site_fract_x
_atom_site_fract_y
_atom_site_fract_z
Si Si1 0.628317 0.006732 0.535940
Si Si2 0.960801 0.092613 0.920491
Si Si3 0.675902 0.013658 0.070747
Si Si4 0.092779 0.384819 0.737359
Si Si5 0.976118 0.774955 0.573311
Si Si6 0.281309 0.781427 0.592459
Si Si7 0.529786 0.544166 0.933204
Si Si8 0.241811 0.558117 0.253097
O O1 0.260918 0.643749 0.061956
O O2 0.513199 0.376378 0.735341
O O3 0.500000 0.000000 0.500000
O O4 0.713020 0.841096 0.365997
O O5 0.988405 0.298084 0.053434
O O6 0.079812 0.761346 0.709311
O O7 0.000000 0.000000 0.000000
O O8 0.794219 0.635777 0.913346
O O9 0.744949 0.119453 0.242496
O O10 0.622189 0.094613 0.973494
O O11 0.463766 0.275848 0.167706
O O12 0.951885 0.477677 0.634856
O O13 0.163667 0.121769 0.687630
O O14 0.826160 0.826615 0.578618
O O15 0.870894 0.108789 0.662399
O O16 0.500000 0.500000 0.500000
O O17 0.219281 0.653956 0.419791
O O18 0.500000 0.500000 0.000000
#
# Coordination Sequence:
#
# PCOD9004206 Si02
#       8
#     2   2   2   2   2   2   2   2
#     4   9  16  31  47  68 103 147 173 199 261 324
#     4  11  21  34  53  75 103 148 187 215 257 314
#     4  10  17  28  47  71 103 135 161 209 271 313
#     4   9  18  31  49  73 107 137 171 222 270 304
#     4   8  17  32  46  74 107 127 178 219 262 305
#     4   9  16  25  46  73 100 130 162 212 271 322
#     4  11  22  37  50  77 115 143 176 218 262 324
#     4   9  15  28  47  72 105 129 160 217 271 312
#
# _framework density 26.911390999999998
#
# number of rings (size 3 to 8) (size 9 to 14) (size 15 to 20)
#    0.750    1.750    2.500    2.250    3.500    0.500 
#    2.250    0.000    0.000    0.000    0.000    3.500 
#    0.000    4.000    0.000    0.375    0.000    0.000 
#
# Total GULP energy -89209.358592 kJ/mol
# GULP energy per Si atom -5575.584912 kJ/mol
# Density = 2.685014 g / cm^3
# Si number density = 26.911391 Si / 1000 Ang^3
#
#
#
# Elastic Constant Matrix: (Units=GPa)
#
#
# Indices 1 2 3 4 5 6 
#
# 1 108.0853 32.9740 50.6206 -0.9436 -4.1677 -8.9958
# 2 32.9740 106.5596 50.6655 -28.0860 -2.8432 4.2607
# 3 50.6206 50.6655 195.5457 -28.4575 18.7370 -0.2398
# 4 -0.9436 -28.0860 -28.4575 44.2890 -1.7435 -5.2881
# 5 -4.1677 -2.8432 18.7370 -1.7435 49.7975 2.1761
# 6 -8.9958 4.2607 -0.2398 -5.2881 2.1761 31.3601
#
#
#
# Elastic Compliance Matrix: (Units=1/GPa)
#
#
# Indices 1 2 3 4 5 6 
#
# 1 0.011876 -0.003245 -0.002851 -0.003193 0.001631 0.003174
# 2 -0.003245 0.013149 -0.001680 0.007050 0.001430 -0.001640
# 3 -0.002851 -0.001680 0.007046 0.003314 -0.002879 0.000223
# 4 -0.003193 0.007050 0.003314 0.029478 -0.000217 0.003137
# 5 0.001631 0.001430 -0.002879 -0.000217 0.021431 -0.001272
# 6 0.003174 -0.001640 0.000223 0.003137 -0.001272 0.033640
#
#
# Mechanical properties :
#
#
# Convention : Reuss Voigt Hill
#
# Bulk Modulus (GPa) = 60.53122 75.41232 67.97177
# Shear Modulus (GPa) = 36.31694 43.48466 39.90080
#
# Velocity S-wave (km/s) = 3.67754 4.02412 3.85473
# Velocity P-wave (km/s) = 6.36977 7.04803 6.71747
#
# Compressibility (1/GPa) = 0.01652040
#
# Stress axis : x y z
#
# Youngs Moduli (GPa) = 84.20296 76.05000 141.93183
#
# Poissons Ratio (x) = 0.24675 0.40461
# Poissons Ratio (y) = 0.27320 0.23845
# Poissons Ratio (z) = 0.24004 0.12777
#
# Static dielectric constant tensor:
#      x y z
#    x 2.239150 -0.009300 -0.080500 
#    y -0.009300 2.139140 0.054130 
#    z -0.080500 0.054130 2.226660 
# 
# From -- ./inp_files/464909.got.cif
#   From: 2010.05.17/outbox.cif.g08.bks.cpg/sg2_233_cif.got.tgz:464909.got - 2010.06.03 11:33:40.
