data_PCOD9004002
_publ_section_title
;
Structure prediction by ZEFSAII (Michael W. Deem and Ramdas Pophale) SiO2 
 PCOD9004002
Probable space group: P -1
;
_chemical_formula_sum "Si O2"
_cell_formula_units_Z 16
_cell_length_a 8.817976
_cell_length_b 8.571537
_cell_length_c 14.981273
_cell_angle_alpha 46.117882
_cell_angle_beta 100.531138
_cell_angle_gamma 70.128660
_cell_volume 603.904212
_symmetry_space_group_name_H-M "P -1"
_symmetry_group_IT_number 2
_symmetry_cell_setting 'triclinic'
loop_
_space_group_symop_operation_xyz
x,y,z
-x,-y,-z
loop_
_atom_site_type_symbol
_atom_site_label
_atom_site_fract_x
_atom_site_fract_y
_atom_site_fract_z
Si Si1 0.138682 0.582228 0.490466
Si Si2 0.811698 0.465857 0.275048
Si Si3 0.684462 0.498426 0.636609
Si Si4 0.128576 0.123389 0.929141
Si Si5 0.023945 0.176804 0.237888
Si Si6 0.462975 0.440708 0.228492
Si Si7 0.581288 0.665677 0.919948
Si Si8 0.696979 0.990607 0.820547
O O1 0.167646 0.583718 0.598320
O O2 0.304131 0.410087 0.495995
O O3 0.000000 0.500000 0.500000
O O4 0.036693 0.908426 0.327384
O O5 0.758668 0.765799 0.136516
O O6 0.000562 0.250506 0.311432
O O7 0.645792 0.442578 0.237947
O O8 0.538931 0.689390 0.627864
O O9 0.914076 0.309328 0.779488
O O10 0.617738 0.309068 0.691808
O O11 0.130052 0.161355 0.021462
O O12 0.262167 0.783756 0.063521
O O13 0.204609 0.117240 0.224022
O O14 0.816708 0.442278 0.062672
O O15 0.464202 0.281247 0.209744
O O16 0.534332 0.949974 0.839882
O O17 0.500000 0.500000 0.000000
#
# Coordination Sequence:
#
# PCOD9004002 Si02
#       8
#     2   2   2   2   2   2   2   2
#     4  11  24  44  65  87 115 171 223 252 292 362
#     4  12  24  39  62  90 130 164 202 259 312 359
#     4  10  22  42  65  90 122 167 213 250 300 371
#     4  11  20  40  64  94 124 164 202 254 313 371
#     4  11  23  41  63  91 125 162 210 254 303 372
#     4  11  23  38  60  95 130 155 201 258 317 372
#     4  12  22  37  62  99 131 153 192 255 329 372
#     4  10  21  37  63  93 124 157 200 251 310 370
#
# _framework density 26.494268000000002
#
# number of rings (size 3 to 8) (size 9 to 14) (size 15 to 20)
#    0.000    1.000    3.750    4.875    1.750    1.500 
#    0.000    0.000    0.000    3.750    0.000    0.000 
#    0.000    0.000    0.000    0.000    0.000    0.000 
#
# Total GULP energy -89429.507230 kJ/mol
# GULP energy per Si atom -5589.344202 kJ/mol
# Density = 2.643397 g / cm^3
# Si number density = 26.494268 Si / 1000 Ang^3
#
#
#
# Elastic Constant Matrix: (Units=GPa)
#
#
# Indices 1 2 3 4 5 6 
#
# 1 124.6680 64.7411 28.3658 16.9694 -24.2952 23.2422
# 2 64.7411 118.8085 40.9836 34.7605 -12.4911 14.6386
# 3 28.3658 40.9836 88.4568 25.1891 -25.8253 -0.1234
# 4 16.9694 34.7605 25.1891 54.7204 1.1349 -13.5706
# 5 -24.2952 -12.4911 -25.8253 1.1349 47.2809 4.1770
# 6 23.2422 14.6386 -0.1234 -13.5706 4.1770 60.5802
#
#
#
# Elastic Compliance Matrix: (Units=1/GPa)
#
#
# Indices 1 2 3 4 5 6 
#
# 1 0.013067 -0.005554 0.000775 -0.002142 0.006126 -0.004572
# 2 -0.005554 0.014973 -0.003210 -0.007067 -0.000211 -0.003062
# 3 0.000775 -0.003210 0.017133 -0.006680 0.009212 -0.001618
# 4 -0.002142 -0.007067 -0.006680 0.029050 -0.008161 0.009586
# 5 0.006126 -0.000211 0.009212 -0.008161 0.030015 -0.006178
# 6 -0.004572 -0.003062 -0.001618 0.009586 -0.006178 0.021571
#
#
# Mechanical properties :
#
#
# Convention : Reuss Voigt Hill
#
# Bulk Modulus (GPa) = 34.25193 66.67939 50.46566
# Shear Modulus (GPa) = 32.99931 45.70582 39.35256
#
# Velocity S-wave (km/s) = 3.53303 4.15796 3.85817
# Velocity P-wave (km/s) = 5.44051 6.94793 6.23991
#
# Compressibility (1/GPa) = 0.02919544
#
# Stress axis : x y z
#
# Youngs Moduli (GPa) = 76.53080 66.78598 58.36621
#
# Poissons Ratio (x) = 0.37091 -0.04523
# Poissons Ratio (y) = 0.42502 0.18736
# Poissons Ratio (z) = -0.05930 0.21438
#
# Static dielectric constant tensor:
#      x y z
#    x 2.072310 -0.055160 -0.011260 
#    y -0.055160 2.105500 -0.047470 
#    z -0.011260 -0.047470 2.149660 
# 
# From -- ./inp_files/224260.got.cif
#   From: 2010.05.17/outbox.cif.g08.bks.cpg/sg2_113_cif.got.tgz:224260.got - 2010.06.03 11:33:40.
