data_PCOD9004513
_publ_section_title
;
Structure prediction by ZEFSAII (Michael W. Deem and Ramdas Pophale) SiO2 
 PCOD9004513
Probable space group: P -1
;
_chemical_formula_sum "Si O2"
_cell_formula_units_Z 16
_cell_length_a 9.197974
_cell_length_b 12.250251
_cell_length_c 7.710031
_cell_angle_alpha 116.649507
_cell_angle_beta 66.564108
_cell_angle_gamma 127.116309
_cell_volume 609.237109
_symmetry_space_group_name_H-M "P -1"
_symmetry_group_IT_number 2
_symmetry_cell_setting 'triclinic'
loop_
_space_group_symop_operation_xyz
x,y,z
-x,-y,-z
loop_
_atom_site_type_symbol
_atom_site_label
_atom_site_fract_x
_atom_site_fract_y
_atom_site_fract_z
Si Si1 0.229589 0.831287 0.464088
Si Si2 0.548425 0.571443 0.721512
Si Si3 0.061609 0.108254 0.886946
Si Si4 0.279488 0.116240 0.270301
Si Si5 0.112434 0.424807 0.439338
Si Si6 0.799575 0.443703 0.135578
Si Si7 0.779368 0.164007 0.944758
Si Si8 0.584219 0.839300 0.372615
O O1 0.200323 0.827750 0.268420
O O2 0.368907 0.773242 0.389904
O O3 0.042118 0.741284 0.594524
O O4 0.328092 0.993360 0.595260
O O5 0.500000 0.500000 0.500000
O O6 0.662454 0.741664 0.758630
O O7 0.694086 0.535955 0.710885
O O8 0.356493 0.539094 0.874251
O O9 0.280820 0.197483 0.819395
O O10 0.972601 0.207042 0.978750
O O11 0.944130 0.991560 0.705831
O O12 0.000000 0.000000 0.000000
O O13 0.371039 0.163716 0.448954
O O14 0.334147 0.006042 0.082375
O O15 0.162430 0.469040 0.646287
O O16 0.000000 0.500000 0.500000
O O17 0.720562 0.276880 0.099279
O O18 0.000000 0.500000 0.000000
#
# Coordination Sequence:
#
# PCOD9004513 Si02
#       8
#     2   2   2   2   2   2   2   2
#     4  10  21  40  64  95 131 170 231 274 330 403
#     4  10  24  41  69  97 133 175 226 276 340 401
#     4  10  22  39  61  99 137 166 220 282 338 401
#     4   9  21  40  67  98 129 176 226 275 340 401
#     4  11  25  44  67  99 135 177 230 281 332 401
#     4  11  23  45  68  96 136 180 226 272 343 414
#     4   9  22  41  66  96 130 183 210 280 341 395
#     4  10  21  37  68  96 127 175 223 278 334 400
#
# _framework density 26.262353999999998
#
# number of rings (size 3 to 8) (size 9 to 14) (size 15 to 20)
#    0.750    1.250    1.250    1.125    5.250    3.500 
#    4.500    0.625    0.000    0.000    0.000    0.000 
#    0.000    0.000    0.000    0.000    0.000    0.000 
#
# Total GULP energy -89360.813073 kJ/mol
# GULP energy per Si atom -5585.050817 kJ/mol
# Density = 2.620258 g / cm^3
# Si number density = 26.262354 Si / 1000 Ang^3
#
#
#
# Elastic Constant Matrix: (Units=GPa)
#
#
# Indices 1 2 3 4 5 6 
#
# 1 212.7201 21.3848 50.6906 -24.2636 -44.1290 0.5896
# 2 21.3848 85.3732 8.6109 17.6484 -14.0537 4.0340
# 3 50.6906 8.6109 68.2721 -6.8400 -13.1956 10.1006
# 4 -24.2636 17.6484 -6.8400 23.7484 0.3027 -8.7099
# 5 -44.1290 -14.0537 -13.1956 0.3027 54.7815 -3.1031
# 6 0.5896 4.0340 10.1006 -8.7099 -3.1031 32.5504
#
#
#
# Elastic Compliance Matrix: (Units=1/GPa)
#
#
# Indices 1 2 3 4 5 6 
#
# 1 0.008553 -0.003583 -0.004501 0.012016 0.005125 0.005390
# 2 -0.003583 0.017063 -0.000133 -0.018950 0.001169 -0.006968
# 3 -0.004501 -0.000133 0.018879 -0.001289 0.000552 -0.006053
# 4 0.012016 -0.018950 -0.001289 0.076669 0.005419 0.023563
# 5 0.005125 0.001169 0.000552 0.005419 0.022969 0.003231
# 6 0.005390 -0.006968 -0.006053 0.023563 0.003231 0.039979
#
#
# Mechanical properties :
#
#
# Convention : Reuss Voigt Hill
#
# Bulk Modulus (GPa) = 35.63895 58.63757 47.13826
# Shear Modulus (GPa) = 23.82074 41.26131 32.54103
#
# Velocity S-wave (km/s) = 3.01496 3.96804 3.52387
# Velocity P-wave (km/s) = 5.07147 6.58558 5.87748
#
# Compressibility (1/GPa) = 0.02805919
#
# Stress axis : x y z
#
# Youngs Moduli (GPa) = 116.92135 58.60504 52.96860
#
# Poissons Ratio (x) = 0.21000 0.23843
# Poissons Ratio (y) = 0.41897 0.00707
# Poissons Ratio (z) = 0.52629 0.00782
#
# Static dielectric constant tensor:
#      x y z
#    x 2.196480 0.032280 -0.065520 
#    y 0.032280 2.087000 0.000080 
#    z -0.065520 0.000080 2.094670 
# 
# From -- ./inp_files/203602.got.cif
#   From: 2010.05.17/outbox.cif.g08.bks.cpg/sg2_102_cif.got.tgz:203602.got - 2010.06.03 11:33:40.
