data_PCOD9004629
_publ_section_title
;
Structure prediction by ZEFSAII (Michael W. Deem and Ramdas Pophale) SiO2 
 PCOD9004629
Probable space group: P -1
;
_chemical_formula_sum "Si O2"
_cell_formula_units_Z 16
_cell_length_a 20.486746
_cell_length_b 8.274150
_cell_length_c 5.325825
_cell_angle_alpha 89.783555
_cell_angle_beta 126.734629
_cell_angle_gamma 102.162076
_cell_volume 698.603102
_symmetry_space_group_name_H-M "P -1"
_symmetry_group_IT_number 2
_symmetry_cell_setting 'triclinic'
loop_
_space_group_symop_operation_xyz
x,y,z
-x,-y,-z
loop_
_atom_site_type_symbol
_atom_site_label
_atom_site_fract_x
_atom_site_fract_y
_atom_site_fract_z
Si Si1 0.100587 0.535921 0.685903
Si Si2 0.877679 0.818819 0.371907
Si Si3 0.572329 0.175916 0.166924
Si Si4 0.428715 0.603834 0.336351
Si Si5 0.889990 0.996852 0.900810
Si Si6 0.087480 0.638982 0.155589
Si Si7 0.313746 0.059585 0.568731
Si Si8 0.679218 0.753678 0.915162
O O1 0.117654 0.369960 0.617703
O O2 0.127600 0.671280 0.525286
O O3 0.000000 0.500000 0.500000
O O4 0.138312 0.577198 0.050225
O O5 0.912933 0.916952 0.701143
O O6 0.913893 0.905378 0.196688
O O7 0.779630 0.814064 0.144551
O O8 0.567174 0.283785 0.404822
O O9 0.657331 0.111029 0.362165
O O10 0.567161 0.283806 0.904499
O O11 0.500000 0.000000 0.000000
O O12 0.500000 0.500000 0.500000
O O13 0.346335 0.446902 0.146044
O O14 0.787954 0.974240 0.667114
O O15 0.928751 0.193661 0.991755
O O16 0.000000 0.500000 0.000000
O O17 0.349281 0.167223 0.401443
O O18 0.348485 0.169182 0.895467
#
# Coordination Sequence:
#
# PCOD9004629 Si02
#       8
#     2   2   2   2   2   2   2   2
#     4  10  21  38  56  81 114 147 183 233 287 336
#     4  10  21  38  61  85 113 150 192 236 287 344
#     4  12  24  39  60  87 119 157 195 236 284 338
#     4  12  24  39  60  87 119 157 195 236 284 338
#     4  10  21  38  61  85 113 150 192 236 287 344
#     4  10  21  38  56  81 114 147 183 233 287 336
#     4  10  21  39  60  85 116 150 191 241 288 338
#     4  10  21  39  60  85 116 150 191 241 288 338
#
# _framework density 22.902849
#
# number of rings (size 3 to 8) (size 9 to 14) (size 15 to 20)
#    0.000    1.500    0.000    5.250    0.000    2.000 
#    0.000   15.000    0.000    0.000    0.000    0.000 
#    0.000    0.000    0.000    0.000    0.000    0.000 
#
# Total GULP energy -89468.530786 kJ/mol
# GULP energy per Si atom -5591.783174 kJ/mol
# Density = 2.285072 g / cm^3
# Si number density = 22.902849 Si / 1000 Ang^3
#
#
#
# Elastic Constant Matrix: (Units=GPa)
#
#
# Indices 1 2 3 4 5 6 
#
# 1 37.0323 13.8819 56.0042 1.7120 -28.7169 -10.5553
# 2 13.8819 106.0022 40.8843 -3.6121 -24.7318 1.5840
# 3 56.0042 40.8843 127.1844 -3.7681 -55.6640 3.5333
# 4 1.7120 -3.6121 -3.7681 53.1754 -1.1013 -7.6556
# 5 -28.7169 -24.7318 -55.6640 -1.1013 45.7680 1.0955
# 6 -10.5553 1.5840 3.5333 -7.6556 1.0955 51.0261
#
#
#
# Elastic Compliance Matrix: (Units=1/GPa)
#
#
# Indices 1 2 3 4 5 6 
#
# 1 0.116614 0.006572 -0.044855 -0.002266 0.021484 0.026223
# 2 0.006572 0.011425 -0.004464 0.000534 0.004851 0.001290
# 3 -0.044855 -0.004464 0.034642 0.002192 0.011903 -0.011466
# 4 -0.002266 0.000534 0.002192 0.019433 0.001946 0.002237
# 5 0.021484 0.004851 0.011903 0.001946 0.052412 0.002636
# 6 0.026223 0.001290 -0.011466 0.002237 0.002636 0.026055
#
#
# Mechanical properties :
#
#
# Convention : Reuss Voigt Hill
#
# Bulk Modulus (GPa) = 12.95537 54.63996 33.79766
# Shear Modulus (GPa) = 13.44797 40.62380 27.03589
#
# Velocity S-wave (km/s) = 2.42580 4.21615 3.43951
# Velocity P-wave (km/s) = 3.67627 6.90002 5.52835
#
# Compressibility (1/GPa) = 0.07718805
#
# Stress axis : x y z
#
# Youngs Moduli (GPa) = 8.57532 87.52411 28.86660
#
# Poissons Ratio (x) = -0.57523 1.29481
# Poissons Ratio (y) = -0.05636 0.12886
# Poissons Ratio (z) = 0.38465 0.39069
#
# Static dielectric constant tensor:
#      x y z
#    x 1.904010 0.035830 0.004040 
#    y 0.035830 1.804100 -0.010580 
#    z 0.004040 -0.010580 2.059130 
# 
# From -- ./inp_files/14972.got.cif
#   From: 2010.05.17/outbox.cif.g08.bks.cpg/sg2_8_cif.got.tgz:14972.got - 2010.06.03 11:33:40.
