data_PCOD9004832
_publ_section_title
;
Structure prediction by ZEFSAII (Michael W. Deem and Ramdas Pophale) SiO2 
 PCOD9004832
Probable space group: P -1
;
_chemical_formula_sum "Si O2"
_cell_formula_units_Z 14
_cell_length_a 11.201856
_cell_length_b 23.817649
_cell_length_c 15.537504
_cell_angle_alpha 159.457085
_cell_angle_beta 41.893612
_cell_angle_gamma 148.206776
_cell_volume 736.040997
_symmetry_space_group_name_H-M "P -1"
_symmetry_group_IT_number 2
_symmetry_cell_setting 'triclinic'
loop_
_space_group_symop_operation_xyz
x,y,z
-x,-y,-z
loop_
_atom_site_type_symbol
_atom_site_label
_atom_site_fract_x
_atom_site_fract_y
_atom_site_fract_z
Si Si1 0.906773 0.096613 0.741634
Si Si2 0.358798 0.831990 0.256322
Si Si3 0.669038 0.496766 0.965061
Si Si4 0.182485 0.375542 0.743158
Si Si5 0.710010 0.902861 0.743962
Si Si6 0.220779 0.727078 0.667362
Si Si7 0.422370 0.882909 0.603088
O O1 0.896570 0.044921 0.771609
O O2 0.654065 0.994592 0.696058
O O3 0.000000 0.000000 0.500000
O O4 0.077358 0.341485 0.982432
O O5 0.100045 0.767548 0.296032
O O6 0.500000 0.000000 0.500000
O O7 0.518454 0.937654 0.235650
O O8 0.288364 0.605657 0.984630
O O9 0.592185 0.270552 0.677138
O O10 0.500000 0.500000 0.000000
O O11 0.694319 0.579035 0.164867
O O12 0.245315 0.255147 0.481062
O O13 0.451923 0.777835 0.659679
O O14 0.755791 0.073174 0.029838
O O15 0.227667 0.743724 0.582829
O O16 0.000000 0.500000 0.500000
#
# Coordination Sequence:
#
# PCOD9004832 Si02
#       7
#     2   2   2   2   2   2   2
#     4  11  18  32  53  87 121 143 187 242 309 364
#     4  11  23  40  60  88 123 165 200 245 296 352
#     4  12  20  30  56  92 119 150 185 242 310 363
#     4  11  23  38  59  92 123 154 202 245 299 360
#     4  10  21  38  59  85 121 158 191 252 302 355
#     4  10  22  40  59  87 120 159 200 247 303 356
#     4  11  21  36  57  82 118 159 199 241 297 355
#
# _framework density 19.020679000000001
#
# number of rings (size 3 to 8) (size 9 to 14) (size 15 to 20)
#    0.000    1.143    5.714    1.714    0.000    1.143 
#    0.000    0.714    0.000    1.714    0.000    0.000 
#    0.000    0.000    0.000    0.000    0.000    0.000 
#
# Total GULP energy -77980.757826 kJ/mol
# GULP energy per Si atom -5570.054130 kJ/mol
# Density = 1.897739 g / cm^3
# Si number density = 19.020679 Si / 1000 Ang^3
#
#
#
# Elastic Constant Matrix: (Units=GPa)
#
#
# Indices 1 2 3 4 5 6 
#
# 1 60.4351 22.6772 31.8736 -0.3030 -3.1204 -8.0612
# 2 22.6772 81.6966 24.7746 11.6435 -3.5080 -16.9500
# 3 31.8736 24.7746 101.4614 1.1191 -11.7206 1.7015
# 4 -0.3030 11.6435 1.1191 35.2165 -0.1160 -0.8465
# 5 -3.1204 -3.5080 -11.7206 -0.1160 29.9016 1.0033
# 6 -8.0612 -16.9500 1.7015 -0.8465 1.0033 28.6520
#
#
#
# Elastic Compliance Matrix: (Units=1/GPa)
#
#
# Indices 1 2 3 4 5 6 
#
# 1 0.021654 -0.003491 -0.006123 0.001640 -0.000693 0.004463
# 2 -0.003491 0.016753 -0.003077 -0.005256 0.000074 0.008953
# 3 -0.006123 -0.003077 0.013096 0.000456 0.004284 -0.004457
# 4 0.001640 -0.005256 0.000456 0.030090 -0.000090 -0.001783
# 5 -0.000693 0.000074 0.004284 -0.000090 0.035113 -0.001638
# 6 0.004463 0.008953 -0.004457 -0.001783 -0.001638 0.041723
#
#
# Mechanical properties :
#
#
# Convention : Reuss Voigt Hill
#
# Bulk Modulus (GPa) = 38.28725 44.69380 41.49052
# Shear Modulus (GPa) = 25.97163 29.70520 27.83842
#
# Velocity S-wave (km/s) = 3.69920 3.95616 3.82984
# Velocity P-wave (km/s) = 6.19826 6.66459 6.43565
#
# Compressibility (1/GPa) = 0.02611836
#
# Stress axis : x y z
#
# Youngs Moduli (GPa) = 46.18140 59.69250 76.36188
#
# Poissons Ratio (x) = 0.20841 0.46756
# Poissons Ratio (y) = 0.16124 0.23500
# Poissons Ratio (z) = 0.28277 0.18370
#
# Static dielectric constant tensor:
#      x y z
#    x 1.668470 0.005820 -0.021630 
#    y 0.005820 1.734690 0.027940 
#    z -0.021630 0.027940 1.725990 
# 
# From -- ./inp_files/78200.got.cif
#   From: 2010.05.17/outbox.cif.g08.bks.cpg/sg2_40_cif.got.tgz:78200.got - 2010.06.03 11:33:40.
