data_PCOD9004346
_publ_section_title
;
Structure prediction by ZEFSAII (Michael W. Deem and Ramdas Pophale) SiO2 
 PCOD9004346
Probable space group: P -1
;
_chemical_formula_sum "Si O2"
_cell_formula_units_Z 14
_cell_length_a 15.494799
_cell_length_b 8.650069
_cell_length_c 8.056764
_cell_angle_alpha 92.482422
_cell_angle_beta 82.063491
_cell_angle_gamma 36.030502
_cell_volume 606.437573
_symmetry_space_group_name_H-M "P -1"
_symmetry_group_IT_number 2
_symmetry_cell_setting 'triclinic'
loop_
_space_group_symop_operation_xyz
x,y,z
-x,-y,-z
loop_
_atom_site_type_symbol
_atom_site_label
_atom_site_fract_x
_atom_site_fract_y
_atom_site_fract_z
Si Si1 0.210231 0.369159 0.124720
Si Si2 0.979176 0.197642 0.092785
Si Si3 0.095745 0.214519 0.586072
Si Si4 0.429292 0.182939 0.295706
Si Si5 0.763570 0.004597 0.807974
Si Si6 0.257010 0.291284 0.645074
Si Si7 0.370308 0.620772 0.423176
O O1 0.347850 0.276379 0.145493
O O2 0.273008 0.102115 0.098197
O O3 0.074308 0.578577 0.307993
O O4 0.109565 0.562867 0.002382
O O5 0.862957 0.392582 0.286703
O O6 0.143906 0.021387 0.094110
O O7 0.000000 0.000000 0.000000
O O8 0.117733 0.211175 0.383779
O O9 0.170070 0.253321 0.662445
O O10 0.208872 0.902496 0.564472
O O11 0.350221 0.176714 0.443441
O O12 0.393066 0.407863 0.377974
O O13 0.610941 0.895252 0.257369
O O14 0.634659 0.282195 0.749239
O O15 0.500000 0.500000 0.500000
#
# Coordination Sequence:
#
# PCOD9004346 Si02
#       7
#     2   2   2   2   2   2   2
#     4  12  23  40  66  95 128 176 215 251 332 382
#     4  12  27  42  61  95 137 174 212 262 317 394
#     4  10  21  40  69  96 123 168 216 276 313 372
#     4  11  22  40  68  98 124 169 215 277 318 367
#     4  10  21  40  64  92 126 164 219 264 312 376
#     4  11  23  42  67  95 134 164 218 266 324 381
#     4  10  21  37  66 100 128 155 213 278 323 366
#
# _framework density 23.085642
#
# number of rings (size 3 to 8) (size 9 to 14) (size 15 to 20)
#    0.857    0.286    4.286    2.571    4.000    1.143 
#    0.000    0.000    0.000    2.571    0.000    0.000 
#    0.000    0.000    0.000    0.000    0.000    0.000 
#
# Total GULP energy -78189.703234 kJ/mol
# GULP energy per Si atom -5584.978802 kJ/mol
# Density = 2.303310 g / cm^3
# Si number density = 23.085642 Si / 1000 Ang^3
#
#
#
# Elastic Constant Matrix: (Units=GPa)
#
#
# Indices 1 2 3 4 5 6 
#
# 1 110.0827 51.5471 25.5762 -3.7159 47.9476 -10.1974
# 2 51.5471 127.2570 5.9597 -13.0411 22.8901 -9.1178
# 3 25.5762 5.9597 43.7574 -14.3130 24.0650 -2.1532
# 4 -3.7159 -13.0411 -14.3130 56.0764 -4.1854 13.4104
# 5 47.9476 22.8901 24.0650 -4.1854 48.7452 -7.0029
# 6 -10.1974 -9.1178 -2.1532 13.4104 -7.0029 36.4174
#
#
#
# Elastic Compliance Matrix: (Units=1/GPa)
#
#
# Indices 1 2 3 4 5 6 
#
# 1 0.018299 -0.004798 -0.002780 -0.002107 -0.014298 0.001785
# 2 -0.004798 0.010180 0.003020 0.002689 -0.001300 0.000144
# 3 -0.002780 0.003020 0.035900 0.009555 -0.016239 -0.004541
# 4 -0.002107 0.002689 0.009555 0.022493 -0.003160 -0.008242
# 5 -0.014298 -0.001300 -0.016239 -0.003160 0.043545 0.004248
# 6 0.001785 0.000144 -0.004541 -0.008242 0.004248 0.031579
#
#
# Mechanical properties :
#
#
# Convention : Reuss Voigt Hill
#
# Bulk Modulus (GPa) = 18.09586 49.69589 33.89588
# Shear Modulus (GPa) = 26.38081 41.44876 33.91478
#
# Velocity S-wave (km/s) = 3.38411 4.24185 3.83702
# Velocity P-wave (km/s) = 4.80886 6.75015 5.86045
#
# Compressibility (1/GPa) = 0.05526126
#
# Stress axis : x y z
#
# Youngs Moduli (GPa) = 54.64906 98.23291 27.85548
#
# Poissons Ratio (x) = 0.47133 0.07743
# Poissons Ratio (y) = 0.26221 -0.08411
# Poissons Ratio (z) = 0.15192 -0.29661
#
# Static dielectric constant tensor:
#      x y z
#    x 1.818100 0.000130 -0.045600 
#    y 0.000130 1.916680 -0.035240 
#    z -0.045600 -0.035240 1.989780 
# 
# From -- ./inp_files/299221.got.cif
#   From: 2010.05.17/outbox.cif.g08.bks.cpg/sg2_150_cif.got.tgz:299221.got - 2010.06.03 11:33:40.
