data_PCOD9004173
_publ_section_title
;
Structure prediction by ZEFSAII (Michael W. Deem and Ramdas Pophale) SiO2 
 PCOD9004173
Probable space group: P -1
;
_chemical_formula_sum "Si O2"
_cell_formula_units_Z 16
_cell_length_a 14.394578
_cell_length_b 9.768473
_cell_length_c 7.062119
_cell_angle_alpha 94.888188
_cell_angle_beta 132.985705
_cell_angle_gamma 111.340960
_cell_volume 590.115098
_symmetry_space_group_name_H-M "P -1"
_symmetry_group_IT_number 2
_symmetry_cell_setting 'triclinic'
loop_
_space_group_symop_operation_xyz
x,y,z
-x,-y,-z
loop_
_atom_site_type_symbol
_atom_site_label
_atom_site_fract_x
_atom_site_fract_y
_atom_site_fract_z
Si Si1 0.805598 0.950113 0.570982
Si Si2 0.146931 0.577400 0.431510
Si Si3 0.306763 0.071596 0.188059
Si Si4 0.422668 0.586095 0.984360
Si Si5 0.533976 0.147969 0.198891
Si Si6 0.730430 0.634316 0.919848
Si Si7 0.924626 0.190922 0.433157
Si Si8 0.897179 0.717470 0.791031
O O1 0.809584 0.028512 0.385881
O O2 0.823745 0.795852 0.571160
O O3 0.689803 0.917145 0.578663
O O4 0.969242 0.114782 0.895635
O O5 0.248040 0.525206 0.679230
O O6 0.279449 0.725810 0.500467
O O7 0.091058 0.661162 0.503467
O O8 0.035431 0.395328 0.162236
O O9 0.145787 0.894833 0.877911
O O10 0.307681 0.229492 0.137524
O O11 0.445190 0.087398 0.266378
O O12 0.508329 0.752974 0.991523
O O13 0.396409 0.535149 0.163724
O O14 0.500000 0.500000 0.000000
O O15 0.500000 0.000000 0.000000
O O16 0.897711 0.735722 0.271281
O O17 0.762712 0.602416 0.748456
#
# Coordination Sequence:
#
# PCOD9004173 Si02
#       8
#     2   2   2   2   2   2   2   2
#     4   9  22  38  64  92 125 167 200 258 309 362
#     4  10  23  39  61  88 129 159 201 262 312 362
#     4  11  20  40  66  89 126 163 215 253 304 371
#     4  10  21  39  63  85 116 164 207 250 303 361
#     4  10  21  41  58  86 125 160 206 262 299 368
#     4  10  21  37  64  95 117 162 211 252 311 368
#     4  11  23  39  62  96 128 162 204 256 315 372
#     4   9  20  42  58  91 132 151 208 260 301 375
#
# _framework density 27.113353
#
# number of rings (size 3 to 8) (size 9 to 14) (size 15 to 20)
#    0.750    1.250    2.500    1.125    3.500    2.500 
#    6.750    7.500    0.000    0.000    0.000    0.000 
#    0.000    0.000    0.000    0.000    0.000    0.000 
#
# Total GULP energy -89348.727670 kJ/mol
# GULP energy per Si atom -5584.295479 kJ/mol
# Density = 2.705164 g / cm^3
# Si number density = 27.113353 Si / 1000 Ang^3
#
#
#
# Elastic Constant Matrix: (Units=GPa)
#
#
# Indices 1 2 3 4 5 6 
#
# 1 143.7048 37.7922 13.1027 -17.3967 0.2503 13.0744
# 2 37.7922 139.2739 16.6265 4.5769 -17.3231 17.3213
# 3 13.1027 16.6265 80.4921 7.2802 -12.3308 0.0430
# 4 -17.3967 4.5769 7.2802 31.8625 5.1086 1.7318
# 5 0.2503 -17.3231 -12.3308 5.1086 56.7502 -1.5213
# 6 13.0744 17.3213 0.0430 1.7318 -1.5213 64.2826
#
#
#
# Elastic Compliance Matrix: (Units=1/GPa)
#
#
# Indices 1 2 3 4 5 6 
#
# 1 0.008544 -0.002353 -0.001678 0.005725 -0.001671 -0.001296
# 2 -0.002353 0.008533 -0.000730 -0.002677 0.002652 -0.001685
# 3 -0.001678 -0.000730 0.013744 -0.004503 0.003196 0.000726
# 4 0.005725 -0.002677 -0.004503 0.036839 -0.005179 -0.001555
# 5 -0.001671 0.002652 0.003196 -0.005179 0.019605 0.000226
# 6 -0.001296 -0.001685 0.000726 -0.001555 0.000226 0.016321
#
#
# Mechanical properties :
#
#
# Convention : Reuss Voigt Hill
#
# Bulk Modulus (GPa) = 46.94935 55.39041 51.16988
# Shear Modulus (GPa) = 41.59445 50.30900 45.95172
#
# Velocity S-wave (km/s) = 3.92100 4.31223 4.12126
# Velocity P-wave (km/s) = 6.15244 6.72810 6.44670
#
# Compressibility (1/GPa) = 0.02129955
#
# Stress axis : x y z
#
# Youngs Moduli (GPa) = 117.03592 117.18892 72.75876
#
# Poissons Ratio (x) = 0.27574 0.12208
# Poissons Ratio (y) = 0.27538 0.05313
# Poissons Ratio (z) = 0.19637 0.08558
#
# Static dielectric constant tensor:
#      x y z
#    x -3.640890 1.029880 10.944750 
#    y 1.029880 1.961570 -1.807130 
#    z 10.944750 -1.807130 -18.402910 
# 
# From -- ./inp_files/295664.got.cif
#   From: 2010.05.17/outbox.cif.g08.bks.cpg/sg2_148_cif.got.tgz:295664.got - 2010.06.03 11:33:40.
