data_PCOD9004883
_publ_section_title
;
Structure prediction by ZEFSAII (Michael W. Deem and Ramdas Pophale) SiO2 
 PCOD9004883
Probable space group: P -1
;
_chemical_formula_sum "Si O2"
_cell_formula_units_Z 12
_cell_length_a 12.138819
_cell_length_b 13.231433
_cell_length_c 8.987867
_cell_angle_alpha 148.619749
_cell_angle_beta 105.946621
_cell_angle_gamma 56.745420
_cell_volume 563.188013
_symmetry_space_group_name_H-M "P -1"
_symmetry_group_IT_number 2
_symmetry_cell_setting 'triclinic'
loop_
_space_group_symop_operation_xyz
x,y,z
-x,-y,-z
loop_
_atom_site_type_symbol
_atom_site_label
_atom_site_fract_x
_atom_site_fract_y
_atom_site_fract_z
Si Si1 0.258716 0.382251 0.535767
Si Si2 0.575117 0.629402 0.170609
Si Si3 0.638949 0.421854 0.366775
Si Si4 0.321103 0.199271 0.813160
Si Si5 0.883913 0.386324 0.512152
Si Si6 0.213484 0.078744 0.338662
O O1 0.278899 0.494443 0.830568
O O2 0.380479 0.346787 0.426049
O O3 0.119430 0.558543 0.596180
O O4 0.261307 0.164971 0.326894
O O5 0.617557 0.665463 0.067825
O O6 0.459408 0.915734 0.545680
O O7 0.500000 0.500000 0.000000
O O8 0.500000 0.500000 0.500000
O O9 0.784331 0.297570 0.365985
O O10 0.685263 0.216639 0.003602
O O11 0.239238 0.170736 0.614284
O O12 0.211971 0.359530 0.108401
O O13 0.044274 0.203741 0.409246
#
# Coordination Sequence:
#
# PCOD9004883 Si02
#       6
#     2   2   2   2   2   2
#     4   9  23  36  63  85 119 154 205 238 300 342
#     4  10  21  38  59  88 122 159 194 249 294 349
#     4  10  24  37  63  91 118 153 205 245 294 351
#     4  10  23  36  62  87 122 156 201 240 301 350
#     4  10  23  40  61  91 122 156 198 248 298 352
#     4  11  21  44  61  84 126 161 193 246 300 357
#
# _framework density 21.307272999999999
#
# number of rings (size 3 to 8) (size 9 to 14) (size 15 to 20)
#    1.000    1.000    0.000    2.500    9.333    2.667 
#    0.000    0.000    0.000    6.000    0.000    0.000 
#    0.000    0.000    0.000    0.000    0.000    0.000 
#
# Total GULP energy -66813.431056 kJ/mol
# GULP energy per Si atom -5567.785921 kJ/mol
# Density = 2.125878 g / cm^3
# Si number density = 21.307273 Si / 1000 Ang^3
#
#
#
# Elastic Constant Matrix: (Units=GPa)
#
#
# Indices 1 2 3 4 5 6 
#
# 1 114.2462 29.8553 22.6292 2.2540 21.1806 -6.5463
# 2 29.8553 86.5906 23.3443 -18.4121 6.6732 -15.8099
# 3 22.6292 23.3443 80.3094 -8.6366 4.7695 -4.3977
# 4 2.2540 -18.4121 -8.6366 24.5407 -5.8392 11.7488
# 5 21.1806 6.6732 4.7695 -5.8392 27.1412 -0.8996
# 6 -6.5463 -15.8099 -4.3977 11.7488 -0.8996 27.9488
#
#
#
# Elastic Compliance Matrix: (Units=1/GPa)
#
#
# Indices 1 2 3 4 5 6 
#
# 1 0.012684 -0.004211 -0.002550 -0.009530 -0.010337 0.003861
# 2 -0.004211 0.016383 -0.002361 0.010672 0.002084 0.003490
# 3 -0.002550 -0.002361 0.014190 0.004420 0.000977 -0.001526
# 4 -0.009530 0.010672 0.004420 0.066272 0.017538 -0.022794
# 5 -0.010337 0.002084 0.000977 0.017538 0.047771 -0.006923
# 6 0.003861 0.003490 -0.001526 -0.022794 -0.006923 0.047777
#
#
# Mechanical properties :
#
#
# Convention : Reuss Voigt Hill
#
# Bulk Modulus (GPa) = 39.97545 48.08931 44.03238
# Shear Modulus (GPa) = 21.58361 29.61398 25.59880
#
# Velocity S-wave (km/s) = 3.18617 3.73212 3.46990
# Velocity P-wave (km/s) = 5.68663 6.41795 6.06332
#
# Compressibility (1/GPa) = 0.02501535
#
# Stress axis : x y z
#
# Youngs Moduli (GPa) = 78.83867 61.03995 70.47123
#
# Poissons Ratio (x) = 0.25702 0.17967
# Poissons Ratio (y) = 0.33196 0.16636
# Poissons Ratio (z) = 0.20101 0.14409
#
# Static dielectric constant tensor:
#      x y z
#    x 1.779760 -0.000280 0.030650 
#    y -0.000280 1.860340 -0.048950 
#    z 0.030650 -0.048950 1.771400 
# 
# From -- ./inp_files/274932.got.cif
#   From: 2010.05.17/outbox.cif.g08.bks.cpg/sg2_138_cif.got.tgz:274932.got - 2010.06.03 11:33:40.
