data_PCOD9004176
_publ_section_title
;
Structure prediction by ZEFSAII (Michael W. Deem and Ramdas Pophale) SiO2 
 PCOD9004176
Probable space group: P -1
;
_chemical_formula_sum "Si O2"
_cell_formula_units_Z 16
_cell_length_a 11.804583
_cell_length_b 9.463566
_cell_length_c 10.044040
_cell_angle_alpha 88.864163
_cell_angle_beta 44.546822
_cell_angle_gamma 82.055661
_cell_volume 774.543275
_symmetry_space_group_name_H-M "P -1"
_symmetry_group_IT_number 2
_symmetry_cell_setting 'triclinic'
loop_
_space_group_symop_operation_xyz
x,y,z
-x,-y,-z
loop_
_atom_site_type_symbol
_atom_site_label
_atom_site_fract_x
_atom_site_fract_y
_atom_site_fract_z
Si Si1 0.923091 0.463698 0.427053
Si Si2 0.738781 0.476548 0.163769
Si Si3 0.991494 0.731664 0.210745
Si Si4 0.822363 0.953832 0.549233
Si Si5 0.828689 0.789301 0.073057
Si Si6 0.056124 0.150808 0.284175
Si Si7 0.637239 0.380826 0.534380
Si Si8 0.536224 0.074877 0.606248
O O1 0.917268 0.598922 0.334170
O O2 0.746728 0.415162 0.566063
O O3 0.000000 0.500000 0.500000
O O4 0.045633 0.320622 0.286534
O O5 0.826845 0.616448 0.075582
O O6 0.731003 0.426640 0.324469
O O7 0.545754 0.529401 0.294776
O O8 0.833989 0.347186 0.995168
O O9 0.964022 0.842403 0.354892
O O10 0.888171 0.808653 0.172425
O O11 0.811989 0.912313 0.713050
O O12 0.654120 0.969758 0.608146
O O13 0.894100 0.100236 0.475716
O O14 0.644118 0.862355 0.191017
O O15 0.927837 0.873297 0.886113
O O16 0.617479 0.217611 0.523316
O O17 0.500000 0.000000 0.500000
#
# Coordination Sequence:
#
# PCOD9004176 Si02
#       8
#     2   2   2   2   2   2   2   2
#     4  12  22  40  69  93 128 175 210 261 324 384
#     4  10  21  37  64  95 126 158 211 271 325 367
#     4  12  22  38  66 101 122 161 224 268 308 388
#     4  11  25  42  64  91 132 170 215 258 327 383
#     4  11  22  38  67  94 125 166 221 262 322 371
#     4  11  24  43  63  91 128 176 212 263 318 388
#     4  10  22  40  63  94 132 167 208 269 324 372
#     4  11  23  41  64  94 131 172 211 263 321 385
#
# _framework density 20.657336000000001
#
# number of rings (size 3 to 8) (size 9 to 14) (size 15 to 20)
#    0.000    1.000    6.250    1.125    0.000    2.000 
#    0.000    0.625    5.500    0.000    0.000    0.000 
#    0.000    0.000    0.000    0.000    0.000    0.000 
#
# Total GULP energy -89083.490758 kJ/mol
# GULP energy per Si atom -5567.718172 kJ/mol
# Density = 2.061032 g / cm^3
# Si number density = 20.657336 Si / 1000 Ang^3
#
#
#
# Elastic Constant Matrix: (Units=GPa)
#
#
# Indices 1 2 3 4 5 6 
#
# 1 126.9305 24.1538 13.5589 -6.1035 17.6660 -3.9214
# 2 24.1538 58.5461 23.1502 -3.1552 4.5094 -3.7435
# 3 13.5589 23.1502 46.9526 -10.1244 9.3367 -5.2498
# 4 -6.1035 -3.1552 -10.1244 34.2105 -7.7570 1.8344
# 5 17.6660 4.5094 9.3367 -7.7570 23.1598 0.0876
# 6 -3.9214 -3.7435 -5.2498 1.8344 0.0876 30.7899
#
#
#
# Elastic Compliance Matrix: (Units=1/GPa)
#
#
# Indices 1 2 3 4 5 6 
#
# 1 0.009459 -0.003495 0.000409 -0.000087 -0.006732 0.000874
# 2 -0.003495 0.022579 -0.010771 -0.001261 0.002187 0.000533
# 3 0.000409 -0.010771 0.029786 0.005829 -0.008284 0.003497
# 4 -0.000087 -0.001261 0.005829 0.032925 0.008994 -0.001158
# 5 -0.006732 0.002187 -0.008284 0.008994 0.054250 -0.002694
# 6 0.000874 0.000533 0.003497 -0.001158 -0.002694 0.033327
#
#
# Mechanical properties :
#
#
# Convention : Reuss Voigt Hill
#
# Bulk Modulus (GPa) = 29.31571 39.35055 34.33313
# Shear Modulus (GPa) = 22.58259 29.06980 25.82620
#
# Velocity S-wave (km/s) = 3.30994 3.75539 3.53968
# Velocity P-wave (km/s) = 5.36935 6.15585 5.77600
#
# Compressibility (1/GPa) = 0.03411141
#
# Stress axis : x y z
#
# Youngs Moduli (GPa) = 105.71441 44.28926 33.57323
#
# Poissons Ratio (x) = 0.15477 -0.01373
# Poissons Ratio (y) = 0.36943 0.36161
# Poissons Ratio (z) = -0.04324 0.47703
#
# Static dielectric constant tensor:
#      x y z
#    x 1.795760 -0.013710 0.068000 
#    y -0.013710 1.765660 0.034420 
#    z 0.068000 0.034420 1.926940 
# 
# From -- ./inp_files/175356.got.cif
#   From: 2010.05.17/outbox.cif.g08.bks.cpg/sg2_88_cif.got.tgz:175356.got - 2010.06.03 11:33:40.
