data_PCOD9004129
_publ_section_title
;
Structure prediction by ZEFSAII (Michael W. Deem and Ramdas Pophale) SiO2 
 PCOD9004129
Probable space group: P -1
;
_chemical_formula_sum "Si O2"
_cell_formula_units_Z 13
_cell_length_a 8.566901
_cell_length_b 7.950463
_cell_length_c 9.654214
_cell_angle_alpha 79.022256
_cell_angle_beta 58.871919
_cell_angle_gamma 59.090983
_cell_volume 480.407229
_symmetry_space_group_name_H-M "P -1"
_symmetry_group_IT_number 2
_symmetry_cell_setting 'triclinic'
loop_
_space_group_symop_operation_xyz
x,y,z
-x,-y,-z
loop_
_atom_site_type_symbol
_atom_site_label
_atom_site_fract_x
_atom_site_fract_y
_atom_site_fract_z
Si Si1 0.374405 0.858972 0.704550
Si Si2 0.113058 0.396781 0.111658
Si Si3 0.836665 0.290439 0.777932
Si Si4 0.232796 0.124653 0.452061
Si Si5 0.308272 0.535493 0.679022
Si Si6 0.000000 0.000000 0.000000
Si Si7 0.519297 0.188212 0.826071
O O1 0.319720 0.968277 0.565085
O O2 0.295182 0.698765 0.768611
O O3 0.620228 0.774486 0.628584
O O4 0.227264 0.001075 0.869731
O O5 0.162829 0.542511 0.153566
O O6 0.928921 0.378353 0.275833
O O7 0.337917 0.207858 0.008269
O O8 0.000000 0.500000 0.000000
O O9 0.619077 0.315747 0.822059
O O10 0.924577 0.100554 0.867023
O O11 0.992379 0.253845 0.583776
O O12 0.294800 0.003086 0.300796
O O13 0.500000 0.500000 0.500000
O O14 0.384105 0.320729 0.737369
#
# Coordination Sequence:
#
# PCOD9004129 Si02
#       7
#     2   2   2   2   2   1   2
#     4  10  21  37  64  92 124 166 214 256 312 379
#     4  10  23  38  67  92 128 171 213 255 321 380
#     4  11  23  44  64  93 130 171 209 267 322 372
#     4  10  22  39  67  92 130 166 210 261 325 372
#     4  11  21  39  65  94 126 167 216 252 309 389
#     4  10  22  36  66  84 122 162 218 248 312 376
#     4  11  23  41  67  95 131 165 212 266 321 370
#
# _framework density 27.060376000000002
#
# number of rings (size 3 to 8) (size 9 to 14) (size 15 to 20)
#    0.000    1.538    1.538    3.692   12.923    0.000 
#    0.000    5.385    3.385    0.000    0.000    0.000 
#    0.000    0.000    0.000    0.000    0.000    0.000 
#
# Total GULP energy -72470.640804 kJ/mol
# GULP energy per Si atom -5574.664677 kJ/mol
# Density = 2.699879 g / cm^3
# Si number density = 27.060376 Si / 1000 Ang^3
#
#
#
# Elastic Constant Matrix: (Units=GPa)
#
#
# Indices 1 2 3 4 5 6 
#
# 1 103.2689 28.9152 87.7435 24.9820 -23.6396 28.1545
# 2 28.9152 55.6418 39.3717 12.1228 11.2741 3.4507
# 3 87.7435 39.3717 217.3607 -6.8360 -37.9385 1.4143
# 4 24.9820 12.1228 -6.8360 37.0369 -6.0026 5.3848
# 5 -23.6396 11.2741 -37.9385 -6.0026 53.0932 3.3937
# 6 28.1545 3.4507 1.4143 5.3848 3.3937 50.2116
#
#
#
# Elastic Compliance Matrix: (Units=1/GPa)
#
#
# Indices 1 2 3 4 5 6 
#
# 1 0.028967 -0.004038 -0.010504 -0.017252 0.005204 -0.014171
# 2 -0.004038 0.029903 -0.006644 -0.010977 -0.014298 0.002540
# 3 -0.010504 -0.006644 0.011420 0.011695 0.005937 0.004369
# 4 -0.017252 -0.010977 0.011695 0.044960 0.007785 0.004751
# 5 0.005204 -0.014298 0.005937 0.007785 0.029627 -0.004940
# 6 -0.014171 0.002540 0.004369 0.004751 -0.004940 0.027388
#
#
# Mechanical properties :
#
#
# Convention : Reuss Voigt Hill
#
# Bulk Modulus (GPa) = 35.81835 76.48137 56.14986
# Shear Modulus (GPa) = 22.32723 42.75107 32.53915
#
# Velocity S-wave (km/s) = 2.87555 3.97903 3.47142
# Velocity P-wave (km/s) = 4.92852 7.03099 6.07145
#
# Compressibility (1/GPa) = 0.02791865
#
# Stress axis : x y z
#
# Youngs Moduli (GPa) = 34.52195 33.44169 87.56597
#
# Poissons Ratio (x) = 0.13503 0.91979
# Poissons Ratio (y) = 0.13939 0.58179
# Poissons Ratio (z) = 0.36262 0.22219
#
# Static dielectric constant tensor:
#      x y z
#    x 2.399310 0.362380 0.235040 
#    y 0.362380 2.354490 0.257800 
#    z 0.235040 0.257800 2.379940 
# 
# From -- ./inp_files/156178.got.cif
#   From: 2010.05.17/outbox.cif.g08.bks.cpg/sg2_79_cif.got.tgz:156178.got - 2010.06.03 11:33:40.
