data_PCOD9004478
_publ_section_title
;
Structure prediction by ZEFSAII (Michael W. Deem and Ramdas Pophale) SiO2 
 PCOD9004478
Probable space group: P -1
;
_chemical_formula_sum "Si O2"
_cell_formula_units_Z 16
_cell_length_a 18.474289
_cell_length_b 24.469667
_cell_length_c 30.388674
_cell_angle_alpha 8.691717
_cell_angle_beta 161.168232
_cell_angle_gamma 161.526069
_cell_volume 646.374037
_symmetry_space_group_name_H-M "P -1"
_symmetry_group_IT_number 2
_symmetry_cell_setting 'triclinic'
loop_
_space_group_symop_operation_xyz
x,y,z
-x,-y,-z
loop_
_atom_site_type_symbol
_atom_site_label
_atom_site_fract_x
_atom_site_fract_y
_atom_site_fract_z
Si Si1 0.767829 0.186529 0.604433
Si Si2 0.255125 0.122307 0.071974
Si Si3 0.541362 0.824170 0.409758
Si Si4 0.423810 0.660899 0.379536
Si Si5 0.196802 0.811739 0.944355
Si Si6 0.825222 0.391636 0.805511
Si Si7 0.716179 0.757424 0.825059
Si Si8 0.291679 0.353306 0.183566
O O1 0.538414 0.337335 0.356530
O O2 0.000000 0.500000 0.500000
O O3 0.757482 0.889468 0.873532
O O4 0.766396 0.018680 0.688537
O O5 0.390102 0.836501 0.355838
O O6 0.449573 0.511201 0.864773
O O7 0.000000 0.000000 0.000000
O O8 0.374921 0.755338 0.325667
O O9 0.687434 0.518984 0.738681
O O10 0.694485 0.237001 0.155025
O O11 0.699864 0.720137 0.483104
O O12 0.310072 0.816186 0.149849
O O13 0.325751 0.209901 0.682106
O O14 0.207013 0.823166 0.995125
O O15 0.924771 0.735389 0.838037
O O16 0.090395 0.479826 0.872076
O O17 0.758849 0.921805 0.669227
#
# Coordination Sequence:
#
# PCOD9004478 Si02
#       8
#     2   2   2   2   2   2   2   2
#     4  12  26  42  66 100 131 171 232 274 332 406
#     4  11  26  45  66  96 130 179 226 276 336 399
#     4  10  21  42  63  88 136 174 209 277 339 387
#     4  10  21  37  67  98 133 172 228 266 337 399
#     4  10  21  41  66  97 131 176 221 273 338 397
#     4   9  20  37  64  99 130 171 219 274 334 399
#     4  10  23  44  70  87 136 175 220 277 345 386
#     4  10  23  42  65  97 131 172 219 277 340 393
#
# _framework density 24.753468999999999
#
# number of rings (size 3 to 8) (size 9 to 14) (size 15 to 20)
#    0.000    1.750    0.000    4.125    5.250    5.000 
#    4.500    0.625    0.000    0.000    0.000    0.000 
#    0.000    0.000    0.000    0.000    0.000    0.000 
#
# Total GULP energy -89240.243366 kJ/mol
# GULP energy per Si atom -5577.515210 kJ/mol
# Density = 2.469713 g / cm^3
# Si number density = 24.753469 Si / 1000 Ang^3
#
#
#
# Elastic Constant Matrix: (Units=GPa)
#
#
# Indices 1 2 3 4 5 6 
#
# 1 91.0930 33.2192 26.3710 3.0825 8.2151 -14.0592
# 2 33.2192 147.9731 42.0726 30.9218 24.1696 6.6346
# 3 26.3710 42.0726 72.6461 11.4607 17.8765 7.0910
# 4 3.0825 30.9218 11.4607 33.5967 1.8248 4.9802
# 5 8.2151 24.1696 17.8765 1.8248 30.5307 6.7658
# 6 -14.0592 6.6346 7.0910 4.9802 6.7658 44.4619
#
#
#
# Elastic Compliance Matrix: (Units=1/GPa)
#
#
# Indices 1 2 3 4 5 6 
#
# 1 0.013918 -0.002378 -0.004298 0.001618 -0.000629 0.005356
# 2 -0.002378 0.010752 -0.002583 -0.008464 -0.005829 -0.000109
# 3 -0.004298 -0.002583 0.019374 -0.003051 -0.007384 -0.002598
# 4 0.001618 -0.008464 -0.003051 0.038548 0.006419 -0.003034
# 5 -0.000629 -0.005829 -0.007384 0.006419 0.042666 -0.005363
# 6 0.005356 -0.000109 -0.002598 -0.003034 -0.005363 0.025771
#
#
# Mechanical properties :
#
#
# Convention : Reuss Voigt Hill
#
# Bulk Modulus (GPa) = 39.17821 57.22642 48.20232
# Shear Modulus (GPa) = 28.08096 35.72114 31.90105
#
# Velocity S-wave (km/s) = 3.37178 3.80291 3.59381
# Velocity P-wave (km/s) = 5.56958 6.51548 6.06101
#
# Compressibility (1/GPa) = 0.02552439
#
# Stress axis : x y z
#
# Youngs Moduli (GPa) = 71.84993 93.00574 51.61613
#
# Poissons Ratio (x) = 0.22115 0.22187
# Poissons Ratio (y) = 0.17085 0.13335
# Poissons Ratio (z) = 0.30884 0.24028
#
# Static dielectric constant tensor:
#      x y z
#    x 2.022720 -0.001560 0.021450 
#    y -0.001560 2.080890 -0.025000 
#    z 0.021450 -0.025000 2.038790 
# 
# From -- ./inp_files/623939.got.cif
#   From: 2010.05.17/outbox.cif.g08.bks.cpg/sg2_312_cif.got.tgz:623939.got - 2010.06.03 11:33:40.
