data_PCOD9004464
_publ_section_title
;
Structure prediction by ZEFSAII (Michael W. Deem and Ramdas Pophale) SiO2 
 PCOD9004464
Probable space group: P -1
;
_chemical_formula_sum "Si O2"
_cell_formula_units_Z 16
_cell_length_a 13.981716
_cell_length_b 23.870081
_cell_length_c 17.986340
_cell_angle_alpha 21.538992
_cell_angle_beta 149.184561
_cell_angle_gamma 160.482822
_cell_volume 728.400664
_symmetry_space_group_name_H-M "P -1"
_symmetry_group_IT_number 2
_symmetry_cell_setting 'triclinic'
loop_
_space_group_symop_operation_xyz
x,y,z
-x,-y,-z
loop_
_atom_site_type_symbol
_atom_site_label
_atom_site_fract_x
_atom_site_fract_y
_atom_site_fract_z
Si Si1 0.608689 0.808093 0.759126
Si Si2 0.975829 0.931470 0.984044
Si Si3 0.391591 0.759750 0.014358
Si Si4 0.431702 0.906521 0.154072
Si Si5 0.138696 0.787964 0.677297
Si Si6 0.265186 0.558955 0.578097
Si Si7 0.113921 0.305375 0.005357
Si Si8 0.107258 0.055428 0.420408
O O1 0.731546 0.737884 0.881718
O O2 0.757080 0.891796 0.835193
O O3 0.690637 0.014137 0.517006
O O4 0.276129 0.550764 0.847906
O O5 0.849504 0.681996 0.209895
O O6 0.297023 0.127176 0.921242
O O7 0.000000 0.000000 0.000000
O O8 0.335976 0.807410 0.838878
O O9 0.395597 0.890857 0.918836
O O10 0.127175 0.479949 0.197005
O O11 0.394321 0.711616 0.399560
O O12 0.104116 0.766261 0.111415
O O13 0.500000 0.000000 0.000000
O O14 0.013516 0.844120 0.577160
O O15 0.539667 0.726791 0.610571
O O16 0.000000 0.500000 0.500000
O O17 0.992063 0.132388 0.206483
O O18 0.000000 0.000000 0.500000
#
# Coordination Sequence:
#
# PCOD9004464 Si02
#       8
#     2   2   2   2   2   2   2   2
#     4  10  21  42  64  96 124 172 220 275 336 396
#     4  12  26  44  69 100 135 174 223 285 344 408
#     4  11  24  46  63  96 136 178 224 274 351 411
#     4  12  25  42  69 101 136 178 230 287 337 406
#     4  10  24  41  69  89 135 180 213 277 349 406
#     4  12  23  44  73  97 136 181 235 280 339 409
#     4  10  21  37  67  95 128 163 227 278 325 388
#     4  11  22  39  66 100 129 174 229 281 336 408
#
# _framework density 21.965931000000001
#
# number of rings (size 3 to 8) (size 9 to 14) (size 15 to 20)
#    0.000    1.000    5.000    0.750    7.000    1.500 
#    2.250    0.625    0.000    0.000    0.000    0.000 
#    0.000    0.000    0.000    0.000    0.000    0.000 
#
# Total GULP energy -89365.488467 kJ/mol
# GULP energy per Si atom -5585.343029 kJ/mol
# Density = 2.191594 g / cm^3
# Si number density = 21.965931 Si / 1000 Ang^3
#
#
#
# Elastic Constant Matrix: (Units=GPa)
#
#
# Indices 1 2 3 4 5 6 
#
# 1 54.5844 1.2984 0.3679 -4.0490 -16.3632 -20.3625
# 2 1.2984 107.9640 42.5471 -5.3764 -0.2451 -22.9572
# 3 0.3679 42.5471 124.5584 -3.2407 -18.9486 -13.7551
# 4 -4.0490 -5.3764 -3.2407 33.9075 -4.8946 -0.0714
# 5 -16.3632 -0.2451 -18.9486 -4.8946 28.1151 6.4082
# 6 -20.3625 -22.9572 -13.7551 -0.0714 6.4082 30.9929
#
#
#
# Elastic Compliance Matrix: (Units=1/GPa)
#
#
# Indices 1 2 3 4 5 6 
#
# 1 0.032157 0.002930 0.004197 0.007343 0.017956 0.021465
# 2 0.002930 0.012975 -0.003656 0.001684 -0.002742 0.010484
# 3 0.004197 -0.003656 0.011124 0.002382 0.009640 0.002999
# 4 0.007343 0.001684 0.002382 0.032372 0.010377 0.005058
# 5 0.017956 -0.002742 0.009640 0.010377 0.053618 0.002982
# 6 0.021465 0.010484 0.002999 0.005058 0.002982 0.054860
#
#
# Mechanical properties :
#
#
# Convention : Reuss Voigt Hill
#
# Bulk Modulus (GPa) = 15.82329 41.72597 28.77463
# Shear Modulus (GPa) = 23.67074 34.79598 29.23336
#
# Velocity S-wave (km/s) = 3.28626 3.98438 3.65204
# Velocity P-wave (km/s) = 4.64957 6.34067 5.55979
#
# Compressibility (1/GPa) = 0.06319798
#
# Stress axis : x y z
#
# Youngs Moduli (GPa) = 31.09736 77.07177 89.89181
#
# Poissons Ratio (x) = -0.22581 -0.37729
# Poissons Ratio (y) = -0.09111 0.32867
# Poissons Ratio (z) = -0.13052 0.28180
#
# Static dielectric constant tensor:
#      x y z
#    x 1.912490 0.136410 -0.039020 
#    y 0.136410 1.917630 0.015760 
#    z -0.039020 0.015760 1.804560 
# 
# From -- ./inp_files/539315.got.cif
#   From: 2010.05.17/outbox.cif.g08.bks.cpg/sg2_270_cif.got.tgz:539315.got - 2010.06.03 11:33:40.
