data_PCOD9004957
_publ_section_title
;
Structure prediction by ZEFSAII (Michael W. Deem and Ramdas Pophale) SiO2 
 PCOD9004957
Probable space group: P -1
;
_chemical_formula_sum "Si O2"
_cell_formula_units_Z 16
_cell_length_a 20.366932
_cell_length_b 16.627696
_cell_length_c 10.832338
_cell_angle_alpha 46.987347
_cell_angle_beta 52.383173
_cell_angle_gamma 18.630986
_cell_volume 846.683323
_symmetry_space_group_name_H-M "P -1"
_symmetry_group_IT_number 2
_symmetry_cell_setting 'triclinic'
loop_
_space_group_symop_operation_xyz
x,y,z
-x,-y,-z
loop_
_atom_site_type_symbol
_atom_site_label
_atom_site_fract_x
_atom_site_fract_y
_atom_site_fract_z
Si Si1 0.162381 0.059905 0.480217
Si Si2 0.902904 0.882180 0.896594
Si Si3 0.213314 0.172343 0.088719
Si Si4 0.193096 0.594608 0.645578
Si Si5 0.139825 0.432732 0.548700
Si Si6 0.423490 0.544600 0.408884
Si Si7 0.122680 0.470080 0.251048
Si Si8 0.447932 0.078248 0.796204
O O1 0.369446 0.740680 0.604153
O O2 0.227482 0.079662 0.290986
O O3 0.999903 0.183242 0.460565
O O4 0.038957 0.264740 0.519200
O O5 0.810655 0.885228 0.934193
O O6 0.092439 0.690735 0.792435
O O7 0.724068 0.190499 0.769549
O O8 0.998563 0.728023 0.077295
O O9 0.386057 0.051691 0.982985
O O10 0.000000 0.500000 0.000000
O O11 0.294254 0.590666 0.531910
O O12 0.354321 0.304116 0.723100
O O13 0.206505 0.378080 0.390266
O O14 0.319026 0.219194 0.669042
O O15 0.034897 0.440572 0.662811
O O16 0.500000 0.500000 0.500000
O O17 0.310295 0.216696 0.206409
#
# Coordination Sequence:
#
# PCOD9004957 Si02
#       8
#     2   2   2   2   2   2   2   2
#     4  10  21  38  60  83 120 157 189 241 292 347
#     4  11  22  37  55  86 124 149 196 239 285 348
#     4  11  17  35  58  88 119 146 179 247 302 339
#     4  10  22  36  58  89 117 151 188 241 292 354
#     4  10  21  41  59  83 124 152 199 239 289 348
#     4  12  23  38  59  85 116 158 197 233 296 348
#     4  11  23  36  59  89 117 161 192 242 287 343
#     4  11  21  37  64  88 120 152 194 235 300 363
#
# _framework density 18.897266999999999
#
# number of rings (size 3 to 8) (size 9 to 14) (size 15 to 20)
#    0.000    1.250    7.500    1.500    1.750    0.500 
#    0.000    0.625    0.000    3.000    0.000    0.000 
#    0.000    0.000    0.000    0.000    0.000    0.000 
#
# Total GULP energy -89426.847518 kJ/mol
# GULP energy per Si atom -5589.177970 kJ/mol
# Density = 1.885426 g / cm^3
# Si number density = 18.897267 Si / 1000 Ang^3
#
#
#
# Elastic Constant Matrix: (Units=GPa)
#
#
# Indices 1 2 3 4 5 6 
#
# 1 75.6498 15.5337 43.1523 -0.0607 -15.1958 -14.4755
# 2 15.5337 89.5574 60.9832 -10.3588 -5.5330 0.9170
# 3 43.1523 60.9832 93.8816 -21.3731 -10.0066 -4.4307
# 4 -0.0607 -10.3588 -21.3731 32.0586 -2.1858 -3.0676
# 5 -15.1958 -5.5330 -10.0066 -2.1858 28.3945 3.1704
# 6 -14.4755 0.9170 -4.4307 -3.0676 3.1704 26.6118
#
#
#
# Elastic Compliance Matrix: (Units=1/GPa)
#
#
# Indices 1 2 3 4 5 6 
#
# 1 0.023586 0.005594 -0.014865 -0.006763 0.006999 0.008548
# 2 0.005594 0.021857 -0.017876 -0.004924 0.000724 -0.001340
# 3 -0.014865 -0.017876 0.032929 0.016220 0.001447 -0.000290
# 4 -0.006763 -0.004924 0.016220 0.041000 0.003908 0.003452
# 5 0.006999 0.000724 0.001447 0.003908 0.039947 -0.000286
# 6 0.008548 -0.001340 -0.000290 0.003452 -0.000286 0.042657
#
#
# Mechanical properties :
#
#
# Convention : Reuss Voigt Hill
#
# Bulk Modulus (GPa) = 41.53193 55.38081 48.45637
# Shear Modulus (GPa) = 18.91814 26.70763 22.81288
#
# Velocity S-wave (km/s) = 3.16746 3.76348 3.47826
# Velocity P-wave (km/s) = 5.95000 6.94657 6.46751
#
# Compressibility (1/GPa) = 0.02407786
#
# Stress axis : x y z
#
# Youngs Moduli (GPa) = 42.39890 45.75132 30.36797
#
# Poissons Ratio (x) = -0.25592 0.45141
# Poissons Ratio (y) = -0.23717 0.54286
# Poissons Ratio (z) = 0.63025 0.81786
#
# Static dielectric constant tensor:
#      x y z
#    x 1.671580 -0.016580 0.014440 
#    y -0.016580 1.662250 -0.016980 
#    z 0.014440 -0.016980 1.651480 
# 
# From -- ./inp_files/472185.got.cif
#   From: 2010.05.17/outbox.cif.g08.bks.cpg/sg2_237_cif.got.tgz:472185.got - 2010.06.03 11:33:40.
