data_PCOD9004031
_publ_section_title
;
Structure prediction by ZEFSAII (Michael W. Deem and Ramdas Pophale) SiO2 
 PCOD9004031
Probable space group: P -1
;
_chemical_formula_sum "Si O2"
_cell_formula_units_Z 15
_cell_length_a 11.146627
_cell_length_b 11.032685
_cell_length_c 10.250806
_cell_angle_alpha 68.373517
_cell_angle_beta 55.981476
_cell_angle_gamma 35.236813
_cell_volume 592.455942
_symmetry_space_group_name_H-M "P -1"
_symmetry_group_IT_number 2
_symmetry_cell_setting 'triclinic'
loop_
_space_group_symop_operation_xyz
x,y,z
-x,-y,-z
loop_
_atom_site_type_symbol
_atom_site_label
_atom_site_fract_x
_atom_site_fract_y
_atom_site_fract_z
Si Si1 0.354656 0.227127 0.046640
Si Si2 0.860887 0.156603 0.733390
Si Si3 0.543476 0.056095 0.289016
Si Si4 0.404902 0.801871 0.319374
Si Si5 0.173212 0.413507 0.698847
Si Si6 0.779888 0.154521 0.172853
Si Si7 0.908563 0.760601 0.513405
Si Si8 0.500000 0.500000 0.000000
O O1 0.436378 0.183132 0.164729
O O2 0.072919 0.407176 0.142123
O O3 0.439112 0.271204 0.873002
O O4 0.500000 0.000000 0.000000
O O5 0.761246 0.192422 0.638756
O O6 0.669565 0.272644 0.916487
O O7 0.932890 0.257578 0.662713
O O8 0.098438 0.910914 0.733231
O O9 0.656726 0.100382 0.269784
O O10 0.310485 0.155761 0.454344
O O11 0.727901 0.804840 0.258536
O O12 0.608626 0.649770 0.364858
O O13 0.226964 0.044699 0.379688
O O14 0.077456 0.538494 0.570952
O O15 0.599584 0.386144 0.131647
O O16 0.000000 0.000000 0.000000
#
# Coordination Sequence:
#
# PCOD9004031 Si02
#       8
#     2   2   2   2   2   2   2   1
#     4  11  18  34  58  96 128 156 211 264 319 379
#     4  11  25  43  64  90 130 170 215 268 317 390
#     4  10  22  39  63  92 128 168 216 266 320 380
#     4  11  22  38  62  95 129 168 211 264 327 381
#     4  10  21  37  63  96 128 168 210 262 325 378
#     4  10  23  44  65  91 125 165 213 268 318 377
#     4  10  23  41  61  95 129 166 215 266 326 381
#     4  10  24  46  64  92 118 162 220 258 322 384
#
# _framework density 25.318339000000002
#
# number of rings (size 3 to 8) (size 9 to 14) (size 15 to 20)
#    0.000    1.600    4.000    2.400    0.000   10.667 
#    0.000    1.333    0.000    0.000    0.000    0.000 
#    0.000    0.000    0.000    0.000    0.000    0.000 
#
# Total GULP energy -83529.092919 kJ/mol
# GULP energy per Si atom -5568.606195 kJ/mol
# Density = 2.526071 g / cm^3
# Si number density = 25.318339 Si / 1000 Ang^3
#
#
#
# Elastic Constant Matrix: (Units=GPa)
#
#
# Indices 1 2 3 4 5 6 
#
# 1 136.6489 60.3802 16.1829 14.8509 -6.4494 -29.4069
# 2 60.3802 172.0239 -5.2298 -1.2863 -0.9166 -40.6880
# 3 16.1829 -5.2298 36.3842 6.2250 -3.4956 -2.2765
# 4 14.8509 -1.2863 6.2250 42.1890 2.2763 3.4890
# 5 -6.4494 -0.9166 -3.4956 2.2763 35.9080 -4.9540
# 6 -29.4069 -40.6880 -2.2765 3.4890 -4.9540 34.3000
#
#
#
# Elastic Compliance Matrix: (Units=1/GPa)
#
#
# Indices 1 2 3 4 5 6 
#
# 1 0.010887 -0.002235 -0.003740 -0.004100 0.002795 0.007256
# 2 -0.002235 0.008811 0.002985 -0.000199 0.001362 0.008951
# 3 -0.003740 0.002985 0.030675 -0.003546 0.003053 0.003173
# 4 -0.004100 -0.000199 -0.003546 0.026463 -0.003760 -0.007221
# 5 0.002795 0.001362 0.003053 -0.003760 0.030156 0.008953
# 6 0.007256 0.008951 0.003173 -0.007221 0.008953 0.048232
#
#
# Mechanical properties :
#
#
# Convention : Reuss Voigt Hill
#
# Bulk Modulus (GPa) = 22.52454 54.19151 38.35803
# Shear Modulus (GPa) = 28.40874 40.72766 34.56820
#
# Velocity S-wave (km/s) = 3.35335 4.01512 3.69906
# Velocity P-wave (km/s) = 4.88970 6.55327 5.78163
#
# Compressibility (1/GPa) = 0.04439602
#
# Stress axis : x y z
#
# Youngs Moduli (GPa) = 91.85063 113.49062 32.59942
#
# Poissons Ratio (x) = 0.25362 0.12191
# Poissons Ratio (y) = 0.20526 -0.09732
# Poissons Ratio (z) = 0.34349 -0.33882
#
# Static dielectric constant tensor:
#      x y z
#    x 2.097180 -0.081740 0.033520 
#    y -0.081740 1.970310 -0.051690 
#    z 0.033520 -0.051690 2.098380 
# 
# From -- ./inp_files/427980.got.cif
#   From: 2010.05.17/outbox.cif.g08.bks.cpg/sg2_214_cif.got.tgz:427980.got - 2010.06.03 11:33:40.
