data_PCOD9004797
_publ_section_title
;
Structure prediction by ZEFSAII (Michael W. Deem and Ramdas Pophale) SiO2 
 PCOD9004797
Probable space group: P -1
;
_chemical_formula_sum "Si O2"
_cell_formula_units_Z 14
_cell_length_a 5.317968
_cell_length_b 19.268339
_cell_length_c 16.500346
_cell_angle_alpha 154.764757
_cell_angle_beta 79.892150
_cell_angle_gamma 86.375966
_cell_volume 602.293654
_symmetry_space_group_name_H-M "P -1"
_symmetry_group_IT_number 2
_symmetry_cell_setting 'triclinic'
loop_
_space_group_symop_operation_xyz
x,y,z
-x,-y,-z
loop_
_atom_site_type_symbol
_atom_site_label
_atom_site_fract_x
_atom_site_fract_y
_atom_site_fract_z
Si Si1 0.681328 0.226545 0.932479
Si Si2 0.707326 0.314200 0.345646
Si Si3 0.109627 0.918432 0.071248
Si Si4 0.354430 0.993207 0.687093
Si Si5 0.633324 0.321138 0.865373
Si Si6 0.295429 0.170568 0.255210
Si Si7 0.212662 0.269988 0.742758
O O1 0.482960 0.131673 0.833122
O O2 0.688264 0.255167 0.059640
O O3 0.587198 0.373734 0.018931
O O4 0.042398 0.083038 0.748778
O O5 0.500000 0.500000 0.500000
O O6 0.874974 0.152496 0.095087
O O7 0.481479 0.272981 0.364610
O O8 0.968571 0.309122 0.378305
O O9 0.224993 0.065222 0.218840
O O10 0.775782 0.020919 0.234468
O O11 0.611420 0.804346 0.429534
O O12 0.544514 0.782370 0.256191
O O13 0.500000 0.500000 0.000000
O O14 0.984044 0.201294 0.698104
O O15 0.500000 0.000000 0.000000
O O16 0.000000 0.500000 0.000000
#
# Coordination Sequence:
#
# PCOD9004797 Si02
#       7
#     2   2   2   2   2   2   2
#     4  10  22  36  61  88 118 159 205 254 313 350
#     4  11  23  40  67  98 127 169 210 256 315 374
#     4   9  23  39  65  89 132 157 211 257 306 377
#     4  10  22  36  61  88 117 158 205 250 312 351
#     4  10  21  38  59  83 119 159 205 254 300 366
#     4  10  21  39  69  94 122 170 216 251 308 382
#     4  10  21  38  59  82 116 156 203 256 298 365
#
# _framework density 23.244475000000001
#
# number of rings (size 3 to 8) (size 9 to 14) (size 15 to 20)
#    0.857    1.143    0.000    3.857    6.000    3.429 
#    0.000    2.857    0.000    0.000    0.000    0.000 
#    0.000    0.000    0.000    0.000    0.000    0.000 
#
# Total GULP energy -78001.217660 kJ/mol
# GULP energy per Si atom -5571.515547 kJ/mol
# Density = 2.319157 g / cm^3
# Si number density = 23.244475 Si / 1000 Ang^3
#
#
#
# Elastic Constant Matrix: (Units=GPa)
#
#
# Indices 1 2 3 4 5 6 
#
# 1 168.5518 32.1414 13.9647 -7.7009 -36.2835 13.7427
# 2 32.1414 150.7697 14.9139 -1.5197 -13.6136 -3.8127
# 3 13.9647 14.9139 29.6014 -4.3978 -15.7611 8.3097
# 4 -7.7009 -1.5197 -4.3978 30.6722 -1.2682 -5.5169
# 5 -36.2835 -13.6136 -15.7611 -1.2682 26.3034 -4.3866
# 6 13.7427 -3.8127 8.3097 -5.5169 -4.3866 29.4129
#
#
#
# Elastic Compliance Matrix: (Units=1/GPa)
#
#
# Indices 1 2 3 4 5 6 
#
# 1 0.009427 -0.001241 0.005798 0.003181 0.015438 -0.003305
# 2 -0.001241 0.007357 -0.003682 0.000011 0.000328 0.002625
# 3 0.005798 -0.003682 0.058855 0.009169 0.039772 -0.012163
# 4 0.003181 0.000011 0.009169 0.036044 0.012381 0.004532
# 5 0.015438 0.000328 0.039772 0.012381 0.083302 -0.003661
# 6 -0.003305 0.002625 -0.012163 0.004532 -0.003661 0.039623
#
#
# Mechanical properties :
#
#
# Convention : Reuss Voigt Hill
#
# Bulk Modulus (GPa) = 12.92151 52.32919 32.62535
# Shear Modulus (GPa) = 19.33087 36.47124 27.90105
#
# Velocity S-wave (km/s) = 2.88693 3.96539 3.46834
# Velocity P-wave (km/s) = 4.08455 6.59751 5.48684
#
# Compressibility (1/GPa) = 0.07739035
#
# Stress axis : x y z
#
# Youngs Moduli (GPa) = 106.07531 135.91608 16.99100
#
# Poissons Ratio (x) = 0.16864 -0.09851
# Poissons Ratio (y) = 0.13161 0.06256
# Poissons Ratio (z) = -0.61503 0.50042
#
# Static dielectric constant tensor:
#      x y z
#    x 1.934340 -0.053770 0.010090 
#    y -0.053770 1.938720 -0.010670 
#    z 0.010090 -0.010670 1.878440 
# 
# From -- ./inp_files/550756.got.cif
#   From: 2010.05.17/outbox.cif.g08.bks.cpg/sg2_276_cif.got.tgz:550756.got - 2010.06.03 11:33:40.
