data_PCOD9004528
_publ_section_title
;
Structure prediction by ZEFSAII (Michael W. Deem and Ramdas Pophale) SiO2 
 PCOD9004528
Probable space group: P -1
;
_chemical_formula_sum "Si O2"
_cell_formula_units_Z 16
_cell_length_a 9.149831
_cell_length_b 20.717608
_cell_length_c 13.176035
_cell_angle_alpha 29.263119
_cell_angle_beta 131.140046
_cell_angle_gamma 139.121892
_cell_volume 799.022201
_symmetry_space_group_name_H-M "P -1"
_symmetry_group_IT_number 2
_symmetry_cell_setting 'triclinic'
loop_
_space_group_symop_operation_xyz
x,y,z
-x,-y,-z
loop_
_atom_site_type_symbol
_atom_site_label
_atom_site_fract_x
_atom_site_fract_y
_atom_site_fract_z
Si Si1 0.596948 0.436281 0.473486
Si Si2 0.493163 0.152877 0.288810
Si Si3 0.763354 0.570778 0.040018
Si Si4 0.665396 0.161241 0.800178
Si Si5 0.816121 0.607556 0.545154
Si Si6 0.161293 0.266250 0.950805
Si Si7 0.891145 0.383195 0.020192
Si Si8 0.297691 0.749887 0.530529
O O1 0.652663 0.305071 0.646447
O O2 0.731006 0.547063 0.476769
O O3 0.344430 0.356403 0.509603
O O4 0.660633 0.562931 0.241483
O O5 0.553100 0.211295 0.353084
O O6 0.500000 0.000000 0.500000
O O7 0.276756 0.162316 0.142574
O O8 0.683046 0.247450 0.163559
O O9 0.865413 0.704328 0.984372
O O10 0.780862 0.426421 0.286543
O O11 0.912235 0.631882 0.923080
O O12 0.500000 0.500000 0.000000
O O13 0.612937 0.159489 0.657828
O O14 0.922981 0.201244 0.876715
O O15 0.500000 0.000000 0.000000
O O16 0.807860 0.462174 0.793721
O O17 0.068677 0.743801 0.468494
O O18 0.000000 0.500000 0.000000
#
# Coordination Sequence:
#
# PCOD9004528 Si02
#       8
#     2   2   2   2   2   2   2   2
#     4  11  22  40  71  99 128 171 227 277 323 392
#     4  12  27  45  65  98 140 175 219 279 341 396
#     4  11  21  37  72 104 130 169 232 277 321 390
#     4  12  27  45  66 100 140 175 217 276 344 402
#     4  10  21  37  69 102 125 166 232 272 320 383
#     4  12  23  46  69  99 130 182 226 275 330 396
#     4  11  20  38  64  95 128 171 222 268 319 389
#     4  11  22  43  66  99 132 176 218 275 331 400
#
# _framework density 20.024476
#
# number of rings (size 3 to 8) (size 9 to 14) (size 15 to 20)
#    0.000    0.750    7.500    1.875    0.000    3.000 
#    2.250    2.500    0.000    0.000    0.000    0.000 
#    0.000    0.000    0.000    0.000    0.000    0.000 
#
# Total GULP energy -89217.577814 kJ/mol
# GULP energy per Si atom -5576.098613 kJ/mol
# Density = 1.997890 g / cm^3
# Si number density = 20.024476 Si / 1000 Ang^3
#
#
#
# Elastic Constant Matrix: (Units=GPa)
#
#
# Indices 1 2 3 4 5 6 
#
# 1 133.7484 25.0507 56.6397 9.2598 -0.2454 9.1643
# 2 25.0507 15.9790 7.6676 10.6381 2.2527 6.6333
# 3 56.6397 7.6676 99.8260 -6.0855 -5.3026 4.9334
# 4 9.2598 10.6381 -6.0855 27.3651 -4.9464 3.6550
# 5 -0.2454 2.2527 -5.3026 -4.9464 43.1322 6.6600
# 6 9.1643 6.6333 4.9334 3.6550 6.6600 28.2340
#
#
#
# Elastic Compliance Matrix: (Units=1/GPa)
#
#
# Indices 1 2 3 4 5 6 
#
# 1 0.013643 -0.020138 -0.006114 0.001790 0.000422 0.001040
# 2 -0.020138 0.132539 -0.001183 -0.044559 -0.009772 -0.016322
# 3 -0.006114 -0.001183 0.014200 0.006415 0.002771 -0.001703
# 4 0.001790 -0.044559 0.006415 0.056561 0.009744 -0.000854
# 5 0.000422 -0.009772 0.002771 0.009744 0.026040 -0.005729
# 6 0.001040 -0.016322 -0.001703 -0.000854 -0.005729 0.040675
#
#
# Mechanical properties :
#
#
# Convention : Reuss Voigt Hill
#
# Bulk Modulus (GPa) = 9.47755 47.58548 28.53151
# Shear Modulus (GPa) = 13.37972 30.42597 21.90284
#
# Velocity S-wave (km/s) = 2.58770 3.90223 3.31086
# Velocity P-wave (km/s) = 3.69750 6.64217 5.37540
#
# Compressibility (1/GPa) = 0.10551247
#
# Stress axis : x y z
#
# Youngs Moduli (GPa) = 73.29633 7.54492 70.42373
#
# Poissons Ratio (x) = 0.15194 0.43057
# Poissons Ratio (y) = 1.47602 0.08333
# Poissons Ratio (z) = 0.44814 0.00893
#
# Static dielectric constant tensor:
#      x y z
#    x 1.761270 0.018480 0.024140 
#    y 0.018480 1.726770 0.003070 
#    z 0.024140 0.003070 1.792370 
# 
# From -- ./inp_files/298727.got.cif
#   From: 2010.05.17/outbox.cif.g08.bks.cpg/sg2_150_cif.got.tgz:298727.got - 2010.06.03 11:33:40.
