data_PCOD9004674
_publ_section_title
;
Structure prediction by ZEFSAII (Michael W. Deem and Ramdas Pophale) SiO2 
 PCOD9004674
Probable space group: P -1
;
_chemical_formula_sum "Si O2"
_cell_formula_units_Z 16
_cell_length_a 6.523096
_cell_length_b 20.638395
_cell_length_c 8.443349
_cell_angle_alpha 137.234431
_cell_angle_beta 116.531411
_cell_angle_gamma 79.162133
_cell_volume 671.976338
_symmetry_space_group_name_H-M "P -1"
_symmetry_group_IT_number 2
_symmetry_cell_setting 'triclinic'
loop_
_space_group_symop_operation_xyz
x,y,z
-x,-y,-z
loop_
_atom_site_type_symbol
_atom_site_label
_atom_site_fract_x
_atom_site_fract_y
_atom_site_fract_z
Si Si1 0.115893 0.797566 0.683836
Si Si2 0.536837 0.296804 0.913010
Si Si3 0.438910 0.637982 0.516738
Si Si4 0.528102 0.041140 0.760883
Si Si5 0.729235 0.148833 0.517798
Si Si6 0.097025 0.568398 0.509050
Si Si7 0.227351 0.195470 0.905190
Si Si8 0.693456 0.626676 0.280979
O O1 0.270709 0.715023 0.595335
O O2 0.166999 0.840321 0.602430
O O3 0.854049 0.738719 0.528472
O O4 0.218866 0.886502 0.996033
O O5 0.621681 0.239287 0.695251
O O6 0.343986 0.226403 0.828688
O O7 0.425216 0.380963 0.946796
O O8 0.758156 0.335381 0.174156
O O9 0.305927 0.553348 0.437077
O O10 0.487019 0.607267 0.303468
O O11 0.686114 0.703526 0.785476
O O12 0.347116 0.110480 0.855199
O O13 0.500000 0.000000 0.500000
O O14 0.463864 0.950067 0.693771
O O15 0.951558 0.155472 0.722229
O O16 0.000000 0.500000 0.500000
O O17 0.881885 0.571612 0.322340
#
# Coordination Sequence:
#
# PCOD9004674 Si02
#       8
#     2   2   2   2   2   2   2   2
#     4  10  22  38  57  85 121 159 204 252 295 349
#     4  11  22  40  66  91 118 161 208 245 297 373
#     4   9  20  38  64  85 117 157 200 242 297 361
#     4  11  23  37  55  85 125 160 207 261 301 348
#     4  12  21  38  59  84 120 160 208 253 303 349
#     4  10  24  43  63  96 129 150 190 251 307 369
#     4  10  21  38  57  86 117 165 204 249 305 350
#     4  11  21  41  67  90 118 163 205 244 301 361
#
# _framework density 23.810362000000001
#
# number of rings (size 3 to 8) (size 9 to 14) (size 15 to 20)
#    0.000    1.500    3.750    2.250    1.750    1.000 
#    0.000    1.875    0.000    0.000    0.000    0.000 
#    0.000    0.000    0.000    0.000    0.000    0.000 
#
# Total GULP energy -89353.880764 kJ/mol
# GULP energy per Si atom -5584.617548 kJ/mol
# Density = 2.375617 g / cm^3
# Si number density = 23.810362 Si / 1000 Ang^3
#
#
#
# Elastic Constant Matrix: (Units=GPa)
#
#
# Indices 1 2 3 4 5 6 
#
# 1 57.6336 12.4835 20.1509 9.1847 4.5002 16.3380
# 2 12.4835 89.6811 7.4698 -4.4176 0.1587 14.3421
# 3 20.1509 7.4698 60.5074 -2.9476 7.6562 -5.3297
# 4 9.1847 -4.4176 -2.9476 31.2238 7.4656 10.1652
# 5 4.5002 0.1587 7.6562 7.4656 31.0852 -6.4242
# 6 16.3380 14.3421 -5.3297 10.1652 -6.4242 44.7113
#
#
#
# Elastic Compliance Matrix: (Units=1/GPa)
#
#
# Indices 1 2 3 4 5 6 
#
# 1 0.023993 -0.001508 -0.008541 -0.004851 -0.001949 -0.008479
# 2 -0.001508 0.012394 -0.001055 0.003978 -0.001506 -0.004671
# 3 -0.008541 -0.001055 0.020561 0.003739 -0.003787 0.004516
# 4 -0.004851 0.003978 0.003739 0.040500 -0.012031 -0.009994
# 5 -0.001949 -0.001506 -0.003787 -0.012031 0.038133 0.008958
# 6 -0.008479 -0.004671 0.004516 -0.009994 0.008958 0.031060
#
#
# Mechanical properties :
#
#
# Convention : Reuss Voigt Hill
#
# Bulk Modulus (GPa) = 28.78515 32.00341 30.39428
# Shear Modulus (GPa) = 24.94667 32.58524 28.76596
#
# Velocity S-wave (km/s) = 3.24037 3.70338 3.47958
# Velocity P-wave (km/s) = 5.11034 5.63532 5.37924
#
# Compressibility (1/GPa) = 0.03474014
#
# Stress axis : x y z
#
# Youngs Moduli (GPa) = 41.67960 80.68371 48.63682
#
# Poissons Ratio (x) = 0.12166 0.41539
# Poissons Ratio (y) = 0.06285 0.05131
# Poissons Ratio (z) = 0.35597 0.08512
#
# Static dielectric constant tensor:
#      x y z
#    x 1.891500 -0.027840 -0.007020 
#    y -0.027840 1.966240 0.004190 
#    z -0.007020 0.004190 1.942270 
# 
# From -- ./inp_files/38134.got.cif
#   From: 2010.05.17/outbox.cif.g08.bks.cpg/sg2_20_cif.got.tgz:38134.got - 2010.06.03 11:33:40.
