data_PCOD9004376
_publ_section_title
;
Structure prediction by ZEFSAII (Michael W. Deem and Ramdas Pophale) SiO2 
 PCOD9004376
Probable space group: P -1
;
_chemical_formula_sum "Si O2"
_cell_formula_units_Z 12
_cell_length_a 9.343168
_cell_length_b 9.116247
_cell_length_c 16.141179
_cell_angle_alpha 120.021542
_cell_angle_beta 34.729917
_cell_angle_gamma 129.567076
_cell_volume 602.947206
_symmetry_space_group_name_H-M "P -1"
_symmetry_group_IT_number 2
_symmetry_cell_setting 'triclinic'
loop_
_space_group_symop_operation_xyz
x,y,z
-x,-y,-z
loop_
_atom_site_type_symbol
_atom_site_label
_atom_site_fract_x
_atom_site_fract_y
_atom_site_fract_z
Si Si1 0.673656 0.205570 0.438137
Si Si2 0.227742 0.621159 0.148905
Si Si3 0.304252 0.367933 0.176069
Si Si4 0.247262 0.417041 0.409609
Si Si5 0.623096 0.286003 0.305724
Si Si6 0.194313 0.894441 0.366652
O O1 0.723774 0.377732 0.524066
O O2 0.543072 0.250154 0.430735
O O3 0.978279 0.222514 0.273985
O O4 0.500000 0.000000 0.500000
O O5 0.342313 0.549773 0.153931
O O6 0.149501 0.777175 0.270088
O O7 0.951794 0.439850 0.193586
O O8 0.470012 0.693088 0.985088
O O9 0.323720 0.401849 0.274412
O O10 0.456061 0.374521 0.357761
O O11 0.932241 0.260977 0.543577
O O12 0.511936 0.067148 0.266527
O O13 0.000000 0.000000 0.500000
#
# Coordination Sequence:
#
# PCOD9004376 Si02
#       6
#     2   2   2   2   2   2
#     4  11  22  37  64  95 121 161 210 253 302 364
#     4  10  22  43  60  86 133 159 200 254 308 367
#     4  10  22  40  60  88 126 167 192 257 315 353
#     4  11  21  39  64  90 125 156 211 260 294 362
#     4  10  22  39  64  92 118 164 203 248 313 356
#     4  10  21  37  66  91 118 162 205 253 302 360
#
# _framework density 19.902242000000001
#
# number of rings (size 3 to 8) (size 9 to 14) (size 15 to 20)
#    0.000    1.667    3.333    2.000    4.667    0.667 
#    3.000    5.833    0.000    0.000    0.000    0.000 
#    0.000    0.000    0.000    0.000    0.000    0.000 
#
# Total GULP energy -66882.996359 kJ/mol
# GULP energy per Si atom -5573.583030 kJ/mol
# Density = 1.985694 g / cm^3
# Si number density = 19.902242 Si / 1000 Ang^3
#
#
#
# Elastic Constant Matrix: (Units=GPa)
#
#
# Indices 1 2 3 4 5 6 
#
# 1 113.6571 33.1345 40.8671 -8.0294 4.0424 -3.3391
# 2 33.1345 130.9861 61.8727 -8.6983 6.7875 11.2156
# 3 40.8671 61.8727 141.2785 -8.4053 8.9148 5.7994
# 4 -8.0294 -8.6983 -8.4053 17.4774 -3.2001 -1.1196
# 5 4.0424 6.7875 8.9148 -3.2001 18.1700 -1.0768
# 6 -3.3391 11.2156 5.7994 -1.1196 -1.0768 27.5445
#
#
#
# Elastic Compliance Matrix: (Units=1/GPa)
#
#
# Indices 1 2 3 4 5 6 
#
# 1 0.010347 -0.001579 -0.002225 0.003069 0.000068 0.002493
# 2 -0.001579 0.010301 -0.003685 0.002120 -0.001528 -0.003584
# 3 -0.002225 -0.003685 0.009612 0.001221 -0.002680 -0.000848
# 4 0.003069 0.002120 0.001221 0.062050 0.008980 0.002125
# 5 0.000068 -0.001528 -0.002680 0.008980 0.058716 0.003855
# 6 0.002493 -0.003584 -0.000848 0.002125 0.003855 0.038482
#
#
# Mechanical properties :
#
#
# Convention : Reuss Voigt Hill
#
# Bulk Modulus (GPa) = 65.44048 73.07445 69.25747
# Shear Modulus (GPa) = 23.85713 29.30820 26.58267
#
# Velocity S-wave (km/s) = 3.46600 3.84162 3.65864
# Velocity P-wave (km/s) = 6.99785 7.51491 7.26098
#
# Compressibility (1/GPa) = 0.01528106
#
# Stress axis : x y z
#
# Youngs Moduli (GPa) = 96.64983 97.07473 104.03307
#
# Poissons Ratio (x) = 0.15332 0.23150
# Poissons Ratio (y) = 0.15264 0.38336
# Poissons Ratio (z) = 0.21507 0.35772
#
# Static dielectric constant tensor:
#      x y z
#    x 1.779380 0.017340 -0.020290 
#    y 0.017340 1.743200 0.000750 
#    z -0.020290 0.000750 1.707970 
# 
# From -- ./inp_files/152448.got.cif
#   From: 2010.05.17/outbox.cif.g08.bks.cpg/sg2_77_cif.got.tgz:152448.got - 2010.06.03 11:33:40.
