data_PCOD9004990
_publ_section_title
;
Structure prediction by ZEFSAII (Michael W. Deem and Ramdas Pophale) SiO2 
 PCOD9004990
Probable space group: P -1
;
_chemical_formula_sum "Si O2"
_cell_formula_units_Z 16
_cell_length_a 19.769592
_cell_length_b 16.250923
_cell_length_c 5.092859
_cell_angle_alpha 105.725423
_cell_angle_beta 63.572744
_cell_angle_gamma 146.782499
_cell_volume 785.372899
_symmetry_space_group_name_H-M "P -1"
_symmetry_group_IT_number 2
_symmetry_cell_setting 'triclinic'
loop_
_space_group_symop_operation_xyz
x,y,z
-x,-y,-z
loop_
_atom_site_type_symbol
_atom_site_label
_atom_site_fract_x
_atom_site_fract_y
_atom_site_fract_z
Si Si1 0.928122 0.648172 0.522378
Si Si2 0.538664 0.437998 0.372852
Si Si3 0.682609 0.084848 0.505881
Si Si4 0.224589 0.447707 0.818294
Si Si5 0.136122 0.598925 0.689998
Si Si6 0.237191 0.943039 0.158536
Si Si7 0.609412 0.246089 0.331141
Si Si8 0.539769 0.735967 0.148388
O O1 0.827813 0.583583 0.409295
O O2 0.910253 0.529875 0.490274
O O3 0.078353 0.805523 0.303293
O O4 0.894795 0.662067 0.862926
O O5 0.500000 0.500000 0.500000
O O6 0.690031 0.557893 0.311790
O O7 0.452028 0.302801 0.619083
O O8 0.526126 0.387259 0.060027
O O9 0.787091 0.261714 0.512321
O O10 0.721135 0.049193 0.619034
O O11 0.517910 0.934153 0.681269
O O12 0.719118 0.088168 0.152832
O O13 0.325387 0.622875 0.867653
O O14 0.263167 0.688340 0.730583
O O15 0.000000 0.500000 0.000000
O O16 0.316651 0.101381 0.072216
O O17 0.542319 0.251803 0.656075
#
# Coordination Sequence:
#
# PCOD9004990 Si02
#       8
#     2   2   2   2   2   2   2   2
#     4  11  23  38  59  82 120 162 201 242 294 355
#     4  11  21  38  66  96 120 143 186 247 299 349
#     4  11  23  38  58  83 116 158 211 257 302 335
#     4  10  21  38  60  86 115 154 196 237 298 362
#     4  11  22  38  57  85 122 158 206 260 306 339
#     4  11  22  39  61  83 116 161 205 240 288 356
#     4   9  21  39  59  84 118 160 203 250 297 351
#     4  10  21  39  62  89 119 156 196 234 293 359
#
# _framework density 20.372488000000001
#
# number of rings (size 3 to 8) (size 9 to 14) (size 15 to 20)
#    0.000    1.500    1.250    6.000    1.750    4.500 
#    0.000    3.750    0.000    4.500    0.000    0.000 
#    0.000    0.000    0.000    0.000    0.000    0.000 
#
# Total GULP energy -89291.381110 kJ/mol
# GULP energy per Si atom -5580.711319 kJ/mol
# Density = 2.032612 g / cm^3
# Si number density = 20.372488 Si / 1000 Ang^3
#
#
#
# Elastic Constant Matrix: (Units=GPa)
#
#
# Indices 1 2 3 4 5 6 
#
# 1 68.6107 26.8193 25.9938 -12.9067 -9.4885 -13.0072
# 2 26.8193 58.7126 27.0217 -18.9812 -12.9682 8.1601
# 3 25.9938 27.0217 67.5772 -11.2508 -7.4368 -4.8985
# 4 -12.9067 -18.9812 -11.2508 37.3411 7.0254 -9.0125
# 5 -9.4885 -12.9682 -7.4368 7.0254 28.5203 -2.6576
# 6 -13.0072 8.1601 -4.8985 -9.0125 -2.6576 22.5756
#
#
#
# Elastic Compliance Matrix: (Units=1/GPa)
#
#
# Indices 1 2 3 4 5 6 
#
# 1 0.025363 -0.010269 -0.002558 0.007239 0.003280 0.021046
# 2 -0.010269 0.030355 -0.007982 0.004507 0.005690 -0.016151
# 3 -0.002558 -0.007982 0.019985 0.002601 0.000730 0.006872
# 4 0.007239 0.004507 0.002601 0.037052 -0.002349 0.017621
# 5 0.003280 0.005690 0.000730 -0.002349 0.039859 0.003746
# 6 0.021046 -0.016151 0.006872 0.017621 0.003746 0.071226
#
#
# Mechanical properties :
#
#
# Convention : Reuss Voigt Hill
#
# Bulk Modulus (GPa) = 29.33844 39.39669 34.36756
# Shear Modulus (GPa) = 18.06225 25.35846 21.71036
#
# Velocity S-wave (km/s) = 2.98081 3.53192 3.26800
# Velocity P-wave (km/s) = 5.12633 6.00106 5.58086
#
# Compressibility (1/GPa) = 0.03408498
#
# Stress axis : x y z
#
# Youngs Moduli (GPa) = 39.42709 32.94354 50.03672
#
# Poissons Ratio (x) = 0.33828 0.12801
# Poissons Ratio (y) = 0.40486 0.39941
# Poissons Ratio (z) = 0.10087 0.26296
#
# Static dielectric constant tensor:
#      x y z
#    x 1.726200 0.016800 -0.004320 
#    y 0.016800 1.787140 -0.008580 
#    z -0.004320 -0.008580 1.739730 
# 
# From -- ./inp_files/110553.got.cif
#   From: 2010.05.17/outbox.cif.g08.bks.cpg/sg2_56_cif.got.tgz:110553.got - 2010.06.03 11:33:40.
