data_PCOD9004541
_publ_section_title
;
Structure prediction by ZEFSAII (Michael W. Deem and Ramdas Pophale) SiO2 
 PCOD9004541
Probable space group: P -1
;
_chemical_formula_sum "Si O2"
_cell_formula_units_Z 16
_cell_length_a 10.395424
_cell_length_b 8.050802
_cell_length_c 7.634508
_cell_angle_alpha 67.841034
_cell_angle_beta 107.254051
_cell_angle_gamma 104.569384
_cell_volume 558.030688
_symmetry_space_group_name_H-M "P -1"
_symmetry_group_IT_number 2
_symmetry_cell_setting 'triclinic'
loop_
_space_group_symop_operation_xyz
x,y,z
-x,-y,-z
loop_
_atom_site_type_symbol
_atom_site_label
_atom_site_fract_x
_atom_site_fract_y
_atom_site_fract_z
Si Si1 0.213519 0.683986 0.514282
Si Si2 0.367837 0.712351 0.062631
Si Si3 0.507864 0.406719 0.341329
Si Si4 0.327946 0.076629 0.247326
Si Si5 0.055780 0.139557 0.619814
Si Si6 0.651339 0.910792 0.172773
Si Si7 0.908580 0.463632 0.788517
Si Si8 0.043835 0.198771 0.092500
O O1 0.341719 0.601067 0.675151
O O2 0.069623 0.742407 0.488520
O O3 0.157828 0.517757 0.429541
O O4 0.286910 0.867280 0.372204
O O5 0.426227 0.526052 0.134540
O O6 0.497489 0.814989 0.188036
O O7 0.220089 0.642756 0.113616
O O8 0.338102 0.875338 0.858259
O O9 0.500000 0.500000 0.500000
O O10 0.435334 0.198433 0.368118
O O11 0.194470 0.166288 0.186154
O O12 0.349124 0.096813 0.038083
O O13 0.222535 0.173033 0.663656
O O14 0.044905 0.996413 0.839388
O O15 0.000000 0.000000 0.500000
O O16 0.972425 0.649216 0.828046
O O17 0.013789 0.321344 0.868061
#
# Coordination Sequence:
#
# PCOD9004541 Si02
#       8
#     2   2   2   2   2   2   2   2
#     4  11  23  40  67  96 130 171 221 267 324 390
#     4  11  23  41  67  91 137 175 214 275 326 382
#     4  12  23  41  63  98 138 167 215 266 327 389
#     4  11  21  39  65  97 123 173 221 269 318 383
#     4  11  25  45  65  95 134 174 214 271 336 389
#     4  11  24  43  66  94 129 175 223 268 326 393
#     4  11  19  41  65  99 123 172 216 276 320 378
#     4  10  21  37  69  93 128 163 222 272 322 387
#
# _framework density 28.672257999999999
#
# number of rings (size 3 to 8) (size 9 to 14) (size 15 to 20)
#    0.000    1.000    5.000    1.125    0.000    7.500 
#    0.000    3.750    0.000    0.000    0.000    0.000 
#    0.000    0.000    0.000    0.000    0.000    0.000 
#
# Total GULP energy -89230.023426 kJ/mol
# GULP energy per Si atom -5576.876464 kJ/mol
# Density = 2.860700 g / cm^3
# Si number density = 28.672258 Si / 1000 Ang^3
#
#
#
# Elastic Constant Matrix: (Units=GPa)
#
#
# Indices 1 2 3 4 5 6 
#
# 1 160.3420 50.5716 45.0577 -7.9511 56.2466 5.3880
# 2 50.5716 151.3800 32.0360 -12.0699 15.0541 -13.3625
# 3 45.0577 32.0360 96.5892 -4.0918 24.6202 -14.6607
# 4 -7.9511 -12.0699 -4.0918 62.8387 -12.7474 17.5209
# 5 56.2466 15.0541 24.6202 -12.7474 62.3822 -4.4181
# 6 5.3880 -13.3625 -14.6607 17.5209 -4.4181 48.8920
#
#
#
# Elastic Compliance Matrix: (Units=1/GPa)
#
#
# Indices 1 2 3 4 5 6 
#
# 1 0.010809 -0.002535 -0.002588 -0.000035 -0.008361 -0.003403
# 2 -0.002535 0.007858 -0.001434 0.000846 0.001256 0.001807
# 3 -0.002588 -0.001434 0.013254 -0.001412 -0.002546 0.004144
# 4 -0.000035 0.000846 -0.001412 0.018545 0.003714 -0.006498
# 5 -0.008361 0.001256 -0.002546 0.003714 0.025132 0.001441
# 6 -0.003403 0.001807 0.004144 -0.006498 0.001441 0.025024
#
#
# Mechanical properties :
#
#
# Convention : Reuss Voigt Hill
#
# Bulk Modulus (GPa) = 53.17097 73.73796 63.45447
# Shear Modulus (GPa) = 41.66467 53.53231 47.59849
#
# Velocity S-wave (km/s) = 3.81614 4.32562 4.07884
# Velocity P-wave (km/s) = 6.16456 7.12189 6.66045
#
# Compressibility (1/GPa) = 0.01880725
#
# Stress axis : x y z
#
# Youngs Moduli (GPa) = 92.51459 127.25432 75.44726
#
# Poissons Ratio (x) = 0.32258 0.19529
# Poissons Ratio (y) = 0.23452 0.10818
# Poissons Ratio (z) = 0.23947 0.18246
#
# Static dielectric constant tensor:
#      x y z
#    x 2.226810 0.028470 -0.174990 
#    y 0.028470 2.513150 0.010340 
#    z -0.174990 0.010340 2.480540 
# 
# From -- ./inp_files/234434.got.cif
#   From: 2010.05.17/outbox.cif.g08.bks.cpg/sg2_118_cif.got.tgz:234434.got - 2010.06.03 11:33:40.
