data_PCOD9004960
_publ_section_title
;
Structure prediction by ZEFSAII (Michael W. Deem and Ramdas Pophale) SiO2 
 PCOD9004960
Probable space group: P -1
;
_chemical_formula_sum "Si O2"
_cell_formula_units_Z 16
_cell_length_a 11.530452
_cell_length_b 19.223850
_cell_length_c 7.578534
_cell_angle_alpha 79.632116
_cell_angle_beta 98.736741
_cell_angle_gamma 31.246023
_cell_volume 686.199386
_symmetry_space_group_name_H-M "P -1"
_symmetry_group_IT_number 2
_symmetry_cell_setting 'triclinic'
loop_
_space_group_symop_operation_xyz
x,y,z
-x,-y,-z
loop_
_atom_site_type_symbol
_atom_site_label
_atom_site_fract_x
_atom_site_fract_y
_atom_site_fract_z
Si Si1 0.538443 0.560772 0.433895
Si Si2 0.015351 0.070128 0.766655
Si Si3 0.774596 0.677064 0.460040
Si Si4 0.072642 0.628798 0.103438
Si Si5 0.730559 0.333384 0.015887
Si Si6 0.154963 0.986450 0.259259
Si Si7 0.443928 0.173416 0.022618
Si Si8 0.179576 0.458407 0.947620
O O1 0.500000 0.500000 0.500000
O O2 0.294539 0.732378 0.403358
O O3 0.820435 0.435404 0.640715
O O4 0.457597 0.610616 0.188512
O O5 0.991644 0.004926 0.715326
O O6 0.099529 0.019585 0.018128
O O7 0.233826 0.007510 0.772568
O O8 0.634636 0.796429 0.213667
O O9 0.000000 0.500000 0.500000
O O10 0.971815 0.603613 0.685788
O O11 0.494029 0.800158 0.437270
O O12 0.104952 0.692417 0.030877
O O13 0.766774 0.762251 0.954260
O O14 0.262335 0.475601 0.090119
O O15 0.500000 0.500000 0.000000
O O16 0.977186 0.147986 0.226645
O O17 0.395078 0.285242 0.989687
O O18 0.000000 0.500000 0.000000
#
# Coordination Sequence:
#
# PCOD9004960 Si02
#       8
#     2   2   2   2   2   2   2   2
#     4   9  20  39  60  85 119 158 197 243 302 373
#     4   9  18  34  61  87 120 149 200 256 303 353
#     4   9  18  34  59  88 121 155 201 248 304 368
#     4  10  21  38  60  83 123 161 199 247 301 362
#     4  10  22  40  61  87 122 162 207 248 305 365
#     4   9  19  35  58  90 122 153 204 258 295 354
#     4   9  19  35  57  90 118 154 202 247 309 360
#     4   9  19  33  53  86 126 154 195 244 299 360
#
# _framework density 23.316839000000002
#
# number of rings (size 3 to 8) (size 9 to 14) (size 15 to 20)
#    0.000    2.750    0.000    0.000    7.000    1.000 
#    0.000   16.250    0.000    0.000    0.000    0.000 
#    0.000    0.000    0.000    0.000    0.000    0.000 
#
# Total GULP energy -89118.102553 kJ/mol
# GULP energy per Si atom -5569.881410 kJ/mol
# Density = 2.326377 g / cm^3
# Si number density = 23.316839 Si / 1000 Ang^3
#
#
#
# Elastic Constant Matrix: (Units=GPa)
#
#
# Indices 1 2 3 4 5 6 
#
# 1 90.6700 30.5039 26.5369 -18.2444 22.5787 0.0738
# 2 30.5039 83.8598 30.9673 -13.0917 16.7634 -2.4052
# 3 26.5369 30.9673 55.7277 -1.4704 19.5884 2.7161
# 4 -18.2444 -13.0917 -1.4704 36.2679 -4.5379 10.6532
# 5 22.5787 16.7634 19.5884 -4.5379 30.5166 -7.1169
# 6 0.0738 -2.4052 2.7161 10.6532 -7.1169 35.2454
#
#
#
# Elastic Compliance Matrix: (Units=1/GPa)
#
#
# Indices 1 2 3 4 5 6 
#
# 1 0.016299 -0.001946 -0.003223 0.007427 -0.008733 -0.003927
# 2 -0.001946 0.016473 -0.007300 0.004416 -0.002291 -0.000107
# 3 -0.003223 -0.007300 0.028334 -0.003510 -0.013318 -0.004303
# 4 0.007427 0.004416 -0.003510 0.035564 -0.002893 -0.010777
# 5 -0.008733 -0.002291 -0.013318 -0.002893 0.051442 0.012150
# 6 -0.003927 -0.000107 -0.004303 -0.010777 0.012150 0.034416
#
#
# Mechanical properties :
#
#
# Convention : Reuss Voigt Hill
#
# Bulk Modulus (GPa) = 27.64864 45.14152 36.39508
# Shear Modulus (GPa) = 22.77679 29.88927 26.33303
#
# Velocity S-wave (km/s) = 3.12883 3.58421 3.36424
# Velocity P-wave (km/s) = 4.99363 6.04408 5.54379
#
# Compressibility (1/GPa) = 0.03616814
#
# Stress axis : x y z
#
# Youngs Moduli (GPa) = 61.35199 60.70706 35.29304
#
# Poissons Ratio (x) = 0.11814 0.11375
# Poissons Ratio (y) = 0.11940 0.25763
# Poissons Ratio (z) = 0.19774 0.44315
#
# Static dielectric constant tensor:
#      x y z
#    x 1.819600 -0.018820 -0.031930 
#    y -0.018820 2.003630 0.011050 
#    z -0.031930 0.011050 1.901920 
# 
# From -- ./inp_files/283056.got.cif
#   From: 2010.05.17/outbox.cif.g08.bks.cpg/sg2_142_cif.got.tgz:283056.got - 2010.06.03 11:33:40.
