data_PCOD9004240
_publ_section_title
;
Structure prediction by ZEFSAII (Michael W. Deem and Ramdas Pophale) SiO2 
 PCOD9004240
Probable space group: P -1
;
_chemical_formula_sum "Si O2"
_cell_formula_units_Z 14
_cell_length_a 15.574570
_cell_length_b 7.435540
_cell_length_c 9.087742
_cell_angle_alpha 130.831686
_cell_angle_beta 42.931816
_cell_angle_gamma 116.178201
_cell_volume 540.931850
_symmetry_space_group_name_H-M "P -1"
_symmetry_group_IT_number 2
_symmetry_cell_setting 'triclinic'
loop_
_space_group_symop_operation_xyz
x,y,z
-x,-y,-z
loop_
_atom_site_type_symbol
_atom_site_label
_atom_site_fract_x
_atom_site_fract_y
_atom_site_fract_z
Si Si1 0.374238 0.519946 0.490119
Si Si2 0.118826 0.567704 0.982217
Si Si3 0.305539 0.142744 0.153918
Si Si4 0.186025 0.762779 0.291439
Si Si5 0.816963 0.957528 0.262582
Si Si6 0.542881 0.871534 0.572628
Si Si7 0.877738 0.693542 0.773519
O O1 0.243498 0.649623 0.788030
O O2 0.333486 0.388029 0.326780
O O3 0.483566 0.698464 0.436872
O O4 0.423566 0.309259 0.428850
O O5 0.165142 0.305428 0.835584
O O6 0.094905 0.726926 0.243989
O O7 0.000000 0.500000 0.000000
O O8 0.180345 0.196617 0.242857
O O9 0.282448 0.940571 0.197735
O O10 0.427685 0.051551 0.861548
O O11 0.224776 0.487510 0.134498
O O12 0.146767 0.876559 0.559361
O O13 0.667640 0.998903 0.443001
O O14 0.887970 0.910189 0.992734
O O15 0.000000 0.500000 0.500000
#
# Coordination Sequence:
#
# PCOD9004240 Si02
#       7
#     2   2   2   2   2   2   2
#     4  10  21  37  69 111 142 182 236 298 345 427
#     4  10  21  37  65 106 141 179 242 288 349 430
#     4  12  24  43  76 107 138 196 236 285 368 426
#     4  11  24  47  73 103 141 190 239 292 364 417
#     4  10  24  45  72 100 144 193 230 305 361 416
#     4  10  21  41  72 108 148 181 242 290 364 427
#     4  11  30  49  66 107 149 184 249 301 351 428
#
# _framework density 25.881266
#
# number of rings (size 3 to 8) (size 9 to 14) (size 15 to 20)
#    0.000    1.429    4.286    0.429    6.000    4.571 
#    0.000    1.429    0.000    0.000    0.000    0.000 
#    0.000    0.000    0.000    0.000    0.000    0.000 
#
# Total GULP energy -78180.145449 kJ/mol
# GULP energy per Si atom -5584.296103 kJ/mol
# Density = 2.582236 g / cm^3
# Si number density = 25.881266 Si / 1000 Ang^3
#
#
#
# Elastic Constant Matrix: (Units=GPa)
#
#
# Indices 1 2 3 4 5 6 
#
# 1 143.1905 29.0701 98.4521 7.2065 16.8251 26.0850
# 2 29.0701 71.1606 23.8367 3.5373 5.7060 9.3079
# 3 98.4521 23.8367 147.0249 14.7796 6.5040 29.4609
# 4 7.2065 3.5373 14.7796 32.3282 20.5720 -1.6848
# 5 16.8251 5.7060 6.5040 20.5720 60.6336 21.9780
# 6 26.0850 9.3079 29.4609 -1.6848 21.9780 48.2868
#
#
#
# Elastic Compliance Matrix: (Units=1/GPa)
#
#
# Indices 1 2 3 4 5 6 
#
# 1 0.014179 -0.002582 -0.009469 0.004301 -0.004416 0.000775
# 2 -0.002582 0.015468 -0.000365 -0.001192 0.000256 -0.001522
# 3 -0.009469 -0.000365 0.015459 -0.009928 0.007230 -0.007884
# 4 0.004301 -0.001192 -0.009928 0.049999 -0.022813 0.016092
# 5 -0.004416 0.000256 0.007230 -0.022813 0.030776 -0.016879
# 6 0.000775 -0.001522 -0.007884 0.016092 -0.016879 0.033638
#
#
# Mechanical properties :
#
#
# Convention : Reuss Voigt Hill
#
# Bulk Modulus (GPa) = 49.32264 73.78821 61.55542
# Shear Modulus (GPa) = 26.16299 42.25088 34.20694
#
# Velocity S-wave (km/s) = 3.18289 4.04479 3.63945
# Velocity P-wave (km/s) = 5.71020 7.09831 6.44175
#
# Compressibility (1/GPa) = 0.02027467
#
# Stress axis : x y z
#
# Youngs Moduli (GPa) = 70.52500 64.65114 64.68641
#
# Poissons Ratio (x) = 0.16692 0.61249
# Poissons Ratio (y) = 0.18208 0.02363
# Poissons Ratio (z) = 0.66778 0.02362
#
# Static dielectric constant tensor:
#      x y z
#    x 2.159360 0.047890 -0.013290 
#    y 0.047890 2.073140 -0.104120 
#    z -0.013290 -0.104120 2.130210 
# 
# From -- ./inp_files/296579.got.cif
#   From: 2010.05.17/outbox.cif.g08.bks.cpg/sg2_149_cif.got.tgz:296579.got - 2010.06.03 11:33:40.
