data_PCOD9004080
_publ_section_title
;
Structure prediction by ZEFSAII (Michael W. Deem and Ramdas Pophale) SiO2 
 PCOD9004080
Probable space group: P -1
;
_chemical_formula_sum "Si O2"
_cell_formula_units_Z 12
_cell_length_a 11.164901
_cell_length_b 11.968124
_cell_length_c 7.823662
_cell_angle_alpha 94.792310
_cell_angle_beta 45.902965
_cell_angle_gamma 124.935319
_cell_volume 520.018288
_symmetry_space_group_name_H-M "P -1"
_symmetry_group_IT_number 2
_symmetry_cell_setting 'triclinic'
loop_
_space_group_symop_operation_xyz
x,y,z
-x,-y,-z
loop_
_atom_site_type_symbol
_atom_site_label
_atom_site_fract_x
_atom_site_fract_y
_atom_site_fract_z
Si Si1 0.321159 0.744977 0.236576
Si Si2 0.803258 0.567083 0.657393
Si Si3 0.838909 0.982650 0.798899
Si Si4 0.250131 0.831524 0.661182
Si Si5 0.138637 0.320073 0.732566
Si Si6 0.192689 0.258126 0.022106
O O1 0.292480 0.599293 0.209164
O O2 0.283329 0.753507 0.475935
O O3 0.093781 0.695645 0.371545
O O4 0.593925 0.911554 0.950673
O O5 0.745592 0.633338 0.863223
O O6 0.723507 0.555069 0.542743
O O7 0.762338 0.847806 0.989290
O O8 0.995766 0.149239 0.762390
O O9 0.000000 0.000000 0.500000
O O10 0.095078 0.857105 0.731740
O O11 0.500000 0.000000 0.500000
O O12 0.071037 0.706747 0.974154
O O13 0.277372 0.338185 0.761072
#
# Coordination Sequence:
#
# PCOD9004080 Si02
#       6
#     2   2   2   2   2   2
#     4  10  22  39  62  88 122 154 199 246 295 349
#     4  10  21  42  61  88 119 158 198 246 291 351
#     4  12  22  38  62  90 120 161 194 243 302 352
#     4   9  18  36  61  85 113 155 194 250 284 334
#     4  10  21  37  64  85 120 152 204 242 291 352
#     4   9  21  37  59  84 124 153 192 244 292 350
#
# _framework density 23.076111000000001
#
# number of rings (size 3 to 8) (size 9 to 14) (size 15 to 20)
#    1.000    1.000    3.333    0.500    0.000    3.333 
#    0.000    0.833    0.000    0.000    0.000    0.000 
#    0.000    0.000    0.000    0.000    0.000    0.000 
#
# Total GULP energy -66989.737069 kJ/mol
# GULP energy per Si atom -5582.478089 kJ/mol
# Density = 2.302359 g / cm^3
# Si number density = 23.076111 Si / 1000 Ang^3
#
#
#
# Elastic Constant Matrix: (Units=GPa)
#
#
# Indices 1 2 3 4 5 6 
#
# 1 103.5336 14.7948 26.4733 -7.8386 3.7977 18.4019
# 2 14.7948 61.8433 -4.5445 12.3944 -0.5160 4.4243
# 3 26.4733 -4.5445 95.5355 4.9041 0.9327 9.0745
# 4 -7.8386 12.3944 4.9041 30.5284 6.8161 -0.1589
# 5 3.7977 -0.5160 0.9327 6.8161 44.3565 -4.8293
# 6 18.4019 4.4243 9.0745 -0.1589 -4.8293 39.5292
#
#
#
# Elastic Compliance Matrix: (Units=1/GPa)
#
#
# Indices 1 2 3 4 5 6 
#
# 1 0.012553 -0.004135 -0.003497 0.005997 -0.002500 -0.004860
# 2 -0.004135 0.019375 0.002612 -0.009788 0.001959 -0.000643
# 3 -0.003497 0.002612 0.011888 -0.003997 0.000548 -0.001343
# 4 0.005997 -0.009788 -0.003997 0.040449 -0.006918 -0.001461
# 5 -0.002500 0.001959 0.000548 -0.006918 0.024242 0.003753
# 6 -0.004860 -0.000643 -0.001343 -0.001461 0.003753 0.028393
#
#
# Mechanical properties :
#
#
# Convention : Reuss Voigt Hill
#
# Bulk Modulus (GPa) = 29.60698 37.15108 33.37903
# Shear Modulus (GPa) = 31.60572 37.82874 34.71723
#
# Velocity S-wave (km/s) = 3.70487 4.05322 3.88295
# Velocity P-wave (km/s) = 5.58206 6.16759 5.88211
#
# Compressibility (1/GPa) = 0.03377582
#
# Stress axis : x y z
#
# Youngs Moduli (GPa) = 79.66067 51.61246 84.11849
#
# Poissons Ratio (x) = 0.21342 0.29417
# Poissons Ratio (y) = 0.32941 -0.21971
# Poissons Ratio (z) = 0.27858 -0.13481
#
# Static dielectric constant tensor:
#      x y z
#    x 1.876580 0.013020 -0.014760 
#    y 0.013020 1.844580 -0.046710 
#    z -0.014760 -0.046710 1.882980 
# 
# From -- ./inp_files/156783.got.cif
#   From: 2010.05.17/outbox.cif.g08.bks.cpg/sg2_79_cif.got.tgz:156783.got - 2010.06.03 11:33:40.
