data_PCOD9004476
_publ_section_title
;
Structure prediction by ZEFSAII (Michael W. Deem and Ramdas Pophale) SiO2 
 PCOD9004476
Probable space group: P -1
;
_chemical_formula_sum "Si O2"
_cell_formula_units_Z 16
_cell_length_a 17.070512
_cell_length_b 15.242707
_cell_length_c 5.449198
_cell_angle_alpha 89.394017
_cell_angle_beta 103.809008
_cell_angle_gamma 149.232069
_cell_volume 648.131876
_symmetry_space_group_name_H-M "P -1"
_symmetry_group_IT_number 2
_symmetry_cell_setting 'triclinic'
loop_
_space_group_symop_operation_xyz
x,y,z
-x,-y,-z
loop_
_atom_site_type_symbol
_atom_site_label
_atom_site_fract_x
_atom_site_fract_y
_atom_site_fract_z
Si Si1 0.844025 0.280755 0.905504
Si Si2 0.407386 0.486567 0.278900
Si Si3 0.972690 0.891794 0.804392
Si Si4 0.587365 0.845635 0.357558
Si Si5 0.934000 0.177743 0.848310
Si Si6 0.405405 0.711844 0.720323
Si Si7 0.792242 0.298637 0.364828
Si Si8 0.203845 0.350002 0.716264
O O1 0.924967 0.261727 0.974963
O O2 0.746567 0.201509 0.578401
O O3 0.737940 0.202135 0.071184
O O4 0.000000 0.500000 0.000000
O O5 0.500000 0.500000 0.500000
O O6 0.228014 0.321774 0.293632
O O7 0.524133 0.684523 0.346666
O O8 0.336963 0.411903 0.947640
O O9 0.954414 0.860448 0.499767
O O10 0.095802 0.932502 0.988975
O O11 0.000000 0.000000 0.000000
O O12 0.506501 0.816033 0.536719
O O13 0.790021 0.043293 0.537240
O O14 0.523162 0.817254 0.047797
O O15 0.113574 0.326341 0.854540
O O16 0.280430 0.673905 0.664455
O O17 0.302424 0.521318 0.640384
O O18 0.000000 0.500000 0.500000
#
# Coordination Sequence:
#
# PCOD9004476 Si02
#       8
#     2   2   2   2   2   2   2   2
#     4  10  22  38  64 102 130 175 226 278 339 397
#     4  10  22  43  65  97 137 179 230 284 351 413
#     4  11  24  43  68 103 135 177 237 286 342 410
#     4  11  25  45  66 102 137 191 224 285 355 412
#     4  11  26  42  70  99 143 179 231 288 342 411
#     4  11  23  45  71  98 140 182 234 280 347 420
#     4  10  21  37  67  98 130 170 231 282 331 402
#     4  10  23  42  71  99 133 186 230 285 342 412
#
# _framework density 24.686333000000001
#
# number of rings (size 3 to 8) (size 9 to 14) (size 15 to 20)
#    0.000    1.500    1.250    3.000    7.000    2.500 
#    2.250    3.750    0.000    0.000    0.000    0.000 
#    0.000    0.000    0.000    0.000    0.000    0.000 
#
# Total GULP energy -89352.903006 kJ/mol
# GULP energy per Si atom -5584.556438 kJ/mol
# Density = 2.463015 g / cm^3
# Si number density = 24.686333 Si / 1000 Ang^3
#
#
#
# Elastic Constant Matrix: (Units=GPa)
#
#
# Indices 1 2 3 4 5 6 
#
# 1 148.0458 21.4028 95.7248 5.2668 10.6483 -36.2815
# 2 21.4028 39.7333 15.2222 7.5815 -6.6616 -9.8235
# 3 95.7248 15.2222 158.0023 -12.3733 -8.8541 -17.8826
# 4 5.2668 7.5815 -12.3733 29.2705 10.7685 0.3059
# 5 10.6483 -6.6616 -8.8541 10.7685 40.7828 -4.0105
# 6 -36.2815 -9.8235 -17.8826 0.3059 -4.0105 32.2724
#
#
#
# Elastic Compliance Matrix: (Units=1/GPa)
#
#
# Indices 1 2 3 4 5 6 
#
# 1 0.016249 -0.002097 -0.008854 -0.004764 -0.004043 0.012266
# 2 -0.002097 0.032836 -0.001392 -0.012362 0.009678 0.008186
# 3 -0.008854 -0.001392 0.012073 0.006075 0.002767 -0.003401
# 4 -0.004764 -0.012362 0.006075 0.045356 -0.012190 -0.007697
# 5 -0.004043 0.009678 0.002767 -0.012190 0.031364 0.003947
# 6 0.012266 0.008186 -0.003401 -0.007697 0.003947 0.045946
#
#
# Mechanical properties :
#
#
# Convention : Reuss Voigt Hill
#
# Bulk Modulus (GPa) = 27.41840 67.83123 47.62481
# Shear Modulus (GPa) = 22.65860 34.69392 28.67626
#
# Velocity S-wave (km/s) = 3.03291 3.75292 3.41196
# Velocity P-wave (km/s) = 4.83689 6.80559 5.90388
#
# Compressibility (1/GPa) = 0.03647186
#
# Stress axis : x y z
#
# Youngs Moduli (GPa) = 61.54357 30.45428 82.83057
#
# Poissons Ratio (x) = 0.06386 0.73334
# Poissons Ratio (y) = 0.12906 0.11533
# Poissons Ratio (z) = 0.54488 0.04240
#
# Static dielectric constant tensor:
#      x y z
#    x 1.925720 0.012510 -0.103120 
#    y 0.012510 2.064190 -0.141520 
#    z -0.103120 -0.141520 2.335320 
# 
# From -- ./inp_files/90394.got.cif
#   From: 2010.05.17/outbox.cif.g08.bks.cpg/sg2_46_cif.got.tgz:90394.got - 2010.06.03 11:33:40.
