data_PCOD9004520
_publ_section_title
;
Structure prediction by ZEFSAII (Michael W. Deem and Ramdas Pophale) SiO2 
 PCOD9004520
Probable space group: P -1
;
_chemical_formula_sum "Si O2"
_cell_formula_units_Z 14
_cell_length_a 16.520923
_cell_length_b 7.139538
_cell_length_c 5.314093
_cell_angle_alpha 104.523150
_cell_angle_beta 120.095949
_cell_angle_gamma 79.817020
_cell_volume 524.000419
_symmetry_space_group_name_H-M "P -1"
_symmetry_group_IT_number 2
_symmetry_cell_setting 'triclinic'
loop_
_space_group_symop_operation_xyz
x,y,z
-x,-y,-z
loop_
_atom_site_type_symbol
_atom_site_label
_atom_site_fract_x
_atom_site_fract_y
_atom_site_fract_z
Si Si1 0.996824 0.766063 0.900065
Si Si2 0.825180 0.181916 0.065119
Si Si3 0.662687 0.421818 0.181398
Si Si4 0.333840 0.875444 0.551190
Si Si5 0.495392 0.711254 0.436680
Si Si6 0.321987 0.222310 0.018914
Si Si7 0.889161 0.781440 0.232695
O O1 0.929727 0.724040 0.548300
O O2 0.101703 0.707851 0.951930
O O3 0.955464 0.705096 0.081646
O O4 0.000000 0.000000 0.000000
O O5 0.756106 0.067684 0.738999
O O6 0.754258 0.323099 0.155203
O O7 0.880002 0.018990 0.268186
O O8 0.676672 0.350286 0.463024
O O9 0.654588 0.634986 0.126984
O O10 0.566130 0.323434 0.917317
O O11 0.431889 0.863240 0.555642
O O12 0.328640 0.011882 0.829853
O O13 0.500000 0.500000 0.500000
O O14 0.601418 0.767638 0.639955
O O15 0.217683 0.273165 0.968102
#
# Coordination Sequence:
#
# PCOD9004520 Si02
#       7
#     2   2   2   2   2   2   2
#     4  10  21  37  68  98 132 176 227 273 337 403
#     4  10  21  41  65  93 136 169 219 275 334 398
#     4  10  23  42  64  96 129 173 221 269 340 395
#     4  11  22  42  66  98 125 176 223 270 334 400
#     4   9  22  43  61  97 131 171 221 271 334 400
#     4  11  22  42  65  94 134 169 225 278 327 395
#     4  11  22  40  64 104 129 177 229 273 335 404
#
# _framework density 26.717534000000001
#
# number of rings (size 3 to 8) (size 9 to 14) (size 15 to 20)
#    0.000    1.714    1.429    3.857    2.000    2.857 
#   20.571    1.429    0.000    0.000    0.000    0.000 
#    0.000    0.000    0.000    0.000    0.000    0.000 
#
# Total GULP energy -78423.479612 kJ/mol
# GULP energy per Si atom -5601.677115 kJ/mol
# Density = 2.665672 g / cm^3
# Si number density = 26.717534 Si / 1000 Ang^3
#
#
#
# Elastic Constant Matrix: (Units=GPa)
#
#
# Indices 1 2 3 4 5 6 
#
# 1 159.5912 7.4556 55.2579 18.4619 24.2407 -26.3138
# 2 7.4556 98.6909 7.4019 -7.4335 -6.5525 -1.6582
# 3 55.2579 7.4019 84.3119 -18.7535 15.1878 -12.3038
# 4 18.4619 -7.4335 -18.7535 23.0018 2.2021 -1.5472
# 5 24.2407 -6.5525 15.1878 2.2021 48.5368 -7.2632
# 6 -26.3138 -1.6582 -12.3038 -1.5472 -7.2632 41.4172
#
#
#
# Elastic Compliance Matrix: (Units=1/GPa)
#
#
# Indices 1 2 3 4 5 6 
#
# 1 0.014715 -0.001869 -0.013757 -0.023202 -0.001640 0.004033
# 2 -0.001869 0.010736 0.001298 0.005872 0.001733 0.000152
# 3 -0.013757 0.001298 0.029544 0.035956 -0.003713 0.000780
# 4 -0.023202 0.005872 0.035956 0.093561 -0.003250 -0.000899
# 5 -0.001640 0.001733 -0.003713 -0.003250 0.023247 0.001879
# 6 0.004033 0.000152 0.000780 -0.000899 0.001879 0.027241
#
#
# Mechanical properties :
#
#
# Convention : Reuss Voigt Hill
#
# Bulk Modulus (GPa) = 37.96463 53.64720 45.80591
# Shear Modulus (GPa) = 21.14364 40.75640 30.95002
#
# Velocity S-wave (km/s) = 2.81619 3.90994 3.40724
# Velocity P-wave (km/s) = 4.98147 6.36448 5.71496
#
# Compressibility (1/GPa) = 0.02634031
#
# Stress axis : x y z
#
# Youngs Moduli (GPa) = 67.95909 93.14169 33.84837
#
# Poissons Ratio (x) = 0.17404 0.46565
# Poissons Ratio (y) = 0.12699 -0.04395
# Poissons Ratio (z) = 0.93490 -0.12093
#
# Static dielectric constant tensor:
#      x y z
#    x 2.094560 0.026830 0.004120 
#    y 0.026830 2.104540 0.011840 
#    z 0.004120 0.011840 2.032390 
# 
# From -- ./inp_files/105698.got.cif
#   From: 2010.05.17/outbox.cif.g08.bks.cpg/sg2_53_cif.got.tgz:105698.got - 2010.06.03 11:33:40.
