data_PCOD9004204
_publ_section_title
;
Structure prediction by ZEFSAII (Michael W. Deem and Ramdas Pophale) SiO2 
 PCOD9004204
Probable space group: P -1
;
_chemical_formula_sum "Si O2"
_cell_formula_units_Z 16
_cell_length_a 14.806491
_cell_length_b 12.703118
_cell_length_c 7.343099
_cell_angle_alpha 87.083487
_cell_angle_beta 78.214644
_cell_angle_gamma 149.557121
_cell_volume 609.117643
_symmetry_space_group_name_H-M "P -1"
_symmetry_group_IT_number 2
_symmetry_cell_setting 'triclinic'
loop_
_space_group_symop_operation_xyz
x,y,z
-x,-y,-z
loop_
_atom_site_type_symbol
_atom_site_label
_atom_site_fract_x
_atom_site_fract_y
_atom_site_fract_z
Si Si1 0.615097 0.209092 0.821885
Si Si2 0.559873 0.646230 0.309693
Si Si3 0.194399 0.289564 0.921929
Si Si4 0.913668 0.115590 0.789094
Si Si5 0.699725 0.151857 0.501871
Si Si6 0.887944 0.776420 0.622929
Si Si7 0.775763 0.084522 0.178196
Si Si8 0.496687 0.758864 0.848904
O O1 0.767129 0.309908 0.605964
O O2 0.433401 0.079328 0.797711
O O3 0.663107 0.345246 0.941568
O O4 0.500000 0.000000 0.000000
O O5 0.500000 0.500000 0.500000
O O6 0.348648 0.461369 0.317271
O O7 0.694253 0.885184 0.290838
O O8 0.697501 0.712262 0.120370
O O9 0.960691 0.849332 0.166256
O O10 0.103593 0.221275 0.163346
O O11 0.371430 0.555184 0.790615
O O12 0.670400 0.868849 0.872545
O O13 0.925674 0.218738 0.931701
O O14 0.010936 0.213658 0.539370
O O15 0.500000 0.000000 0.500000
O O16 0.841802 0.238328 0.287172
O O17 0.615297 0.968731 0.671573
O O18 0.000000 0.000000 0.500000
#
# Coordination Sequence:
#
# PCOD9004204 Si02
#       8
#     2   2   2   2   2   2   2   2
#     4   8  16  35  63  95 122 163 220 276 329 400
#     4  12  24  42  64  95 138 181 228 275 330 410
#     4  12  26  45  68  97 140 188 227 277 343 401
#     4  11  25  42  65  99 136 175 234 280 333 402
#     4   9  18  35  72 106 125 178 228 276 352 410
#     4  12  26  42  63  94 132 184 236 280 334 394
#     4  10  21  37  64  97 132 173 223 275 336 404
#     4  10  21  43  69 101 140 177 230 282 338 413
#
# _framework density 26.267503000000001
#
# number of rings (size 3 to 8) (size 9 to 14) (size 15 to 20)
#    0.000    1.500    1.250    4.125    3.500    1.000 
#    0.000    0.000    0.000   28.500    0.000    0.000 
#    0.000    0.000    0.000    0.000    0.000    0.000 
#
# Total GULP energy -89407.299725 kJ/mol
# GULP energy per Si atom -5587.956233 kJ/mol
# Density = 2.620772 g / cm^3
# Si number density = 26.267503 Si / 1000 Ang^3
#
#
#
# Elastic Constant Matrix: (Units=GPa)
#
#
# Indices 1 2 3 4 5 6 
#
# 1 132.1815 49.0531 48.9841 -2.1469 -17.6414 -9.0079
# 2 49.0531 82.0946 15.3660 19.2161 -18.3568 -9.6753
# 3 48.9841 15.3660 141.4370 41.3404 -33.2371 -14.0288
# 4 -2.1469 19.2161 41.3404 36.9323 -19.8206 -10.8415
# 5 -17.6414 -18.3568 -33.2371 -19.8206 62.8226 7.8686
# 6 -9.0079 -9.6753 -14.0288 -10.8415 7.8686 44.3399
#
#
#
# Elastic Compliance Matrix: (Units=1/GPa)
#
#
# Indices 1 2 3 4 5 6 
#
# 1 0.015895 -0.011499 -0.009058 0.018704 0.001952 0.002081
# 2 -0.011499 0.022638 0.007784 -0.020671 0.001003 -0.000166
# 3 -0.009058 0.007784 0.016047 -0.022009 0.001363 -0.000688
# 4 0.018704 -0.020671 -0.022009 0.070667 0.008858 0.008033
# 5 0.001952 0.001003 0.001363 0.008858 0.020324 -0.000394
# 6 0.002081 -0.000166 -0.000688 0.008033 -0.000394 0.024756
#
#
# Mechanical properties :
#
#
# Convention : Reuss Voigt Hill
#
# Bulk Modulus (GPa) = 34.44101 64.72440 49.58271
# Shear Modulus (GPa) = 24.32489 44.97293 34.64891
#
# Velocity S-wave (km/s) = 3.04640 4.14226 3.63585
# Velocity P-wave (km/s) = 5.05116 6.89722 6.04508
#
# Compressibility (1/GPa) = 0.02903515
#
# Stress axis : x y z
#
# Youngs Moduli (GPa) = 62.91097 44.17322 62.31827
#
# Poissons Ratio (x) = 0.50794 0.56446
# Poissons Ratio (y) = 0.72341 -0.48509
# Poissons Ratio (z) = 0.56983 -0.34385
#
# Static dielectric constant tensor:
#      x y z
#    x 2.051290 -0.020990 -0.006360 
#    y -0.020990 2.001920 0.045530 
#    z -0.006360 0.045530 2.177610 
# 
# From -- ./inp_files/303032.got.cif
#   From: 2010.05.17/outbox.cif.g08.bks.cpg/sg2_152_cif.got.tgz:303032.got - 2010.06.03 11:33:40.
