data_PCOD9004568
_publ_section_title
;
Structure prediction by ZEFSAII (Michael W. Deem and Ramdas Pophale) SiO2 
 PCOD9004568
Probable space group: P -1
;
_chemical_formula_sum "Si O2"
_cell_formula_units_Z 14
_cell_length_a 10.128720
_cell_length_b 18.866110
_cell_length_c 9.162302
_cell_angle_alpha 65.600831
_cell_angle_beta 90.453725
_cell_angle_gamma 34.816213
_cell_volume 677.865633
_symmetry_space_group_name_H-M "P -1"
_symmetry_group_IT_number 2
_symmetry_cell_setting 'triclinic'
loop_
_space_group_symop_operation_xyz
x,y,z
-x,-y,-z
loop_
_atom_site_type_symbol
_atom_site_label
_atom_site_fract_x
_atom_site_fract_y
_atom_site_fract_z
Si Si1 0.280995 0.438744 0.433597
Si Si2 0.633766 0.381859 0.316052
Si Si3 0.024739 0.686269 0.427186
Si Si4 0.137311 0.765998 0.870855
Si Si5 0.477212 0.002637 0.327293
Si Si6 0.623913 0.830708 0.066638
Si Si7 0.815280 0.040738 0.858063
O O1 0.408075 0.434969 0.324748
O O2 0.267950 0.491375 0.544921
O O3 0.521744 0.240945 0.612532
O O4 0.920267 0.613442 0.245497
O O5 0.822847 0.316178 0.511085
O O6 0.826061 0.247602 0.292801
O O7 0.441603 0.559146 0.106726
O O8 0.800432 0.805431 0.181477
O O9 0.779245 0.793367 0.457328
O O10 0.845245 0.866817 0.814601
O O11 0.048868 0.887097 0.864580
O O12 0.500000 0.000000 0.500000
O O13 0.476293 0.081551 0.163686
O O14 0.345696 0.940434 0.060559
O O15 0.000000 0.000000 0.000000
#
# Coordination Sequence:
#
# PCOD9004568 Si02
#       7
#     2   2   2   2   2   2   2
#     4  10  23  40  64  92 133 171 209 259 314 385
#     4  11  22  39  67  97 133 167 209 270 328 372
#     4  10  21  37  70  95 129 157 220 263 323 366
#     4  11  23  41  62  99 135 164 213 273 320 377
#     4  12  22  40  67 100 127 163 212 276 328 375
#     4  10  24  40  65  94 129 166 215 267 316 379
#     4  12  26  41  65  92 132 175 222 257 317 385
#
# _framework density 20.653061999999998
#
# number of rings (size 3 to 8) (size 9 to 14) (size 15 to 20)
#    0.857    0.286    4.286    2.143    4.000    0.571 
#    0.000    0.000    0.000    2.571    0.000    0.000 
#    0.000    0.000    0.000    0.000    0.000    0.000 
#
# Total GULP energy -78029.119199 kJ/mol
# GULP energy per Si atom -5573.508514 kJ/mol
# Density = 2.060605 g / cm^3
# Si number density = 20.653062 Si / 1000 Ang^3
#
#
#
# Elastic Constant Matrix: (Units=GPa)
#
#
# Indices 1 2 3 4 5 6 
#
# 1 60.6129 25.0432 10.0004 7.9009 7.0097 -1.1654
# 2 25.0432 168.5140 27.5303 5.0998 -15.3574 6.1147
# 3 10.0004 27.5303 61.0533 8.6214 -5.0437 18.3754
# 4 7.9009 5.0998 8.6214 32.1907 -3.6444 -0.9069
# 5 7.0097 -15.3574 -5.0437 -3.6444 21.3587 -0.4374
# 6 -1.1654 6.1147 18.3754 -0.9069 -0.4374 32.2838
#
#
#
# Elastic Compliance Matrix: (Units=1/GPa)
#
#
# Indices 1 2 3 4 5 6 
#
# 1 0.020294 -0.003482 -0.002756 -0.004814 -0.010581 0.002682
# 2 -0.003482 0.007362 -0.002375 0.001007 0.006046 -0.000058
# 3 -0.002756 -0.002375 0.022703 -0.004995 0.003447 -0.012666
# 4 -0.004814 0.001007 -0.004995 0.034323 0.007053 0.003538
# 5 -0.010581 0.006046 0.003447 0.007053 0.056605 -0.002524
# 6 0.002682 -0.000058 -0.012666 0.003538 -0.002524 0.038357
#
#
# Mechanical properties :
#
#
# Convention : Reuss Voigt Hill
#
# Bulk Modulus (GPa) = 30.17916 46.14756 38.16336
# Shear Modulus (GPa) = 24.04842 32.34039 28.19441
#
# Velocity S-wave (km/s) = 3.41603 3.96142 3.69879
# Velocity P-wave (km/s) = 5.49574 6.58153 6.06299
#
# Compressibility (1/GPa) = 0.03313545
#
# Stress axis : x y z
#
# Youngs Moduli (GPa) = 49.27571 135.82830 44.04639
#
# Poissons Ratio (x) = 0.47290 0.12138
# Poissons Ratio (y) = 0.17156 0.10460
# Poissons Ratio (z) = 0.13579 0.32255
#
# Static dielectric constant tensor:
#      x y z
#    x 1.758490 0.043380 0.014680 
#    y 0.043380 1.810190 -0.047600 
#    z 0.014680 -0.047600 1.787940 
# 
# From -- ./inp_files/280917.got.cif
#   From: 2010.05.17/outbox.cif.g08.bks.cpg/sg2_141_cif.got.tgz:280917.got - 2010.06.03 11:33:40.
