data_PCOD9004228
_publ_section_title
;
Structure prediction by ZEFSAII (Michael W. Deem and Ramdas Pophale) SiO2 
 PCOD9004228
Probable space group: P -1
;
_chemical_formula_sum "Si O2"
_cell_formula_units_Z 14
_cell_length_a 6.617841
_cell_length_b 16.114993
_cell_length_c 7.190308
_cell_angle_alpha 89.072052
_cell_angle_beta 92.294985
_cell_angle_gamma 144.527023
_cell_volume 444.465509
_symmetry_space_group_name_H-M "P -1"
_symmetry_group_IT_number 2
_symmetry_cell_setting 'triclinic'
loop_
_space_group_symop_operation_xyz
x,y,z
-x,-y,-z
loop_
_atom_site_type_symbol
_atom_site_label
_atom_site_fract_x
_atom_site_fract_y
_atom_site_fract_z
Si Si1 0.146097 0.237755 0.798596
Si Si2 0.241174 0.690801 0.156239
Si Si3 0.727662 0.982532 0.043214
Si Si4 0.911571 0.164811 0.362304
Si Si5 0.405261 0.140747 0.456030
Si Si6 0.158870 0.581278 0.701467
Si Si7 0.594330 0.531380 0.723512
O O1 0.468665 0.285703 0.861784
O O2 0.273075 0.376180 0.818748
O O3 0.057922 0.199397 0.576432
O O4 0.833565 0.093961 0.909860
O O5 0.370282 0.810442 0.030924
O O6 0.354706 0.761439 0.360670
O O7 0.891918 0.518738 0.174978
O O8 0.783941 0.043470 0.244760
O O9 0.000000 0.000000 0.000000
O O10 0.585195 0.119307 0.378367
O O11 0.211148 0.315936 0.256945
O O12 0.490868 0.249864 0.326871
O O13 0.000000 0.000000 0.500000
O O14 0.000000 0.500000 0.500000
O O15 0.899074 0.565649 0.762799
O O16 0.500000 0.500000 0.500000
#
# Coordination Sequence:
#
# PCOD9004228 Si02
#       7
#     2   2   2   2   2   2   2
#     4   9  19  38  65  97 138 181 226 284 351 424
#     4   9  19  36  61  93 137 178 224 277 344 423
#     4  10  22  38  63 100 141 180 232 282 345 428
#     4  10  21  38  65  99 139 182 230 290 352 410
#     4  10  21  37  65 100 132 175 238 292 344 411
#     4   8  15  32  57  88 127 176 219 281 343 405
#     4   8  15  31  58  96 131 173 223 280 346 421
#
# _framework density 31.49851
#
# number of rings (size 3 to 8) (size 9 to 14) (size 15 to 20)
#    0.000    2.857    0.000    0.000    2.000    2.857 
#    0.000    0.714    6.286    0.000    0.000   12.000 
#    0.000    0.000    0.000    0.000    0.000    0.000 
#
# Total GULP energy -78527.785098 kJ/mol
# GULP energy per Si atom -5609.127507 kJ/mol
# Density = 3.142682 g / cm^3
# Si number density = 31.498510 Si / 1000 Ang^3
#
#
#
# Elastic Constant Matrix: (Units=GPa)
#
#
# Indices 1 2 3 4 5 6 
#
# 1 156.5937 87.3883 57.8100 -28.9135 21.1137 -39.4791
# 2 87.3883 274.5764 103.0004 -75.7805 0.0099 -1.6092
# 3 57.8100 103.0004 201.7184 -58.6114 14.2497 -22.1675
# 4 -28.9135 -75.7805 -58.6114 89.6099 -18.1810 -11.9614
# 5 21.1137 0.0099 14.2497 -18.1810 62.3074 -15.6447
# 6 -39.4791 -1.6092 -22.1675 -11.9614 -15.6447 78.1615
#
#
#
# Elastic Compliance Matrix: (Units=1/GPa)
#
#
# Indices 1 2 3 4 5 6 
#
# 1 0.009512 -0.002582 -0.000599 0.000709 -0.001792 0.004331
# 2 -0.002582 0.006023 -0.001501 0.003625 0.002117 -0.000627
# 3 -0.000599 -0.001501 0.007170 0.003568 0.000177 0.002281
# 4 0.000709 0.003625 0.003568 0.018686 0.005766 0.005458
# 5 -0.001792 0.002117 0.000177 0.005766 0.019285 0.003932
# 6 0.004331 -0.000627 0.002281 0.005458 0.003932 0.017238
#
#
# Mechanical properties :
#
#
# Convention : Reuss Voigt Hill
#
# Bulk Modulus (GPa) = 74.95067 125.47620 100.21343
# Shear Modulus (GPa) = 54.50981 71.66175 63.08578
#
# Velocity S-wave (km/s) = 4.16450 4.77496 4.48014
# Velocity P-wave (km/s) = 6.85352 8.38584 7.65810
#
# Compressibility (1/GPa) = 0.01334211
#
# Stress axis : x y z
#
# Youngs Moduli (GPa) = 105.12725 166.02065 139.46089
#
# Poissons Ratio (x) = 0.42858 0.08361
# Poissons Ratio (y) = 0.27139 0.20933
# Poissons Ratio (z) = 0.06302 0.24920
#
# Static dielectric constant tensor:
#      x y z
#    x 2.585940 0.087330 -0.147620 
#    y 0.087330 2.411660 0.170780 
#    z -0.147620 0.170780 3.321850 
# 
# From -- ./inp_files/406251.got.cif
#   From: 2010.05.17/outbox.cif.g08.bks.cpg/sg2_204_cif.got.tgz:406251.got - 2010.06.03 11:33:40.
