data_PCOD9004558
_publ_section_title
;
Structure prediction by ZEFSAII (Michael W. Deem and Ramdas Pophale) SiO2 
 PCOD9004558
Probable space group: P -1
;
_chemical_formula_sum "Si O2"
_cell_formula_units_Z 16
_cell_length_a 11.436292
_cell_length_b 11.435898
_cell_length_c 9.118802
_cell_angle_alpha 87.349196
_cell_angle_beta 38.734984
_cell_angle_gamma 96.172878
_cell_volume 725.490955
_symmetry_space_group_name_H-M "P -1"
_symmetry_group_IT_number 2
_symmetry_cell_setting 'triclinic'
loop_
_space_group_symop_operation_xyz
x,y,z
-x,-y,-z
loop_
_atom_site_type_symbol
_atom_site_label
_atom_site_fract_x
_atom_site_fract_y
_atom_site_fract_z
Si Si1 0.261766 0.262312 0.947597
Si Si2 0.743575 0.139466 0.872913
Si Si3 0.564969 0.608651 0.632573
Si Si4 0.863145 0.098953 0.438015
Si Si5 0.474492 0.062098 0.675504
Si Si6 0.854954 0.831321 0.422870
Si Si7 0.449020 0.294739 0.063204
Si Si8 0.220215 0.494740 0.795361
O O1 0.258598 0.198023 0.311015
O O2 0.053851 0.198826 0.218152
O O3 0.406293 0.313287 0.936560
O O4 0.343339 0.157979 0.796231
O O5 0.811798 0.083924 0.661477
O O6 0.624944 0.233552 0.927584
O O7 0.937895 0.198448 0.766547
O O8 0.614308 0.039928 0.110191
O O9 0.707126 0.740981 0.469993
O O10 0.634274 0.403927 0.258366
O O11 0.678759 0.515716 0.458744
O O12 0.534324 0.600731 0.837919
O O13 0.682565 0.127747 0.529163
O O14 0.885589 0.971861 0.357509
O O15 0.500000 0.000000 0.500000
O O16 0.763366 0.627791 0.132823
O O17 0.000000 0.500000 0.000000
#
# Coordination Sequence:
#
# PCOD9004558 Si02
#       8
#     2   2   2   2   2   2   2   2
#     4  12  26  45  70 105 142 177 237 293 337 411
#     4  12  21  40  70 100 150 186 220 266 352 422
#     4   9  24  47  72  98 130 182 234 281 352 413
#     4  12  22  41  66 105 141 184 226 272 347 417
#     4  12  27  39  62 106 149 192 223 270 337 426
#     4  10  21  37  70 101 138 179 224 270 341 410
#     4  10  22  42  71 105 133 182 227 289 338 409
#     4  11  27  51  73  92 134 188 232 295 356 406
#
# _framework density 22.054031999999999
#
# number of rings (size 3 to 8) (size 9 to 14) (size 15 to 20)
#    0.750    0.250    5.000    1.500    5.250    4.000 
#    0.000    0.625    0.000    0.000    0.000    0.000 
#    0.000    0.000    0.000    0.000    0.000    0.000 
#
# Total GULP energy -89379.668166 kJ/mol
# GULP energy per Si atom -5586.229260 kJ/mol
# Density = 2.200384 g / cm^3
# Si number density = 22.054032 Si / 1000 Ang^3
#
#
#
# Elastic Constant Matrix: (Units=GPa)
#
#
# Indices 1 2 3 4 5 6 
#
# 1 129.9814 55.1765 84.8368 2.3246 -14.4067 9.3206
# 2 55.1765 87.6538 49.4771 -2.2562 6.3151 19.5064
# 3 84.8368 49.4771 120.1916 12.4809 -13.9284 9.7657
# 4 2.3246 -2.2562 12.4809 28.4412 11.5798 -0.6986
# 5 -14.4067 6.3151 -13.9284 11.5798 46.0772 -1.5106
# 6 9.3206 19.5064 9.7657 -0.6986 -1.5106 39.7668
#
#
#
# Elastic Compliance Matrix: (Units=1/GPa)
#
#
# Indices 1 2 3 4 5 6 
#
# 1 0.016105 -0.005538 -0.008968 0.001046 0.002862 0.001271
# 2 -0.005538 0.020687 -0.005806 0.007943 -0.008568 -0.007609
# 3 -0.008968 -0.005806 0.018845 -0.010577 0.006359 0.000378
# 4 0.001046 0.007943 -0.010577 0.046725 -0.015745 -0.001321
# 5 0.002862 -0.008568 0.006359 -0.015745 0.029744 0.002823
# 6 0.001271 -0.007609 0.000378 -0.001321 0.002823 0.028572
#
#
# Mechanical properties :
#
#
# Convention : Reuss Voigt Hill
#
# Bulk Modulus (GPa) = 66.61252 79.64530 73.12891
# Shear Modulus (GPa) = 24.23581 32.74614 28.49097
#
# Velocity S-wave (km/s) = 3.31861 3.85751 3.59816
# Velocity P-wave (km/s) = 6.70477 7.48549 7.10586
#
# Compressibility (1/GPa) = 0.01501219
#
# Stress axis : x y z
#
# Youngs Moduli (GPa) = 62.09276 48.33935 53.06465
#
# Poissons Ratio (x) = 0.26769 0.47589
# Poissons Ratio (y) = 0.34386 0.30812
# Poissons Ratio (z) = 0.55686 0.28068
#
# Static dielectric constant tensor:
#      x y z
#    x 1.828130 0.009700 0.022770 
#    y 0.009700 1.821440 0.017400 
#    z 0.022770 0.017400 1.822470 
# 
# From -- ./inp_files/270593.got.cif
#   From: 2010.05.17/outbox.cif.g08.bks.cpg/sg2_136_cif.got.tgz:270593.got - 2010.06.03 11:33:40.
