data_PCOD9004846
_publ_section_title
;
Structure prediction by ZEFSAII (Michael W. Deem and Ramdas Pophale) SiO2 
 PCOD9004846
Probable space group: P -1
;
_chemical_formula_sum "Si O2"
_cell_formula_units_Z 16
_cell_length_a 13.390867
_cell_length_b 12.996180
_cell_length_c 10.669132
_cell_angle_alpha 111.284409
_cell_angle_beta 147.765560
_cell_angle_gamma 49.380841
_cell_volume 666.080854
_symmetry_space_group_name_H-M "P -1"
_symmetry_group_IT_number 2
_symmetry_cell_setting 'triclinic'
loop_
_space_group_symop_operation_xyz
x,y,z
-x,-y,-z
loop_
_atom_site_type_symbol
_atom_site_label
_atom_site_fract_x
_atom_site_fract_y
_atom_site_fract_z
Si Si1 0.350221 0.892976 0.864596
Si Si2 0.103322 0.314565 0.755233
Si Si3 0.158916 0.813559 0.957071
Si Si4 0.309819 0.090005 0.452434
Si Si5 0.726705 0.655860 0.522646
Si Si6 0.592926 0.767415 0.711823
Si Si7 0.094465 0.911281 0.350373
Si Si8 0.289412 0.667525 0.789148
O O1 0.200886 0.942104 0.594649
O O2 0.381856 0.752443 0.885311
O O3 0.637756 0.818411 0.107432
O O4 0.159558 0.034499 0.821603
O O5 0.968297 0.487056 0.656733
O O6 0.874233 0.321565 0.489420
O O7 0.196189 0.294611 0.986658
O O8 0.103047 0.764514 0.752005
O O9 0.973854 0.829967 0.864176
O O10 0.460025 0.696702 0.246903
O O11 0.049901 0.976253 0.872975
O O12 0.303866 0.220664 0.536051
O O13 0.500000 0.000000 0.500000
O O14 0.418886 0.949755 0.595344
O O15 0.724713 0.686751 0.682579
O O16 0.377871 0.763462 0.528066
O O17 0.500000 0.500000 0.000000
#
# Coordination Sequence:
#
# PCOD9004846 Si02
#       8
#     2   2   2   2   2   2   2   2
#     4   9  20  38  61  86 117 154 198 242 295 354
#     4  11  23  39  62  89 120 158 196 243 300 354
#     4  10  21  38  59  86 120 154 195 244 293 345
#     4   9  21  39  62  90 117 156 202 243 289 351
#     4  11  22  37  62  90 120 158 194 244 297 349
#     4   9  20  41  63  87 119 157 201 244 291 350
#     4   8  17  38  59  85 115 151 197 241 289 345
#     4  11  23  39  56  85 121 154 192 241 296 352
#
# _framework density 24.021106
#
# number of rings (size 3 to 8) (size 9 to 14) (size 15 to 20)
#    0.000    2.250    1.250    0.375    1.750    8.000 
#    0.000   25.000    0.000    7.500    0.000    0.000 
#    0.000    0.000    0.000    0.000    0.000    0.000 
#
# Total GULP energy -89135.674725 kJ/mol
# GULP energy per Si atom -5570.979670 kJ/mol
# Density = 2.396643 g / cm^3
# Si number density = 24.021106 Si / 1000 Ang^3
#
#
#
# Elastic Constant Matrix: (Units=GPa)
#
#
# Indices 1 2 3 4 5 6 
#
# 1 74.3220 -2.8945 16.2406 0.8630 11.8128 -3.0896
# 2 -2.8945 76.8921 18.6786 -11.3794 -4.6407 8.6280
# 3 16.2406 18.6786 125.2656 -8.3291 6.0654 4.0610
# 4 0.8630 -11.3794 -8.3291 26.9624 -1.5554 -8.0276
# 5 11.8128 -4.6407 6.0654 -1.5554 29.6999 -5.4142
# 6 -3.0896 8.6280 4.0610 -8.0276 -5.4142 25.0657
#
#
#
# Elastic Compliance Matrix: (Units=1/GPa)
#
#
# Indices 1 2 3 4 5 6 
#
# 1 0.014756 0.000467 -0.001803 -0.001006 -0.005396 0.000463
# 2 0.000467 0.014654 -0.001944 0.004927 0.002285 -0.002600
# 3 -0.001803 -0.001944 0.008708 0.001622 -0.001417 -0.000750
# 4 -0.001006 0.004927 0.001622 0.043948 0.005545 0.013190
# 5 -0.005396 0.002285 -0.001417 0.005545 0.038365 0.008840
# 6 0.000463 -0.002600 -0.000750 0.013190 0.008840 0.047103
#
#
# Mechanical properties :
#
#
# Convention : Reuss Voigt Hill
#
# Bulk Modulus (GPa) = 31.68968 37.83656 34.76312
# Shear Modulus (GPa) = 27.08375 32.64260 29.86317
#
# Velocity S-wave (km/s) = 3.36147 3.69034 3.52974
# Velocity P-wave (km/s) = 5.31855 5.82613 5.57812
#
# Compressibility (1/GPa) = 0.03155602
#
# Stress axis : x y z
#
# Youngs Moduli (GPa) = 67.77004 68.24101 114.84310
#
# Poissons Ratio (x) = -0.03188 0.20710
# Poissons Ratio (y) = -0.03166 0.22330
# Poissons Ratio (z) = 0.12221 0.13269
#
# Static dielectric constant tensor:
#      x y z
#    x 2.087820 -0.094710 0.007190 
#    y -0.094710 2.185040 0.080430 
#    z 0.007190 0.080430 1.965860 
# 
# From -- ./inp_files/454889.got.cif
#   From: 2010.05.17/outbox.cif.g08.bks.cpg/sg2_228_cif.got.tgz:454889.got - 2010.06.03 11:33:40.
