data_PCOD9004169
_publ_section_title
;
Structure prediction by ZEFSAII (Michael W. Deem and Ramdas Pophale) SiO2 
 PCOD9004169
Probable space group: P -1
;
_chemical_formula_sum "Si O2"
_cell_formula_units_Z 12
_cell_length_a 6.370279
_cell_length_b 12.370087
_cell_length_c 21.234184
_cell_angle_alpha 27.830228
_cell_angle_beta 118.237598
_cell_angle_gamma 98.837842
_cell_volume 526.648394
_symmetry_space_group_name_H-M "P -1"
_symmetry_group_IT_number 2
_symmetry_cell_setting 'triclinic'
loop_
_space_group_symop_operation_xyz
x,y,z
-x,-y,-z
loop_
_atom_site_type_symbol
_atom_site_label
_atom_site_fract_x
_atom_site_fract_y
_atom_site_fract_z
Si Si1 0.359748 0.770870 0.648003
Si Si2 0.070689 0.712395 0.191097
Si Si3 0.859587 0.731189 0.284095
Si Si4 0.292778 0.359359 0.913805
Si Si5 0.785464 0.279870 0.553011
Si Si6 0.849085 0.847604 0.699450
O O1 0.457054 0.454981 0.845834
O O2 0.596230 0.803836 0.696178
O O3 0.321849 0.867239 0.520405
O O4 0.000000 0.000000 0.500000
O O5 0.419541 0.485971 0.382943
O O6 0.853316 0.802302 0.174029
O O7 0.995425 0.561450 0.207507
O O8 0.000000 0.000000 0.000000
O O9 0.905635 0.427965 0.454452
O O10 0.123039 0.711350 0.367914
O O11 0.543239 0.998212 0.138470
O O12 0.146397 0.553960 0.856456
O O13 0.932027 0.949141 0.719160
#
# Coordination Sequence:
#
# PCOD9004169 Si02
#       6
#     2   2   2   2   2   2
#     4   9  18  34  59  93 128 161 209 265 313 373
#     4  12  24  40  70  96 124 170 224 271 313 382
#     4  11  26  43  65  96 136 170 217 265 331 386
#     4  11  23  39  66  99 124 166 220 275 313 381
#     4  11  24  45  65  95 135 175 207 269 332 390
#     4  10  21  37  64  94 130 166 213 263 330 384
#
# _framework density 22.785599999999999
#
# number of rings (size 3 to 8) (size 9 to 14) (size 15 to 20)
#    0.000    1.333    1.667    5.000    4.667    2.000 
#    0.000    0.833    0.000    0.000    0.000    0.000 
#    0.000    0.000    0.000    0.000    0.000    0.000 
#
# Total GULP energy -67071.664663 kJ/mol
# GULP energy per Si atom -5589.305389 kJ/mol
# Density = 2.273374 g / cm^3
# Si number density = 22.785600 Si / 1000 Ang^3
#
#
#
# Elastic Constant Matrix: (Units=GPa)
#
#
# Indices 1 2 3 4 5 6 
#
# 1 74.0648 23.9128 1.8035 -6.3023 -1.6904 6.1001
# 2 23.9128 95.6282 4.3724 -13.3354 10.5363 13.3889
# 3 1.8035 4.3724 39.3994 -4.9379 19.2118 -8.1050
# 4 -6.3023 -13.3354 -4.9379 31.1691 4.1665 5.0159
# 5 -1.6904 10.5363 19.2118 4.1665 41.6891 -2.6585
# 6 6.1001 13.3889 -8.1050 5.0159 -2.6585 37.4065
#
#
#
# Elastic Compliance Matrix: (Units=1/GPa)
#
#
# Indices 1 2 3 4 5 6 
#
# 1 0.014940 -0.003486 -0.001369 0.001306 0.001890 -0.001526
# 2 -0.003486 0.013525 0.000815 0.006734 -0.004949 -0.005351
# 3 -0.001369 0.000815 0.035705 0.007126 -0.017077 0.005498
# 4 0.001306 0.006734 0.007126 0.038707 -0.009243 -0.006926
# 5 0.001890 -0.004949 -0.017077 -0.009243 0.034200 0.001433
# 6 -0.001526 -0.005351 0.005498 -0.006926 0.001433 0.031119
#
#
# Mechanical properties :
#
#
# Convention : Reuss Voigt Hill
#
# Bulk Modulus (GPa) = 17.82816 29.91887 23.87351
# Shear Modulus (GPa) = 25.64470 33.98649 29.81560
#
# Velocity S-wave (km/s) = 3.35845 3.86628 3.62128
# Velocity P-wave (km/s) = 4.78333 5.75239 5.29010
#
# Compressibility (1/GPa) = 0.05609105
#
# Stress axis : x y z
#
# Youngs Moduli (GPa) = 66.93261 73.93698 28.00759
#
# Poissons Ratio (x) = 0.25774 0.03834
# Poissons Ratio (y) = 0.23332 -0.02283
# Poissons Ratio (z) = 0.09162 -0.06028
#
# Static dielectric constant tensor:
#      x y z
#    x 1.858620 0.003940 -0.002780 
#    y 0.003940 1.838360 -0.012210 
#    z -0.002780 -0.012210 1.884260 
# 
# From -- ./inp_files/21161.got.cif
#   From: 2010.05.17/outbox.cif.g08.bks.cpg/sg2_11_cif.got.tgz:21161.got - 2010.06.03 11:33:40.
