data_PCOD9004977
_publ_section_title
;
Structure prediction by ZEFSAII (Michael W. Deem and Ramdas Pophale) SiO2 
 PCOD9004977
Probable space group: P -1
;
_chemical_formula_sum "Si O2"
_cell_formula_units_Z 16
_cell_length_a 7.099396
_cell_length_b 8.580061
_cell_length_c 14.971616
_cell_angle_alpha 75.476264
_cell_angle_beta 74.609104
_cell_angle_gamma 124.683045
_cell_volume 623.296557
_symmetry_space_group_name_H-M "P -1"
_symmetry_group_IT_number 2
_symmetry_cell_setting 'triclinic'
loop_
_space_group_symop_operation_xyz
x,y,z
-x,-y,-z
loop_
_atom_site_type_symbol
_atom_site_label
_atom_site_fract_x
_atom_site_fract_y
_atom_site_fract_z
Si Si1 0.131101 0.459841 0.602681
Si Si2 0.465227 0.733010 0.853692
Si Si3 0.220644 0.951322 0.392780
Si Si4 0.297674 0.113688 0.554786
Si Si5 0.030328 0.874480 0.176173
Si Si6 0.017368 0.676142 0.724921
Si Si7 0.247048 0.696880 0.063628
Si Si8 0.575311 0.639145 0.138062
O O1 0.425150 0.641752 0.499657
O O2 0.111592 0.304676 0.700636
O O3 0.893498 0.285463 0.588872
O O4 0.079334 0.587279 0.650778
O O5 0.342536 0.486096 0.896128
O O6 0.552447 0.861037 0.730902
O O7 0.294772 0.736201 0.947244
O O8 0.758564 0.886137 0.842083
O O9 0.953489 0.909721 0.422117
O O10 0.315615 0.029493 0.469962
O O11 0.217256 0.936296 0.663286
O O12 0.802001 0.819062 0.151403
O O13 0.187468 0.825092 0.106801
O O14 0.983499 0.556340 0.837849
O O15 0.715839 0.566245 0.754733
O O16 0.498999 0.740327 0.067337
#
# Coordination Sequence:
#
# PCOD9004977 Si02
#       8
#     2   2   2   2   2   2   2   2
#     4  10  21  38  60  85 118 158 197 241 299 354
#     4  11  20  40  64  88 122 159 201 246 298 359
#     4  10  22  35  60  91 114 153 201 244 293 354
#     4  11  20  38  59  84 119 154 197 245 298 348
#     4  10  22  39  63  90 122 160 198 243 305 355
#     4   9  21  39  59  86 122 154 193 251 293 346
#     4   9  21  40  64  89 125 155 196 255 293 353
#     4  10  21  40  59  88 125 157 195 247 294 350
#
# _framework density 25.66996
#
# number of rings (size 3 to 8) (size 9 to 14) (size 15 to 20)
#    0.750    1.250    1.250    2.250    1.750    1.500 
#    0.000    2.500    0.000    0.000    0.000    0.000 
#    0.000    0.000    0.000    0.000    0.000    0.000 
#
# Total GULP energy -89537.204160 kJ/mol
# GULP energy per Si atom -5596.075260 kJ/mol
# Density = 2.561153 g / cm^3
# Si number density = 25.669960 Si / 1000 Ang^3
#
#
#
# Elastic Constant Matrix: (Units=GPa)
#
#
# Indices 1 2 3 4 5 6 
#
# 1 61.6000 10.5887 22.8999 3.3298 3.3236 6.2312
# 2 10.5887 85.0354 42.4213 -10.5951 7.7324 14.2313
# 3 22.8999 42.4213 141.6891 -2.5630 -4.0031 -1.1918
# 4 3.3298 -10.5951 -2.5630 44.8935 -1.7353 -4.6963
# 5 3.3236 7.7324 -4.0031 -1.7353 26.6202 1.2246
# 6 6.2312 14.2313 -1.1918 -4.6963 1.2246 28.1541
#
#
#
# Elastic Compliance Matrix: (Units=1/GPa)
#
#
# Indices 1 2 3 4 5 6 
#
# 1 0.018071 -0.000009 -0.003067 -0.002076 -0.002650 -0.004356
# 2 -0.000009 0.016371 -0.005060 0.002562 -0.004987 -0.007843
# 3 -0.003067 -0.005060 0.009186 0.000043 0.003076 0.003499
# 4 -0.002076 0.002562 0.000043 0.023388 0.000907 0.003028
# 5 -0.002650 -0.004987 0.003076 0.000907 0.039790 0.001658
# 6 -0.004356 -0.007843 0.003499 0.003028 0.001658 0.041028
#
#
# Mechanical properties :
#
#
# Convention : Reuss Voigt Hill
#
# Bulk Modulus (GPa) = 36.55665 48.90493 42.73079
# Shear Modulus (GPa) = 28.86419 34.09455 31.47937
#
# Velocity S-wave (km/s) = 3.35690 3.64839 3.50567
# Velocity P-wave (km/s) = 5.41267 6.06963 5.75054
#
# Compressibility (1/GPa) = 0.02735481
#
# Stress axis : x y z
#
# Youngs Moduli (GPa) = 55.33643 61.08473 108.86608
#
# Poissons Ratio (x) = 0.00054 0.33390
# Poissons Ratio (y) = 0.00049 0.55091
# Poissons Ratio (z) = 0.16972 0.30912
#
# Static dielectric constant tensor:
#      x y z
#    x 2.066000 0.015920 -0.032380 
#    y 0.015920 1.977660 -0.008950 
#    z -0.032380 -0.008950 2.043330 
# 
# From -- ./inp_files/557171.got.cif
#   From: 2010.05.17/outbox.cif.g08.bks.cpg/sg2_279_cif.got.tgz:557171.got - 2010.06.03 11:33:40.
