data_PCOD9004757
_publ_section_title
;
Structure prediction by ZEFSAII (Michael W. Deem and Ramdas Pophale) SiO2 
 PCOD9004757
Probable space group: P -1
;
_chemical_formula_sum "Si O2"
_cell_formula_units_Z 12
_cell_length_a 11.034846
_cell_length_b 10.050495
_cell_length_c 10.318715
_cell_angle_alpha 131.157536
_cell_angle_beta 140.710116
_cell_angle_gamma 41.710669
_cell_volume 473.332324
_symmetry_space_group_name_H-M "P -1"
_symmetry_group_IT_number 2
_symmetry_cell_setting 'triclinic'
loop_
_space_group_symop_operation_xyz
x,y,z
-x,-y,-z
loop_
_atom_site_type_symbol
_atom_site_label
_atom_site_fract_x
_atom_site_fract_y
_atom_site_fract_z
Si Si1 0.856384 0.416216 0.607775
Si Si2 0.325926 0.370100 0.901019
Si Si3 0.724401 0.780796 0.885843
Si Si4 0.998689 0.795798 0.882330
Si Si5 0.309933 0.894611 0.753784
Si Si6 0.341770 0.241527 0.549441
O O1 0.801761 0.541832 0.779168
O O2 0.825639 0.220328 0.457052
O O3 0.689085 0.589559 0.476238
O O4 0.099577 0.365050 0.733967
O O5 0.401850 0.293510 0.770497
O O6 0.236667 0.609867 0.991617
O O7 0.507448 0.246449 0.078329
O O8 0.829356 0.821273 0.872376
O O9 0.459561 0.885828 0.749928
O O10 0.794502 0.884820 0.123625
O O11 0.901316 0.740040 0.640770
O O12 0.000000 0.000000 0.000000
O O13 0.500000 0.000000 0.500000
#
# Coordination Sequence:
#
# PCOD9004757 Si02
#       6
#     2   2   2   2   2   2
#     4  10  22  39  61  88 123 164 199 258 306 355
#     4  10  22  39  59  94 119 157 210 247 302 379
#     4   9  22  42  58  94 123 154 217 251 291 379
#     4  10  22  37  62  88 121 160 197 260 306 352
#     4  11  22  40  67  84 126 168 197 255 311 357
#     4  10  21  38  58  89 126 152 207 257 295 372
#
# _framework density 25.352167000000001
#
# number of rings (size 3 to 8) (size 9 to 14) (size 15 to 20)
#    0.000    2.333    0.000    4.500    7.000    3.333 
#    0.000    3.333    0.000    0.000    0.000    0.000 
#    0.000    0.000    0.000    0.000    0.000    0.000 
#
# Total GULP energy -67087.031467 kJ/mol
# GULP energy per Si atom -5590.585956 kJ/mol
# Density = 2.529446 g / cm^3
# Si number density = 25.352167 Si / 1000 Ang^3
#
#
#
# Elastic Constant Matrix: (Units=GPa)
#
#
# Indices 1 2 3 4 5 6 
#
# 1 88.3934 31.2621 44.2955 27.3269 -2.9820 -8.3274
# 2 31.2621 152.2501 41.0548 22.2556 -11.2517 14.8543
# 3 44.2955 41.0548 132.2890 30.2041 20.0284 -0.6172
# 4 27.3269 22.2556 30.2041 65.5140 12.2425 0.1815
# 5 -2.9820 -11.2517 20.0284 12.2425 47.1722 9.7055
# 6 -8.3274 14.8543 -0.6172 0.1815 9.7055 35.4181
#
#
#
# Elastic Compliance Matrix: (Units=1/GPa)
#
#
# Indices 1 2 3 4 5 6 
#
# 1 0.015841 -0.001576 -0.004161 -0.004702 0.002883 0.003547
# 2 -0.001576 0.008708 -0.002438 -0.002028 0.004634 -0.005325
# 3 -0.004161 -0.002438 0.010869 -0.001435 -0.005443 0.001733
# 4 -0.004702 -0.002028 -0.001435 0.019598 -0.005489 0.001124
# 5 0.002883 0.004634 -0.005443 -0.005489 0.028080 -0.009027
# 6 0.003547 -0.005325 0.001733 0.001124 -0.009027 0.033799
#
#
# Mechanical properties :
#
#
# Convention : Reuss Voigt Hill
#
# Bulk Modulus (GPa) = 52.44853 67.35080 59.89967
# Shear Modulus (GPa) = 35.81633 46.70888 41.26261
#
# Velocity S-wave (km/s) = 3.76274 4.29698 4.03870
# Velocity P-wave (km/s) = 6.29369 7.15838 6.73992
#
# Compressibility (1/GPa) = 0.01906631
#
# Stress axis : x y z
#
# Youngs Moduli (GPa) = 63.12773 114.84195 92.00525
#
# Poissons Ratio (x) = 0.18102 0.38286
# Poissons Ratio (y) = 0.09951 0.22431
# Poissons Ratio (z) = 0.26269 0.27999
#
# Static dielectric constant tensor:
#      x y z
#    x 2.011810 0.023680 -0.026110 
#    y 0.023680 2.102930 -0.035540 
#    z -0.026110 -0.035540 2.036660 
# 
# From -- ./inp_files/167383.got.cif
#   From: 2010.05.17/outbox.cif.g08.bks.cpg/sg2_84_cif.got.tgz:167383.got - 2010.06.03 11:33:40.
