data_PCOD9004672
_publ_section_title
;
Structure prediction by ZEFSAII (Michael W. Deem and Ramdas Pophale) SiO2 
 PCOD9004672
Probable space group: P -1
;
_chemical_formula_sum "Si O2"
_cell_formula_units_Z 16
_cell_length_a 18.644054
_cell_length_b 12.003304
_cell_length_c 5.170742
_cell_angle_alpha 85.199883
_cell_angle_beta 72.772293
_cell_angle_gamma 135.738649
_cell_volume 691.293979
_symmetry_space_group_name_H-M "P -1"
_symmetry_group_IT_number 2
_symmetry_cell_setting 'triclinic'
loop_
_space_group_symop_operation_xyz
x,y,z
-x,-y,-z
loop_
_atom_site_type_symbol
_atom_site_label
_atom_site_fract_x
_atom_site_fract_y
_atom_site_fract_z
Si Si1 0.158447 0.992285 0.242937
Si Si2 0.107439 0.446253 0.750841
Si Si3 0.633848 0.609824 0.887423
Si Si4 0.018818 0.639833 0.587080
Si Si5 0.431000 0.538998 0.516555
Si Si6 0.349201 0.862737 0.458031
Si Si7 0.556459 0.916390 0.197497
Si Si8 0.980035 0.100474 0.092283
O O1 0.282579 0.195124 0.136120
O O2 0.068774 0.945428 0.556675
O O3 0.145384 0.846462 0.358780
O O4 0.116688 0.961106 0.998619
O O5 0.069461 0.393129 0.502137
O O6 0.222490 0.656448 0.600973
O O7 0.014430 0.392274 0.070849
O O8 0.101173 0.312853 0.887964
O O9 0.665318 0.596309 0.578049
O O10 0.500000 0.500000 0.000000
O O11 0.627518 0.508214 0.133158
O O12 0.000000 0.500000 0.500000
O O13 0.500000 0.500000 0.500000
O O14 0.513447 0.738750 0.309476
O O15 0.442572 0.867239 0.366039
O O16 0.355400 0.942970 0.695388
O O17 0.388751 0.987188 0.155081
O O18 0.000000 0.000000 0.000000
#
# Coordination Sequence:
#
# PCOD9004672 Si02
#       8
#     2   2   2   2   2   2   2   2
#     4  10  21  38  60  84 125 154 192 255 294 362
#     4  10  21  38  59  89 118 150 204 253 290 370
#     4  10  21  38  57  85 121 157 202 239 299 364
#     4  10  21  40  59  85 118 153 198 248 307 355
#     4  10  21  39  58  83 123 158 205 249 296 359
#     4  10  21  38  60  89 119 159 209 247 307 356
#     4  10  21  39  60  85 124 163 201 254 300 367
#     4  10  21  38  61  90 120 154 198 243 311 362
#
# _framework density 23.145
#
# number of rings (size 3 to 8) (size 9 to 14) (size 15 to 20)
#    0.000    2.000    0.000    3.000    0.000    2.000 
#   13.500    0.000    0.000    0.000    0.000    0.000 
#    0.000    0.000    0.000    0.000    0.000    0.000 
#
# Total GULP energy -89280.833280 kJ/mol
# GULP energy per Si atom -5580.052080 kJ/mol
# Density = 2.309232 g / cm^3
# Si number density = 23.145000 Si / 1000 Ang^3
#
#
#
# Elastic Constant Matrix: (Units=GPa)
#
#
# Indices 1 2 3 4 5 6 
#
# 1 40.3364 27.6325 20.6738 -7.0453 9.2254 -16.5840
# 2 27.6325 168.8533 41.3547 -20.9703 22.3872 -4.3871
# 3 20.6738 41.3547 98.6678 3.6235 30.0312 4.1146
# 4 -7.0453 -20.9703 3.6235 66.6465 -1.1656 9.7947
# 5 9.2254 22.3872 30.0312 -1.1656 20.8988 -1.5000
# 6 -16.5840 -4.3871 4.1146 9.7947 -1.5000 47.4239
#
#
#
# Elastic Compliance Matrix: (Units=1/GPa)
#
#
# Indices 1 2 3 4 5 6 
#
# 1 0.036251 -0.003688 -0.005752 0.001095 -0.002827 0.012519
# 2 -0.003688 0.007679 -0.000856 0.002144 -0.005328 -0.001116
# 3 -0.005752 -0.000856 0.019568 -0.001760 -0.025064 -0.004218
# 4 0.001095 0.002144 -0.001760 0.016283 0.000469 -0.002614
# 5 -0.002827 -0.005328 -0.025064 0.000469 0.091097 0.003477
# 6 0.012519 -0.001116 -0.004218 -0.002614 0.003477 0.026377
#
#
# Mechanical properties :
#
#
# Convention : Reuss Voigt Hill
#
# Bulk Modulus (GPa) = 23.30649 54.13108 38.71879
# Shear Modulus (GPa) = 21.53790 41.54026 31.53908
#
# Velocity S-wave (km/s) = 3.05382 4.24108 3.69545
# Velocity P-wave (km/s) = 4.74617 6.88629 5.91384
#
# Compressibility (1/GPa) = 0.04290649
#
# Stress axis : x y z
#
# Youngs Moduli (GPa) = 27.58575 130.22211 51.10322
#
# Poissons Ratio (x) = 0.48020 0.29394
# Poissons Ratio (y) = 0.10172 0.04376
# Poissons Ratio (z) = 0.15867 0.11152
#
# Static dielectric constant tensor:
#      x y z
#    x 2.036350 -0.054940 -0.143430 
#    y -0.054940 1.900950 0.064490 
#    z -0.143430 0.064490 2.142060 
# 
# From -- ./inp_files/118654.got.cif
#   From: 2010.05.17/outbox.cif.g08.bks.cpg/sg2_60_cif.got.tgz:118654.got - 2010.06.03 11:33:40.
