data_PCOD9004997
_publ_section_title
;
Structure prediction by ZEFSAII (Michael W. Deem and Ramdas Pophale) SiO2 
 PCOD9004997
Probable space group: P -1
;
_chemical_formula_sum "Si O2"
_cell_formula_units_Z 12
_cell_length_a 8.104570
_cell_length_b 5.300308
_cell_length_c 25.601044
_cell_angle_alpha 118.398676
_cell_angle_beta 29.749611
_cell_angle_gamma 122.378760
_cell_volume 460.709617
_symmetry_space_group_name_H-M "P -1"
_symmetry_group_IT_number 2
_symmetry_cell_setting 'triclinic'
loop_
_space_group_symop_operation_xyz
x,y,z
-x,-y,-z
loop_
_atom_site_type_symbol
_atom_site_label
_atom_site_fract_x
_atom_site_fract_y
_atom_site_fract_z
Si Si1 0.779654 0.741070 0.996415
Si Si2 0.040017 0.394083 0.213398
Si Si3 0.859674 0.910320 0.287440
Si Si4 0.898965 0.142244 0.489104
Si Si5 0.972043 0.727700 0.078447
Si Si6 0.249377 0.872874 0.274945
O O1 0.984468 0.493009 0.909209
O O2 0.584701 0.452233 0.899014
O O3 0.745967 0.952378 0.978062
O O4 0.000000 0.000000 0.000000
O O5 0.037540 0.531682 0.286273
O O6 0.789359 0.549526 0.268065
O O7 0.941536 0.052865 0.221829
O O8 0.517474 0.964357 0.410879
O O9 0.183040 0.007645 0.249394
O O10 0.000000 0.500000 0.500000
O O11 0.000000 0.000000 0.500000
O O12 0.084756 0.026131 0.379195
O O13 0.623577 0.833755 0.181887
O O14 0.000000 0.500000 0.000000
#
# Coordination Sequence:
#
# PCOD9004997 Si02
#       6
#     2   2   2   2   2   2
#     4  10  17  28  48  92 135 146 177 243 313 355
#     4  10  20  32  63  93 124 153 194 246 314 351
#     4  10  22  40  62  89 119 158 206 258 302 357
#     4  12  28  46  62  86 123 168 209 251 305 366
#     4  10  18  29  53  92 132 147 186 250 313 346
#     4  10  24  36  67  92 125 157 207 249 308 353
#
# _framework density 26.046776000000001
#
# number of rings (size 3 to 8) (size 9 to 14) (size 15 to 20)
#    1.000    0.667    3.333    2.500    7.000    0.667 
#    0.000    0.000    0.000    0.000    0.000   35.000 
#    0.000    0.000    0.000    0.000    0.000    0.000 
#
# Total GULP energy -66929.136062 kJ/mol
# GULP energy per Si atom -5577.428005 kJ/mol
# Density = 2.598749 g / cm^3
# Si number density = 26.046776 Si / 1000 Ang^3
#
#
#
# Elastic Constant Matrix: (Units=GPa)
#
#
# Indices 1 2 3 4 5 6 
#
# 1 92.2744 52.8646 61.6205 16.3677 3.1106 -16.8507
# 2 52.8646 204.8539 73.6963 20.7695 -7.5334 -45.6151
# 3 61.6205 73.6963 192.9836 19.2522 -21.8143 -5.9978
# 4 16.3677 20.7695 19.2522 40.4991 -0.1200 -7.6350
# 5 3.1106 -7.5334 -21.8143 -0.1200 49.1538 10.9757
# 6 -16.8507 -45.6151 -5.9978 -7.6350 10.9757 58.4349
#
#
#
# Elastic Compliance Matrix: (Units=1/GPa)
#
#
# Indices 1 2 3 4 5 6 
#
# 1 0.016072 -0.001628 -0.004577 -0.002879 -0.004036 0.003276
# 2 -0.001628 0.007239 -0.002069 -0.001135 -0.000819 0.004974
# 3 -0.004577 -0.002069 0.007955 -0.001441 0.004190 -0.003094
# 4 -0.002879 -0.001135 -0.001441 0.027480 -0.000991 0.001912
# 5 -0.004036 -0.000819 0.004190 -0.000991 0.023659 -0.005947
# 6 0.003276 0.004974 -0.003094 0.001912 -0.005947 0.022990
#
#
# Mechanical properties :
#
#
# Convention : Reuss Voigt Hill
#
# Bulk Modulus (GPa) = 67.95253 96.27499 82.11376
# Shear Modulus (GPa) = 39.41691 49.74625 44.58158
#
# Velocity S-wave (km/s) = 3.89435 4.37496 4.14163
# Velocity P-wave (km/s) = 6.80930 7.90967 7.38003
#
# Compressibility (1/GPa) = 0.01471616
#
# Stress axis : x y z
#
# Youngs Moduli (GPa) = 62.22184 138.14729 125.70960
#
# Poissons Ratio (x) = 0.22488 0.57542
# Poissons Ratio (y) = 0.10129 0.26013
# Poissons Ratio (z) = 0.28481 0.28587
#
# Static dielectric constant tensor:
#      x y z
#    x 2.253000 -0.073870 0.059520 
#    y -0.073870 2.158020 0.002020 
#    z 0.059520 0.002020 2.095670 
# 
# From -- ./inp_files/616370.got.cif
#   From: 2010.05.17/outbox.cif.g08.bks.cpg/sg2_309_cif.got.tgz:616370.got - 2010.06.03 11:33:40.
