data_PCOD9004370
_publ_section_title
;
Structure prediction by ZEFSAII (Michael W. Deem and Ramdas Pophale) SiO2 
 PCOD9004370
Probable space group: P -1
;
_chemical_formula_sum "Si O2"
_cell_formula_units_Z 14
_cell_length_a 11.386425
_cell_length_b 14.205546
_cell_length_c 11.861986
_cell_angle_alpha 32.581678
_cell_angle_beta 128.883530
_cell_angle_gamma 137.912693
_cell_volume 692.507721
_symmetry_space_group_name_H-M "P -1"
_symmetry_group_IT_number 2
_symmetry_cell_setting 'triclinic'
loop_
_space_group_symop_operation_xyz
x,y,z
-x,-y,-z
loop_
_atom_site_type_symbol
_atom_site_label
_atom_site_fract_x
_atom_site_fract_y
_atom_site_fract_z
Si Si1 0.550062 0.108776 0.799590
Si Si2 0.394862 0.215287 0.938939
Si Si3 0.328440 0.334646 0.413183
Si Si4 0.131210 0.515789 0.467680
Si Si5 0.239578 0.262685 0.181105
Si Si6 0.361806 0.474038 0.833871
Si Si7 0.084319 0.160079 0.657982
O O1 0.425594 0.203123 0.608645
O O2 0.754508 0.285837 0.739111
O O3 0.500000 0.000000 0.000000
O O4 0.535861 0.940658 0.872065
O O5 0.527504 0.425628 0.741450
O O6 0.381081 0.287402 0.983510
O O7 0.208029 0.121978 0.856747
O O8 0.226770 0.297735 0.270152
O O9 0.200754 0.267237 0.510049
O O10 0.280444 0.518335 0.633261
O O11 0.046173 0.317667 0.539713
O O12 0.000000 0.500000 0.500000
O O13 0.446102 0.335341 0.220830
O O14 0.239273 0.410069 0.934173
O O15 0.091119 0.040987 0.280574
#
# Coordination Sequence:
#
# PCOD9004370 Si02
#       7
#     2   2   2   2   2   2   2
#     4  12  22  38  68  95 123 165 211 262 316 370
#     4  10  21  37  66  90 120 165 213 257 317 359
#     4  11  21  44  61  96 129 163 213 258 315 382
#     4  11  25  41  63  99 127 158 221 272 307 372
#     4  10  21  38  64  88 123 177 204 247 324 383
#     4   9  21  43  61  84 132 168 206 257 316 380
#     4  11  21  38  65  91 126 166 206 266 312 371
#
# _framework density 20.216380999999998
#
# number of rings (size 3 to 8) (size 9 to 14) (size 15 to 20)
#    0.000    1.429    5.714    1.714    4.000    1.143 
#    0.000    5.714    0.000    6.000    0.000    0.000 
#    0.000    0.000    0.000    0.000    0.000    0.000 
#
# Total GULP energy -78034.208224 kJ/mol
# GULP energy per Si atom -5573.872016 kJ/mol
# Density = 2.017037 g / cm^3
# Si number density = 20.216381 Si / 1000 Ang^3
#
#
#
# Elastic Constant Matrix: (Units=GPa)
#
#
# Indices 1 2 3 4 5 6 
#
# 1 105.3304 21.4772 -3.8140 -8.8524 -5.9655 -15.0207
# 2 21.4772 130.2925 -3.4159 -15.5936 -1.2547 -4.2869
# 3 -3.8140 -3.4159 9.0408 -6.9456 1.6959 -9.3648
# 4 -8.8524 -15.5936 -6.9456 24.8210 -15.4411 -13.2153
# 5 -5.9655 -1.2547 1.6959 -15.4411 32.1366 -1.6508
# 6 -15.0207 -4.2869 -9.3648 -13.2153 -1.6508 17.6521
#
#
#
# Elastic Compliance Matrix: (Units=1/GPa)
#
#
# Indices 1 2 3 4 5 6 
#
# 1 0.007498 -0.002976 -0.013143 -0.009119 -0.002844 -0.008408
# 2 -0.002976 0.007455 -0.006761 -0.002586 -0.001475 -0.006383
# 3 -0.013143 -0.006761 0.006414 -0.057909 -0.033740 -0.055932
# 4 -0.009119 -0.002586 -0.057909 -0.008447 -0.005155 -0.045916
# 5 -0.002844 -0.001475 -0.033740 -0.005155 0.028712 -0.021853
# 6 -0.008408 -0.006383 -0.055932 -0.045916 -0.021853 -0.018146
#
#
# Mechanical properties :
#
#
# Convention : Reuss Voigt Hill
#
# Bulk Modulus (GPa) = -40.99485 30.35092 -5.32196
# Shear Modulus (GPa) = 81.81229 30.28304 56.04767
#
# Velocity S-wave (km/s) = 6.36837 3.87453 5.27106
# Velocity P-wave (km/s) = 5.80972 5.92128 5.86577
#
# Compressibility (1/GPa) = -0.02439331
#
# Stress axis : x y z
#
# Youngs Moduli (GPa) = 133.36412 134.14580 155.89757
#
# Poissons Ratio (x) = 0.39922 2.04898
# Poissons Ratio (y) = 0.39690 1.05405
# Poissons Ratio (z) = 1.75282 0.90698
#
# Static dielectric constant tensor:
#      x y z
#    x 1.790360 -0.002260 0.002060 
#    y -0.002260 1.724380 0.015840 
#    z 0.002060 0.015840 1.795890 
# 
# From -- ./inp_files/273430.got.cif
#   From: 2010.05.17/outbox.cif.g08.bks.cpg/sg2_137_cif.got.tgz:273430.got - 2010.06.03 11:33:40.
