data_PCOD9004976
_publ_section_title
;
Structure prediction by ZEFSAII (Michael W. Deem and Ramdas Pophale) SiO2 
 PCOD9004976
Probable space group: P -1
;
_chemical_formula_sum "Si O2"
_cell_formula_units_Z 16
_cell_length_a 7.539425
_cell_length_b 15.422922
_cell_length_c 11.220879
_cell_angle_alpha 124.519073
_cell_angle_beta 108.230347
_cell_angle_gamma 45.588248
_cell_volume 760.124267
_symmetry_space_group_name_H-M "P -1"
_symmetry_group_IT_number 2
_symmetry_cell_setting 'triclinic'
loop_
_space_group_symop_operation_xyz
x,y,z
-x,-y,-z
loop_
_atom_site_type_symbol
_atom_site_label
_atom_site_fract_x
_atom_site_fract_y
_atom_site_fract_z
Si Si1 0.637079 0.928371 0.850355
Si Si2 0.759518 0.479874 0.516939
Si Si3 0.768993 0.298276 0.207258
Si Si4 0.608867 0.449507 0.851738
Si Si5 0.467117 0.806210 0.054699
Si Si6 0.513399 0.723863 0.270755
Si Si7 0.640537 0.728527 0.551867
Si Si8 0.899560 0.509684 0.828015
O O1 0.540595 0.856776 0.716465
O O2 0.935424 0.806115 0.832690
O O3 0.587963 0.051059 0.858751
O O4 0.500000 0.000000 0.000000
O O5 0.704478 0.379882 0.384776
O O6 0.614110 0.620995 0.515962
O O7 0.772743 0.514870 0.683314
O O8 0.058050 0.373211 0.466798
O O9 0.618344 0.428344 0.185113
O O10 0.691469 0.209203 0.081285
O O11 0.656620 0.308344 0.744312
O O12 0.833996 0.441411 0.854995
O O13 0.500000 0.500000 0.000000
O O14 0.429170 0.790634 0.173688
O O15 0.747698 0.667782 0.965090
O O16 0.534814 0.787069 0.442348
O O17 0.807996 0.581669 0.202843
#
# Coordination Sequence:
#
# PCOD9004976 Si02
#       8
#     2   2   2   2   2   2   2   2
#     4  11  24  39  58  84 115 160 200 236 286 358
#     4   9  17  34  59  87 117 146 192 249 296 338
#     4  10  21  38  60  85 118 150 193 246 295 342
#     4  11  21  35  58  93 121 151 186 246 308 338
#     4  11  23  37  58  86 116 160 192 231 298 351
#     4  11  21  39  62  87 123 151 194 251 292 354
#     4   9  19  35  59  85 114 156 192 243 295 339
#     4  10  22  35  59  94 118 153 196 242 299 351
#
# _framework density 21.049189999999999
#
# number of rings (size 3 to 8) (size 9 to 14) (size 15 to 20)
#    0.000    1.750    3.750    1.500    3.500    2.500 
#    2.250    0.000    0.000    0.750    0.000    0.000 
#    0.000    0.000    0.000    0.000    0.000    0.000 
#
# Total GULP energy -89174.343169 kJ/mol
# GULP energy per Si atom -5573.396448 kJ/mol
# Density = 2.100128 g / cm^3
# Si number density = 21.049190 Si / 1000 Ang^3
#
#
#
# Elastic Constant Matrix: (Units=GPa)
#
#
# Indices 1 2 3 4 5 6 
#
# 1 33.2390 12.3622 8.2368 1.2993 7.1133 1.1770
# 2 12.3622 43.4187 24.5378 -6.9576 3.2105 8.4997
# 3 8.2368 24.5378 148.3562 -10.8132 1.0267 2.4548
# 4 1.2993 -6.9576 -10.8132 26.8361 5.3882 2.7560
# 5 7.1133 3.2105 1.0267 5.3882 31.5643 -3.5432
# 6 1.1770 8.4997 2.4548 2.7560 -3.5432 23.8980
#
#
#
# Elastic Compliance Matrix: (Units=1/GPa)
#
#
# Indices 1 2 3 4 5 6 
#
# 1 0.035400 -0.010159 -0.000518 -0.003460 -0.006179 0.001406
# 2 -0.010159 0.032281 -0.003866 0.009329 -0.003833 -0.012228
# 3 -0.000518 -0.003866 0.007551 0.002034 -0.000040 0.000385
# 4 -0.003460 0.009329 0.002034 0.043413 -0.008730 -0.009657
# 5 -0.006179 -0.003833 -0.000040 -0.008730 0.035853 0.007994
# 6 0.001406 -0.012228 0.000385 -0.009657 0.007994 0.048384
#
#
# Mechanical properties :
#
#
# Convention : Reuss Voigt Hill
#
# Bulk Modulus (GPa) = 21.67085 35.03197 28.35141
# Shear Modulus (GPa) = 20.21424 28.45146 24.33285
#
# Velocity S-wave (km/s) = 3.10229 3.68049 3.40369
# Velocity P-wave (km/s) = 4.81144 5.89410 5.38007
#
# Compressibility (1/GPa) = 0.04614495
#
# Stress axis : x y z
#
# Youngs Moduli (GPa) = 28.24888 30.97773 132.43426
#
# Poissons Ratio (x) = 0.31471 0.06858
# Poissons Ratio (y) = 0.28699 0.51205
# Poissons Ratio (z) = 0.01463 0.11977
#
# Static dielectric constant tensor:
#      x y z
#    x 1.844930 -0.007480 0.034420 
#    y -0.007480 1.748620 -0.035030 
#    z 0.034420 -0.035030 1.818430 
# 
# From -- ./inp_files/399636.got.cif
#   From: 2010.05.17/outbox.cif.g08.bks.cpg/sg2_200_cif.got.tgz:399636.got - 2010.06.03 11:33:40.
