data_PCOD9004826
_publ_section_title
;
Structure prediction by ZEFSAII (Michael W. Deem and Ramdas Pophale) SiO2 
 PCOD9004826
Probable space group: P -1
;
_chemical_formula_sum "Si O2"
_cell_formula_units_Z 12
_cell_length_a 8.624982
_cell_length_b 9.920159
_cell_length_c 14.752737
_cell_angle_alpha 117.901504
_cell_angle_beta 115.648288
_cell_angle_gamma 31.015323
_cell_volume 573.392207
_symmetry_space_group_name_H-M "P -1"
_symmetry_group_IT_number 2
_symmetry_cell_setting 'triclinic'
loop_
_space_group_symop_operation_xyz
x,y,z
-x,-y,-z
loop_
_atom_site_type_symbol
_atom_site_label
_atom_site_fract_x
_atom_site_fract_y
_atom_site_fract_z
Si Si1 0.767340 0.934968 0.376585
Si Si2 0.357718 0.674257 0.612157
Si Si3 0.357210 0.747780 0.990303
Si Si4 0.644848 0.621058 0.838944
Si Si5 0.352662 0.135621 0.858886
Si Si6 0.818479 0.505640 0.506958
O O1 0.637578 0.922085 0.261743
O O2 0.007610 0.669665 0.412654
O O3 0.857632 0.029050 0.379326
O O4 0.502581 0.187043 0.454009
O O5 0.500000 0.500000 0.500000
O O6 0.575976 0.586281 0.715295
O O7 0.202492 0.636320 0.599112
O O8 0.453452 0.677664 0.886588
O O9 0.500000 0.500000 0.000000
O O10 0.507451 0.799219 0.075029
O O11 0.000000 0.000000 0.000000
O O12 0.000244 0.373175 0.870739
O O13 0.532691 0.876128 0.878190
O O14 0.000000 0.500000 0.500000
#
# Coordination Sequence:
#
# PCOD9004826 Si02
#       6
#     2   2   2   2   2   2
#     4  10  21  38  59  85 116 162 207 250 301 358
#     4   9  20  38  62  88 120 157 207 254 294 355
#     4  12  26  43  64  95 129 162 201 258 319 372
#     4  11  23  41  66  93 121 167 212 254 305 366
#     4  11  22  42  67  89 121 162 211 256 303 371
#     4  11  22  36  56  88 125 162 200 250 309 366
#
# _framework density 20.928083999999998
#
# number of rings (size 3 to 8) (size 9 to 14) (size 15 to 20)
#    0.000    1.333    0.000    7.000    0.000    6.667 
#    0.000    0.000    0.000    0.000    0.000    0.000 
#    0.000    0.000    0.000    0.000    0.000    0.000 
#
# Total GULP energy -66998.284957 kJ/mol
# GULP energy per Si atom -5583.190413 kJ/mol
# Density = 2.088045 g / cm^3
# Si number density = 20.928084 Si / 1000 Ang^3
#
#
#
# Elastic Constant Matrix: (Units=GPa)
#
#
# Indices 1 2 3 4 5 6 
#
# 1 164.5236 54.9879 44.4413 12.9931 9.6595 8.3358
# 2 54.9879 98.4672 19.4788 6.2044 -0.3115 7.2593
# 3 44.4413 19.4788 112.9248 11.8992 11.0859 11.7000
# 4 12.9931 6.2044 11.8992 15.8797 4.1216 3.8819
# 5 9.6595 -0.3115 11.0859 4.1216 25.3549 3.7994
# 6 8.3358 7.2593 11.7000 3.8819 3.7994 39.4813
#
#
#
# Elastic Compliance Matrix: (Units=1/GPa)
#
#
# Indices 1 2 3 4 5 6 
#
# 1 0.008355 -0.004063 -0.002077 -0.003245 -0.001811 0.000092
# 2 -0.004063 0.012737 -0.000525 -0.001536 0.002395 -0.001408
# 3 -0.002077 -0.000525 0.010760 -0.004961 -0.002830 -0.001893
# 4 -0.003245 -0.001536 -0.004961 0.072963 -0.007878 -0.003978
# 5 -0.001811 0.002395 -0.002830 -0.007878 0.043065 -0.002589
# 6 0.000092 -0.001408 -0.001893 -0.003978 -0.002589 0.026769
#
#
# Mechanical properties :
#
#
# Convention : Reuss Voigt Hill
#
# Bulk Modulus (GPa) = 53.99285 68.19242 61.09264
# Shear Modulus (GPa) = 25.75273 33.27701 29.51487
#
# Velocity S-wave (km/s) = 3.51170 3.99189 3.75947
# Velocity P-wave (km/s) = 6.50369 7.34178 6.93541
#
# Compressibility (1/GPa) = 0.01852097
#
# Stress axis : x y z
#
# Youngs Moduli (GPa) = 119.68717 78.51359 92.93471
#
# Poissons Ratio (x) = 0.31900 0.19304
# Poissons Ratio (y) = 0.48629 0.04883
# Poissons Ratio (z) = 0.24860 0.04125
#
# Static dielectric constant tensor:
#      x y z
#    x 1.820860 -0.034170 -0.005890 
#    y -0.034170 1.757610 0.007270 
#    z -0.005890 0.007270 1.790790 
# 
# From -- ./inp_files/218435.got.cif
#   From: 2010.05.17/outbox.cif.g08.bks.cpg/sg2_110_cif.got.tgz:218435.got - 2010.06.03 11:33:40.
