data_PCOD9004710
_publ_section_title
;
Structure prediction by ZEFSAII (Michael W. Deem and Ramdas Pophale) SiO2 
 PCOD9004710
Probable space group: P -1
;
_chemical_formula_sum "Si O2"
_cell_formula_units_Z 12
_cell_length_a 14.541902
_cell_length_b 7.494498
_cell_length_c 5.102092
_cell_angle_alpha 115.900403
_cell_angle_beta 90.208300
_cell_angle_gamma 103.423796
_cell_volume 483.011090
_symmetry_space_group_name_H-M "P -1"
_symmetry_group_IT_number 2
_symmetry_cell_setting 'triclinic'
loop_
_space_group_symop_operation_xyz
x,y,z
-x,-y,-z
loop_
_atom_site_type_symbol
_atom_site_label
_atom_site_fract_x
_atom_site_fract_y
_atom_site_fract_z
Si Si1 0.573956 0.107584 0.292878
Si Si2 0.560152 0.659422 0.393470
Si Si3 0.889475 0.532041 0.318840
Si Si4 0.089917 0.728944 0.347232
Si Si5 0.284185 0.992097 0.441965
Si Si6 0.315227 0.584746 0.905508
O O1 0.509971 0.192797 0.557245
O O2 0.646216 0.974707 0.286329
O O3 0.645778 0.308072 0.297859
O O4 0.500000 0.000000 0.000000
O O5 0.500000 0.500000 0.500000
O O6 0.604640 0.532645 0.099377
O O7 0.659143 0.814633 0.603296
O O8 0.882336 0.424622 0.534889
O O9 0.789422 0.561839 0.239544
O O10 0.982266 0.723039 0.423537
O O11 0.911100 0.367209 0.004587
O O12 0.173656 0.937969 0.474320
O O13 0.300734 0.777315 0.194774
#
# Coordination Sequence:
#
# PCOD9004710 Si02
#       6
#     2   2   2   2   2   2
#     4  11  21  38  57  82 115 156 198 241 292 353
#     4  10  23  38  55  85 117 152 201 245 291 351
#     4   9  17  35  57  92 115 149 199 245 297 354
#     4   9  18  32  63  86 115 154 197 243 297 362
#     4  11  21  39  60  82 115 161 193 243 303 351
#     4  10  21  38  58  82 119 152 195 246 297 353
#
# _framework density 24.844149999999999
#
# number of rings (size 3 to 8) (size 9 to 14) (size 15 to 20)
#    0.000    2.000    3.333    0.500    0.000    0.667 
#    6.000    0.833    0.000    0.000    0.000   12.833 
#    0.000    0.000    0.000    0.000    0.000    0.000 
#
# Total GULP energy -66858.392595 kJ/mol
# GULP energy per Si atom -5571.532716 kJ/mol
# Density = 2.478760 g / cm^3
# Si number density = 24.844150 Si / 1000 Ang^3
#
#
#
# Elastic Constant Matrix: (Units=GPa)
#
#
# Indices 1 2 3 4 5 6 
#
# 1 149.6411 52.8975 17.4925 18.4381 6.7012 52.8350
# 2 52.8975 124.8910 16.0450 20.2182 1.2242 40.6875
# 3 17.4925 16.0450 88.3424 6.3492 2.1054 1.2870
# 4 18.4381 20.2182 6.3492 26.8870 -0.1993 2.7684
# 5 6.7012 1.2242 2.1054 -0.1993 31.7243 8.2335
# 6 52.8350 40.6875 1.2870 2.7684 8.2335 64.9599
#
#
#
# Elastic Compliance Matrix: (Units=1/GPa)
#
#
# Indices 1 2 3 4 5 6 
#
# 1 0.010587 -0.000880 -0.001428 -0.005461 -0.000122 -0.007783
# 2 -0.000880 0.011865 -0.001396 -0.007303 0.001478 -0.006565
# 3 -0.001428 -0.001396 0.011921 -0.000996 -0.000951 0.001962
# 4 -0.005461 -0.007303 -0.000996 0.045934 -0.000048 0.007084
# 5 -0.000122 0.001478 -0.000951 -0.000048 0.032843 -0.004969
# 6 -0.007783 -0.006565 0.001962 0.007084 -0.004969 0.026126
#
#
# Mechanical properties :
#
#
# Convention : Reuss Voigt Hill
#
# Bulk Modulus (GPa) = 37.08145 59.52716 48.30430
# Shear Modulus (GPa) = 32.11887 43.14353 37.63120
#
# Velocity S-wave (km/s) = 3.59947 4.17173 3.89612
# Velocity P-wave (km/s) = 5.67741 6.87144 6.30277
#
# Compressibility (1/GPa) = 0.02696766
#
# Stress axis : x y z
#
# Youngs Moduli (GPa) = 94.45508 84.27940 83.88264
#
# Poissons Ratio (x) = 0.07414 0.11976
# Poissons Ratio (y) = 0.08309 0.11706
# Poissons Ratio (z) = 0.13486 0.11762
#
# Static dielectric constant tensor:
#      x y z
#    x 2.011480 0.027490 0.037110 
#    y 0.027490 2.141220 0.033130 
#    z 0.037110 0.033130 2.044780 
# 
# From -- ./inp_files/33178.got.cif
#   From: 2010.05.17/outbox.cif.g08.bks.cpg/sg2_17_cif.got.tgz:33178.got - 2010.06.03 11:33:40.
