data_PCOD9004022
_publ_section_title
;
Structure prediction by ZEFSAII (Michael W. Deem and Ramdas Pophale) SiO2 
 PCOD9004022
Probable space group: P -1
;
_chemical_formula_sum "Si O2"
_cell_formula_units_Z 16
_cell_length_a 9.406903
_cell_length_b 19.691884
_cell_length_c 15.701319
_cell_angle_alpha 156.519616
_cell_angle_beta 142.161959
_cell_angle_gamma 35.763582
_cell_volume 664.225287
_symmetry_space_group_name_H-M "P -1"
_symmetry_group_IT_number 2
_symmetry_cell_setting 'triclinic'
loop_
_space_group_symop_operation_xyz
x,y,z
-x,-y,-z
loop_
_atom_site_type_symbol
_atom_site_label
_atom_site_fract_x
_atom_site_fract_y
_atom_site_fract_z
Si Si1 0.254933 0.845096 0.409980
Si Si2 0.194886 0.264697 0.408319
Si Si3 0.106603 0.309862 0.907338
Si Si4 0.320038 0.289667 0.162354
Si Si5 0.030908 0.704712 0.846758
Si Si6 0.859258 0.264910 0.404239
Si Si7 0.592003 0.172220 0.731143
Si Si8 0.109442 0.295108 0.710422
O O1 0.510702 0.837100 0.563084
O O2 0.293047 0.833720 0.313815
O O3 0.177753 0.676703 0.208703
O O4 0.000000 0.000000 0.500000
O O5 0.145295 0.482278 0.644627
O O6 0.076464 0.238709 0.233122
O O7 0.055240 0.208097 0.355150
O O8 0.220869 0.217577 0.765989
O O9 0.233236 0.229570 0.963660
O O10 0.100034 0.515468 0.144323
O O11 0.615689 0.218311 0.222590
O O12 0.227792 0.512780 0.377475
O O13 0.189394 0.239546 0.123806
O O14 0.233726 0.787623 0.069823
O O15 0.980185 0.193150 0.470800
O O16 0.318678 0.327478 0.788350
O O17 0.500000 0.000000 0.500000
#
# Coordination Sequence:
#
# PCOD9004022 Si02
#       8
#     2   2   2   2   2   2   2   2
#     4  12  25  44  64  91 133 179 227 276 326 395
#     4  10  22  41  69 102 132 168 217 274 334 394
#     4  10  21  37  63  95 125 166 218 275 330 385
#     4   9  18  34  58  92 129 160 200 262 330 388
#     4  10  22  41  69 102 132 168 217 274 334 394
#     4   9  18  34  58  92 129 160 200 262 330 388
#     4  12  25  44  64  91 133 179 227 276 326 395
#     4  10  21  37  63  95 125 166 218 275 330 385
#
# _framework density 24.088211999999999
#
# number of rings (size 3 to 8) (size 9 to 14) (size 15 to 20)
#    0.000    1.750    2.500    1.500    3.500    1.000 
#    0.000    2.500    0.000    0.000    0.000    0.000 
#    0.000    0.000    0.000    0.000    0.000    0.000 
#
# Total GULP energy -89372.782769 kJ/mol
# GULP energy per Si atom -5585.798923 kJ/mol
# Density = 2.403339 g / cm^3
# Si number density = 24.088212 Si / 1000 Ang^3
#
#
#
# Elastic Constant Matrix: (Units=GPa)
#
#
# Indices 1 2 3 4 5 6 
#
# 1 176.2789 50.9623 59.9125 -35.6113 -22.3566 -5.2919
# 2 50.9623 80.4683 46.0606 -28.7960 -13.1276 -16.4359
# 3 59.9125 46.0606 113.4455 -36.8965 -11.7773 -1.7075
# 4 -35.6113 -28.7960 -36.8965 59.0019 2.9057 2.4949
# 5 -22.3566 -13.1276 -11.7773 2.9057 44.8909 -10.7945
# 6 -5.2919 -16.4359 -1.7075 2.4949 -10.7945 38.9134
#
#
#
# Elastic Compliance Matrix: (Units=1/GPa)
#
#
# Indices 1 2 3 4 5 6 
#
# 1 0.007902 -0.002466 -0.002236 0.002016 0.002626 0.000534
# 2 -0.002466 0.021744 -0.005062 0.005251 0.005846 0.009912
# 3 -0.002236 -0.005062 0.013582 0.004755 0.000155 -0.002108
# 4 0.002016 0.005251 0.004755 0.023484 0.002737 0.001954
# 5 0.002626 0.005846 0.000155 0.002737 0.027640 0.010325
# 6 0.000534 0.009912 -0.002108 0.001954 0.010325 0.032603
#
#
# Mechanical properties :
#
#
# Convention : Reuss Voigt Hill
#
# Bulk Modulus (GPa) = 42.19424 76.00706 59.10065
# Shear Modulus (GPa) = 32.38731 42.77839 37.58285
#
# Velocity S-wave (km/s) = 3.67076 4.21872 3.95424
# Velocity P-wave (km/s) = 5.95991 7.43991 6.74065
#
# Compressibility (1/GPa) = 0.02369992
#
# Stress axis : x y z
#
# Youngs Moduli (GPa) = 126.55321 45.98991 73.62945
#
# Poissons Ratio (x) = 0.11341 0.16461
# Poissons Ratio (y) = 0.31207 0.37272
# Poissons Ratio (z) = 0.28293 0.23281
#
# Static dielectric constant tensor:
#      x y z
#    x 1.906500 0.001550 -0.022600 
#    y 0.001550 2.068350 0.132040 
#    z -0.022600 0.132040 2.019080 
# 
# From -- ./inp_files/508159.got.cif
#   From: 2010.05.17/outbox.cif.g08.bks.cpg/sg2_255_cif.got.tgz:508159.got - 2010.06.03 11:33:40.
