data_PCOD9004773
_publ_section_title
;
Structure prediction by ZEFSAII (Michael W. Deem and Ramdas Pophale) SiO2 
 PCOD9004773
Probable space group: P -1
;
_chemical_formula_sum "Si O2"
_cell_formula_units_Z 16
_cell_length_a 7.147719
_cell_length_b 6.997161
_cell_length_c 18.028905
_cell_angle_alpha 104.233303
_cell_angle_beta 132.802570
_cell_angle_gamma 95.488657
_cell_volume 595.905798
_symmetry_space_group_name_H-M "P -1"
_symmetry_group_IT_number 2
_symmetry_cell_setting 'triclinic'
loop_
_space_group_symop_operation_xyz
x,y,z
-x,-y,-z
loop_
_atom_site_type_symbol
_atom_site_label
_atom_site_fract_x
_atom_site_fract_y
_atom_site_fract_z
Si Si1 0.048423 0.555948 0.795174
Si Si2 0.243940 0.395687 0.142245
Si Si3 0.919327 0.066294 0.719614
Si Si4 0.468623 0.193436 0.966062
Si Si5 0.138803 0.549117 0.659891
Si Si6 0.203413 0.796455 0.093716
Si Si7 0.411999 0.896531 0.656513
Si Si8 0.779399 0.063640 0.531773
O O1 0.898705 0.301263 0.728311
O O2 0.065893 0.644173 0.725168
O O3 0.894810 0.656653 0.819744
O O4 0.354932 0.607896 0.916139
O O5 0.565121 0.459899 0.241474
O O6 0.172396 0.597427 0.117897
O O7 0.091630 0.224523 0.021169
O O8 0.157693 0.123619 0.850130
O O9 0.971191 0.018785 0.642874
O O10 0.647828 0.887716 0.662552
O O11 0.630817 0.222807 0.935611
O O12 0.500000 0.000000 0.000000
O O13 0.191139 0.690287 0.614295
O O14 0.915955 0.312929 0.572982
O O15 0.399619 0.991648 0.211901
O O16 0.287738 0.028159 0.579140
O O17 0.500000 0.000000 0.500000
#
# Coordination Sequence:
#
# PCOD9004773 Si02
#       8
#     2   2   2   2   2   2   2   2
#     4  10  21  40  62  89 133 168 207 250 310 393
#     4  10  22  39  61  96 132 167 211 259 309 392
#     4  10  21  39  65  85 121 176 211 247 321 377
#     4  11  23  36  59  97 132 161 205 266 318 371
#     4  11  23  39  68  95 125 167 210 262 337 363
#     4  10  21  38  58  91 133 164 210 259 305 384
#     4  11  22  38  66  92 127 164 218 267 311 368
#     4   9  21  43  67  90 120 170 222 261 305 381
#
# _framework density 26.849881
#
# number of rings (size 3 to 8) (size 9 to 14) (size 15 to 20)
#    0.000    1.750    1.250    3.000    5.250    0.500 
#    0.000    2.500    0.000    3.750    0.000    0.000 
#    0.000    0.000    0.000    0.000    0.000    0.000 
#
# Total GULP energy -89412.522594 kJ/mol
# GULP energy per Si atom -5588.282662 kJ/mol
# Density = 2.678877 g / cm^3
# Si number density = 26.849881 Si / 1000 Ang^3
#
#
#
# Elastic Constant Matrix: (Units=GPa)
#
#
# Indices 1 2 3 4 5 6 
#
# 1 84.6436 42.7880 45.9278 -6.8202 -2.4081 36.3601
# 2 42.7880 151.5004 55.8373 -7.8945 -5.2848 47.6268
# 3 45.9278 55.8373 165.2250 -6.8752 -10.0758 20.4422
# 4 -6.8202 -7.8945 -6.8752 54.3050 17.7694 -5.9926
# 5 -2.4081 -5.2848 -10.0758 17.7694 51.5703 -9.6280
# 6 36.3601 47.6268 20.4422 -5.9926 -9.6280 46.8365
#
#
#
# Elastic Compliance Matrix: (Units=1/GPa)
#
#
# Indices 1 2 3 4 5 6 
#
# 1 0.020169 0.000396 -0.004043 0.001454 -0.003060 -0.014739
# 2 0.000396 0.010605 -0.002494 0.000642 -0.001513 -0.010232
# 3 -0.004043 -0.002494 0.007791 -0.000123 0.001603 0.002588
# 4 0.001454 0.000642 -0.000123 0.020978 -0.007217 -0.000527
# 5 -0.003060 -0.001513 0.001603 -0.007217 0.023212 0.007063
# 6 -0.014739 -0.010232 0.002588 -0.000527 0.007063 0.043453
#
#
# Mechanical properties :
#
#
# Convention : Reuss Voigt Hill
#
# Bulk Modulus (GPa) = 38.04462 76.71948 57.38205
# Shear Modulus (GPa) = 33.95555 47.66343 40.80949
#
# Velocity S-wave (km/s) = 3.56004 4.21786 3.90284
# Velocity P-wave (km/s) = 5.57662 7.23574 6.45967
#
# Compressibility (1/GPa) = 0.02628493
#
# Stress axis : x y z
#
# Youngs Moduli (GPa) = 49.58072 94.29336 128.34618
#
# Poissons Ratio (x) = -0.03736 0.51889
# Poissons Ratio (y) = -0.01965 0.32006
# Poissons Ratio (z) = 0.20045 0.23514
#
# Static dielectric constant tensor:
#      x y z
#    x 2.227340 -0.035540 -0.004170 
#    y -0.035540 2.118450 -0.000180 
#    z -0.004170 -0.000180 2.314830 
# 
# From -- ./inp_files/241000.got.cif
#   From: 2010.05.17/outbox.cif.g08.bks.cpg/sg2_121_cif.got.tgz:241000.got - 2010.06.03 11:33:40.
