data_PCOD9004091
_publ_section_title
;
Structure prediction by ZEFSAII (Michael W. Deem and Ramdas Pophale) SiO2 
 PCOD9004091
Probable space group: P -1
;
_chemical_formula_sum "Si O2"
_cell_formula_units_Z 16
_cell_length_a 12.683732
_cell_length_b 13.794657
_cell_length_c 26.000489
_cell_angle_alpha 158.994726
_cell_angle_beta 154.381498
_cell_angle_gamma 34.711315
_cell_volume 699.331850
_symmetry_space_group_name_H-M "P -1"
_symmetry_group_IT_number 2
_symmetry_cell_setting 'triclinic'
loop_
_space_group_symop_operation_xyz
x,y,z
-x,-y,-z
loop_
_atom_site_type_symbol
_atom_site_label
_atom_site_fract_x
_atom_site_fract_y
_atom_site_fract_z
Si Si1 0.112045 0.323420 0.759859
Si Si2 0.550977 0.531048 0.706430
Si Si3 0.792960 0.000349 0.667183
Si Si4 0.016431 0.796541 0.249491
Si Si5 0.570056 0.410178 0.542427
Si Si6 0.495637 0.207459 0.788127
Si Si7 0.214521 0.721023 0.729169
Si Si8 0.537617 0.486830 0.839124
O O1 0.272340 0.202564 0.727375
O O2 0.033701 0.124298 0.674929
O O3 0.862827 0.409011 0.670770
O O4 0.281590 0.585440 0.987955
O O5 0.827159 0.461374 0.803294
O O6 0.515268 0.574284 0.651277
O O7 0.435797 0.748759 0.798755
O O8 0.392073 0.245442 0.512721
O O9 0.834456 0.995215 0.621204
O O10 0.685783 0.279061 0.769633
O O11 0.061168 0.972522 0.794746
O O12 0.754512 0.710271 0.065547
O O13 0.500000 0.500000 0.500000
O O14 0.447199 0.099844 0.344417
O O15 0.434468 0.326448 0.765082
O O16 0.334397 0.609402 0.777017
O O17 0.000000 0.500000 0.500000
#
# Coordination Sequence:
#
# PCOD9004091 Si02
#       8
#     2   2   2   2   2   2   2   2
#     4   9  22  40  64  94 120 167 214 252 311 377
#     4  10  21  40  56  88 123 162 204 248 313 371
#     4  11  21  37  63  86 122 165 198 248 310 364
#     4  10  21  37  64  88 122 164 204 254 308 372
#     4  11  23  38  64  93 125 163 208 261 314 374
#     4  10  21  43  66  87 126 166 209 259 314 372
#     4  10  24  35  57  91 120 157 206 249 297 375
#     4  11  22  41  62  90 125 164 203 255 314 367
#
# _framework density 22.878982000000001
#
# number of rings (size 3 to 8) (size 9 to 14) (size 15 to 20)
#    0.000    1.750    2.500    1.125    1.750    4.000 
#    0.000    0.000    5.500    0.000    0.000    0.000 
#    0.000    0.000    0.000    0.000    0.000    0.000 
#
# Total GULP energy -89429.312571 kJ/mol
# GULP energy per Si atom -5589.332036 kJ/mol
# Density = 2.282691 g / cm^3
# Si number density = 22.878982 Si / 1000 Ang^3
#
#
#
# Elastic Constant Matrix: (Units=GPa)
#
#
# Indices 1 2 3 4 5 6 
#
# 1 138.1120 50.0502 26.4708 -12.9072 2.3649 33.1361
# 2 50.0502 150.0238 32.5598 -37.5821 -9.7095 27.7124
# 3 26.4708 32.5598 64.9089 -23.1755 4.2385 12.7364
# 4 -12.9072 -37.5821 -23.1755 37.7447 2.8088 -6.8053
# 5 2.3649 -9.7095 4.2385 2.8088 23.2543 -4.7261
# 6 33.1361 27.7124 12.7364 -6.8053 -4.7261 42.0820
#
#
#
# Elastic Compliance Matrix: (Units=1/GPa)
#
#
# Indices 1 2 3 4 5 6 
#
# 1 0.009820 -0.002099 -0.001830 -0.000776 -0.002713 -0.006226
# 2 -0.002099 0.010452 -0.001006 0.008256 0.003105 -0.003242
# 3 -0.001830 -0.001006 0.021898 0.011685 -0.006316 -0.003344
# 4 -0.000776 0.008256 0.011685 0.041547 -0.004048 -0.002098
# 5 -0.002713 0.003105 -0.006316 -0.004048 0.047575 0.006692
# 6 -0.006226 -0.003242 -0.003344 -0.002098 0.006692 0.032225
#
#
# Mechanical properties :
#
#
# Convention : Reuss Voigt Hill
#
# Bulk Modulus (GPa) = 30.95929 63.46737 47.21333
# Shear Modulus (GPa) = 27.15138 36.88045 32.01592
#
# Velocity S-wave (km/s) = 3.44865 4.01930 3.74486
# Velocity P-wave (km/s) = 5.42390 7.02427 6.27531
#
# Compressibility (1/GPa) = 0.03230049
#
# Stress axis : x y z
#
# Youngs Moduli (GPa) = 101.83776 95.67397 45.66669
#
# Poissons Ratio (x) = 0.20078 0.08357
# Poissons Ratio (y) = 0.21372 0.04593
# Poissons Ratio (z) = 0.18637 0.09623
#
# Static dielectric constant tensor:
#      x y z
#    x 1.870460 -0.017130 -0.026170 
#    y -0.017130 1.875150 0.035560 
#    z -0.026170 0.035560 1.937140 
# 
# From -- ./inp_files/273989.got.cif
#   From: 2010.05.17/outbox.cif.g08.bks.cpg/sg2_137_cif.got.tgz:273989.got - 2010.06.03 11:33:40.
