data_PCOD9004886
_publ_section_title
;
Structure prediction by ZEFSAII (Michael W. Deem and Ramdas Pophale) SiO2 
 PCOD9004886
Probable space group: P -1
;
_chemical_formula_sum "Si O2"
_cell_formula_units_Z 16
_cell_length_a 19.005936
_cell_length_b 15.424041
_cell_length_c 4.910138
_cell_angle_alpha 134.997398
_cell_angle_beta 121.858898
_cell_angle_gamma 34.977429
_cell_volume 578.755127
_symmetry_space_group_name_H-M "P -1"
_symmetry_group_IT_number 2
_symmetry_cell_setting 'triclinic'
loop_
_space_group_symop_operation_xyz
x,y,z
-x,-y,-z
loop_
_atom_site_type_symbol
_atom_site_label
_atom_site_fract_x
_atom_site_fract_y
_atom_site_fract_z
Si Si1 0.506097 0.373777 0.420800
Si Si2 0.880526 0.614708 0.201178
Si Si3 0.572250 0.056616 0.011352
Si Si4 0.673856 0.710768 0.621695
Si Si5 0.983591 0.270828 0.828146
Si Si6 0.707336 0.273743 0.995404
Si Si7 0.781892 0.952640 0.571227
Si Si8 0.144650 0.697646 0.890275
O O1 0.500000 0.500000 0.500000
O O2 0.545479 0.191047 0.027623
O O3 0.605769 0.309289 0.700813
O O4 0.367254 0.528707 0.600851
O O5 0.831235 0.805930 0.577161
O O6 0.776572 0.664191 0.914845
O O7 0.922738 0.472979 0.202798
O O8 0.000000 0.500000 0.000000
O O9 0.445731 0.180816 0.196064
O O10 0.670148 0.008020 0.313266
O O11 0.628562 0.859484 0.630734
O O12 0.739510 0.511805 0.230809
O O13 0.899930 0.300823 0.489798
O O14 0.113148 0.145664 0.663853
O O15 0.965643 0.208658 0.918522
O O16 0.751256 0.125386 0.974850
O O17 0.811731 0.212853 0.877944
#
# Coordination Sequence:
#
# PCOD9004886 Si02
#       8
#     2   2   2   2   2   2   2   2
#     4  10  21  38  59  88 126 165 208 251 321 377
#     4   8  16  35  60  86 124 162 205 255 309 371
#     4   9  17  35  62  88 124 160 207 265 311 375
#     4   9  17  33  63  90 122 162 209 257 317 369
#     4  10  23  42  65  92 126 170 209 263 312 372
#     4  10  22  38  61  88 124 168 208 262 312 378
#     4   9  19  40  59  89 125 163 213 255 319 373
#     4  11  23  41  66  92 129 167 212 258 314 375
#
# _framework density 27.645541999999999
#
# number of rings (size 3 to 8) (size 9 to 14) (size 15 to 20)
#    0.000    2.500    1.250    0.000    1.750    1.000 
#    6.750   21.250    0.000    7.500    0.000    0.000 
#    0.000    0.000    0.000    0.000    0.000    0.000 
#
# Total GULP energy -89563.462757 kJ/mol
# GULP energy per Si atom -5597.716422 kJ/mol
# Density = 2.758262 g / cm^3
# Si number density = 27.645542 Si / 1000 Ang^3
#
#
#
# Elastic Constant Matrix: (Units=GPa)
#
#
# Indices 1 2 3 4 5 6 
#
# 1 158.1605 41.5852 19.3462 6.5036 13.3563 -6.1467
# 2 41.5852 95.7052 33.7229 14.2606 15.1525 -3.5484
# 3 19.3462 33.7229 79.4498 4.7370 11.9283 7.3269
# 4 6.5036 14.2606 4.7370 31.3272 15.6771 3.4839
# 5 13.3563 15.1525 11.9283 15.6771 32.5185 13.0256
# 6 -6.1467 -3.5484 7.3269 3.4839 13.0256 64.1709
#
#
#
# Elastic Compliance Matrix: (Units=1/GPa)
#
#
# Indices 1 2 3 4 5 6 
#
# 1 0.007301 -0.002743 -0.000399 0.000888 -0.002417 0.001036
# 2 -0.002743 0.014508 -0.005035 -0.004235 -0.002486 0.001849
# 3 -0.000399 -0.005035 0.015362 0.001957 -0.003479 -0.001471
# 4 0.000888 -0.004235 0.001957 0.043564 -0.020697 0.001464
# 5 -0.002417 -0.002486 -0.003479 -0.020697 0.047563 -0.008502
# 6 0.001036 0.001849 -0.001471 0.001464 -0.008502 0.017599
#
#
# Mechanical properties :
#
#
# Convention : Reuss Voigt Hill
#
# Bulk Modulus (GPa) = 48.03758 58.06934 53.05346
# Shear Modulus (GPa) = 29.55289 41.51406 35.53347
#
# Velocity S-wave (km/s) = 3.27309 3.87932 3.58903
# Velocity P-wave (km/s) = 5.63011 6.41218 6.03383
#
# Compressibility (1/GPa) = 0.02081703
#
# Stress axis : x y z
#
# Youngs Moduli (GPa) = 136.97677 68.92870 65.09508
#
# Poissons Ratio (x) = 0.18906 0.02598
# Poissons Ratio (y) = 0.37570 0.32774
# Poissons Ratio (z) = 0.05466 0.34704
#
# Static dielectric constant tensor:
#      x y z
#    x 2.178620 0.054760 0.009070 
#    y 0.054760 2.216660 0.114640 
#    z 0.009070 0.114640 2.179200 
# 
# From -- ./inp_files/109734.got.cif
#   From: 2010.05.17/outbox.cif.g08.bks.cpg/sg2_55_cif.got.tgz:109734.got - 2010.06.03 11:33:40.
