data_PCOD9004649
_publ_section_title
;
Structure prediction by ZEFSAII (Michael W. Deem and Ramdas Pophale) SiO2 
 PCOD9004649
Probable space group: P -1
;
_chemical_formula_sum "Si O2"
_cell_formula_units_Z 14
_cell_length_a 15.665206
_cell_length_b 6.795242
_cell_length_c 7.428565
_cell_angle_alpha 85.850671
_cell_angle_beta 60.040015
_cell_angle_gamma 75.562192
_cell_volume 662.176873
_symmetry_space_group_name_H-M "P -1"
_symmetry_group_IT_number 2
_symmetry_cell_setting 'triclinic'
loop_
_space_group_symop_operation_xyz
x,y,z
-x,-y,-z
loop_
_atom_site_type_symbol
_atom_site_label
_atom_site_fract_x
_atom_site_fract_y
_atom_site_fract_z
Si Si1 0.585802 0.471937 0.759208
Si Si2 0.552540 0.154455 0.242945
Si Si3 0.236177 0.957526 0.127598
Si Si4 0.915613 0.275786 0.548211
Si Si5 0.623127 0.037673 0.573188
Si Si6 0.238079 0.314511 0.349300
Si Si7 0.045663 0.978368 0.150544
O O1 0.525611 0.628214 0.660098
O O2 0.623692 0.251791 0.646506
O O3 0.675538 0.561288 0.738517
O O4 0.500000 0.500000 0.000000
O O5 0.602702 0.059329 0.381440
O O6 0.478996 0.024127 0.245279
O O7 0.648538 0.160072 0.018585
O O8 0.237383 0.179998 0.181468
O O9 0.174064 0.846794 0.337326
O O10 0.165928 0.965733 0.024978
O O11 0.866118 0.511007 0.547150
O O12 0.963642 0.214885 0.701412
O O13 0.992062 0.169147 0.320291
O O14 0.722614 0.861733 0.531132
O O15 0.000000 0.000000 0.000000
#
# Coordination Sequence:
#
# PCOD9004649 Si02
#       7
#     2   2   2   2   2   2   2
#     4  11  21  35  60  83 118 164 201 238 300 352
#     4  10  21  38  56  88 121 161 203 247 291 351
#     4  10  21  38  63  85 120 156 202 251 295 365
#     4   9  21  42  64  89 121 153 200 251 303 366
#     4  10  22  37  55  87 130 155 201 249 288 354
#     4  11  21  36  59  89 118 160 196 243 303 352
#     4   9  21  44  66  88 120 155 197 255 311 359
#
# _framework density 21.142385000000001
#
# number of rings (size 3 to 8) (size 9 to 14) (size 15 to 20)
#    0.857    1.143    0.000    3.857    0.000    5.143 
#    2.571    0.714    0.000    0.000    0.000    0.000 
#    0.000    0.000    0.000    0.000    0.000    0.000 
#
# Total GULP energy -78005.972526 kJ/mol
# GULP energy per Si atom -5571.855180 kJ/mol
# Density = 2.109426 g / cm^3
# Si number density = 21.142385 Si / 1000 Ang^3
#
#
#
# Elastic Constant Matrix: (Units=GPa)
#
#
# Indices 1 2 3 4 5 6 
#
# 1 108.8213 46.3127 16.3173 -2.7108 20.6596 -16.3165
# 2 46.3127 143.9540 8.2682 9.0071 4.6460 -19.3402
# 3 16.3173 8.2682 31.4831 -2.4505 1.4457 -5.8575
# 4 -2.7108 9.0071 -2.4505 18.1609 -5.9266 -2.4587
# 5 20.6596 4.6460 1.4457 -5.9266 36.5839 -4.5123
# 6 -16.3165 -19.3402 -5.8575 -2.4587 -4.5123 47.1269
#
#
#
# Elastic Compliance Matrix: (Units=1/GPa)
#
#
# Indices 1 2 3 4 5 6 
#
# 1 0.012927 -0.003490 -0.005054 0.001200 -0.006231 0.001881
# 2 -0.003490 0.008640 -0.000436 -0.004441 0.000429 0.002092
# 3 -0.005054 -0.000436 0.035364 0.005552 0.002784 0.003023
# 4 0.001200 -0.004441 0.005552 0.061975 0.010137 0.003487
# 5 -0.006231 0.000429 0.002784 0.010137 0.032579 0.002013
# 6 0.001881 0.002092 0.003023 0.003487 0.002013 0.023480
#
#
# Mechanical properties :
#
#
# Convention : Reuss Voigt Hill
#
# Bulk Modulus (GPa) = 25.66056 47.33942 36.49999
# Shear Modulus (GPa) = 24.28189 34.59834 29.44012
#
# Velocity S-wave (km/s) = 3.39262 4.04969 3.73563
# Velocity P-wave (km/s) = 5.24498 6.65628 5.99232
#
# Compressibility (1/GPa) = 0.03897031
#
# Stress axis : x y z
#
# Youngs Moduli (GPa) = 77.35521 115.74553 28.27756
#
# Poissons Ratio (x) = 0.40394 0.14291
# Poissons Ratio (y) = 0.26996 0.01234
# Poissons Ratio (z) = 0.39095 0.05050
#
# Static dielectric constant tensor:
#      x y z
#    x 1.811360 -0.042960 0.006460 
#    y -0.042960 1.815780 -0.082530 
#    z 0.006460 -0.082530 1.772370 
# 
# From -- ./inp_files/321684.got.cif
#   From: 2010.05.17/outbox.cif.g08.bks.cpg/sg2_161_cif.got.tgz:321684.got - 2010.06.03 11:33:40.
