data_PCOD9004799
_publ_section_title
;
Structure prediction by ZEFSAII (Michael W. Deem and Ramdas Pophale) SiO2 
 PCOD9004799
Probable space group: P -1
;
_chemical_formula_sum "Si O2"
_cell_formula_units_Z 12
_cell_length_a 8.243434
_cell_length_b 12.526881
_cell_length_c 6.662767
_cell_angle_alpha 133.658300
_cell_angle_beta 104.253882
_cell_angle_gamma 80.653251
_cell_volume 482.414787
_symmetry_space_group_name_H-M "P -1"
_symmetry_group_IT_number 2
_symmetry_cell_setting 'triclinic'
loop_
_space_group_symop_operation_xyz
x,y,z
-x,-y,-z
loop_
_atom_site_type_symbol
_atom_site_label
_atom_site_fract_x
_atom_site_fract_y
_atom_site_fract_z
Si Si1 0.242427 0.421794 0.131477
Si Si2 0.044991 0.711669 0.427646
Si Si3 0.380919 0.030236 0.278025
Si Si4 0.851226 0.127784 0.697561
Si Si5 0.158005 0.188365 0.119629
Si Si6 0.553755 0.258173 0.902604
O O1 0.180219 0.586649 0.352233
O O2 0.230072 0.333832 0.223087
O O3 0.430469 0.391713 0.072091
O O4 0.108351 0.353345 0.840889
O O5 0.138244 0.833802 0.481072
O O6 0.962927 0.771790 0.680982
O O7 0.290686 0.079471 0.115419
O O8 0.494250 0.164453 0.566591
O O9 0.248408 0.002206 0.385961
O O10 0.463558 0.868625 0.093707
O O11 0.752194 0.272544 0.947049
O O12 0.038012 0.121520 0.827181
#
# Coordination Sequence:
#
# PCOD9004799 Si02
#       6
#     2   2   2   2   2   2
#     4  10  21  38  60  82 113 152 191 226 277 337
#     4  10  21  38  59  83 114 152 186 231 278 333
#     4   9  19  38  59  84 114 149 184 227 286 338
#     4   9  21  38  57  88 113 144 186 237 279 327
#     4  11  20  37  59  88 111 147 189 232 276 335
#     4   9  19  40  57  85 112 151 186 225 289 329
#
# _framework density 24.874858
#
# number of rings (size 3 to 8) (size 9 to 14) (size 15 to 20)
#    1.000    1.333    1.667    1.000    0.000    2.000 
#    6.000    0.833    0.000    0.000    0.000    0.000 
#    0.000    0.000    0.000    0.000    0.000    0.000 
#
# Total GULP energy -67000.589895 kJ/mol
# GULP energy per Si atom -5583.382491 kJ/mol
# Density = 2.481824 g / cm^3
# Si number density = 24.874858 Si / 1000 Ang^3
#
#
#
# Elastic Constant Matrix: (Units=GPa)
#
#
# Indices 1 2 3 4 5 6 
#
# 1 63.4276 34.9478 -4.3075 -6.1793 -14.2203 -23.4526
# 2 34.9478 120.4998 41.9014 -22.7685 -4.1983 -35.4294
# 3 -4.3075 41.9014 44.0826 -15.5652 -6.5826 0.6800
# 4 -6.1793 -22.7685 -15.5652 33.8944 -8.0081 -7.6961
# 5 -14.2203 -4.1983 -6.5826 -8.0081 40.0172 -5.9893
# 6 -23.4526 -35.4294 0.6800 -7.6961 -5.9893 55.3293
#
#
#
# Elastic Compliance Matrix: (Units=1/GPa)
#
#
# Indices 1 2 3 4 5 6 
#
# 1 0.032487 -0.009294 0.020377 0.016208 0.018942 0.011873
# 2 -0.009294 0.022785 -0.020646 0.006481 -0.001265 0.011669
# 3 0.020377 -0.020646 0.053362 0.018274 0.017388 -0.000815
# 4 0.016208 0.006481 0.018274 0.055601 0.023730 0.021098
# 5 0.018942 -0.001265 0.017388 0.023730 0.041410 0.014788
# 6 0.011873 0.011669 -0.000815 0.021098 0.014788 0.035124
#
#
# Mechanical properties :
#
#
# Convention : Reuss Voigt Hill
#
# Bulk Modulus (GPa) = 11.17238 41.45483 26.31361
# Shear Modulus (GPa) = 17.25743 36.21272 26.73508
#
# Velocity S-wave (km/s) = 2.63681 3.81963 3.28195
# Velocity P-wave (km/s) = 3.71100 6.01284 4.99629
#
# Compressibility (1/GPa) = 0.08950646
#
# Stress axis : x y z
#
# Youngs Moduli (GPa) = 30.78182 43.88869 18.73993
#
# Poissons Ratio (x) = 0.40791 -0.38186
# Poissons Ratio (y) = 0.28609 0.38691
# Poissons Ratio (z) = -0.62724 0.90614
#
# Static dielectric constant tensor:
#      x y z
#    x 1.999260 -0.040350 0.011870 
#    y -0.040350 1.953990 0.032710 
#    z 0.011870 0.032710 1.977110 
# 
# From -- ./inp_files/19046.got.cif
#   From: 2010.05.17/outbox.cif.g08.bks.cpg/sg2_10_cif.got.tgz:19046.got - 2010.06.03 11:33:40.
