data_PCOD9004428
_publ_section_title
;
Structure prediction by ZEFSAII (Michael W. Deem and Ramdas Pophale) SiO2 
 PCOD9004428
Probable space group: P -1
;
_chemical_formula_sum "Si O2"
_cell_formula_units_Z 10
_cell_length_a 10.199736
_cell_length_b 4.954963
_cell_length_c 14.977378
_cell_angle_alpha 102.709413
_cell_angle_beta 140.912314
_cell_angle_gamma 83.910948
_cell_volume 462.985543
_symmetry_space_group_name_H-M "P -1"
_symmetry_group_IT_number 2
_symmetry_cell_setting 'triclinic'
loop_
_space_group_symop_operation_xyz
x,y,z
-x,-y,-z
loop_
_atom_site_type_symbol
_atom_site_label
_atom_site_fract_x
_atom_site_fract_y
_atom_site_fract_z
Si Si1 0.872904 0.282696 0.683448
Si Si2 0.098500 0.628974 0.969741
Si Si3 0.536264 0.850984 0.293591
Si Si4 0.812822 0.372673 0.453503
Si Si5 0.268905 0.185009 0.304342
O O1 0.895199 0.334380 0.594816
O O2 0.703357 0.484863 0.643639
O O3 0.069295 0.402601 0.857226
O O4 0.795786 0.973423 0.650219
O O5 0.942044 0.848861 0.870140
O O6 0.335468 0.744946 0.120732
O O7 0.000000 0.500000 0.000000
O O8 0.638788 0.588996 0.368095
O O9 0.705998 0.065484 0.348824
O O10 0.445165 0.041500 0.336249
O O11 0.000000 0.500000 0.500000
#
# Coordination Sequence:
#
# PCOD9004428 Si02
#       5
#     2   2   2   2   2
#     4  10  23  39  65  90 140 153 199 262 321 367
#     4  10  21  40  65 103 131 153 192 263 332 389
#     4  12  23  40  71  92 125 166 209 255 322 372
#     4  12  28  46  59  87 130 178 220 254 289 361
#     4  10  21  37  67 100 128 147 200 258 337 372
#
# _framework density 21.598946000000002
#
# number of rings (size 3 to 8) (size 9 to 14) (size 15 to 20)
#    1.200    0.000    2.000    4.800    2.800    4.800 
#    0.000    2.000    0.000    0.000    0.000    0.000 
#    0.000    0.000    0.000    0.000    0.000    0.000 
#
# Total GULP energy -55844.163732 kJ/mol
# GULP energy per Si atom -5584.416373 kJ/mol
# Density = 2.154979 g / cm^3
# Si number density = 21.598946 Si / 1000 Ang^3
#
#
#
# Elastic Constant Matrix: (Units=GPa)
#
#
# Indices 1 2 3 4 5 6 
#
# 1 64.3230 8.1014 46.2219 -10.6838 -0.1105 32.3229
# 2 8.1014 106.5091 28.3397 -14.4781 0.0646 26.7818
# 3 46.2219 28.3397 153.0738 4.5271 -12.8470 25.1982
# 4 -10.6838 -14.4781 4.5271 44.5441 9.4133 0.1509
# 5 -0.1105 0.0646 -12.8470 9.4133 16.1034 -0.7800
# 6 32.3229 26.7818 25.1982 0.1509 -0.7800 40.4816
#
#
#
# Elastic Compliance Matrix: (Units=1/GPa)
#
#
# Indices 1 2 3 4 5 6 
#
# 1 0.044508 0.011844 -0.012245 0.020849 -0.023456 -0.036281
# 2 0.011844 0.015519 -0.004906 0.010767 -0.011009 -0.016922
# 3 -0.012245 -0.004906 0.011627 -0.008834 0.014671 0.006102
# 4 0.020849 0.010767 -0.008834 0.038307 -0.030261 -0.018997
# 5 -0.023456 -0.011009 0.014671 -0.030261 0.092284 0.018770
# 6 -0.036281 -0.016922 0.006102 -0.018997 0.018770 0.061502
#
#
# Mechanical properties :
#
#
# Convention : Reuss Voigt Hill
#
# Bulk Modulus (GPa) = 16.38289 54.35910 35.37099
# Shear Modulus (GPa) = 16.96592 36.30867 26.63730
#
# Velocity S-wave (km/s) = 2.80571 4.10450 3.51560
# Velocity P-wave (km/s) = 4.25412 6.90541 5.73507
#
# Compressibility (1/GPa) = 0.06103931
#
# Stress axis : x y z
#
# Youngs Moduli (GPa) = 22.46764 64.43793 86.00805
#
# Poissons Ratio (x) = -0.76320 1.05318
# Poissons Ratio (y) = -0.26611 0.42197
# Poissons Ratio (z) = 0.27512 0.31615
#
# Static dielectric constant tensor:
#      x y z
#    x 1.771290 -0.024590 -0.016590 
#    y -0.024590 1.806100 0.044930 
#    z -0.016590 0.044930 1.856990 
# 
# From -- ./inp_files/16350.got.cif
#   From: 2010.05.17/outbox.cif.g08.bks.cpg/sg2_9_cif.got.tgz:16350.got - 2010.06.03 11:33:40.
