data_PCOD9004217
_publ_section_title
;
Structure prediction by ZEFSAII (Michael W. Deem and Ramdas Pophale) SiO2 
 PCOD9004217
Probable space group: P -1
;
_chemical_formula_sum "Si O2"
_cell_formula_units_Z 16
_cell_length_a 10.974366
_cell_length_b 23.705755
_cell_length_c 23.819789
_cell_angle_alpha 11.601407
_cell_angle_beta 32.065195
_cell_angle_gamma 31.844195
_cell_volume 650.624857
_symmetry_space_group_name_H-M "P -1"
_symmetry_group_IT_number 2
_symmetry_cell_setting 'triclinic'
loop_
_space_group_symop_operation_xyz
x,y,z
-x,-y,-z
loop_
_atom_site_type_symbol
_atom_site_label
_atom_site_fract_x
_atom_site_fract_y
_atom_site_fract_z
Si Si1 0.575265 0.755273 0.254939
Si Si2 0.663560 0.330898 0.224321
Si Si3 0.343942 0.437583 0.473660
Si Si4 0.990036 0.047713 0.834069
Si Si5 0.230344 0.134671 0.280981
Si Si6 0.243737 0.702801 0.901852
Si Si7 0.179188 0.303721 0.400591
Si Si8 0.372544 0.896416 0.924829
O O1 0.500000 0.500000 0.500000
O O2 0.488747 0.711172 0.395971
O O3 0.500000 0.000000 0.000000
O O4 0.837393 0.311754 0.670029
O O5 0.812909 0.284975 0.153945
O O6 0.645828 0.033067 0.550285
O O7 0.392382 0.440500 0.209159
O O8 0.768340 0.539080 0.021896
O O9 0.257980 0.168042 0.742078
O O10 0.420336 0.612678 0.220416
O O11 0.050827 0.189556 0.614023
O O12 0.205306 0.904023 0.928818
O O13 0.835294 0.809472 0.113569
O O14 0.381523 0.059333 0.239770
O O15 0.000000 0.000000 0.500000
O O16 0.256801 0.014591 0.615967
O O17 0.500000 0.500000 0.000000
O O18 0.077064 0.546340 0.158357
#
# Coordination Sequence:
#
# PCOD9004217 Si02
#       8
#     2   2   2   2   2   2   2   2
#     4  12  26  49  72 101 146 195 239 292 363 440
#     4  11  21  44  68  93 142 184 230 293 357 414
#     4  12  26  47  75 109 148 192 241 310 360 429
#     4  12  27  43  79 109 152 192 245 301 368 430
#     4  12  26  46  71 101 143 190 238 297 361 428
#     4  10  21  37  64  98 140 175 229 291 351 413
#     4  11  23  38  67 110 133 177 232 291 354 418
#     4  12  27  45  74 113 146 186 256 302 363 427
#
# _framework density 24.591743999999998
#
# number of rings (size 3 to 8) (size 9 to 14) (size 15 to 20)
#    0.000    0.500    3.750    5.625    3.500    0.000 
#    0.000    7.500    0.000    0.000    0.000    0.000 
#    0.000    0.000    0.000    0.000    0.000    0.000 
#
# Total GULP energy -89347.689654 kJ/mol
# GULP energy per Si atom -5584.230603 kJ/mol
# Density = 2.453577 g / cm^3
# Si number density = 24.591744 Si / 1000 Ang^3
#
#
#
# Elastic Constant Matrix: (Units=GPa)
#
#
# Indices 1 2 3 4 5 6 
#
# 1 57.7518 24.1868 36.3775 6.1104 -7.5226 10.5696
# 2 24.1868 101.3495 45.1961 18.0596 -5.3953 23.7248
# 3 36.3775 45.1961 199.4196 15.4245 4.9099 15.7954
# 4 6.1104 18.0596 15.4245 56.1081 19.9936 -0.9768
# 5 -7.5226 -5.3953 4.9099 19.9936 61.4110 11.9897
# 6 10.5696 23.7248 15.7954 -0.9768 11.9897 29.6266
#
#
#
# Elastic Compliance Matrix: (Units=1/GPa)
#
#
# Indices 1 2 3 4 5 6 
#
# 1 0.022193 -0.001334 -0.003037 -0.003188 0.005346 -0.007499
# 2 -0.001334 0.015900 -0.001861 -0.006990 0.006408 -0.014088
# 3 -0.003037 -0.001861 0.006074 -0.000460 -0.000802 -0.000355
# 4 -0.003188 -0.006990 -0.000460 0.024858 -0.011492 0.012450
# 5 0.005346 0.006408 -0.000802 -0.011492 0.024617 -0.016953
# 6 -0.007499 -0.014088 -0.000355 0.012450 -0.016953 0.055171
#
#
# Mechanical properties :
#
#
# Convention : Reuss Voigt Hill
#
# Bulk Modulus (GPa) = 31.54355 63.33798 47.44077
# Shear Modulus (GPa) = 29.09599 46.27983 37.68791
#
# Velocity S-wave (km/s) = 3.44344 4.34282 3.91902
# Velocity P-wave (km/s) = 5.35392 7.13852 6.30963
#
# Compressibility (1/GPa) = 0.03170220
#
# Stress axis : x y z
#
# Youngs Moduli (GPa) = 45.05843 62.89402 164.63870
#
# Poissons Ratio (x) = 0.08388 0.50004
# Poissons Ratio (y) = 0.06010 0.30647
# Poissons Ratio (z) = 0.13685 0.11708
#
# Static dielectric constant tensor:
#      x y z
#    x 2.506600 -0.294810 0.258980 
#    y -0.294810 2.236860 -0.051410 
#    z 0.258980 -0.051410 1.982350 
# 
# From -- ./inp_files/543300.got.cif
#   From: 2010.05.17/outbox.cif.g08.bks.cpg/sg2_272_cif.got.tgz:543300.got - 2010.06.03 11:33:40.
