data_PCOD9004456
_publ_section_title
;
Structure prediction by ZEFSAII (Michael W. Deem and Ramdas Pophale) SiO2 
 PCOD9004456
Probable space group: P -1
;
_chemical_formula_sum "Si O2"
_cell_formula_units_Z 16
_cell_length_a 25.130472
_cell_length_b 7.334296
_cell_length_c 20.070581
_cell_angle_alpha 118.527125
_cell_angle_beta 12.905634
_cell_angle_gamma 118.989597
_cell_volume 722.450617
_symmetry_space_group_name_H-M "P -1"
_symmetry_group_IT_number 2
_symmetry_cell_setting 'triclinic'
loop_
_space_group_symop_operation_xyz
x,y,z
-x,-y,-z
loop_
_atom_site_type_symbol
_atom_site_label
_atom_site_fract_x
_atom_site_fract_y
_atom_site_fract_z
Si Si1 0.801884 0.937449 0.175444
Si Si2 0.122554 0.953516 0.272623
Si Si3 0.843237 0.709770 0.951685
Si Si4 0.309629 0.864325 0.841881
Si Si5 0.475335 0.700788 0.749693
Si Si6 0.234882 0.407766 0.381526
Si Si7 0.022837 0.683656 0.056641
Si Si8 0.246754 0.416171 0.207061
O O1 0.560013 0.885911 0.501238
O O2 0.850956 0.767173 0.030552
O O3 0.000000 0.000000 0.000000
O O4 0.807259 0.140685 0.158286
O O5 0.916795 0.814996 0.457547
O O6 0.232860 0.180998 0.154189
O O7 0.337792 0.807460 0.995025
O O8 0.000000 0.000000 0.500000
O O9 0.073049 0.591032 0.631867
O O10 0.614781 0.543381 0.186369
O O11 0.815307 0.923217 0.982241
O O12 0.367279 0.812502 0.837538
O O13 0.150542 0.669375 0.968787
O O14 0.758258 0.742108 0.406336
O O15 0.248926 0.411531 0.284395
O O16 0.500599 0.451817 0.095095
O O17 0.000000 0.500000 0.000000
O O18 0.000000 0.500000 0.500000
#
# Coordination Sequence:
#
# PCOD9004456 Si02
#       8
#     2   2   2   2   2   2   2   2
#     4  11  22  39  60  87 128 170 203 263 320 368
#     4   9  21  42  64  92 132 164 210 268 324 384
#     4  10  23  42  61  89 133 161 213 272 310 381
#     4  11  24  40  62  93 124 170 215 255 325 383
#     4  11  23  42  66  93 126 170 213 267 321 381
#     4   9  21  42  59  90 129 162 200 273 317 366
#     4  11  23  39  63  93 126 167 215 265 315 382
#     4  10  21  37  67  93 119 167 209 253 329 389
#
# _framework density 22.146841999999999
#
# number of rings (size 3 to 8) (size 9 to 14) (size 15 to 20)
#    0.000    1.750    1.250    3.000    7.000    1.500 
#    0.000    6.250    0.000    0.000    0.000    0.000 
#    0.000    0.000    0.000    0.000    0.000    0.000 
#
# Total GULP energy -89316.925218 kJ/mol
# GULP energy per Si atom -5582.307826 kJ/mol
# Density = 2.209643 g / cm^3
# Si number density = 22.146842 Si / 1000 Ang^3
#
#
#
# Elastic Constant Matrix: (Units=GPa)
#
#
# Indices 1 2 3 4 5 6 
#
# 1 40.2746 12.4013 29.2748 -3.8134 -13.9828 8.1201
# 2 12.4013 120.7236 31.1059 -4.6363 -5.0917 19.2206
# 3 29.2748 31.1059 131.2466 -14.2904 -11.4950 21.8465
# 4 -3.8134 -4.6363 -14.2904 33.4514 10.3769 8.3108
# 5 -13.9828 -5.0917 -11.4950 10.3769 40.3682 -0.4645
# 6 8.1201 19.2206 21.8465 8.3108 -0.4645 27.2015
#
#
#
# Elastic Compliance Matrix: (Units=1/GPa)
#
#
# Indices 1 2 3 4 5 6 
#
# 1 0.033576 -0.000876 -0.005761 -0.000781 0.010029 -0.004366
# 2 -0.000876 0.009749 -0.000676 0.002690 -0.000037 -0.006907
# 3 -0.005761 -0.000676 0.011155 0.006382 -0.000645 -0.008722
# 4 -0.000781 0.002690 0.006382 0.040401 -0.008721 -0.019286
# 5 0.010029 -0.000037 -0.000645 -0.008721 0.030308 0.000733
# 6 -0.004366 -0.006907 -0.008722 -0.019286 0.000733 0.055857
#
#
# Mechanical properties :
#
#
# Convention : Reuss Voigt Hill
#
# Bulk Modulus (GPa) = 25.09259 48.64543 36.86901
# Shear Modulus (GPa) = 23.92849 34.83506 29.38177
#
# Velocity S-wave (km/s) = 3.29058 3.97030 3.64631
# Velocity P-wave (km/s) = 5.07858 6.55975 5.86610
#
# Compressibility (1/GPa) = 0.03985240
#
# Stress axis : x y z
#
# Youngs Moduli (GPa) = 29.78354 102.57559 89.64837
#
# Poissons Ratio (x) = 0.08990 0.51649
# Poissons Ratio (y) = 0.02610 0.06058
# Poissons Ratio (z) = 0.17159 0.06931
#
# Static dielectric constant tensor:
#      x y z
#    x 1.713520 0.050180 -0.125750 
#    y 0.050180 1.864320 0.020350 
#    z -0.125750 0.020350 1.684490 
# 
# From -- ./inp_files/608855.got.cif
#   From: 2010.05.17/outbox.cif.g08.bks.cpg/sg2_305_cif.got.tgz:608855.got - 2010.06.03 11:33:40.
