data_PCOD9004008
_publ_section_title
;
Structure prediction by ZEFSAII (Michael W. Deem and Ramdas Pophale) SiO2 
 PCOD9004008
Probable space group: P -1
;
_chemical_formula_sum "Si O2"
_cell_formula_units_Z 16
_cell_length_a 7.575249
_cell_length_b 20.002871
_cell_length_c 12.952502
_cell_angle_alpha 31.264850
_cell_angle_beta 133.453097
_cell_angle_gamma 136.057706
_cell_volume 692.459727
_symmetry_space_group_name_H-M "P -1"
_symmetry_group_IT_number 2
_symmetry_cell_setting 'triclinic'
loop_
_space_group_symop_operation_xyz
x,y,z
-x,-y,-z
loop_
_atom_site_type_symbol
_atom_site_label
_atom_site_fract_x
_atom_site_fract_y
_atom_site_fract_z
Si Si1 0.715698 0.985312 0.681638
Si Si2 0.757990 0.378993 0.271940
Si Si3 0.102406 0.950597 0.710309
Si Si4 0.471692 0.789036 0.394168
Si Si5 0.777223 0.848197 0.084603
Si Si6 0.772838 0.667140 0.966594
Si Si7 0.845013 0.739832 0.459246
Si Si8 0.029219 0.349191 0.712891
O O1 0.922725 0.950228 0.738189
O O2 0.500000 0.000000 0.500000
O O3 0.631036 0.887216 0.877040
O O4 0.879526 0.135592 0.591287
O O5 0.680330 0.305590 0.448619
O O6 0.495087 0.305400 0.197243
O O7 0.043183 0.381270 0.352819
O O8 0.770684 0.534370 0.079766
O O9 0.032702 0.790549 0.875885
O O10 0.000000 0.000000 0.500000
O O11 0.386012 0.055946 0.713964
O O12 0.693445 0.736559 0.508121
O O13 0.261142 0.764272 0.252119
O O14 0.688492 0.782795 0.247981
O O15 0.857832 0.722843 0.235721
O O16 0.000000 0.000000 0.000000
O O17 0.798878 0.642265 0.129657
O O18 0.000000 0.500000 0.500000
#
# Coordination Sequence:
#
# PCOD9004008 Si02
#       8
#     2   2   2   2   2   2   2   2
#     4  10  21  37  63  93 134 181 222 282 346 414
#     4  11  22  45  75  92 143 187 223 294 354 419
#     4  11  22  39  65 101 137 168 236 287 340 415
#     4  11  24  42  71  98 138 183 227 291 346 413
#     4  10  21  40  63  97 138 180 232 277 354 422
#     4  11  23  41  71 104 130 188 239 277 361 426
#     4  10  22  42  64  99 133 179 230 280 348 413
#     4  12  23  44  74  97 138 193 236 285 354 427
#
# _framework density 23.106037000000001
#
# number of rings (size 3 to 8) (size 9 to 14) (size 15 to 20)
#    0.000    1.250    5.000    0.750    0.000    0.500 
#    2.250    5.000    2.750    0.000    0.000    0.000 
#    0.000    0.000    0.000    0.000    0.000    0.000 
#
# Total GULP energy -89168.813627 kJ/mol
# GULP energy per Si atom -5573.050852 kJ/mol
# Density = 2.305345 g / cm^3
# Si number density = 23.106037 Si / 1000 Ang^3
#
#
#
# Elastic Constant Matrix: (Units=GPa)
#
#
# Indices 1 2 3 4 5 6 
#
# 1 65.8211 2.8430 8.9995 0.8085 7.1941 -9.1501
# 2 2.8430 104.4981 26.8105 3.7673 -1.4447 -4.3301
# 3 8.9995 26.8105 82.9281 18.5012 -1.1890 -10.8320
# 4 0.8085 3.7673 18.5012 54.7633 -6.4186 0.5878
# 5 7.1941 -1.4447 -1.1890 -6.4186 15.5069 2.4016
# 6 -9.1501 -4.3301 -10.8320 0.5878 2.4016 24.7662
#
#
#
# Elastic Compliance Matrix: (Units=1/GPa)
#
#
# Indices 1 2 3 4 5 6 
#
# 1 0.017357 -0.000062 -0.000822 -0.001186 -0.009698 0.007011
# 2 -0.000062 0.010460 -0.003462 0.000559 0.000940 0.000187
# 3 -0.000822 -0.003462 0.015179 -0.005159 -0.001847 0.006031
# 4 -0.001186 0.000559 -0.005159 0.021149 0.009585 -0.004028
# 5 -0.009698 0.000940 -0.001847 0.009585 0.074712 -0.011699
# 6 0.007011 0.000187 0.006031 -0.004028 -0.011699 0.046869
#
#
# Mechanical properties :
#
#
# Convention : Reuss Voigt Hill
#
# Bulk Modulus (GPa) = 29.15087 36.72812 32.93949
# Shear Modulus (GPa) = 24.28924 33.31357 28.80141
#
# Velocity S-wave (km/s) = 3.24575 3.80118 3.53439
# Velocity P-wave (km/s) = 5.16624 5.93256 5.56261
#
# Compressibility (1/GPa) = 0.03430430
#
# Stress axis : x y z
#
# Youngs Moduli (GPa) = 57.61392 95.60227 65.87881
#
# Poissons Ratio (x) = 0.00593 0.05417
# Poissons Ratio (y) = 0.00358 0.22805
# Poissons Ratio (z) = 0.04737 0.33095
#
# Static dielectric constant tensor:
#      x y z
#    x 1.906070 -0.017040 0.050740 
#    y -0.017040 1.934310 -0.013050 
#    z 0.050740 -0.013050 1.999710 
# 
# From -- ./inp_files/508114.got.cif
#   From: 2010.05.17/outbox.cif.g08.bks.cpg/sg2_255_cif.got.tgz:508114.got - 2010.06.03 11:33:40.
