data_PCOD9004566
_publ_section_title
;
Structure prediction by ZEFSAII (Michael W. Deem and Ramdas Pophale) SiO2 
 PCOD9004566
Probable space group: P -1
;
_chemical_formula_sum "Si O2"
_cell_formula_units_Z 16
_cell_length_a 20.077242
_cell_length_b 7.812434
_cell_length_c 10.967308
_cell_angle_alpha 69.006875
_cell_angle_beta 44.796922
_cell_angle_gamma 37.698378
_cell_volume 653.573596
_symmetry_space_group_name_H-M "P -1"
_symmetry_group_IT_number 2
_symmetry_cell_setting 'triclinic'
loop_
_space_group_symop_operation_xyz
x,y,z
-x,-y,-z
loop_
_atom_site_type_symbol
_atom_site_label
_atom_site_fract_x
_atom_site_fract_y
_atom_site_fract_z
Si Si1 0.776876 0.467719 0.013034
Si Si2 0.254447 0.993176 0.856305
Si Si3 0.939789 0.246775 0.609818
Si Si4 0.296823 0.808785 0.331990
Si Si5 0.775332 0.784611 0.497221
Si Si6 0.520403 0.125490 0.545188
Si Si7 0.609770 0.132378 0.047944
Si Si8 0.001205 0.309815 0.927688
O O1 0.827614 0.345469 0.839630
O O2 0.939814 0.248894 0.935258
O O3 0.643805 0.577717 0.241126
O O4 0.687524 0.809621 0.032768
O O5 0.415250 0.793209 0.625126
O O6 0.299586 0.885498 0.963965
O O7 0.129423 0.060766 0.930958
O O8 0.155312 0.344751 0.897387
O O9 0.845976 0.547874 0.574271
O O10 0.000000 0.000000 0.500000
O O11 0.105719 0.066301 0.499472
O O12 0.419557 0.443349 0.253617
O O13 0.320000 0.894477 0.399473
O O14 0.354652 0.842217 0.135829
O O15 0.918171 0.657945 0.267803
O O16 0.658432 0.865105 0.534580
O O17 0.500000 0.000000 0.500000
#
# Coordination Sequence:
#
# PCOD9004566 Si02
#       8
#     2   2   2   2   2   2   2   2
#     4  11  21  40  66  96 135 171 217 270 331 389
#     4   9  18  35  61  99 123 171 219 261 319 389
#     4  12  26  41  67  97 133 173 220 275 331 387
#     4  11  23  42  64 100 130 171 223 272 321 397
#     4  11  23  41  67  93 130 178 219 266 331 392
#     4  11  22  37  65  98 133 173 215 265 332 386
#     4  10  21  37  70  93 132 169 219 276 321 388
#     4   9  17  34  65  92 124 172 219 258 315 397
#
# _framework density 24.480791
#
# number of rings (size 3 to 8) (size 9 to 14) (size 15 to 20)
#    0.000    1.500    5.000    1.875    1.750    2.500 
#    0.000    2.500    2.750    6.000    0.000    0.000 
#    0.000    0.000    0.000    0.000    0.000    0.000 
#
# Total GULP energy -89493.678594 kJ/mol
# GULP energy per Si atom -5593.354912 kJ/mol
# Density = 2.442507 g / cm^3
# Si number density = 24.480791 Si / 1000 Ang^3
#
#
#
# Elastic Constant Matrix: (Units=GPa)
#
#
# Indices 1 2 3 4 5 6 
#
# 1 136.1301 29.1366 59.0456 0.4194 6.9065 -15.5355
# 2 29.1366 61.2183 19.7825 16.2795 14.1539 -2.9376
# 3 59.0456 19.7825 154.9131 1.5579 27.1381 -2.4195
# 4 0.4194 16.2795 1.5579 25.9580 -2.3537 2.7839
# 5 6.9065 14.1539 27.1381 -2.3537 43.1177 2.0557
# 6 -15.5355 -2.9376 -2.4195 2.7839 2.0557 36.1783
#
#
#
# Elastic Compliance Matrix: (Units=1/GPa)
#
#
# Indices 1 2 3 4 5 6 
#
# 1 0.010226 -0.004815 -0.003651 0.002912 0.002237 0.003405
# 2 -0.004815 0.025013 0.000351 -0.016603 -0.008650 0.001756
# 3 -0.003651 0.000351 0.008684 -0.001075 -0.005027 -0.000590
# 4 0.002912 -0.016603 -0.001075 0.050220 0.008617 -0.004524
# 5 0.002237 -0.008650 -0.005027 0.008617 0.029423 -0.002413
# 6 0.003405 0.001756 -0.000590 -0.004524 -0.002413 0.029691
#
#
# Mechanical properties :
#
#
# Convention : Reuss Voigt Hill
#
# Bulk Modulus (GPa) = 36.11065 63.13229 49.62147
# Shear Modulus (GPa) = 27.97691 37.33724 32.65708
#
# Velocity S-wave (km/s) = 3.38422 3.90957 3.65634
# Velocity P-wave (km/s) = 5.48208 6.79884 6.17565
#
# Compressibility (1/GPa) = 0.02769266
#
# Stress axis : x y z
#
# Youngs Moduli (GPa) = 97.78771 39.97958 115.15273
#
# Poissons Ratio (x) = 0.19252 0.42040
# Poissons Ratio (y) = 0.47090 -0.04043
# Poissons Ratio (z) = 0.35701 -0.01404
#
# Static dielectric constant tensor:
#      x y z
#    x 1.968280 0.011590 -0.023060 
#    y 0.011590 2.004670 0.030920 
#    z -0.023060 0.030920 1.940870 
# 
# From -- ./inp_files/469986.got.cif
#   From: 2010.05.17/outbox.cif.g08.bks.cpg/sg2_235_cif.got.tgz:469986.got - 2010.06.03 11:33:40.
