data_PCOD9004718
_publ_section_title
;
Structure prediction by ZEFSAII (Michael W. Deem and Ramdas Pophale) SiO2 
 PCOD9004718
Probable space group: P -1
;
_chemical_formula_sum "Si O2"
_cell_formula_units_Z 12
_cell_length_a 9.750388
_cell_length_b 13.977332
_cell_length_c 6.672389
_cell_angle_alpha 89.352798
_cell_angle_beta 134.225600
_cell_angle_gamma 102.223373
_cell_volume 624.669969
_symmetry_space_group_name_H-M "P -1"
_symmetry_group_IT_number 2
_symmetry_cell_setting 'triclinic'
loop_
_space_group_symop_operation_xyz
x,y,z
-x,-y,-z
loop_
_atom_site_type_symbol
_atom_site_label
_atom_site_fract_x
_atom_site_fract_y
_atom_site_fract_z
Si Si1 0.020121 0.206186 0.377316
Si Si2 0.519325 0.761504 0.224446
Si Si3 0.327474 0.538805 0.919775
Si Si4 0.250664 0.797808 0.281578
Si Si5 0.964199 0.372636 0.625632
Si Si6 0.659761 0.099111 0.232639
O O1 0.246175 0.207600 0.575539
O O2 0.012807 0.304892 0.494686
O O3 0.879664 0.115434 0.364461
O O4 0.908630 0.198773 0.051710
O O5 0.446756 0.794385 0.359763
O O6 0.429975 0.642250 0.131361
O O7 0.417322 0.811280 0.944728
O O8 0.173644 0.452536 0.892387
O O9 0.187253 0.568056 0.608121
O O10 0.500000 0.500000 0.000000
O O11 0.313881 0.886798 0.503954
O O12 0.143747 0.700861 0.307322
O O13 0.500000 0.000000 0.000000
#
# Coordination Sequence:
#
# PCOD9004718 Si02
#       6
#     2   2   2   2   2   2
#     4  10  21  39  61  88 121 152 196 248 291 345
#     4  11  22  39  60  91 121 154 199 244 287 346
#     4  11  20  36  61  85 122 163 196 235 284 345
#     4  10  21  40  60  87 119 152 197 245 294 347
#     4  10  21  38  58  83 123 164 196 234 290 340
#     4  10  23  44  65  83 116 157 193 244 307 354
#
# _framework density 19.210144
#
# number of rings (size 3 to 8) (size 9 to 14) (size 15 to 20)
#    0.000    1.667    6.667    0.000    0.000    8.000 
#    0.000    3.333    0.000    0.000    0.000    0.000 
#    0.000    0.000    0.000    0.000    0.000    0.000 
#
# Total GULP energy -66933.325076 kJ/mol
# GULP energy per Si atom -5577.777090 kJ/mol
# Density = 1.916642 g / cm^3
# Si number density = 19.210144 Si / 1000 Ang^3
#
#
#
# Elastic Constant Matrix: (Units=GPa)
#
#
# Indices 1 2 3 4 5 6 
#
# 1 145.6632 12.7582 72.1050 2.4810 24.1600 1.7810
# 2 12.7582 27.8214 20.2355 23.9939 2.4092 6.1382
# 3 72.1050 20.2355 90.4608 20.1316 2.7916 2.4234
# 4 2.4810 23.9939 20.1316 32.5554 7.8324 11.8005
# 5 24.1600 2.4092 2.7916 7.8324 45.6635 1.0915
# 6 1.7810 6.1382 2.4234 11.8005 1.0915 11.0270
#
#
#
# Elastic Compliance Matrix: (Units=1/GPa)
#
#
# Indices 1 2 3 4 5 6 
#
# 1 0.020733 -0.024647 -0.019318 0.043024 -0.015152 -0.029925
# 2 -0.024647 0.144887 0.017917 -0.151240 0.028368 0.078433
# 3 -0.019318 0.017917 0.031690 -0.047915 0.014696 0.036004
# 4 0.043024 -0.151240 -0.047915 0.239772 -0.049062 -0.163965
# 5 -0.015152 0.028368 0.014696 -0.049062 0.035161 0.032450
# 6 -0.029925 0.078433 0.036004 -0.163965 0.032450 0.216203
#
#
# Mechanical properties :
#
#
# Convention : Reuss Voigt Hill
#
# Bulk Modulus (GPa) = 6.88643 52.68253 29.78448
# Shear Modulus (GPa) = 6.33757 28.43897 17.38827
#
# Velocity S-wave (km/s) = 1.81831 3.85179 3.01185
# Velocity P-wave (km/s) = 2.82858 6.87500 5.25673
#
# Compressibility (1/GPa) = 0.14521303
#
# Stress axis : x y z
#
# Youngs Moduli (GPa) = 48.23294 6.90192 31.55601
#
# Poissons Ratio (x) = 0.17011 0.60959
# Poissons Ratio (y) = 1.18881 -0.56538
# Poissons Ratio (z) = 0.93175 -0.12366
#
# Static dielectric constant tensor:
#      x y z
#    x 1.666040 0.005200 0.004100 
#    y 0.005200 1.708940 0.027770 
#    z 0.004100 0.027770 1.666490 
# 
# From -- ./inp_files/3365.got.cif
#   From: 2010.05.17/outbox.cif.g08.bks.cpg/sg2_2_cif.got.tgz:3365.got - 2010.06.03 11:33:40.
