data_PCOD9004894
_publ_section_title
;
Structure prediction by ZEFSAII (Michael W. Deem and Ramdas Pophale) SiO2 
 PCOD9004894
Probable space group: P -1
;
_chemical_formula_sum "Si O2"
_cell_formula_units_Z 14
_cell_length_a 17.337399
_cell_length_b 7.096395
_cell_length_c 8.179383
_cell_angle_alpha 144.729708
_cell_angle_beta 117.817209
_cell_angle_gamma 57.441513
_cell_volume 488.999156
_symmetry_space_group_name_H-M "P -1"
_symmetry_group_IT_number 2
_symmetry_cell_setting 'triclinic'
loop_
_space_group_symop_operation_xyz
x,y,z
-x,-y,-z
loop_
_atom_site_type_symbol
_atom_site_label
_atom_site_fract_x
_atom_site_fract_y
_atom_site_fract_z
Si Si1 0.441923 0.627826 0.790848
Si Si2 0.050014 0.193231 0.033975
Si Si3 0.673711 0.629370 0.720436
Si Si4 0.736878 0.077801 0.656526
Si Si5 0.382645 0.386743 0.881194
Si Si6 0.153258 0.749837 0.561722
Si Si7 0.920983 0.793926 0.488459
O O1 0.434239 0.378396 0.755625
O O2 0.361890 0.979355 0.990213
O O3 0.416359 0.467514 0.489768
O O4 0.540067 0.682556 0.951280
O O5 0.087742 0.520775 0.286672
O O6 0.977000 0.387120 0.244430
O O7 0.137562 0.895003 0.833643
O O8 0.977700 0.059945 0.763366
O O9 0.726516 0.408354 0.767263
O O10 0.745345 0.499301 0.550662
O O11 0.686153 0.237795 0.883503
O O12 0.843757 0.866986 0.606280
O O13 0.677325 0.865707 0.364522
O O14 0.128828 0.076405 0.643797
#
# Coordination Sequence:
#
# PCOD9004894 Si02
#       7
#     2   2   2   2   2   2   2
#     4  11  24  42  62  85 116 157 201 239 287 358
#     4  10  17  28  48  76 115 154 183 224 285 340
#     4  11  23  38  60  92 123 150 192 249 299 341
#     4  11  23  38  60  92 123 150 192 249 299 341
#     4  11  24  42  62  85 116 157 201 239 287 358
#     4  10  18  29  48  79 115 148 185 232 284 337
#     4  10  18  29  48  79 115 148 185 232 284 337
#
# _framework density 28.629905000000001
#
# number of rings (size 3 to 8) (size 9 to 14) (size 15 to 20)
#    0.000    1.429    0.000    7.714    0.000   10.286 
#    0.000    0.000    0.000    0.000    0.000   70.000 
#    0.000    0.000    0.000    0.000    0.000    0.000 
#
# Total GULP energy -78349.059978 kJ/mol
# GULP energy per Si atom -5596.361427 kJ/mol
# Density = 2.856474 g / cm^3
# Si number density = 28.629905 Si / 1000 Ang^3
#
#
#
# Elastic Constant Matrix: (Units=GPa)
#
#
# Indices 1 2 3 4 5 6 
#
# 1 120.5919 5.5287 27.4843 4.8448 -11.3356 -18.5996
# 2 5.5287 112.0465 17.7546 6.9457 -8.8777 -4.1648
# 3 27.4843 17.7546 177.3006 23.2658 -7.9502 -10.4951
# 4 4.8448 6.9457 23.2658 27.1949 -11.4449 0.2713
# 5 -11.3356 -8.8777 -7.9502 -11.4449 53.2855 -7.2100
# 6 -18.5996 -4.1648 -10.4951 0.2713 -7.2100 30.3386
#
#
#
# Elastic Compliance Matrix: (Units=1/GPa)
#
#
# Indices 1 2 3 4 5 6 
#
# 1 0.009758 0.000130 -0.001060 0.000272 0.002852 0.006309
# 2 0.000130 0.009263 -0.000630 -0.001274 0.001403 0.001478
# 3 -0.001060 -0.000630 0.006667 -0.005499 -0.000308 0.001546
# 4 0.000272 -0.001274 -0.005499 0.045439 0.008753 -0.000236
# 5 0.002852 0.001403 -0.000308 0.008753 0.022399 0.007079
# 6 0.006309 0.001478 0.001546 -0.000236 0.007079 0.039251
#
#
# Mechanical properties :
#
#
# Convention : Reuss Voigt Hill
#
# Bulk Modulus (GPa) = 44.31060 56.83046 50.57053
# Shear Modulus (GPa) = 34.86243 46.10858 40.48550
#
# Velocity S-wave (km/s) = 3.49333 4.01746 3.76453
# Velocity P-wave (km/s) = 5.63753 6.43530 6.04958
#
# Compressibility (1/GPa) = 0.02256797
#
# Stress axis : x y z
#
# Youngs Moduli (GPa) = 102.47757 107.95150 149.99608
#
# Poissons Ratio (x) = -0.01404 0.15902
# Poissons Ratio (y) = -0.01333 0.09452
# Poissons Ratio (z) = 0.10864 0.06803
#
# Static dielectric constant tensor:
#      x y z
#    x 2.317210 0.029810 -0.070210 
#    y 0.029810 2.240550 -0.049130 
#    z -0.070210 -0.049130 2.083800 
# 
# From -- ./inp_files/329750.got.cif
#   From: 2010.05.17/outbox.cif.g08.bks.cpg/sg2_165_cif.got.tgz:329750.got - 2010.06.03 11:33:40.
