data_PCOD9004068
_publ_section_title
;
Structure prediction by ZEFSAII (Michael W. Deem and Ramdas Pophale) SiO2 
 PCOD9004068
Probable space group: P -1
;
_chemical_formula_sum "Si O2"
_cell_formula_units_Z 16
_cell_length_a 16.561781
_cell_length_b 25.082515
_cell_length_c 14.533350
_cell_angle_alpha 19.487789
_cell_angle_beta 161.984290
_cell_angle_gamma 156.968851
_cell_volume 606.113651
_symmetry_space_group_name_H-M "P -1"
_symmetry_group_IT_number 2
_symmetry_cell_setting 'triclinic'
loop_
_space_group_symop_operation_xyz
x,y,z
-x,-y,-z
loop_
_atom_site_type_symbol
_atom_site_label
_atom_site_fract_x
_atom_site_fract_y
_atom_site_fract_z
Si Si1 0.971358 0.222068 0.519483
Si Si2 0.768464 0.150563 0.941204
Si Si3 0.707629 0.035590 0.382441
Si Si4 0.767125 0.087158 0.694725
Si Si5 0.625636 0.475143 0.275946
Si Si6 0.053377 0.254168 0.264399
Si Si7 0.373820 0.523406 0.521909
Si Si8 0.992953 0.756603 0.142618
O O1 0.222501 0.375932 0.531012
O O2 0.727548 0.170881 0.265529
O O3 0.885809 0.232743 0.515411
O O4 0.068142 0.053092 0.895515
O O5 0.596231 0.282159 0.568076
O O6 0.952043 0.234293 0.919291
O O7 0.550879 0.996587 0.913417
O O8 0.955439 0.155879 0.223768
O O9 0.976059 0.118790 0.480114
O O10 0.762791 0.855174 0.757593
O O11 0.745716 0.145234 0.680041
O O12 0.500000 0.000000 0.500000
O O13 0.555926 0.533711 0.205917
O O14 0.921506 0.580879 0.399460
O O15 0.500000 0.500000 0.000000
O O16 0.352458 0.363949 0.403928
O O17 0.851255 0.372882 0.872773
#
# Coordination Sequence:
#
# PCOD9004068 Si02
#       8
#     2   2   2   2   2   2   2   2
#     4  10  23  42  66  98 140 178 231 283 348 410
#     4  11  24  41  68 100 136 182 226 288 347 415
#     4  11  25  45  66 100 133 184 234 284 347 406
#     4  10  21  37  64 100 139 177 217 279 349 423
#     4  11  21  40  65  99 136 170 225 276 352 410
#     4  11  28  47  72  99 138 188 238 286 336 407
#     4  11  26  48  70 102 138 186 234 285 345 405
#     4  11  22  39  65 101 133 176 220 281 350 413
#
# _framework density 26.397690999999998
#
# number of rings (size 3 to 8) (size 9 to 14) (size 15 to 20)
#    0.000    1.250    2.500    2.250    5.250    3.500 
#    0.000    0.000    0.000    0.000    0.000    0.000 
#    0.000    0.000    0.000    0.000    0.000    0.000 
#
# Total GULP energy -89358.724175 kJ/mol
# GULP energy per Si atom -5584.920261 kJ/mol
# Density = 2.633761 g / cm^3
# Si number density = 26.397691 Si / 1000 Ang^3
#
#
#
# Elastic Constant Matrix: (Units=GPa)
#
#
# Indices 1 2 3 4 5 6 
#
# 1 90.0656 31.0519 6.5715 -2.6261 -4.9021 -9.1523
# 2 31.0519 176.4626 30.3481 10.8417 1.8190 -14.2263
# 3 6.5715 30.3481 42.9134 6.4751 -0.2212 -4.4879
# 4 -2.6261 10.8417 6.4751 32.7189 6.0204 -6.4521
# 5 -4.9021 1.8190 -0.2212 6.0204 27.6203 10.4176
# 6 -9.1523 -14.2263 -4.4879 -6.4521 10.4176 57.5961
#
#
#
# Elastic Compliance Matrix: (Units=1/GPa)
#
#
# Indices 1 2 3 4 5 6 
#
# 1 0.012112 -0.002058 -0.000520 0.001760 0.001400 0.001320
# 2 -0.002058 0.006942 -0.004302 -0.001212 -0.001007 0.001099
# 3 -0.000520 -0.004302 0.027085 -0.004142 0.001204 0.000284
# 4 0.001760 -0.001212 -0.004142 0.034633 -0.009148 0.005192
# 5 0.001400 -0.001007 0.001204 -0.009148 0.041732 -0.008506
# 6 0.001320 0.001099 0.000284 0.005192 -0.008506 0.019986
#
#
# Mechanical properties :
#
#
# Convention : Reuss Voigt Hill
#
# Bulk Modulus (GPa) = 30.88240 49.48717 40.18478
# Shear Modulus (GPa) = 29.93243 39.68506 34.80875
#
# Velocity S-wave (km/s) = 3.37100 3.88152 3.63523
# Velocity P-wave (km/s) = 5.18419 6.23504 5.73374
#
# Compressibility (1/GPa) = 0.03238090
#
# Stress axis : x y z
#
# Youngs Moduli (GPa) = 82.56197 144.04302 36.92037
#
# Poissons Ratio (x) = 0.29646 0.01918
# Poissons Ratio (y) = 0.16992 0.15882
# Poissons Ratio (z) = 0.04289 0.61964
#
# Static dielectric constant tensor:
#      x y z
#    x 2.158470 -0.077790 -0.115940 
#    y -0.077790 2.457940 0.246430 
#    z -0.115940 0.246430 2.401740 
# 
# From -- ./inp_files/93723.got.cif
#   From: 2010.05.17/outbox.cif.g08.bks.cpg/sg2_47_cif.got.tgz:93723.got - 2010.06.03 11:33:40.
