data_PCOD9004662
_publ_section_title
;
Structure prediction by ZEFSAII (Michael W. Deem and Ramdas Pophale) SiO2 
 PCOD9004662
Probable space group: P -1
;
_chemical_formula_sum "Si O2"
_cell_formula_units_Z 16
_cell_length_a 14.892414
_cell_length_b 6.170246
_cell_length_c 21.521658
_cell_angle_alpha 68.275040
_cell_angle_beta 153.305182
_cell_angle_gamma 94.202488
_cell_volume 649.614153
_symmetry_space_group_name_H-M "P -1"
_symmetry_group_IT_number 2
_symmetry_cell_setting 'triclinic'
loop_
_space_group_symop_operation_xyz
x,y,z
-x,-y,-z
loop_
_atom_site_type_symbol
_atom_site_label
_atom_site_fract_x
_atom_site_fract_y
_atom_site_fract_z
Si Si1 0.305224 0.247110 0.304508
Si Si2 0.458853 0.417583 0.108538
Si Si3 0.721818 0.025776 0.146352
Si Si4 0.060507 0.365433 0.856777
Si Si5 0.932463 0.137898 0.074181
Si Si6 0.137671 0.388360 0.412999
Si Si7 0.893486 0.100188 0.504594
Si Si8 0.490495 0.552207 0.311716
O O1 0.076019 0.518578 0.174359
O O2 0.435383 0.350093 0.333513
O O3 0.500000 0.000000 0.500000
O O4 0.161140 0.136432 0.195049
O O5 0.262740 0.609439 0.023939
O O6 0.743513 0.247154 0.330363
O O7 0.356262 0.228980 0.049816
O O8 0.378887 0.661167 0.980321
O O9 0.945324 0.727865 0.280480
O O10 0.837462 0.995576 0.290432
O O11 0.500000 0.000000 0.000000
O O12 0.924077 0.629642 0.694196
O O13 0.988285 0.157929 0.813377
O O14 0.766443 0.187630 0.907650
O O15 0.407601 0.313725 0.597066
O O16 0.106228 0.178178 0.455681
O O17 0.694056 0.352758 0.404298
#
# Coordination Sequence:
#
# PCOD9004662 Si02
#       8
#     2   2   2   2   2   2   2   2
#     4  11  23  34  53  85 120 155 204 250 289 337
#     4  10  21  41  63  88 123 157 196 245 297 356
#     4  11  24  42  65  92 120 152 194 248 303 360
#     4  11  21  36  62  84 116 162 202 240 293 353
#     4  10  21  38  57  82 117 162 200 245 295 343
#     4  11  21  39  64  87 118 157 204 240 297 361
#     4  10  22  41  64  89 121 161 198 241 297 356
#     4  10  22  37  57  85 121 157 201 249 290 342
#
# _framework density 24.630006000000002
#
# number of rings (size 3 to 8) (size 9 to 14) (size 15 to 20)
#    0.000    1.500    2.500    2.625    3.500    4.500 
#    0.000    0.625    0.000    0.000    0.000    0.000 
#    0.000    0.000    0.000    0.000    0.000    0.000 
#
# Total GULP energy -89336.278993 kJ/mol
# GULP energy per Si atom -5583.517437 kJ/mol
# Density = 2.457395 g / cm^3
# Si number density = 24.630006 Si / 1000 Ang^3
#
#
#
# Elastic Constant Matrix: (Units=GPa)
#
#
# Indices 1 2 3 4 5 6 
#
# 1 37.2630 2.6211 30.4307 18.2315 -15.0857 3.0629
# 2 2.6211 71.5587 22.3055 17.2374 4.1955 14.9880
# 3 30.4307 22.3055 142.7179 40.2868 -5.0151 3.8213
# 4 18.2315 17.2374 40.2868 54.0122 9.4499 9.2593
# 5 -15.0857 4.1955 -5.0151 9.4499 30.2567 1.5033
# 6 3.0629 14.9880 3.8213 9.2593 1.5033 28.5285
#
#
#
# Elastic Compliance Matrix: (Units=1/GPa)
#
#
# Indices 1 2 3 4 5 6 
#
# 1 0.054143 0.003049 -0.004922 -0.020959 0.032385 -0.001659
# 2 0.003049 0.016998 -0.002058 -0.003639 0.000347 -0.007819
# 3 -0.004922 -0.002058 0.009963 -0.005666 0.001150 0.002054
# 4 -0.020959 -0.003639 -0.005666 0.035733 -0.021770 -0.005529
# 5 0.032385 0.000347 0.001150 -0.021770 0.056125 0.000295
# 6 -0.001659 -0.007819 0.002054 -0.005529 0.000295 0.040843
#
#
# Mechanical properties :
#
#
# Convention : Reuss Voigt Hill
#
# Bulk Modulus (GPa) = 13.65346 40.25046 26.95196
# Shear Modulus (GPa) = 20.31837 35.63828 27.97833
#
# Velocity S-wave (km/s) = 2.87530 3.80800 3.37403
# Velocity P-wave (km/s) = 4.07168 5.97595 5.11325
#
# Compressibility (1/GPa) = 0.07324152
#
# Stress axis : x y z
#
# Youngs Moduli (GPa) = 18.46945 58.82928 100.37217
#
# Poissons Ratio (x) = -0.17935 0.49407
# Poissons Ratio (y) = -0.05631 0.20655
# Poissons Ratio (z) = 0.09091 0.12106
#
# Static dielectric constant tensor:
#      x y z
#    x 2.028560 0.016400 0.003640 
#    y 0.016400 2.590770 0.098760 
#    z 0.003640 0.098760 2.060030 
# 
# From -- ./inp_files/37488.got.cif
#   From: 2010.05.17/outbox.cif.g08.bks.cpg/sg2_19_cif.got.tgz:37488.got - 2010.06.03 11:33:40.
