data_PCOD9004937
_publ_section_title
;
Structure prediction by ZEFSAII (Michael W. Deem and Ramdas Pophale) SiO2 
 PCOD9004937
Probable space group: P -1
;
_chemical_formula_sum "Si O2"
_cell_formula_units_Z 16
_cell_length_a 10.984834
_cell_length_b 14.670238
_cell_length_c 6.461167
_cell_angle_alpha 93.714496
_cell_angle_beta 111.510347
_cell_angle_gamma 127.788574
_cell_volume 703.715006
_symmetry_space_group_name_H-M "P -1"
_symmetry_group_IT_number 2
_symmetry_cell_setting 'triclinic'
loop_
_space_group_symop_operation_xyz
x,y,z
-x,-y,-z
loop_
_atom_site_type_symbol
_atom_site_label
_atom_site_fract_x
_atom_site_fract_y
_atom_site_fract_z
Si Si1 0.607179 0.341589 0.186361
Si Si2 0.236124 0.202631 0.778604
Si Si3 0.208600 0.600908 0.083489
Si Si4 0.672978 0.514947 0.598771
Si Si5 0.270773 0.926416 0.532431
Si Si6 0.942402 0.071466 0.254780
Si Si7 0.464460 0.842410 0.543367
Si Si8 0.950985 0.767071 0.021642
O O1 0.663693 0.457896 0.366471
O O2 0.529404 0.232016 0.288048
O O3 0.443914 0.281889 0.919834
O O4 0.766167 0.382606 0.145479
O O5 0.138881 0.173642 0.497547
O O6 0.129476 0.064695 0.782597
O O7 0.201697 0.267784 0.926689
O O8 0.305866 0.556512 0.229845
O O9 0.310733 0.733557 0.275233
O O10 0.000000 0.500000 0.000000
O O11 0.500000 0.500000 0.500000
O O12 0.855966 0.657237 0.780381
O O13 0.190455 0.928206 0.693158
O O14 0.411881 0.911965 0.633334
O O15 0.365119 0.052738 0.478806
O O16 0.105265 0.807541 0.277536
O O17 0.958236 0.109863 0.037204
#
# Coordination Sequence:
#
# PCOD9004937 Si02
#       8
#     2   2   2   2   2   2   2   2
#     4  11  24  42  70  90 130 174 215 266 332 378
#     4  10  21  38  59  94 124 161 210 261 320 385
#     4  11  26  45  67  95 134 174 223 272 324 389
#     4  11  25  43  64  99 130 173 226 273 317 386
#     4  10  22  41  64  97 128 164 211 272 317 388
#     4  10  22  36  63  93 126 165 207 258 328 387
#     4  10  23  42  66  94 129 165 219 264 321 391
#     4  11  22  39  63  89 131 165 209 264 323 381
#
# _framework density 22.736476
#
# number of rings (size 3 to 8) (size 9 to 14) (size 15 to 20)
#    0.000    1.500    1.250    2.625    1.750    9.500 
#    0.000    3.125    0.000    0.000    0.000    0.000 
#    0.000    0.000    0.000    0.000    0.000    0.000 
#
# Total GULP energy -89417.259566 kJ/mol
# GULP energy per Si atom -5588.578723 kJ/mol
# Density = 2.268473 g / cm^3
# Si number density = 22.736476 Si / 1000 Ang^3
#
#
#
# Elastic Constant Matrix: (Units=GPa)
#
#
# Indices 1 2 3 4 5 6 
#
# 1 76.2439 17.4666 22.8224 -0.8009 -6.1060 8.8067
# 2 17.4666 58.8896 12.9248 18.0351 -3.8728 5.7292
# 3 22.8224 12.9248 63.4357 20.0615 -6.5748 7.7708
# 4 -0.8009 18.0351 20.0615 33.0846 1.8184 3.1832
# 5 -6.1060 -3.8728 -6.5748 1.8184 12.9146 4.7357
# 6 8.8067 5.7292 7.7708 3.1832 4.7357 35.9381
#
#
#
# Elastic Compliance Matrix: (Units=1/GPa)
#
#
# Indices 1 2 3 4 5 6 
#
# 1 0.017032 -0.005407 -0.006752 0.007570 0.002998 -0.002917
# 2 -0.005407 0.023398 0.003297 -0.015110 0.009372 -0.003015
# 3 -0.006752 0.003297 0.025205 -0.017606 0.014837 -0.004717
# 4 0.007570 -0.015110 -0.017606 0.050081 -0.017799 0.002270
# 5 0.002998 0.009372 0.014837 -0.017799 0.097863 -0.016756
# 6 -0.002917 -0.003015 -0.004717 0.002270 -0.016756 0.032048
#
#
# Mechanical properties :
#
#
# Convention : Reuss Voigt Hill
#
# Bulk Modulus (GPa) = 20.87195 33.88853 27.38024
# Shear Modulus (GPa) = 17.90052 26.07783 21.98918
#
# Velocity S-wave (km/s) = 2.80894 3.39035 3.11325
# Velocity P-wave (km/s) = 4.44073 5.50121 4.99917
#
# Compressibility (1/GPa) = 0.04791119
#
# Stress axis : x y z
#
# Youngs Moduli (GPa) = 58.71231 42.73851 39.67506
#
# Poissons Ratio (x) = 0.23110 0.26788
# Poissons Ratio (y) = 0.31747 -0.13082
# Poissons Ratio (z) = 0.39642 -0.14092
#
# Static dielectric constant tensor:
#      x y z
#    x 1.870010 -0.023020 0.034970 
#    y -0.023020 1.848210 0.005160 
#    z 0.034970 0.005160 1.813510 
# 
# From -- ./inp_files/77939.got.cif
#   From: 2010.05.17/outbox.cif.g08.bks.cpg/sg2_39_cif.got.tgz:77939.got - 2010.06.03 11:33:40.
