data_PCOD9004416
_publ_section_title
;
Structure prediction by ZEFSAII (Michael W. Deem and Ramdas Pophale) SiO2 
 PCOD9004416
Probable space group: P -1
;
_chemical_formula_sum "Si O2"
_cell_formula_units_Z 14
_cell_length_a 10.483971
_cell_length_b 7.720184
_cell_length_c 16.779444
_cell_angle_alpha 149.567237
_cell_angle_beta 122.709135
_cell_angle_gamma 71.767333
_cell_volume 540.219977
_symmetry_space_group_name_H-M "P -1"
_symmetry_group_IT_number 2
_symmetry_cell_setting 'triclinic'
loop_
_space_group_symop_operation_xyz
x,y,z
-x,-y,-z
loop_
_atom_site_type_symbol
_atom_site_label
_atom_site_fract_x
_atom_site_fract_y
_atom_site_fract_z
Si Si1 0.918127 0.817178 0.145058
Si Si2 0.304071 0.798207 0.729903
Si Si3 0.320750 0.185564 0.586677
Si Si4 0.861454 0.129393 0.966212
Si Si5 0.320970 0.657568 0.250767
Si Si6 0.608292 0.425839 0.079229
Si Si7 0.725034 0.728587 0.616887
O O1 0.923747 0.463828 0.054863
O O2 0.828576 0.015274 0.249181
O O3 0.803954 0.673723 0.971776
O O4 0.090848 0.090698 0.283428
O O5 0.234248 0.446494 0.624020
O O6 0.345931 0.655529 0.603255
O O7 0.463882 0.092808 0.938432
O O8 0.505848 0.371802 0.690851
O O9 0.324809 0.239035 0.703433
O O10 0.262440 0.798328 0.367616
O O11 0.750161 0.276673 0.043645
O O12 0.742278 0.784167 0.738369
O O13 0.000000 0.000000 0.000000
O O14 0.359297 0.001050 0.338749
O O15 0.500000 0.500000 0.000000
#
# Coordination Sequence:
#
# PCOD9004416 Si02
#       7
#     2   2   2   2   2   2   2
#     4  11  21  43  69  90 133 171 221 273 329 383
#     4  11  23  40  68  99 121 174 228 275 320 384
#     4  10  21  37  66  97 124 164 227 275 313 389
#     4  11  25  43  67  97 134 180 215 265 342 396
#     4   9  18  37  63  96 122 160 218 269 324 368
#     4  12  23  43  67  94 142 171 212 274 334 396
#     4  10  23  42  65  93 131 173 223 272 321 388
#
# _framework density 25.915367
#
# number of rings (size 3 to 8) (size 9 to 14) (size 15 to 20)
#    0.000    1.429    2.857    3.429    2.000    1.714 
#    0.000    5.000    0.000    0.000    0.000    0.000 
#    0.000    0.000    0.000    0.000    0.000    0.000 
#
# Total GULP energy -78291.047326 kJ/mol
# GULP energy per Si atom -5592.217666 kJ/mol
# Density = 2.585638 g / cm^3
# Si number density = 25.915367 Si / 1000 Ang^3
#
#
#
# Elastic Constant Matrix: (Units=GPa)
#
#
# Indices 1 2 3 4 5 6 
#
# 1 90.7267 14.1921 17.2635 -4.1873 -13.2631 -23.1238
# 2 14.1921 140.8755 33.9354 -12.4955 -14.4527 -15.2449
# 3 17.2635 33.9354 124.3065 -32.8438 -28.5161 3.6311
# 4 -4.1873 -12.4955 -32.8438 37.8576 5.8530 -2.1682
# 5 -13.2631 -14.4527 -28.5161 5.8530 51.3349 1.2551
# 6 -23.1238 -15.2449 3.6311 -2.1682 1.2551 39.5347
#
#
#
# Elastic Compliance Matrix: (Units=1/GPa)
#
#
# Indices 1 2 3 4 5 6 
#
# 1 0.013757 0.000155 -0.001530 0.000326 0.002511 0.008185
# 2 0.000155 0.008095 -0.001761 0.001183 0.001123 0.003403
# 3 -0.001530 -0.001761 0.012344 0.009051 0.004992 -0.002370
# 4 0.000326 0.001183 0.009051 0.034563 0.001464 0.001665
# 5 0.002511 0.001123 0.004992 0.001464 0.023031 0.000792
# 6 0.008185 0.003403 -0.002370 0.001665 0.000792 0.031678
#
#
# Mechanical properties :
#
#
# Convention : Reuss Voigt Hill
#
# Bulk Modulus (GPa) = 35.81060 54.07675 44.94367
# Shear Modulus (GPa) = 35.95893 45.11328 40.53611
#
# Velocity S-wave (km/s) = 3.72903 4.17681 3.95925
# Velocity P-wave (km/s) = 5.69115 6.64627 6.18717
#
# Compressibility (1/GPa) = 0.02792470
#
# Stress axis : x y z
#
# Youngs Moduli (GPa) = 72.68906 123.52653 81.01426
#
# Poissons Ratio (x) = -0.01913 0.12393
# Poissons Ratio (y) = -0.01126 0.14265
# Poissons Ratio (z) = 0.11120 0.21751
#
# Static dielectric constant tensor:
#      x y z
#    x 2.064520 0.044510 -0.005260 
#    y 0.044510 2.067040 0.004650 
#    z -0.005260 0.004650 2.055080 
# 
# From -- ./inp_files/567133.got.cif
#   From: 2010.05.17/outbox.cif.g08.bks.cpg/sg2_284_cif.got.tgz:567133.got - 2010.06.03 11:33:40.
