data_PCOD9004319
_publ_section_title
;
Structure prediction by ZEFSAII (Michael W. Deem and Ramdas Pophale) SiO2 
 PCOD9004319
Probable space group: P -1
;
_chemical_formula_sum "Si O2"
_cell_formula_units_Z 16
_cell_length_a 15.542015
_cell_length_b 7.359890
_cell_length_c 8.239104
_cell_angle_alpha 116.454180
_cell_angle_beta 125.118024
_cell_angle_gamma 50.251438
_cell_volume 588.173980
_symmetry_space_group_name_H-M "P -1"
_symmetry_group_IT_number 2
_symmetry_cell_setting 'triclinic'
loop_
_space_group_symop_operation_xyz
x,y,z
-x,-y,-z
loop_
_atom_site_type_symbol
_atom_site_label
_atom_site_fract_x
_atom_site_fract_y
_atom_site_fract_z
Si Si1 0.520939 0.210764 0.661018
Si Si2 0.413478 0.212443 0.871795
Si Si3 0.256921 0.038901 0.421864
Si Si4 0.819636 0.890200 0.157553
Si Si5 0.188622 0.537714 0.919967
Si Si6 0.938113 0.281092 0.494579
Si Si7 0.962880 0.735660 0.949631
Si Si8 0.723503 0.317394 0.447518
O O1 0.496740 0.236079 0.836324
O O2 0.410631 0.460752 0.574074
O O3 0.500000 0.000000 0.500000
O O4 0.651936 0.117060 0.686373
O O5 0.324035 0.140219 0.648903
O O6 0.324772 0.457700 0.969356
O O7 0.500000 0.000000 0.000000
O O8 0.127334 0.231771 0.281728
O O9 0.233654 0.862466 0.430167
O O10 0.767519 0.715390 0.035887
O O11 0.938270 0.720326 0.334499
O O12 0.732224 0.146093 0.242325
O O13 0.875732 0.924345 0.066180
O O14 0.111954 0.626852 0.702089
O O15 0.085077 0.720006 0.007711
O O16 0.819157 0.395707 0.530653
O O17 0.000000 0.000000 0.500000
O O18 0.000000 0.500000 0.000000
#
# Coordination Sequence:
#
# PCOD9004319 Si02
#       8
#     2   2   2   2   2   2   2   2
#     4  10  24  43  69  99 132 176 230 281 340 405
#     4  11  25  44  71  98 134 178 237 283 341 414
#     4  11  24  45  68  99 141 178 229 285 346 404
#     4  10  22  38  64  98 138 178 226 279 340 409
#     4  11  21  41  68  98 136 177 228 281 345 402
#     4  10  21  37  65  96 134 174 226 273 345 407
#     4  10  24  38  67 104 135 176 224 283 339 404
#     4  11  21  43  67  98 135 184 226 282 344 415
#
# _framework density 27.202836000000001
#
# number of rings (size 3 to 8) (size 9 to 14) (size 15 to 20)
#    0.000    1.500    2.500    2.250    7.000    0.000 
#    2.250   10.625    0.000    0.000    0.000    0.000 
#    0.000    0.000    0.000    0.000    0.000    0.000 
#
# Total GULP energy -89417.155113 kJ/mol
# GULP energy per Si atom -5588.572195 kJ/mol
# Density = 2.714092 g / cm^3
# Si number density = 27.202836 Si / 1000 Ang^3
#
#
#
# Elastic Constant Matrix: (Units=GPa)
#
#
# Indices 1 2 3 4 5 6 
#
# 1 132.6780 33.7052 39.8847 11.5642 -44.1424 -20.2664
# 2 33.7052 149.8452 40.4556 -11.8250 3.3605 -26.3878
# 3 39.8847 40.4556 110.8280 -26.4754 -4.0671 -0.9056
# 4 11.5642 -11.8250 -26.4754 46.7329 -3.5320 -9.6247
# 5 -44.1424 3.3605 -4.0671 -3.5320 48.9456 1.4917
# 6 -20.2664 -26.3878 -0.9056 -9.6247 1.4917 55.1171
#
#
#
# Elastic Compliance Matrix: (Units=1/GPa)
#
#
# Indices 1 2 3 4 5 6 
#
# 1 0.014855 -0.002061 -0.005474 -0.005720 0.012578 0.003046
# 2 -0.002061 0.008545 -0.001925 0.002160 -0.002563 0.003748
# 3 -0.005474 -0.001925 0.013490 0.008025 -0.003067 -0.001228
# 4 -0.005720 0.002160 0.008025 0.028551 -0.002706 0.004121
# 5 0.012578 -0.002563 -0.003067 -0.002706 0.031439 0.002024
# 6 0.003046 0.003748 -0.001228 0.004121 0.002024 0.021702
#
#
# Mechanical properties :
#
#
# Convention : Reuss Voigt Hill
#
# Bulk Modulus (GPa) = 55.64614 69.04914 62.34764
# Shear Modulus (GPa) = 34.84562 48.77950 41.81256
#
# Velocity S-wave (km/s) = 3.58293 4.23919 3.92480
# Velocity P-wave (km/s) = 6.13326 7.02845 6.59606
#
# Compressibility (1/GPa) = 0.01797070
#
# Stress axis : x y z
#
# Youngs Moduli (GPa) = 67.31964 117.03134 74.12852
#
# Poissons Ratio (x) = 0.24114 0.40576
# Poissons Ratio (y) = 0.13871 0.14270
# Poissons Ratio (z) = 0.36849 0.22530
#
# Static dielectric constant tensor:
#      x y z
#    x 2.186270 0.021610 0.104170 
#    y 0.021610 2.230050 0.159380 
#    z 0.104170 0.159380 2.351020 
# 
# From -- ./inp_files/329174.got.cif
#   From: 2010.05.17/outbox.cif.g08.bks.cpg/sg2_165_cif.got.tgz:329174.got - 2010.06.03 11:33:40.
