data_PCOD9004585
_publ_section_title
;
Structure prediction by ZEFSAII (Michael W. Deem and Ramdas Pophale) SiO2 
 PCOD9004585
Probable space group: P -1
;
_chemical_formula_sum "Si O2"
_cell_formula_units_Z 14
_cell_length_a 8.539544
_cell_length_b 8.963080
_cell_length_c 10.539080
_cell_angle_alpha 127.819335
_cell_angle_beta 56.710057
_cell_angle_gamma 114.365812
_cell_volume 529.119011
_symmetry_space_group_name_H-M "P -1"
_symmetry_group_IT_number 2
_symmetry_cell_setting 'triclinic'
loop_
_space_group_symop_operation_xyz
x,y,z
-x,-y,-z
loop_
_atom_site_type_symbol
_atom_site_label
_atom_site_fract_x
_atom_site_fract_y
_atom_site_fract_z
Si Si1 0.302705 0.772442 0.278510
Si Si2 0.754213 0.323066 0.026122
Si Si3 0.289572 0.066041 0.790906
Si Si4 0.692542 0.716805 0.359155
Si Si5 0.079756 0.315333 0.519602
Si Si6 0.377270 0.454838 0.272284
Si Si7 0.966746 0.263100 0.144615
O O1 0.490313 0.919662 0.261588
O O2 0.371524 0.583947 0.216696
O O3 0.121306 0.806487 0.459683
O O4 0.210407 0.733098 0.161290
O O5 0.795890 0.548295 0.156973
O O6 0.525996 0.301916 0.121511
O O7 0.858764 0.223114 0.036716
O O8 0.301340 0.129127 0.672551
O O9 0.157982 0.873156 0.774905
O O10 0.177819 0.212183 0.999518
O O11 0.784186 0.764438 0.478453
O O12 0.479244 0.609912 0.409047
O O13 0.184174 0.356524 0.362105
O O14 0.044050 0.522402 0.696876
#
# Coordination Sequence:
#
# PCOD9004585 Si02
#       7
#     2   2   2   2   2   2   2
#     4  11  21  34  58  84 112 143 181 230 273 319
#     4   9  19  35  58  84 105 144 186 225 268 320
#     4  10  21  38  51  87 114 142 179 231 276 318
#     4   8  18  33  57  77 111 139 182 223 266 317
#     4  11  20  35  61  85 106 143 189 224 271 322
#     4   9  20  34  55  87 112 137 183 235 264 319
#     4  10  22  35  59  81 111 145 187 222 273 328
#
# _framework density 26.459074999999999
#
# number of rings (size 3 to 8) (size 9 to 14) (size 15 to 20)
#    0.857    1.429    0.000    3.000    2.000    2.857 
#    0.000    2.857    0.000    0.857    0.000    0.000 
#    0.000    0.000    0.000    0.000    0.000    0.000 
#
# Total GULP energy -78349.491283 kJ/mol
# GULP energy per Si atom -5596.392235 kJ/mol
# Density = 2.639885 g / cm^3
# Si number density = 26.459075 Si / 1000 Ang^3
#
#
#
# Elastic Constant Matrix: (Units=GPa)
#
#
# Indices 1 2 3 4 5 6 
#
# 1 115.7505 37.5721 20.3591 -19.5859 -0.6693 -0.1571
# 2 37.5721 81.5161 23.8840 -23.9576 -1.3754 17.4799
# 3 20.3591 23.8840 96.2978 -26.2408 -11.1388 12.6458
# 4 -19.5859 -23.9576 -26.2408 43.3217 6.7041 -4.6777
# 5 -0.6693 -1.3754 -11.1388 6.7041 46.8086 -12.0610
# 6 -0.1571 17.4799 12.6458 -4.6777 -12.0610 37.0732
#
#
#
# Elastic Compliance Matrix: (Units=1/GPa)
#
#
# Indices 1 2 3 4 5 6 
#
# 1 0.010656 -0.004691 -0.000910 0.001945 0.000267 0.002899
# 2 -0.004691 0.018570 -0.000888 0.007147 -0.002955 -0.008532
# 3 -0.000910 -0.000888 0.013101 0.006513 0.001433 -0.002766
# 4 0.001945 0.007147 0.006513 0.032113 -0.003500 -0.002670
# 5 0.000267 -0.002955 0.001433 -0.003500 0.024277 0.008362
# 6 0.002899 -0.008532 -0.002766 -0.002670 0.008362 0.034336
#
#
# Mechanical properties :
#
#
# Convention : Reuss Voigt Hill
#
# Bulk Modulus (GPa) = 34.07102 50.79941 42.43521
# Shear Modulus (GPa) = 32.08968 39.55730 35.82349
#
# Velocity S-wave (km/s) = 3.48631 3.87077 3.68356
# Velocity P-wave (km/s) = 5.39543 6.26243 5.84503
#
# Compressibility (1/GPa) = 0.02935046
#
# Stress axis : x y z
#
# Youngs Moduli (GPa) = 93.84027 53.85024 76.33234
#
# Poissons Ratio (x) = 0.25261 0.06943
# Poissons Ratio (y) = 0.44020 0.06777
# Poissons Ratio (z) = 0.08535 0.04781
#
# Static dielectric constant tensor:
#      x y z
#    x 2.085380 0.014210 -0.045740 
#    y 0.014210 2.073710 0.054240 
#    z -0.045740 0.054240 2.082310 
# 
# From -- ./inp_files/385456.got.cif
#   From: 2010.05.17/outbox.cif.g08.bks.cpg/sg2_193_cif.got.tgz:385456.got - 2010.06.03 11:33:40.
