data_PCOD9004433
_publ_section_title
;
Structure prediction by ZEFSAII (Michael W. Deem and Ramdas Pophale) SiO2 
 PCOD9004433
Probable space group: P -1
;
_chemical_formula_sum "Si O2"
_cell_formula_units_Z 16
_cell_length_a 11.266381
_cell_length_b 8.943072
_cell_length_c 18.775141
_cell_angle_alpha 112.349533
_cell_angle_beta 151.381172
_cell_angle_gamma 54.585212
_cell_volume 697.329877
_symmetry_space_group_name_H-M "P -1"
_symmetry_group_IT_number 2
_symmetry_cell_setting 'triclinic'
loop_
_space_group_symop_operation_xyz
x,y,z
-x,-y,-z
loop_
_atom_site_type_symbol
_atom_site_label
_atom_site_fract_x
_atom_site_fract_y
_atom_site_fract_z
Si Si1 0.472657 0.281340 0.338752
Si Si2 0.850697 0.810856 0.653997
Si Si3 0.390402 0.414587 0.574806
Si Si4 0.362827 0.157966 0.893630
Si Si5 0.347047 0.712553 0.160406
Si Si6 0.660130 0.959251 0.867728
Si Si7 0.157960 0.566217 0.909033
Si Si8 0.837616 0.129936 0.641605
O O1 0.629655 0.391215 0.420997
O O2 0.502425 0.139024 0.266715
O O3 0.603145 0.178058 0.464394
O O4 0.116826 0.418343 0.190156
O O5 0.848014 0.633405 0.585105
O O6 0.001532 0.735147 0.797007
O O7 0.500000 0.000000 0.500000
O O8 0.000336 0.904047 0.706763
O O9 0.433134 0.393119 0.677774
O O10 0.680512 0.253215 0.652596
O O11 0.339038 0.356087 0.931241
O O12 0.034576 0.201012 0.726369
O O13 0.532761 0.060412 0.893381
O O14 0.500000 0.000000 0.000000
O O15 0.373801 0.886250 0.179736
O O16 0.353205 0.597489 0.073106
O O17 0.013818 0.804131 0.031769
#
# Coordination Sequence:
#
# PCOD9004433 Si02
#       8
#     2   2   2   2   2   2   2   2
#     4  11  21  40  71 100 126 170 230 278 325 379
#     4  10  21  37  67 102 126 167 226 276 320 381
#     4  11  20  36  68 101 125 164 226 279 320 380
#     4  12  27  43  64  95 141 178 215 262 343 400
#     4  10  24  41  69  94 132 171 225 277 319 388
#     4  10  25  42  62  95 134 172 217 268 337 387
#     4  11  23  42  68  99 132 174 220 275 325 393
#     4  11  22  40  68  97 134 170 221 278 330 384
#
# _framework density 22.944662999999998
#
# number of rings (size 3 to 8) (size 9 to 14) (size 15 to 20)
#    0.000    1.250    3.750    2.625   12.250    2.000 
#    0.000    0.000    0.000    3.000    0.000    0.000 
#    0.000    0.000    0.000    0.000    0.000    0.000 
#
# Total GULP energy -89438.007049 kJ/mol
# GULP energy per Si atom -5589.875441 kJ/mol
# Density = 2.289244 g / cm^3
# Si number density = 22.944663 Si / 1000 Ang^3
#
#
#
# Elastic Constant Matrix: (Units=GPa)
#
#
# Indices 1 2 3 4 5 6 
#
# 1 119.5959 114.9217 108.6498 48.3838 -37.8983 77.2159
# 2 114.9217 232.0296 132.9293 80.4757 -33.9194 101.5037
# 3 108.6498 132.9293 162.1965 54.5942 -48.7152 84.7872
# 4 48.3838 80.4757 54.5942 52.0520 -5.1382 37.7725
# 5 -37.8983 -33.9194 -48.7152 -5.1382 43.1836 -13.5048
# 6 77.2159 101.5037 84.7872 37.7725 -13.5048 132.8853
#
#
#
# Elastic Compliance Matrix: (Units=1/GPa)
#
#
# Indices 1 2 3 4 5 6 
#
# 1 0.029549 -0.001974 -0.007164 -0.010747 0.012919 -0.006724
# 2 -0.001974 0.013188 -0.002048 -0.013589 0.003639 -0.003387
# 3 -0.007164 -0.002048 0.022668 -0.009111 0.015151 -0.004606
# 4 -0.010747 -0.013589 -0.009111 0.054078 -0.022452 0.004784
# 5 0.012919 0.003639 0.015151 -0.022452 0.049090 -0.008583
# 6 -0.006724 -0.003387 -0.004606 0.004784 -0.008583 0.014726
#
#
# Mechanical properties :
#
#
# Convention : Reuss Voigt Hill
#
# Bulk Modulus (GPa) = 23.23800 136.31375 79.77587
# Shear Modulus (GPa) = 22.72559 56.11226 39.41892
#
# Velocity S-wave (km/s) = 3.15056 4.95061 4.14937
# Velocity P-wave (km/s) = 4.83575 9.60296 7.60268
#
# Compressibility (1/GPa) = 0.04303297
#
# Stress axis : x y z
#
# Youngs Moduli (GPa) = 33.84175 75.82851 44.11438
#
# Poissons Ratio (x) = 0.14967 0.31604
# Poissons Ratio (y) = 0.06680 0.09036
# Poissons Ratio (z) = 0.24244 0.15532
#
# Static dielectric constant tensor:
#      x y z
#    x 1.896770 0.023020 0.087890 
#    y 0.023020 1.883510 -0.006600 
#    z 0.087890 -0.006600 1.936440 
# 
# From -- ./inp_files/332843.got.cif
#   From: 2010.05.17/outbox.cif.g08.bks.cpg/sg2_167_cif.got.tgz:332843.got - 2010.06.03 11:33:40.
