data_PCOD9004120
_publ_section_title
;
Structure prediction by ZEFSAII (Michael W. Deem and Ramdas Pophale) SiO2 
 PCOD9004120
Probable space group: P -1
;
_chemical_formula_sum "Si O2"
_cell_formula_units_Z 16
_cell_length_a 14.767585
_cell_length_b 5.262875
_cell_length_c 21.009509
_cell_angle_alpha 101.905510
_cell_angle_beta 148.727856
_cell_angle_gamma 67.894515
_cell_volume 762.398339
_symmetry_space_group_name_H-M "P -1"
_symmetry_group_IT_number 2
_symmetry_cell_setting 'triclinic'
loop_
_space_group_symop_operation_xyz
x,y,z
-x,-y,-z
loop_
_atom_site_type_symbol
_atom_site_label
_atom_site_fract_x
_atom_site_fract_y
_atom_site_fract_z
Si Si1 0.326924 0.190302 0.486873
Si Si2 0.268682 0.868244 0.892671
Si Si3 0.052966 0.219599 0.130058
Si Si4 0.429162 0.117579 0.271159
Si Si5 0.547844 0.688434 0.943626
Si Si6 0.679388 0.233165 0.649739
Si Si7 0.079368 0.590633 0.275315
Si Si8 0.634000 0.409342 0.844605
O O1 0.493382 0.306581 0.583575
O O2 0.128547 0.448405 0.366709
O O3 0.393796 0.001432 0.579865
O O4 0.327378 0.992021 0.417714
O O5 0.344909 0.797723 0.862972
O O6 0.323230 0.577272 0.948356
O O7 0.051319 0.081542 0.779199
O O8 0.380679 0.055452 0.997423
O O9 0.229306 0.229814 0.196172
O O10 0.994786 0.444110 0.164850
O O11 0.143562 0.917417 0.204309
O O12 0.864184 0.276300 0.980442
O O13 0.428287 0.362351 0.237106
O O14 0.428824 0.848096 0.218230
O O15 0.555568 0.568853 0.871848
O O16 0.723262 0.453316 0.644361
#
# Coordination Sequence:
#
# PCOD9004120 Si02
#       8
#     2   2   2   2   2   2   2   2
#     4   9  21  37  50  85 112 158 203 233 282 335
#     4  10  21  37  64  92 114 144 181 252 304 344
#     4  10  22  35  53  89 115 148 200 235 291 339
#     4  11  26  37  56  79 121 167 196 223 275 346
#     4  10  21  40  60  88 121 143 189 237 303 353
#     4   9  19  34  58  79 116 151 193 253 288 328
#     4  11  20  33  65  84 117 148 189 259 291 337
#     4  12  23  39  58  81 119 162 191 235 276 355
#
# _framework density 20.986405000000001
#
# number of rings (size 3 to 8) (size 9 to 14) (size 15 to 20)
#    0.000    1.750    1.250    3.375    8.750    0.000 
#    0.000    0.000    0.000    1.500    0.000    0.000 
#    0.000    0.000    0.000    0.000    0.000    0.000 
#
# Total GULP energy -89349.212916 kJ/mol
# GULP energy per Si atom -5584.325807 kJ/mol
# Density = 2.093864 g / cm^3
# Si number density = 20.986405 Si / 1000 Ang^3
#
#
#
# Elastic Constant Matrix: (Units=GPa)
#
#
# Indices 1 2 3 4 5 6 
#
# 1 71.4929 14.8225 2.2716 6.5682 -12.8524 -11.7022
# 2 14.8225 83.6252 16.8683 1.1604 -5.5394 -5.7487
# 3 2.2716 16.8683 84.3763 -10.3721 -25.2502 3.6202
# 4 6.5682 1.1604 -10.3721 25.2977 3.5021 -4.1053
# 5 -12.8524 -5.5394 -25.2502 3.5021 23.7053 0.1082
# 6 -11.7022 -5.7487 3.6202 -4.1053 0.1082 38.2096
#
#
#
# Elastic Compliance Matrix: (Units=1/GPa)
#
#
# Indices 1 2 3 4 5 6 
#
# 1 0.017892 -0.002604 0.003274 -0.004317 0.013198 0.004277
# 2 -0.002604 0.013060 -0.003189 -0.000777 -0.001649 0.001391
# 3 0.003274 -0.003189 0.019192 0.004128 0.020867 -0.000911
# 4 -0.004317 -0.000777 0.004128 0.043473 -0.004560 0.002854
# 5 0.013198 -0.001649 0.020867 -0.004560 0.071851 0.001124
# 6 0.004277 0.001391 -0.000911 0.002854 0.001124 0.028080
#
#
# Mechanical properties :
#
#
# Convention : Reuss Voigt Hill
#
# Bulk Modulus (GPa) = 22.16920 34.15769 28.16345
# Shear Modulus (GPa) = 23.40579 31.14466 27.27523
#
# Velocity S-wave (km/s) = 3.34321 3.85650 3.60899
# Velocity P-wave (km/s) = 5.04869 6.01179 5.55116
#
# Compressibility (1/GPa) = 0.04510762
#
# Stress axis : x y z
#
# Youngs Moduli (GPa) = 55.88941 76.56873 52.10382
#
# Poissons Ratio (x) = 0.19937 -0.17061
# Poissons Ratio (y) = 0.14552 0.16618
# Poissons Ratio (z) = -0.18300 0.24421
#
# Static dielectric constant tensor:
#      x y z
#    x 1.777730 0.013460 0.027500 
#    y 0.013460 1.788180 -0.000960 
#    z 0.027500 -0.000960 1.789800 
# 
# From -- ./inp_files/77923.got.cif
#   From: 2010.05.17/outbox.cif.g08.bks.cpg/sg2_39_cif.got.tgz:77923.got - 2010.06.03 11:33:40.
