data_PCOD9004663
_publ_section_title
;
Structure prediction by ZEFSAII (Michael W. Deem and Ramdas Pophale) SiO2 
 PCOD9004663
Probable space group: P -1
;
_chemical_formula_sum "Si O2"
_cell_formula_units_Z 16
_cell_length_a 13.514126
_cell_length_b 13.093265
_cell_length_c 12.218702
_cell_angle_alpha 133.596569
_cell_angle_beta 41.969942
_cell_angle_gamma 98.366674
_cell_volume 682.765404
_symmetry_space_group_name_H-M "P -1"
_symmetry_group_IT_number 2
_symmetry_cell_setting 'triclinic'
loop_
_space_group_symop_operation_xyz
x,y,z
-x,-y,-z
loop_
_atom_site_type_symbol
_atom_site_label
_atom_site_fract_x
_atom_site_fract_y
_atom_site_fract_z
Si Si1 0.834756 0.731777 0.752801
Si Si2 0.958587 0.765388 0.452989
Si Si3 0.798725 0.083438 0.087540
Si Si4 0.328574 0.744238 0.897896
Si Si5 0.698779 0.224509 0.522793
Si Si6 0.904048 0.853156 0.326740
Si Si7 0.608232 0.346819 0.987208
Si Si8 0.440414 0.956316 0.406411
O O1 0.888808 0.703601 0.557600
O O2 0.858899 0.875809 0.876283
O O3 0.000000 0.500000 0.500000
O O4 0.593945 0.870858 0.109840
O O5 0.210191 0.654233 0.168663
O O6 0.806445 0.014129 0.784629
O O7 0.905009 0.761128 0.369375
O O8 0.048026 0.970479 0.781473
O O9 0.616527 0.264340 0.280115
O O10 0.719639 0.172605 0.339495
O O11 0.474918 0.615286 0.791126
O O12 0.151430 0.743645 0.036973
O O13 0.546190 0.215216 0.694445
O O14 0.594367 0.456012 0.777865
O O15 0.740546 0.108966 0.670689
O O16 0.812141 0.840723 0.285962
O O17 0.500000 0.000000 0.500000
#
# Coordination Sequence:
#
# PCOD9004663 Si02
#       8
#     2   2   2   2   2   2   2   2
#     4  11  23  38  60  87 122 155 196 249 292 348
#     4   8  17  36  58  88 117 152 191 245 301 343
#     4  10  21  38  57  82 120 158 194 239 298 349
#     4   8  15  34  59  85 115 147 189 247 299 340
#     4  11  22  36  58  85 117 156 199 242 292 354
#     4   9  18  35  61  86 116 152 195 244 294 354
#     4   9  18  33  62  92 112 142 202 251 288 346
#     4  12  24  39  57  85 122 161 195 238 304 356
#
# _framework density 23.434111000000001
#
# number of rings (size 3 to 8) (size 9 to 14) (size 15 to 20)
#    0.000    2.250    2.500    2.250    1.750    1.500 
#    0.000    0.000    0.000    8.250    0.000    0.000 
#    0.000    0.000    0.000    0.000    0.000    0.000 
#
# Total GULP energy -89192.808126 kJ/mol
# GULP energy per Si atom -5574.550508 kJ/mol
# Density = 2.338077 g / cm^3
# Si number density = 23.434111 Si / 1000 Ang^3
#
#
#
# Elastic Constant Matrix: (Units=GPa)
#
#
# Indices 1 2 3 4 5 6 
#
# 1 89.4618 44.8961 11.2920 -3.2516 4.3013 -20.8410
# 2 44.8961 162.9614 29.1892 -19.1674 1.0676 -29.1932
# 3 11.2920 29.1892 28.8001 3.6332 5.7396 -6.3221
# 4 -3.2516 -19.1674 3.6332 19.4988 6.3726 -6.8957
# 5 4.3013 1.0676 5.7396 6.3726 21.6137 -0.3301
# 6 -20.8410 -29.1932 -6.3221 -6.8957 -0.3301 33.6398
#
#
#
# Elastic Compliance Matrix: (Units=1/GPa)
#
#
# Indices 1 2 3 4 5 6 
#
# 1 0.014539 -0.001315 -0.002476 0.005853 -0.003766 0.008564
# 2 -0.001315 0.013482 -0.012356 0.020875 -0.003082 0.012812
# 3 -0.002476 -0.012356 0.050589 -0.022751 -0.005737 -0.007469
# 4 0.005853 0.020875 -0.022751 0.098260 -0.024555 0.037366
# 5 -0.003766 -0.003082 -0.005737 -0.024555 0.055770 -0.010572
# 6 0.008564 0.012812 -0.007469 0.037366 -0.010572 0.052303
#
#
# Mechanical properties :
#
#
# Convention : Reuss Voigt Hill
#
# Bulk Modulus (GPa) = 21.58976 50.21977 35.90476
# Shear Modulus (GPa) = 15.02962 28.00687 21.51824
#
# Velocity S-wave (km/s) = 2.53525 3.46082 3.03354
# Velocity P-wave (km/s) = 4.21935 6.11935 5.25592
#
# Compressibility (1/GPa) = 0.04631826
#
# Stress axis : x y z
#
# Youngs Moduli (GPa) = 68.77988 74.17030 19.76699
#
# Poissons Ratio (x) = 0.09753 0.04894
# Poissons Ratio (y) = 0.09044 0.24423
# Poissons Ratio (z) = 0.17028 0.91642
#
# Static dielectric constant tensor:
#      x y z
#    x 1.933840 -0.038350 -0.008320 
#    y -0.038350 1.927380 -0.052380 
#    z -0.008320 -0.052380 2.021220 
# 
# From -- ./inp_files/452543.got.cif
#   From: 2010.05.17/outbox.cif.g08.bks.cpg/sg2_227_cif.got.tgz:452543.got - 2010.06.03 11:33:40.
