data_PCOD9004342
_publ_section_title
;
Structure prediction by ZEFSAII (Michael W. Deem and Ramdas Pophale) SiO2 
 PCOD9004342
Probable space group: P -1
;
_chemical_formula_sum "Si O2"
_cell_formula_units_Z 14
_cell_length_a 11.774776
_cell_length_b 18.056466
_cell_length_c 5.798406
_cell_angle_alpha 71.570291
_cell_angle_beta 71.641600
_cell_angle_gamma 26.508907
_cell_volume 520.527014
_symmetry_space_group_name_H-M "P -1"
_symmetry_group_IT_number 2
_symmetry_cell_setting 'triclinic'
loop_
_space_group_symop_operation_xyz
x,y,z
-x,-y,-z
loop_
_atom_site_type_symbol
_atom_site_label
_atom_site_fract_x
_atom_site_fract_y
_atom_site_fract_z
Si Si1 0.608580 0.764080 0.402584
Si Si2 0.866985 0.340681 0.487329
Si Si3 0.984870 0.120665 0.878887
Si Si4 0.400651 0.771133 0.142586
Si Si5 0.611987 0.376123 0.239040
Si Si6 0.376637 0.052786 0.277808
Si Si7 0.112077 0.492765 0.129621
O O1 0.503859 0.757868 0.308215
O O2 0.379312 0.957103 0.376289
O O3 0.733811 0.651508 0.651556
O O4 0.855870 0.670188 0.240582
O O5 0.988808 0.209572 0.725561
O O6 0.741721 0.356640 0.363070
O O7 0.639464 0.516893 0.588206
O O8 0.096603 0.250948 0.298881
O O9 0.812074 0.172905 0.753767
O O10 0.820908 0.205825 0.136994
O O11 0.250853 0.924129 0.939658
O O12 0.654939 0.590493 0.035580
O O13 0.500000 0.500000 0.000000
O O14 0.500000 0.000000 0.500000
O O15 0.500000 0.000000 0.000000
O O16 0.000000 0.500000 0.000000
#
# Coordination Sequence:
#
# PCOD9004342 Si02
#       7
#     2   2   2   2   2   2   2
#     4  10  22  43  66  95 137 178 228 291 343 412
#     4  10  22  43  66  94 137 176 231 286 346 408
#     4  10  21  37  66 101 135 178 221 280 348 420
#     4  10  21  37  65  99 134 172 222 276 349 414
#     4   9  20  39  66  92 132 178 218 280 345 399
#     4  12  30  46  73 105 137 189 241 291 352 416
#     4   9  20  39  67  92 133 178 223 282 350 401
#
# _framework density 26.895817000000001
#
# number of rings (size 3 to 8) (size 9 to 14) (size 15 to 20)
#    0.000    2.000    0.000    1.714   10.000    2.286 
#    5.143    3.571    0.000    0.000    0.000    0.000 
#    0.000    0.000    0.000    0.000    0.000    0.000 
#
# Total GULP energy -78294.569259 kJ/mol
# GULP energy per Si atom -5592.469233 kJ/mol
# Density = 2.683460 g / cm^3
# Si number density = 26.895817 Si / 1000 Ang^3
#
#
#
# Elastic Constant Matrix: (Units=GPa)
#
#
# Indices 1 2 3 4 5 6 
#
# 1 69.4374 21.3876 35.4189 -5.7799 7.4062 -3.5351
# 2 21.3876 173.9677 46.7625 23.1926 5.7276 -20.9849
# 3 35.4189 46.7625 132.2368 5.8612 5.5775 -19.7351
# 4 -5.7799 23.1926 5.8612 62.0039 -2.2332 -1.1292
# 5 7.4062 5.7276 5.5775 -2.2332 36.2092 -4.3349
# 6 -3.5351 -20.9849 -19.7351 -1.1292 -4.3349 47.0786
#
#
#
# Elastic Compliance Matrix: (Units=1/GPa)
#
#
# Indices 1 2 3 4 5 6 
#
# 1 0.017485 -0.001365 -0.004393 0.002435 -0.002692 -0.001326
# 2 -0.001365 0.006981 -0.001639 -0.002560 -0.000465 0.002218
# 3 -0.004393 -0.001639 0.009801 -0.000669 -0.000031 0.003029
# 4 0.002435 -0.002560 -0.000669 0.017398 0.000996 -0.000730
# 5 -0.002692 -0.000465 -0.000031 0.000996 0.028575 0.002233
# 6 -0.001326 0.002218 0.003029 -0.000730 0.002233 0.023588
#
#
# Mechanical properties :
#
#
# Convention : Reuss Voigt Hill
#
# Bulk Modulus (GPa) = 51.35105 64.75332 58.05218
# Shear Modulus (GPa) = 39.96400 47.19653 43.58027
#
# Velocity S-wave (km/s) = 3.85890 4.19357 4.02971
# Velocity P-wave (km/s) = 6.24410 6.89753 6.57893
#
# Compressibility (1/GPa) = 0.01947380
#
# Stress axis : x y z
#
# Youngs Moduli (GPa) = 57.19232 143.25407 102.02583
#
# Poissons Ratio (x) = 0.19550 0.44819
# Poissons Ratio (y) = 0.07805 0.16722
# Poissons Ratio (z) = 0.25124 0.23479
#
# Static dielectric constant tensor:
#      x y z
#    x 2.063790 -0.026530 -0.099890 
#    y -0.026530 2.097420 0.052600 
#    z -0.099890 0.052600 2.268290 
# 
# From -- ./inp_files/100883.got.cif
#   From: 2010.05.17/outbox.cif.g08.bks.cpg/sg2_51_cif.got.tgz:100883.got - 2010.06.03 11:33:40.
