data_PCOD9004837
_publ_section_title
;
Structure prediction by ZEFSAII (Michael W. Deem and Ramdas Pophale) SiO2 
 PCOD9004837
Probable space group: P -1
;
_chemical_formula_sum "Si O2"
_cell_formula_units_Z 14
_cell_length_a 6.859515
_cell_length_b 12.386000
_cell_length_c 7.331130
_cell_angle_alpha 62.398427
_cell_angle_beta 92.703318
_cell_angle_gamma 71.595330
_cell_volume 509.697157
_symmetry_space_group_name_H-M "P -1"
_symmetry_group_IT_number 2
_symmetry_cell_setting 'triclinic'
loop_
_space_group_symop_operation_xyz
x,y,z
-x,-y,-z
loop_
_atom_site_type_symbol
_atom_site_label
_atom_site_fract_x
_atom_site_fract_y
_atom_site_fract_z
Si Si1 0.539938 0.524001 0.695840
Si Si2 0.699005 0.825331 0.630162
Si Si3 0.072768 0.085842 0.177787
Si Si4 0.362745 0.724243 0.838768
Si Si5 0.193407 0.309262 0.811457
Si Si6 0.962559 0.584838 0.660605
Si Si7 0.554899 0.108716 0.806769
O O1 0.500000 0.500000 0.500000
O O2 0.370176 0.652395 0.695052
O O3 0.751423 0.554395 0.686526
O O4 0.593985 0.395953 0.925545
O O5 0.768782 0.936801 0.625500
O O6 0.549801 0.779169 0.785629
O O7 0.919374 0.700930 0.709947
O O8 0.583945 0.863240 0.403970
O O9 0.838377 0.150911 0.193368
O O10 0.193909 0.950964 0.174804
O O11 0.117870 0.202726 0.983680
O O12 0.044720 0.358371 0.586598
O O13 0.434618 0.241762 0.807335
O O14 0.149786 0.446094 0.805790
O O15 0.500000 0.000000 0.000000
#
# Coordination Sequence:
#
# PCOD9004837 Si02
#       7
#     2   2   2   2   2   2   2
#     4  10  21  38  59  85 134 167 193 254 311 363
#     4  10  22  38  61  89 120 160 200 252 313 358
#     4  11  21  38  63  85 122 166 198 248 312 355
#     4  10  23  41  57  95 128 153 210 257 296 370
#     4   9  18  33  57  86 117 156 200 250 294 357
#     4   9  18  35  55  88 123 151 205 250 298 366
#     4   9  20  39  61  85 120 159 207 254 294 365
#
# _framework density 27.467292
#
# number of rings (size 3 to 8) (size 9 to 14) (size 15 to 20)
#    0.000    2.286    1.429    0.429    2.000    4.571 
#    0.000    0.000    0.000    8.571    0.000    0.000 
#    0.000    0.000    0.000    0.000    0.000    0.000 
#
# Total GULP energy -78365.926619 kJ/mol
# GULP energy per Si atom -5597.566187 kJ/mol
# Density = 2.740477 g / cm^3
# Si number density = 27.467292 Si / 1000 Ang^3
#
#
#
# Elastic Constant Matrix: (Units=GPa)
#
#
# Indices 1 2 3 4 5 6 
#
# 1 99.9406 45.6127 18.1851 -4.1178 -0.6317 -48.2834
# 2 45.6127 195.2582 16.6882 -22.5219 12.2906 -82.0719
# 3 18.1851 16.6882 141.4175 3.3241 -12.2392 -10.7565
# 4 -4.1178 -22.5219 3.3241 44.2072 -1.7124 5.9013
# 5 -0.6317 12.2906 -12.2392 -1.7124 27.3701 -5.5695
# 6 -48.2834 -82.0719 -10.7565 5.9013 -5.5695 61.0700
#
#
#
# Elastic Compliance Matrix: (Units=1/GPa)
#
#
# Indices 1 2 3 4 5 6 
#
# 1 0.017836 0.004190 -0.001149 0.001348 0.002087 0.019590
# 2 0.004190 0.013627 -0.000827 0.004536 -0.001861 0.020872
# 3 -0.001149 -0.000827 0.007635 -0.000927 0.003650 -0.000253
# 4 0.001348 0.004536 -0.000927 0.024511 0.000056 0.004636
# 5 0.002087 -0.001861 0.003650 0.000056 0.039750 0.003411
# 6 0.019590 0.020872 -0.000253 0.004636 0.003411 0.059732
#
#
# Mechanical properties :
#
#
# Convention : Reuss Voigt Hill
#
# Bulk Modulus (GPa) = 22.97489 66.39871 44.68680
# Shear Modulus (GPa) = 28.87338 50.27147 39.57243
#
# Velocity S-wave (km/s) = 3.24573 4.28276 3.79979
# Velocity P-wave (km/s) = 4.73592 6.97727 5.96285
#
# Compressibility (1/GPa) = 0.04352578
#
# Stress axis : x y z
#
# Youngs Moduli (GPa) = 56.06686 73.38544 130.97484
#
# Poissons Ratio (x) = -0.30749 0.15049
# Poissons Ratio (y) = -0.23493 0.10832
# Poissons Ratio (z) = 0.06442 0.06069
#
# Static dielectric constant tensor:
#      x y z
#    x 2.109080 -0.079270 0.045060 
#    y -0.079270 2.259120 0.037040 
#    z 0.045060 0.037040 2.159480 
# 
# From -- ./inp_files/200229.got.cif
#   From: 2010.05.17/outbox.cif.g08.bks.cpg/sg2_101_cif.got.tgz:200229.got - 2010.06.03 11:33:40.
