data_PCOD9004609
_publ_section_title
;
Structure prediction by ZEFSAII (Michael W. Deem and Ramdas Pophale) SiO2 
 PCOD9004609
Probable space group: P -1
;
_chemical_formula_sum "Si O2"
_cell_formula_units_Z 14
_cell_length_a 20.972076
_cell_length_b 16.805417
_cell_length_c 5.461931
_cell_angle_alpha 62.752503
_cell_angle_beta 64.226889
_cell_angle_gamma 20.343419
_cell_volume 594.873861
_symmetry_space_group_name_H-M "P -1"
_symmetry_group_IT_number 2
_symmetry_cell_setting 'triclinic'
loop_
_space_group_symop_operation_xyz
x,y,z
-x,-y,-z
loop_
_atom_site_type_symbol
_atom_site_label
_atom_site_fract_x
_atom_site_fract_y
_atom_site_fract_z
Si Si1 0.971898 0.169878 0.857143
Si Si2 0.344411 0.105464 0.651073
Si Si3 0.519337 0.623888 0.377425
Si Si4 0.851592 0.141213 0.363629
Si Si5 0.279951 0.246825 0.059002
Si Si6 0.317232 0.389359 0.026095
Si Si7 0.368487 0.738327 0.957918
O O1 0.829108 0.414534 0.797410
O O2 0.857219 0.211718 0.041932
O O3 0.072978 0.037991 0.618006
O O4 0.152514 0.967333 0.009502
O O5 0.247990 0.219357 0.385889
O O6 0.500000 0.000000 0.500000
O O7 0.480409 0.867311 0.839587
O O8 0.221298 0.277224 0.848921
O O9 0.656217 0.378661 0.477100
O O10 0.401881 0.759327 0.628430
O O11 0.648364 0.561439 0.257835
O O12 0.421043 0.728726 0.131533
O O13 0.000000 0.000000 0.500000
O O14 0.235644 0.400092 0.998363
O O15 0.500000 0.000000 0.000000
O O16 0.500000 0.500000 0.000000
#
# Coordination Sequence:
#
# PCOD9004609 Si02
#       7
#     2   2   2   2   2   2   2
#     4  10  22  36  55  79 111 141 187 239 275 320
#     4   8  15  30  52  80 111 138 165 218 284 330
#     4  11  25  37  60  77 111 150 194 227 273 328
#     4  10  21  38  55  80 103 144 187 240 285 319
#     4   8  15  30  52  80 111 138 165 218 284 330
#     4   9  19  36  54  91 107 137 187 241 267 320
#     4  12  24  42  55  75 109 163 190 221 279 337
#
# _framework density 23.534400999999999
#
# number of rings (size 3 to 8) (size 9 to 14) (size 15 to 20)
#    0.000    2.571    1.429    1.286    6.000    4.571 
#   10.286    0.000    0.000    0.000    0.000   54.000 
#    0.000    0.000    0.000    0.000    0.000    0.000 
#
# Total GULP energy -77975.216661 kJ/mol
# GULP energy per Si atom -5569.658333 kJ/mol
# Density = 2.348084 g / cm^3
# Si number density = 23.534401 Si / 1000 Ang^3
#
#
#
# Elastic Constant Matrix: (Units=GPa)
#
#
# Indices 1 2 3 4 5 6 
#
# 1 40.4704 56.0224 29.6663 -4.8145 18.7846 10.3083
# 2 56.0224 76.4499 31.7854 22.1072 2.8309 26.4525
# 3 29.6663 31.7854 132.2108 28.9531 33.6946 9.5875
# 4 -4.8145 22.1072 28.9531 21.8545 2.6987 2.3132
# 5 18.7846 2.8309 33.6946 2.6987 40.3176 2.9752
# 6 10.3083 26.4525 9.5875 2.3132 2.9752 40.9263
#
#
#
# Elastic Compliance Matrix: (Units=1/GPa)
#
#
# Indices 1 2 3 4 5 6 
#
# 1 -0.018205 0.025313 0.005344 -0.036171 0.005499 -0.011383
# 2 0.025313 -0.010032 -0.007340 0.026196 -0.006770 0.000840
# 3 0.005344 -0.007340 0.012582 -0.006746 -0.012165 0.001716
# 4 -0.036171 0.026196 -0.006746 0.018678 0.020047 -0.008754
# 5 0.005499 -0.006770 -0.012165 0.020047 0.031362 0.002428
# 6 -0.011383 0.000840 0.001716 -0.008754 0.002428 0.026675
#
#
# Mechanical properties :
#
#
# Convention : Reuss Voigt Hill
#
# Bulk Modulus (GPa) = 32.27897 53.78659 43.03278
# Shear Modulus (GPa) = 202.00049 29.39681 115.69865
#
# Velocity S-wave (km/s) = 9.27461 3.53809 7.01913
# Velocity P-wave (km/s) = 11.33299 6.29245 9.16601
#
# Compressibility (1/GPa) = 0.03097992
#
# Stress axis : x y z
#
# Youngs Moduli (GPa) = -54.93009 -99.67841 79.47560
#
# Poissons Ratio (x) = 2.52318 -0.42474
# Poissons Ratio (y) = 1.39046 0.58337
# Poissons Ratio (z) = 0.29357 -0.73166
#
# Static dielectric constant tensor:
#      x y z
#    x 1.934640 0.060810 -0.082960 
#    y 0.060810 1.904220 -0.001750 
#    z -0.082960 -0.001750 2.030230 
# 
# From -- ./inp_files/124494.got.cif
#   From: 2010.05.17/outbox.cif.g08.bks.cpg/sg2_63_cif.got.tgz:124494.got - 2010.06.03 11:33:40.
