data_PCOD9004418
_publ_section_title
;
Structure prediction by ZEFSAII (Michael W. Deem and Ramdas Pophale) SiO2 
 PCOD9004418
Probable space group: P -1
;
_chemical_formula_sum "Si O2"
_cell_formula_units_Z 16
_cell_length_a 13.227287
_cell_length_b 8.519236
_cell_length_c 9.452253
_cell_angle_alpha 63.993378
_cell_angle_beta 127.639947
_cell_angle_gamma 94.378917
_cell_volume 730.106122
_symmetry_space_group_name_H-M "P -1"
_symmetry_group_IT_number 2
_symmetry_cell_setting 'triclinic'
loop_
_space_group_symop_operation_xyz
x,y,z
-x,-y,-z
loop_
_atom_site_type_symbol
_atom_site_label
_atom_site_fract_x
_atom_site_fract_y
_atom_site_fract_z
Si Si1 0.082382 0.451118 0.299533
Si Si2 0.795242 0.511331 0.892208
Si Si3 0.378310 0.998822 0.993669
Si Si4 0.621737 0.795394 0.827898
Si Si5 0.098937 0.093606 0.630400
Si Si6 0.947080 0.141446 0.770096
Si Si7 0.672894 0.101420 0.544253
Si Si8 0.617294 0.319794 0.683074
O O1 0.188374 0.395522 0.282431
O O2 0.097849 0.289432 0.487580
O O3 0.081715 0.649288 0.283232
O O4 0.937658 0.473611 0.099050
O O5 0.687577 0.609301 0.877792
O O6 0.745917 0.342674 0.864504
O O7 0.252473 0.981483 0.804300
O O8 0.332472 0.174929 0.987275
O O9 0.500000 0.000000 0.000000
O O10 0.426567 0.835269 0.210289
O O11 0.461993 0.848023 0.679511
O O12 0.667200 0.929559 0.703238
O O13 0.052516 0.112751 0.746062
O O14 0.000000 0.000000 0.500000
O O15 0.817696 0.090219 0.614681
O O16 0.000000 0.000000 0.000000
O O17 0.654806 0.259687 0.581033
O O18 0.500000 0.500000 0.500000
#
# Coordination Sequence:
#
# PCOD9004418 Si02
#       8
#     2   2   2   2   2   2   2   2
#     4  11  26  42  71 101 140 186 228 293 356 425
#     4  11  22  41  70 103 134 172 240 284 354 411
#     4  11  27  46  67  98 142 182 229 287 362 416
#     4  10  22  40  65  96 136 175 228 286 339 417
#     4  12  29  47  71 104 145 185 237 294 358 420
#     4  12  25  45  72 102 145 184 237 286 357 424
#     4  10  21  37  66  97 128 177 225 274 345 410
#     4  11  21  41  68 101 131 172 224 291 336 422
#
# _framework density 21.914622000000001
#
# number of rings (size 3 to 8) (size 9 to 14) (size 15 to 20)
#    0.000    1.000    2.500    4.125    8.750    0.000 
#    0.000    0.625    0.000    0.000    0.000    0.000 
#    0.000    0.000    0.000    0.000    0.000    0.000 
#
# Total GULP energy -89346.732154 kJ/mol
# GULP energy per Si atom -5584.170760 kJ/mol
# Density = 2.186474 g / cm^3
# Si number density = 21.914622 Si / 1000 Ang^3
#
#
#
# Elastic Constant Matrix: (Units=GPa)
#
#
# Indices 1 2 3 4 5 6 
#
# 1 136.1076 14.0342 39.5883 3.9586 -4.8487 20.4561
# 2 14.0342 79.4356 27.7398 8.4656 -1.5159 10.4302
# 3 39.5883 27.7398 79.3984 0.5349 -6.9230 13.9151
# 4 3.9586 8.4656 0.5349 41.5293 13.7446 3.9485
# 5 -4.8487 -1.5159 -6.9230 13.7446 38.2707 11.1116
# 6 20.4561 10.4302 13.9151 3.9485 11.1116 34.5460
#
#
#
# Elastic Compliance Matrix: (Units=1/GPa)
#
#
# Indices 1 2 3 4 5 6 
#
# 1 0.009206 0.000466 -0.003718 -0.001247 0.002325 -0.004699
# 2 0.000466 0.014961 -0.004723 -0.003370 0.001914 -0.003121
# 3 -0.003718 -0.004723 0.017206 0.000316 0.003651 -0.004513
# 4 -0.001247 -0.003370 0.000316 0.028328 -0.010965 0.001918
# 5 0.002325 0.001914 0.003651 -0.010965 0.034997 -0.013428
# 6 -0.004699 -0.003121 -0.004513 0.001918 -0.013428 0.038590
#
#
# Mechanical properties :
#
#
# Convention : Reuss Voigt Hill
#
# Bulk Modulus (GPa) = 39.33413 50.85181 45.09297
# Shear Modulus (GPa) = 29.81290 37.10782 33.46036
#
# Velocity S-wave (km/s) = 3.69238 4.11943 3.91173
# Velocity P-wave (km/s) = 6.01381 6.77356 6.40496
#
# Compressibility (1/GPa) = 0.02542321
#
# Stress axis : x y z
#
# Youngs Moduli (GPa) = 108.62554 66.83928 58.11918
#
# Poissons Ratio (x) = -0.03117 0.21611
# Poissons Ratio (y) = -0.05066 0.27450
# Poissons Ratio (z) = 0.40391 0.31568
#
# Static dielectric constant tensor:
#      x y z
#    x 1.846780 -0.017330 0.065280 
#    y -0.017330 1.853110 -0.006470 
#    z 0.065280 -0.006470 1.828430 
# 
# From -- ./inp_files/242693.got.cif
#   From: 2010.05.17/outbox.cif.g08.bks.cpg/sg2_122_cif.got.tgz:242693.got - 2010.06.03 11:33:40.
