data_PCOD9004958
_publ_section_title
;
Structure prediction by ZEFSAII (Michael W. Deem and Ramdas Pophale) SiO2 
 PCOD9004958
Probable space group: P -1
;
_chemical_formula_sum "Si O2"
_cell_formula_units_Z 16
_cell_length_a 10.781005
_cell_length_b 19.936719
_cell_length_c 9.476243
_cell_angle_alpha 114.463160
_cell_angle_beta 65.573153
_cell_angle_gamma 149.301885
_cell_volume 939.209303
_symmetry_space_group_name_H-M "P -1"
_symmetry_group_IT_number 2
_symmetry_cell_setting 'triclinic'
loop_
_space_group_symop_operation_xyz
x,y,z
-x,-y,-z
loop_
_atom_site_type_symbol
_atom_site_label
_atom_site_fract_x
_atom_site_fract_y
_atom_site_fract_z
Si Si1 0.217002 0.309738 0.093524
Si Si2 0.768330 0.989571 0.671500
Si Si3 0.167492 0.362504 0.643774
Si Si4 0.523402 0.584511 0.228156
Si Si5 0.605631 0.660466 0.678773
Si Si6 0.324037 0.975573 0.974829
Si Si7 0.327496 0.214031 0.506505
Si Si8 0.380033 0.925765 0.341347
O O1 0.291359 0.426357 0.203255
O O2 0.284593 0.287092 0.171561
O O3 0.937976 0.178329 0.066085
O O4 0.385836 0.365877 0.929987
O O5 0.682720 0.024220 0.660532
O O6 0.055842 0.107941 0.604049
O O7 0.633145 0.855207 0.565209
O O8 0.725160 0.981363 0.852169
O O9 0.267179 0.367359 0.743319
O O10 0.321767 0.507087 0.684249
O O11 0.258126 0.347555 0.466516
O O12 0.876459 0.232829 0.662074
O O13 0.498081 0.651432 0.374019
O O14 0.656415 0.751638 0.633032
O O15 0.448151 0.041458 0.820790
O O16 0.500000 0.000000 0.000000
O O17 0.500000 0.000000 0.500000
#
# Coordination Sequence:
#
# PCOD9004958 Si02
#       8
#     2   2   2   2   2   2   2   2
#     4  10  17  28  48  81 102 124 178 215 261 284
#     4  10  20  35  51  74 105 141 174 194 266 320
#     4   9  16  31  47  75  99 129 172 203 266 292
#     4   9  16  29  52  73 105 132 160 227 256 300
#     4   9  17  28  52  73 101 125 163 229 249 298
#     4  10  20  33  50  71 107 140 169 206 244 315
#     4  10  18  34  54  72 107 139 162 213 263 319
#     4  11  20  32  54  76 104 134 173 217 243 305
#
# _framework density 17.035606000000001
#
# number of rings (size 3 to 8) (size 9 to 14) (size 15 to 20)
#    0.000    2.250    3.750    2.250    0.000    0.000 
#    0.000    1.875    0.000    7.500    0.000    0.000 
#    0.000    0.000    0.000    0.000    0.000    0.000 
#
# Total GULP energy -89093.670635 kJ/mol
# GULP energy per Si atom -5568.354415 kJ/mol
# Density = 1.699683 g / cm^3
# Si number density = 17.035606 Si / 1000 Ang^3
#
#
#
# Elastic Constant Matrix: (Units=GPa)
#
#
# Indices 1 2 3 4 5 6 
#
# 1 23.6744 16.7501 24.6022 -0.7525 0.2601 0.7972
# 2 16.7501 82.4804 28.1243 7.3697 -13.7769 7.8127
# 3 24.6022 28.1243 95.7697 -2.2901 14.1618 -4.1547
# 4 -0.7525 7.3697 -2.2901 30.3348 -4.6162 6.1410
# 5 0.2601 -13.7769 14.1618 -4.6162 20.2500 4.0548
# 6 0.7972 7.8127 -4.1547 6.1410 4.0548 20.5047
#
#
#
# Elastic Compliance Matrix: (Units=1/GPa)
#
#
# Indices 1 2 3 4 5 6 
#
# 1 0.063210 -0.005607 -0.016104 0.004436 0.008987 -0.006690
# 2 -0.005607 0.021908 -0.009273 0.000636 0.024625 -0.015069
# 3 -0.016104 -0.009273 0.021509 -0.003198 -0.024751 0.014370
# 4 0.004436 0.000636 -0.003198 0.037948 0.014319 -0.015259
# 5 0.008987 0.024625 -0.024751 0.014319 0.094133 -0.037650
# 6 -0.006690 -0.015069 0.014370 -0.015259 -0.037650 0.069698
#
#
# Mechanical properties :
#
#
# Convention : Reuss Voigt Hill
#
# Bulk Modulus (GPa) = 22.39244 37.87530 30.13387
# Shear Modulus (GPa) = 12.97825 23.04775 18.01300
#
# Velocity S-wave (km/s) = 2.76312 3.68219 3.25526
# Velocity P-wave (km/s) = 4.83248 6.35290 5.64412
#
# Compressibility (1/GPa) = 0.04465793
#
# Stress axis : x y z
#
# Youngs Moduli (GPa) = 15.82036 45.64484 46.49246
#
# Poissons Ratio (x) = 0.25592 0.74874
# Poissons Ratio (y) = 0.08870 0.43113
# Poissons Ratio (z) = 0.25478 0.42327
#
# Static dielectric constant tensor:
#      x y z
#    x 1.562830 -0.014980 0.013280 
#    y -0.014980 1.612420 -0.004600 
#    z 0.013280 -0.004600 1.621430 
# 
# From -- ./inp_files/252493.got.cif
#   From: 2010.05.17/outbox.cif.g08.bks.cpg/sg2_127_cif.got.tgz:252493.got - 2010.06.03 11:33:40.
