data_PCOD9004279
_publ_section_title
;
Structure prediction by ZEFSAII (Michael W. Deem and Ramdas Pophale) SiO2 
 PCOD9004279
Probable space group: P -1
;
_chemical_formula_sum "Si O2"
_cell_formula_units_Z 12
_cell_length_a 9.903627
_cell_length_b 13.439170
_cell_length_c 9.483213
_cell_angle_alpha 139.122089
_cell_angle_beta 75.019669
_cell_angle_gamma 134.006356
_cell_volume 489.479133
_symmetry_space_group_name_H-M "P -1"
_symmetry_group_IT_number 2
_symmetry_cell_setting 'triclinic'
loop_
_space_group_symop_operation_xyz
x,y,z
-x,-y,-z
loop_
_atom_site_type_symbol
_atom_site_label
_atom_site_fract_x
_atom_site_fract_y
_atom_site_fract_z
Si Si1 0.166603 0.084482 0.387863
Si Si2 0.654743 0.981777 0.526602
Si Si3 0.339293 0.942348 0.093735
Si Si4 0.887542 0.006014 0.154054
Si Si5 0.400100 0.593240 0.941674
Si Si6 0.997983 0.591846 0.317274
O O1 0.954964 0.976998 0.250702
O O2 0.319093 0.350640 0.692120
O O3 0.145208 0.948268 0.377071
O O4 0.294017 0.083392 0.239449
O O5 0.553720 0.969965 0.682625
O O6 0.776458 0.198564 0.615684
O O7 0.486215 0.729064 0.214380
O O8 0.095540 0.645677 0.850210
O O9 0.500000 0.000000 0.000000
O O10 0.984571 0.259953 0.412394
O O11 0.000000 0.000000 0.000000
O O12 0.618752 0.790051 0.991973
O O13 0.202930 0.527262 0.860554
#
# Coordination Sequence:
#
# PCOD9004279 Si02
#       6
#     2   2   2   2   2   2
#     4   9  22  39  62  90 125 154 203 256 294 357
#     4   9  21  40  64  90 123 160 204 246 305 358
#     4  10  23  40  63  88 126 164 199 248 310 355
#     4  10  23  38  62  91 125 162 203 249 308 356
#     4  10  21  37  65  93 115 161 207 247 303 357
#     4  10  22  41  63  90 126 159 200 255 300 363
#
# _framework density 24.515857
#
# number of rings (size 3 to 8) (size 9 to 14) (size 15 to 20)
#    1.000    1.333    0.000    1.000    4.667    9.333 
#    0.000    4.167    0.000    0.000    0.000    0.000 
#    0.000    0.000    0.000    0.000    0.000    0.000 
#
# Total GULP energy -67023.727993 kJ/mol
# GULP energy per Si atom -5585.310666 kJ/mol
# Density = 2.446006 g / cm^3
# Si number density = 24.515857 Si / 1000 Ang^3
#
#
#
# Elastic Constant Matrix: (Units=GPa)
#
#
# Indices 1 2 3 4 5 6 
#
# 1 72.1195 5.7864 20.9735 5.7551 -3.4184 -1.0549
# 2 5.7864 94.3264 67.5658 -38.5560 -5.1771 4.7001
# 3 20.9735 67.5658 143.4235 -19.9528 -34.5860 11.8052
# 4 5.7551 -38.5560 -19.9528 44.0313 7.5188 -12.8106
# 5 -3.4184 -5.1771 -34.5860 7.5188 41.3320 -2.5822
# 6 -1.0549 4.7001 11.8052 -12.8106 -2.5822 21.9207
#
#
#
# Elastic Compliance Matrix: (Units=1/GPa)
#
#
# Indices 1 2 3 4 5 6 
#
# 1 0.014898 -0.000638 -0.002434 -0.003551 -0.000234 0.000062
# 2 -0.000638 0.031239 -0.015231 0.027376 -0.012868 0.015957
# 3 -0.002434 -0.015231 0.017164 -0.010676 0.013524 -0.010741
# 4 -0.003551 0.027376 -0.010676 0.053118 -0.013640 0.029144
# 5 -0.000234 -0.012868 0.013524 -0.013640 0.035844 -0.008285
# 6 0.000062 0.015957 -0.010741 0.029144 -0.008285 0.064041
#
#
# Mechanical properties :
#
#
# Convention : Reuss Voigt Hill
#
# Bulk Modulus (GPa) = 37.46007 55.39120 46.42564
# Shear Modulus (GPa) = 19.09796 35.82636 27.46216
#
# Velocity S-wave (km/s) = 2.79409 3.82691 3.35054
# Velocity P-wave (km/s) = 5.07172 6.49385 5.82634
#
# Compressibility (1/GPa) = 0.02669509
#
# Stress axis : x y z
#
# Youngs Moduli (GPa) = 67.12333 32.01087 58.26194
#
# Poissons Ratio (x) = 0.02042 0.14179
# Poissons Ratio (y) = 0.04283 0.88741
# Poissons Ratio (z) = 0.16335 0.48757
#
# Static dielectric constant tensor:
#      x y z
#    x 2.026480 -0.020960 -0.026950 
#    y -0.020960 1.986080 -0.033970 
#    z -0.026950 -0.033970 1.954180 
# 
# From -- ./inp_files/369696.got.cif
#   From: 2010.05.17/outbox.cif.g08.bks.cpg/sg2_185_cif.got.tgz:369696.got - 2010.06.03 11:33:40.
