data_PCOD9004306
_publ_section_title
;
Structure prediction by ZEFSAII (Michael W. Deem and Ramdas Pophale) SiO2 
 PCOD9004306
Probable space group: P -1
;
_chemical_formula_sum "Si O2"
_cell_formula_units_Z 13
_cell_length_a 9.257313
_cell_length_b 9.634181
_cell_length_c 10.754632
_cell_angle_alpha 38.760030
_cell_angle_beta 56.634414
_cell_angle_gamma 53.992881
_cell_volume 477.764241
_symmetry_space_group_name_H-M "P -1"
_symmetry_group_IT_number 2
_symmetry_cell_setting 'triclinic'
loop_
_space_group_symop_operation_xyz
x,y,z
-x,-y,-z
loop_
_atom_site_type_symbol
_atom_site_label
_atom_site_fract_x
_atom_site_fract_y
_atom_site_fract_z
Si Si1 0.761921 0.625160 0.781912
Si Si2 0.500000 0.500000 0.500000
Si Si3 0.142373 0.494365 0.785618
Si Si4 0.139272 0.918559 0.663238
Si Si5 0.482933 0.977514 0.806561
Si Si6 0.747617 0.007836 0.855668
Si Si7 0.529195 0.658554 0.644979
O O1 0.777883 0.733448 0.009048
O O2 0.688287 0.554974 0.738274
O O3 0.951595 0.460535 0.855339
O O4 0.593403 0.722334 0.885990
O O5 0.283850 0.488874 0.613769
O O6 0.500091 0.504640 0.652340
O O7 0.105342 0.737353 0.705227
O O8 0.811978 0.864750 0.569379
O O9 0.334748 0.768490 0.730084
O O10 0.946327 0.032481 0.740379
O O11 0.428929 0.130212 0.601034
O O12 0.605686 0.118019 0.731121
O O13 0.339011 0.960747 0.988983
#
# Coordination Sequence:
#
# PCOD9004306 Si02
#       7
#     2   1   2   2   2   2   2
#     4  11  23  41  67  91 129 167 211 263 310 374
#     4  10  22  40  68  92 118 166 218 260 304 382
#     4  11  22  38  67  94 130 162 216 258 312 369
#     4  10  21  37  65  95 121 172 213 250 309 379
#     4  10  21  38  63  91 129 166 210 256 309 369
#     4  11  22  37  63  98 130 164 211 263 306 372
#     4  10  22  43  65  91 124 168 214 261 310 379
#
# _framework density 27.210076000000001
#
# number of rings (size 3 to 8) (size 9 to 14) (size 15 to 20)
#    0.000    1.538    3.077    2.769    4.308    0.615 
#    0.000    3.846    6.769    0.000    0.000    0.000 
#    0.000    0.000    0.000    0.000    0.000    0.000 
#
# Total GULP energy -72594.307709 kJ/mol
# GULP energy per Si atom -5584.177516 kJ/mol
# Density = 2.714814 g / cm^3
# Si number density = 27.210076 Si / 1000 Ang^3
#
#
#
# Elastic Constant Matrix: (Units=GPa)
#
#
# Indices 1 2 3 4 5 6 
#
# 1 156.3861 43.6926 34.9478 20.7798 26.6087 -5.4638
# 2 43.6926 76.3109 38.3097 26.5585 -1.2892 -2.1610
# 3 34.9478 38.3097 87.6066 33.2033 -19.2783 -17.3246
# 4 20.7798 26.5585 33.2033 65.0866 -12.7765 -14.2634
# 5 26.6087 -1.2892 -19.2783 -12.7765 41.9128 1.4018
# 6 -5.4638 -2.1610 -17.3246 -14.2634 1.4018 37.7099
#
#
#
# Elastic Compliance Matrix: (Units=1/GPa)
#
#
# Indices 1 2 3 4 5 6 
#
# 1 0.009850 -0.003234 -0.003952 -0.001706 -0.008660 -0.000897
# 2 -0.003234 0.019931 -0.006801 -0.004918 -0.001819 -0.004243
# 3 -0.003952 -0.006801 0.020849 -0.002929 0.010759 0.007108
# 4 -0.001706 -0.004918 -0.002929 0.021962 0.006071 0.006206
# 5 -0.008660 -0.001819 0.010759 0.006071 0.035949 0.004544
# 6 -0.000897 -0.004243 0.007108 0.006206 0.004544 0.031589
#
#
# Mechanical properties :
#
#
# Convention : Reuss Voigt Hill
#
# Bulk Modulus (GPa) = 44.13940 61.57822 52.85881
# Shear Modulus (GPa) = 28.46497 42.49876 35.48187
#
# Velocity S-wave (km/s) = 3.23788 3.95634 3.61501
# Velocity P-wave (km/s) = 5.49868 6.59924 6.07394
#
# Compressibility (1/GPa) = 0.02265550
#
# Stress axis : x y z
#
# Youngs Moduli (GPa) = 101.52358 50.17341 47.96502
#
# Poissons Ratio (x) = 0.16225 0.18955
# Poissons Ratio (y) = 0.32831 0.32622
# Poissons Ratio (z) = 0.40121 0.34124
#
# Static dielectric constant tensor:
#      x y z
#    x 2.040670 -0.143620 0.026360 
#    y -0.143620 2.029490 0.079070 
#    z 0.026360 0.079070 2.070240 
# 
# From -- ./inp_files/384274.got.cif
#   From: 2010.05.17/outbox.cif.g08.bks.cpg/sg2_193_cif.got.tgz:384274.got - 2010.06.03 11:33:40.
