data_PCOD9004625
_publ_section_title
;
Structure prediction by ZEFSAII (Michael W. Deem and Ramdas Pophale) SiO2 
 PCOD9004625
Probable space group: P -1
;
_chemical_formula_sum "Si O2"
_cell_formula_units_Z 16
_cell_length_a 7.462633
_cell_length_b 5.447010
_cell_length_c 19.286930
_cell_angle_alpha 66.675817
_cell_angle_beta 124.069483
_cell_angle_gamma 118.213423
_cell_volume 562.967385
_symmetry_space_group_name_H-M "P -1"
_symmetry_group_IT_number 2
_symmetry_cell_setting 'triclinic'
loop_
_space_group_symop_operation_xyz
x,y,z
-x,-y,-z
loop_
_atom_site_type_symbol
_atom_site_label
_atom_site_fract_x
_atom_site_fract_y
_atom_site_fract_z
Si Si1 0.916250 0.068497 0.833631
Si Si2 0.016798 0.582936 0.586470
Si Si3 0.495745 0.640954 0.729825
Si Si4 0.553497 0.342666 0.460450
Si Si5 0.762880 0.336253 0.186514
Si Si6 0.915670 0.919902 0.657682
Si Si7 0.761504 0.272006 0.045922
Si Si8 0.267342 0.740012 0.111575
O O1 0.786940 0.012390 0.886321
O O2 0.010484 0.391209 0.797032
O O3 0.731545 0.900933 0.756774
O O4 0.142997 0.988560 0.900428
O O5 0.821257 0.543141 0.489302
O O6 0.980181 0.809186 0.608941
O O7 0.294061 0.668707 0.633026
O O8 0.935364 0.249132 0.627995
O O9 0.374782 0.646840 0.777794
O O10 0.579777 0.369999 0.789617
O O11 0.500000 0.500000 0.500000
O O12 0.342688 0.309349 0.364964
O O13 0.500000 0.000000 0.500000
O O14 0.645555 0.305779 0.089357
O O15 0.879854 0.095974 0.247458
O O16 0.007801 0.522516 0.072681
O O17 0.643791 0.249371 0.948674
#
# Coordination Sequence:
#
# PCOD9004625 Si02
#       8
#     2   2   2   2   2   2   2   2
#     4  10  21  38  56  79 108 152 192 235 290 338
#     4   9  18  31  54  82 116 148 187 233 280 341
#     4  10  22  35  57  83 114 146 188 239 289 342
#     4   8  14  28  48  79 111 147 184 225 277 333
#     4  10  22  35  57  83 114 146 188 239 289 342
#     4   9  18  31  54  82 116 148 187 233 280 341
#     4   9  19  36  56  79 109 147 191 237 286 342
#     4   9  19  36  56  79 109 147 191 237 286 342
#
# _framework density 28.420829999999999
#
# number of rings (size 3 to 8) (size 9 to 14) (size 15 to 20)
#    0.000    2.750    0.000    0.375    7.000    1.500 
#    0.000    1.250    0.000    0.750    0.000    7.875 
#    0.000    0.000    0.000    0.000    0.000    0.000 
#
# Total GULP energy -89316.706621 kJ/mol
# GULP energy per Si atom -5582.294164 kJ/mol
# Density = 2.835614 g / cm^3
# Si number density = 28.420830 Si / 1000 Ang^3
#
#
#
# Elastic Constant Matrix: (Units=GPa)
#
#
# Indices 1 2 3 4 5 6 
#
# 1 82.7045 20.2735 -21.7016 18.5660 23.4593 0.6274
# 2 20.2735 98.2035 24.3637 33.5045 3.8445 -1.0414
# 3 -21.7016 24.3637 91.6676 24.7559 -4.2900 2.3374
# 4 18.5660 33.5045 24.7559 36.4938 9.3962 15.8671
# 5 23.4593 3.8445 -4.2900 9.3962 38.0223 17.7442
# 6 0.6274 -1.0414 2.3374 15.8671 17.7442 48.5636
#
#
#
# Elastic Compliance Matrix: (Units=1/GPa)
#
#
# Indices 1 2 3 4 5 6 
#
# 1 0.022434 0.000147 0.009599 -0.019200 -0.012787 0.010197
# 2 0.000147 0.016244 0.000390 -0.017925 -0.000175 0.006248
# 3 0.009599 0.000390 0.018166 -0.019752 -0.001906 0.006160
# 4 -0.019200 -0.017925 -0.019752 0.077192 0.004514 -0.026056
# 5 -0.012787 -0.000175 -0.001906 0.004514 0.040323 -0.015955
# 6 0.010197 0.006248 0.006160 -0.026056 -0.015955 0.034640
#
#
# Mechanical properties :
#
#
# Convention : Reuss Voigt Hill
#
# Bulk Modulus (GPa) = 12.96750 35.38300 24.17525
# Shear Modulus (GPa) = 23.31741 41.25863 32.28802
#
# Velocity S-wave (km/s) = 2.86743 3.81426 3.37422
# Velocity P-wave (km/s) = 3.94150 5.64577 4.86879
#
# Compressibility (1/GPa) = 0.07711589
#
# Stress axis : x y z
#
# Youngs Moduli (GPa) = 44.57542 61.55971 55.04862
#
# Poissons Ratio (x) = -0.00902 -0.52841
# Poissons Ratio (y) = -0.00653 -0.02150
# Poissons Ratio (z) = -0.42788 -0.02404
#
# Static dielectric constant tensor:
#      x y z
#    x 2.430660 -0.017300 -0.115300 
#    y -0.017300 2.185970 0.006300 
#    z -0.115300 0.006300 2.246120 
# 
# From -- ./inp_files/50239.got.cif
#   From: 2010.05.17/outbox.cif.g08.bks.cpg/sg2_26_cif.got.tgz:50239.got - 2010.06.03 11:33:40.
