data_PCOD9004835
_publ_section_title
;
Structure prediction by ZEFSAII (Michael W. Deem and Ramdas Pophale) SiO2 
 PCOD9004835
Probable space group: P -1
;
_chemical_formula_sum "Si O2"
_cell_formula_units_Z 16
_cell_length_a 17.952733
_cell_length_b 8.021386
_cell_length_c 8.313691
_cell_angle_alpha 50.023937
_cell_angle_beta 105.396419
_cell_angle_gamma 131.783795
_cell_volume 655.826437
_symmetry_space_group_name_H-M "P -1"
_symmetry_group_IT_number 2
_symmetry_cell_setting 'triclinic'
loop_
_space_group_symop_operation_xyz
x,y,z
-x,-y,-z
loop_
_atom_site_type_symbol
_atom_site_label
_atom_site_fract_x
_atom_site_fract_y
_atom_site_fract_z
Si Si1 0.207166 0.452256 0.723487
Si Si2 0.404997 0.546222 0.772823
Si Si3 0.375275 0.022270 0.973551
Si Si4 0.107506 0.471516 0.362249
Si Si5 0.115428 0.030705 0.515186
Si Si6 0.199907 0.762166 0.787585
Si Si7 0.506851 0.082988 0.719523
Si Si8 0.954055 0.188305 0.019616
O O1 0.291876 0.433531 0.738057
O O2 0.180222 0.570970 0.494022
O O3 0.247969 0.670905 0.757362
O O4 0.101487 0.119759 0.905871
O O5 0.400736 0.279064 0.938823
O O6 0.475201 0.742183 0.537625
O O7 0.443377 0.750777 0.824733
O O8 0.454197 0.120536 0.809114
O O9 0.267483 0.879481 0.913624
O O10 0.387174 0.826210 0.206934
O O11 0.101022 0.699221 0.148605
O O12 0.985995 0.196856 0.511714
O O13 0.136913 0.326569 0.350528
O O14 0.200493 0.004699 0.558112
O O15 0.075687 0.902545 0.754134
O O16 0.077495 0.463409 0.910299
#
# Coordination Sequence:
#
# PCOD9004835 Si02
#       8
#     2   2   2   2   2   2   2   2
#     4  11  23  38  58  90 129 168 208 258 313 376
#     4  11  23  43  67  96 131 163 205 268 325 373
#     4  11  22  43  71  96 125 165 215 259 320 388
#     4   9  18  35  55  79 114 155 210 245 305 365
#     4   9  19  34  56  81 114 160 206 261 301 360
#     4  11  21  38  60  89 129 165 212 261 309 374
#     4  10  24  44  69  96 124 164 209 267 326 382
#     4  10  21  38  59  85 124 171 207 260 309 364
#
# _framework density 24.396698000000001
#
# number of rings (size 3 to 8) (size 9 to 14) (size 15 to 20)
#    0.000    1.750    1.250    4.125    0.000    5.000 
#    0.000    6.250    0.000    0.000    0.000    0.000 
#    0.000    0.000    0.000    0.000    0.000    0.000 
#
# Total GULP energy -89413.258153 kJ/mol
# GULP energy per Si atom -5588.328635 kJ/mol
# Density = 2.434117 g / cm^3
# Si number density = 24.396698 Si / 1000 Ang^3
#
#
#
# Elastic Constant Matrix: (Units=GPa)
#
#
# Indices 1 2 3 4 5 6 
#
# 1 124.3841 19.5537 28.5147 -6.0879 26.7496 0.2622
# 2 19.5537 72.5728 -8.1920 4.7848 12.4553 -0.3070
# 3 28.5147 -8.1920 49.4827 -8.3530 30.0018 1.2300
# 4 -6.0879 4.7848 -8.3530 21.4104 1.7521 9.1836
# 5 26.7496 12.4553 30.0018 1.7521 38.3839 6.9119
# 6 0.2622 -0.3070 1.2300 9.1836 6.9119 44.4071
#
#
#
# Elastic Compliance Matrix: (Units=1/GPa)
#
#
# Indices 1 2 3 4 5 6 
#
# 1 0.010194 -0.002822 -0.004108 0.002149 -0.003089 0.000070
# 2 -0.002822 0.018849 0.014536 0.001104 -0.015921 0.001994
# 3 -0.004108 0.014536 0.057888 0.021432 -0.048370 0.001618
# 4 0.002149 0.001104 0.021432 0.061433 -0.019565 -0.010258
# 5 -0.003089 -0.015921 -0.048370 -0.019565 0.073169 -0.006095
# 6 0.000070 0.001994 0.001618 -0.010258 -0.006095 0.025558
#
#
# Mechanical properties :
#
#
# Convention : Reuss Voigt Hill
#
# Bulk Modulus (GPa) = 9.79008 36.24362 23.01685
# Shear Modulus (GPa) = 18.80231 34.61116 26.70673
#
# Velocity S-wave (km/s) = 2.77914 3.77063 3.31219
# Velocity P-wave (km/s) = 3.78415 5.81765 4.90738
#
# Compressibility (1/GPa) = 0.10214425
#
# Stress axis : x y z
#
# Youngs Moduli (GPa) = 98.09519 53.05455 17.27482
#
# Poissons Ratio (x) = 0.14970 0.07096
# Poissons Ratio (y) = 0.27679 -0.25112
# Poissons Ratio (z) = 0.40296 -0.77123
#
# Static dielectric constant tensor:
#      x y z
#    x 1.969530 -0.000230 -0.036380 
#    y -0.000230 1.989960 -0.014090 
#    z -0.036380 -0.014090 1.942090 
# 
# From -- ./inp_files/328471.got.cif
#   From: 2010.05.17/outbox.cif.g08.bks.cpg/sg2_165_cif.got.tgz:328471.got - 2010.06.03 11:33:40.
