data_PCOD9004913
_publ_section_title
;
Structure prediction by ZEFSAII (Michael W. Deem and Ramdas Pophale) SiO2 
 PCOD9004913
Probable space group: P -1
;
_chemical_formula_sum "Si O2"
_cell_formula_units_Z 16
_cell_length_a 13.610532
_cell_length_b 25.741712
_cell_length_c 17.195908
_cell_angle_alpha 21.331546
_cell_angle_beta 21.767610
_cell_angle_gamma 23.231964
_cell_volume 745.186043
_symmetry_space_group_name_H-M "P -1"
_symmetry_group_IT_number 2
_symmetry_cell_setting 'triclinic'
loop_
_space_group_symop_operation_xyz
x,y,z
-x,-y,-z
loop_
_atom_site_type_symbol
_atom_site_label
_atom_site_fract_x
_atom_site_fract_y
_atom_site_fract_z
Si Si1 0.966450 0.768890 0.849401
Si Si2 0.152758 0.420310 0.235593
Si Si3 0.790740 0.352483 0.863773
Si Si4 0.795578 0.590526 0.406636
Si Si5 0.802518 0.920679 0.164208
Si Si6 0.818321 0.894439 0.376969
Si Si7 0.407480 0.875853 0.196595
Si Si8 0.151529 0.964380 0.556107
O O1 0.107196 0.820299 0.748776
O O2 0.987908 0.884338 0.607717
O O3 0.622445 0.823265 0.039680
O O4 0.088425 0.583208 0.011526
O O5 0.102712 0.286966 0.410118
O O6 0.961496 0.469786 0.385161
O O7 0.489939 0.344195 0.117121
O O8 0.714579 0.513356 0.648080
O O9 0.980082 0.346112 0.808782
O O10 0.977979 0.225702 0.840845
O O11 0.529392 0.723165 0.374910
O O12 0.808479 0.905612 0.274384
O O13 0.480958 0.936662 0.359540
O O14 0.923165 0.051158 0.870307
O O15 0.500000 0.000000 0.500000
O O16 0.065957 0.968721 0.304439
O O17 0.500000 0.000000 0.000000
#
# Coordination Sequence:
#
# PCOD9004913 Si02
#       8
#     2   2   2   2   2   2   2   2
#     4   9  21  36  62  90 125 159 190 239 308 364
#     4  11  21  39  61  88 121 162 199 249 299 359
#     4  11  22  34  59  91 124 154 190 250 313 362
#     4  10  22  35  56  93 128 151 191 244 309 372
#     4  11  25  40  63  89 118 163 208 246 301 358
#     4  11  24  46  61  83 119 165 211 257 294 345
#     4   9  19  35  53  82 123 164 187 227 287 367
#     4  10  21  38  59  90 127 156 194 243 297 371
#
# _framework density 21.471149
#
# number of rings (size 3 to 8) (size 9 to 14) (size 15 to 20)
#    0.000    1.750    2.500    1.125    8.750    4.000 
#    0.000    0.625    0.000    3.750    0.000    0.000 
#    0.000    0.000    0.000    0.000    0.000    0.000 
#
# Total GULP energy -89229.917508 kJ/mol
# GULP energy per Si atom -5576.869844 kJ/mol
# Density = 2.142228 g / cm^3
# Si number density = 21.471149 Si / 1000 Ang^3
#
#
#
# Elastic Constant Matrix: (Units=GPa)
#
#
# Indices 1 2 3 4 5 6 
#
# 1 21.8433 7.2704 5.5903 -8.7576 6.8995 3.0875
# 2 7.2704 138.4191 46.4849 6.1795 -12.9404 8.7084
# 3 5.5903 46.4849 97.2697 -15.7609 -13.5002 -6.8578
# 4 -8.7576 6.1795 -15.7609 41.3657 -1.8242 -14.1085
# 5 6.8995 -12.9404 -13.5002 -1.8242 30.0859 6.5266
# 6 3.0875 8.7084 -6.8578 -14.1085 6.5266 14.8134
#
#
#
# Elastic Compliance Matrix: (Units=1/GPa)
#
#
# Indices 1 2 3 4 5 6 
#
# 1 0.059749 -0.008724 0.003416 0.022823 -0.019910 0.024765
# 2 -0.008724 0.015896 -0.011702 -0.021041 0.010466 -0.037595
# 3 0.003416 -0.011702 0.022208 0.025037 -0.003399 0.041792
# 4 0.022823 -0.021041 0.025037 0.074595 -0.020017 0.099068
# 5 -0.019910 0.010466 -0.003399 -0.020017 0.049178 -0.044309
# 6 0.024765 -0.037595 0.041792 0.099068 -0.044309 0.217668
#
#
# Mechanical properties :
#
#
# Convention : Reuss Voigt Hill
#
# Bulk Modulus (GPa) = 15.66603 41.80257 28.73430
# Shear Modulus (GPa) = 10.10934 30.46545 20.28739
#
# Velocity S-wave (km/s) = 2.17222 3.77092 3.07720
# Velocity P-wave (km/s) = 3.68830 6.20252 5.10268
#
# Compressibility (1/GPa) = 0.06383239
#
# Stress axis : x y z
#
# Youngs Moduli (GPa) = 16.73677 62.91035 45.02794
#
# Poissons Ratio (x) = 0.54881 -0.15381
# Poissons Ratio (y) = 0.14601 0.52694
# Poissons Ratio (z) = -0.05717 0.73620
#
# Static dielectric constant tensor:
#      x y z
#    x 1.800270 -0.015560 0.023160 
#    y -0.015560 1.793620 0.011040 
#    z 0.023160 0.011040 1.917680 
# 
# From -- ./inp_files/574498.got.cif
#   From: 2010.05.17/outbox.cif.g08.bks.cpg/sg2_288_cif.got.tgz:574498.got - 2010.06.03 11:33:40.
