data_PCOD9004044
_publ_section_title
;
Structure prediction by ZEFSAII (Michael W. Deem and Ramdas Pophale) SiO2 
 PCOD9004044
Probable space group: P -1
;
_chemical_formula_sum "Si O2"
_cell_formula_units_Z 16
_cell_length_a 27.612183
_cell_length_b 5.043944
_cell_length_c 9.941250
_cell_angle_alpha 85.181657
_cell_angle_beta 145.485027
_cell_angle_gamma 108.623700
_cell_volume 700.846100
_symmetry_space_group_name_H-M "P -1"
_symmetry_group_IT_number 2
_symmetry_cell_setting 'triclinic'
loop_
_space_group_symop_operation_xyz
x,y,z
-x,-y,-z
loop_
_atom_site_type_symbol
_atom_site_label
_atom_site_fract_x
_atom_site_fract_y
_atom_site_fract_z
Si Si1 0.475550 0.591405 0.583142
Si Si2 0.808446 0.785370 0.153898
Si Si3 0.639340 0.982844 0.138197
Si Si4 0.618078 0.077001 0.518135
Si Si5 0.194587 0.446971 0.134222
Si Si6 0.014833 0.684955 0.388186
Si Si7 0.795992 0.233239 0.287146
Si Si8 0.643599 0.467082 0.316870
O O1 0.500000 0.500000 0.500000
O O2 0.591783 0.239037 0.574292
O O3 0.427987 0.274171 0.564514
O O4 0.569740 0.824130 0.863028
O O5 0.800076 0.724995 0.980086
O O6 0.771692 0.491901 0.170758
O O7 0.921406 0.974593 0.436284
O O8 0.763163 0.986773 0.104163
O O9 0.618632 0.733999 0.215177
O O10 0.745223 0.093777 0.315025
O O11 0.632683 0.269209 0.169318
O O12 0.588156 0.228536 0.317201
O O13 0.731269 0.214309 0.746464
O O14 0.086742 0.389651 0.903728
O O15 0.247417 0.388899 0.384093
O O16 0.089444 0.642659 0.461327
O O17 0.000000 0.500000 0.500000
#
# Coordination Sequence:
#
# PCOD9004044 Si02
#       8
#     2   2   2   2   2   2   2   2
#     4  12  27  44  70 103 130 164 213 268 343 384
#     4  10  21  37  63  97 126 166 205 274 327 375
#     4  12  25  46  65  92 134 175 216 270 312 397
#     4  10  26  44  67 101 129 171 217 266 323 381
#     4  10  22  41  67  95 137 161 224 271 310 388
#     4  10  21  38  66 104 127 171 214 268 334 384
#     4  10  24  37  65  95 133 165 218 260 345 366
#     4  10  26  43  69  92 128 182 223 252 324 371
#
# _framework density 22.829547000000002
#
# number of rings (size 3 to 8) (size 9 to 14) (size 15 to 20)
#    1.500    0.000    1.250    3.000    3.500    6.000 
#    0.000    1.250    0.000    0.000    0.000    0.000 
#    0.000    0.000    0.000    0.000    0.000    0.000 
#
# Total GULP energy -89334.328604 kJ/mol
# GULP energy per Si atom -5583.395538 kJ/mol
# Density = 2.277759 g / cm^3
# Si number density = 22.829547 Si / 1000 Ang^3
#
#
#
# Elastic Constant Matrix: (Units=GPa)
#
#
# Indices 1 2 3 4 5 6 
#
# 1 65.2670 7.5865 7.8748 17.8966 0.0602 9.6618
# 2 7.5865 113.7586 8.4426 9.4202 -1.1787 -7.7430
# 3 7.8748 8.4426 106.3598 8.4731 9.1207 0.8575
# 4 17.8966 9.4202 8.4731 22.0416 -0.2540 -0.4017
# 5 0.0602 -1.1787 9.1207 -0.2540 30.9052 4.1343
# 6 9.6618 -7.7430 0.8575 -0.4017 4.1343 28.5893
#
#
#
# Elastic Compliance Matrix: (Units=1/GPa)
#
#
# Indices 1 2 3 4 5 6 
#
# 1 0.021218 -0.000500 -0.000185 -0.017072 0.000880 -0.007668
# 2 -0.000500 0.009317 -0.000467 -0.003347 0.000113 0.002643
# 3 -0.000185 -0.000467 0.009990 -0.003525 -0.002998 0.000020
# 4 -0.017072 -0.003347 -0.003525 0.062129 0.000688 0.005743
# 5 0.000880 0.000113 -0.002998 0.000688 0.033929 -0.005074
# 6 -0.007668 0.002643 0.000020 0.005743 -0.005074 0.039099
#
#
# Mechanical properties :
#
#
# Convention : Reuss Voigt Hill
#
# Bulk Modulus (GPa) = 26.16361 37.02149 31.59255
# Shear Modulus (GPa) = 26.21567 33.73933 29.97750
#
# Velocity S-wave (km/s) = 3.39237 3.84849 3.62760
# Velocity P-wave (km/s) = 5.17972 5.99996 5.60486
#
# Compressibility (1/GPa) = 0.03822102
#
# Stress axis : x y z
#
# Youngs Moduli (GPa) = 47.13032 107.33350 100.09514
#
# Poissons Ratio (x) = 0.05370 0.01849
# Poissons Ratio (y) = 0.02358 0.04673
# Poissons Ratio (z) = 0.00871 0.05011
#
# Static dielectric constant tensor:
#      x y z
#    x 1.887070 0.013360 0.024580 
#    y 0.013360 1.840690 -0.010240 
#    z 0.024580 -0.010240 1.895210 
# 
# From -- ./inp_files/358218.got.cif
#   From: 2010.05.17/outbox.cif.g08.bks.cpg/sg2_180_cif.got.tgz:358218.got - 2010.06.03 11:33:40.
