data_PCOD9004200
_publ_section_title
;
Structure prediction by ZEFSAII (Michael W. Deem and Ramdas Pophale) SiO2 
 PCOD9004200
Probable space group: P -1
;
_chemical_formula_sum "Si O2"
_cell_formula_units_Z 14
_cell_length_a 8.985659
_cell_length_b 15.389540
_cell_length_c 8.299760
_cell_angle_alpha 143.139238
_cell_angle_beta 108.122688
_cell_angle_gamma 73.205080
_cell_volume 652.720832
_symmetry_space_group_name_H-M "P -1"
_symmetry_group_IT_number 2
_symmetry_cell_setting 'triclinic'
loop_
_space_group_symop_operation_xyz
x,y,z
-x,-y,-z
loop_
_atom_site_type_symbol
_atom_site_label
_atom_site_fract_x
_atom_site_fract_y
_atom_site_fract_z
Si Si1 0.314211 0.366364 0.633554
Si Si2 0.517926 0.872994 0.183899
Si Si3 0.219605 0.944073 0.981049
Si Si4 0.057464 0.830967 0.266174
Si Si5 0.214214 0.179682 0.045840
Si Si6 0.957661 0.788849 0.522538
Si Si7 0.602600 0.303553 0.853120
O O1 0.290509 0.304644 0.356805
O O2 0.160517 0.323403 0.615955
O O3 0.469591 0.286973 0.649077
O O4 0.339798 0.535376 0.897573
O O5 0.390663 0.902212 0.043643
O O6 0.478813 0.729766 0.055255
O O7 0.500000 0.000000 0.500000
O O8 0.686232 0.857748 0.135446
O O9 0.219506 0.041636 0.963483
O O10 0.134592 0.052408 0.245168
O O11 0.115667 0.809535 0.708868
O O12 0.242909 0.803325 0.271561
O O13 0.004306 0.764289 0.317820
O O14 0.000000 0.000000 0.500000
O O15 0.962046 0.772227 0.996599
#
# Coordination Sequence:
#
# PCOD9004200 Si02
#       7
#     2   2   2   2   2   2   2
#     4  10  25  48  65  91 128 184 223 259 321 394
#     4  12  24  39  65  98 130 173 215 275 333 378
#     4  10  21  37  64  97 130 167 216 268 318 389
#     4  12  23  39  67 102 132 164 210 278 329 381
#     4  11  23  40  67  94 131 170 219 268 325 391
#     4  10  21  39  64  90 133 169 212 265 324 381
#     4  11  26  45  67  93 134 171 222 272 319 389
#
# _framework density 21.44868
#
# number of rings (size 3 to 8) (size 9 to 14) (size 15 to 20)
#    0.000    1.143    1.429    5.571    6.000    1.714 
#    0.000    0.000    0.000    0.000    0.000    0.000 
#    0.000    0.000    0.000    0.000    0.000    0.000 
#
# Total GULP energy -78315.713077 kJ/mol
# GULP energy per Si atom -5593.979505 kJ/mol
# Density = 2.139986 g / cm^3
# Si number density = 21.448680 Si / 1000 Ang^3
#
#
#
# Elastic Constant Matrix: (Units=GPa)
#
#
# Indices 1 2 3 4 5 6 
#
# 1 95.9049 29.6930 20.8562 -1.5691 12.4465 8.7314
# 2 29.6930 67.3800 25.8970 -8.8715 9.0478 8.0547
# 3 20.8562 25.8970 83.7586 -6.7612 27.8595 8.6880
# 4 -1.5691 -8.8715 -6.7612 28.1599 5.5270 2.0273
# 5 12.4465 9.0478 27.8595 5.5270 34.2564 -2.9588
# 6 8.7314 8.0547 8.6880 2.0273 -2.9588 40.6245
#
#
#
# Elastic Compliance Matrix: (Units=1/GPa)
#
#
# Indices 1 2 3 4 5 6 
#
# 1 0.012563 -0.004745 -0.000457 -0.000166 -0.003075 -0.001877
# 2 -0.004745 0.019565 -0.003638 0.005516 -0.001589 -0.002472
# 3 -0.000457 -0.003638 0.019776 0.007182 -0.016545 -0.004973
# 4 -0.000166 0.005516 0.007182 0.042235 -0.014550 -0.005761
# 5 -0.003075 -0.001589 -0.016545 -0.014550 0.047281 0.008684
# 6 -0.001877 -0.002472 -0.004973 -0.005761 0.008684 0.027493
#
#
# Mechanical properties :
#
#
# Convention : Reuss Voigt Hill
#
# Bulk Modulus (GPa) = 29.21828 44.43732 36.82780
# Shear Modulus (GPa) = 25.25234 31.98132 28.61683
#
# Velocity S-wave (km/s) = 3.43496 3.86562 3.65663
# Velocity P-wave (km/s) = 5.42069 6.37863 5.91907
#
# Compressibility (1/GPa) = 0.03422514
#
# Stress axis : x y z
#
# Youngs Moduli (GPa) = 79.60056 51.11044 50.56552
#
# Poissons Ratio (x) = 0.24252 0.02311
# Poissons Ratio (y) = 0.37771 0.18394
# Poissons Ratio (z) = 0.03637 0.18592
#
# Static dielectric constant tensor:
#      x y z
#    x 1.783050 0.002370 0.021080 
#    y 0.002370 1.781540 -0.004720 
#    z 0.021080 -0.004720 1.802570 
# 
# From -- ./inp_files/175447.got.cif
#   From: 2010.05.17/outbox.cif.g08.bks.cpg/sg2_88_cif.got.tgz:175447.got - 2010.06.03 11:33:40.
