data_PCOD9004971
_publ_section_title
;
Structure prediction by ZEFSAII (Michael W. Deem and Ramdas Pophale) SiO2 
 PCOD9004971
Probable space group: P -1
;
_chemical_formula_sum "Si O2"
_cell_formula_units_Z 16
_cell_length_a 8.273093
_cell_length_b 17.398095
_cell_length_c 6.720962
_cell_angle_alpha 91.081742
_cell_angle_beta 90.150358
_cell_angle_gamma 48.949227
_cell_volume 729.343574
_symmetry_space_group_name_H-M "P -1"
_symmetry_group_IT_number 2
_symmetry_cell_setting 'triclinic'
loop_
_space_group_symop_operation_xyz
x,y,z
-x,-y,-z
loop_
_atom_site_type_symbol
_atom_site_label
_atom_site_fract_x
_atom_site_fract_y
_atom_site_fract_z
Si Si1 0.048337 0.074319 0.029189
Si Si2 0.508613 0.117191 0.887910
Si Si3 0.808106 0.252064 0.354058
Si Si4 0.948090 0.795727 0.266887
Si Si5 0.176497 0.622855 0.936991
Si Si6 0.744822 0.570632 0.024993
Si Si7 0.708754 0.722626 0.773682
Si Si8 0.470785 0.268580 0.622904
O O1 0.900277 0.160539 0.197175
O O2 0.295228 0.001872 0.098495
O O3 0.021139 0.130416 0.829418
O O4 0.000000 0.000000 0.000000
O O5 0.293039 0.152768 0.788458
O O6 0.572185 0.171566 0.758615
O O7 0.443804 0.169736 0.107713
O O8 0.729299 0.347336 0.222028
O O9 0.639023 0.266251 0.501446
O O10 0.995797 0.221275 0.502703
O O11 0.108420 0.688989 0.140529
O O12 0.301817 0.505248 0.976448
O O13 0.948210 0.668685 0.840332
O O14 0.667550 0.633291 0.231690
O O15 0.654197 0.654810 0.858308
O O16 0.000000 0.500000 0.000000
O O17 0.675487 0.728044 0.540615
#
# Coordination Sequence:
#
# PCOD9004971 Si02
#       8
#     2   2   2   2   2   2   2   2
#     4  11  23  39  60  85 116 151 189 236 288 340
#     4  10  21  38  60  85 114 153 195 235 279 331
#     4  11  24  38  56  86 118 151 188 232 290 343
#     4  10  22  40  59  82 115 150 192 239 280 334
#     4   9  20  38  58  82 114 149 187 236 286 333
#     4   9  20  37  59  87 113 148 194 235 281 335
#     4   9  19  37  60  85 113 148 192 237 279 330
#     4  11  22  36  58  87 117 150 190 234 284 340
#
# _framework density 21.937535
#
# number of rings (size 3 to 8) (size 9 to 14) (size 15 to 20)
#    0.000    2.000    0.000    3.375    0.000   10.000 
#    0.000    1.250    0.000    0.000    0.000    0.000 
#    0.000    0.000    0.000    0.000    0.000    0.000 
#
# Total GULP energy -89473.698655 kJ/mol
# GULP energy per Si atom -5592.106166 kJ/mol
# Density = 2.188760 g / cm^3
# Si number density = 21.937535 Si / 1000 Ang^3
#
#
#
# Elastic Constant Matrix: (Units=GPa)
#
#
# Indices 1 2 3 4 5 6 
#
# 1 78.9833 19.1127 19.7773 0.2905 -7.9674 17.1282
# 2 19.1127 90.4371 50.0405 0.3104 -4.5091 16.5305
# 3 19.7773 50.0405 81.8694 -7.4706 -5.3329 8.3828
# 4 0.2905 0.3104 -7.4706 11.2771 -3.2210 -2.1505
# 5 -7.9674 -4.5091 -5.3329 -3.2210 37.2992 -0.9462
# 6 17.1282 16.5305 8.3828 -2.1505 -0.9462 37.9535
#
#
#
# Elastic Compliance Matrix: (Units=1/GPa)
#
#
# Indices 1 2 3 4 5 6 
#
# 1 0.015040 -0.000325 -0.002911 -0.002797 0.002361 -0.006103
# 2 -0.000325 0.018642 -0.011597 -0.009449 -0.000441 -0.005958
# 3 -0.002911 -0.011597 0.021334 0.015724 0.002450 0.002605
# 4 -0.002797 -0.009449 0.015724 0.103715 0.009668 0.008023
# 5 0.002361 -0.000441 0.002450 0.009668 0.028442 -0.000158
# 6 -0.006103 -0.005958 0.002605 0.008023 -0.000158 0.031572
#
#
# Mechanical properties :
#
#
# Convention : Reuss Voigt Hill
#
# Bulk Modulus (GPa) = 39.44753 47.68342 43.56548
# Shear Modulus (GPa) = 19.46560 28.12991 23.79775
#
# Velocity S-wave (km/s) = 2.98202 3.58477 3.29720
# Velocity P-wave (km/s) = 5.46602 6.23837 5.86492
#
# Compressibility (1/GPa) = 0.02535013
#
# Stress axis : x y z
#
# Youngs Moduli (GPa) = 66.48773 53.64092 46.87353
#
# Poissons Ratio (x) = 0.01743 0.13646
# Poissons Ratio (y) = 0.02161 0.54360
# Poissons Ratio (z) = 0.19356 0.62208
#
# Static dielectric constant tensor:
#      x y z
#    x 1.904920 -0.003560 0.011440 
#    y -0.003560 1.770930 -0.026870 
#    z 0.011440 -0.026870 1.745160 
# 
# From -- ./inp_files/37227.got.cif
#   From: 2010.05.17/outbox.cif.g08.bks.cpg/sg2_19_cif.got.tgz:37227.got - 2010.06.03 11:33:40.
