data_PCOD9004703
_publ_section_title
;
Structure prediction by ZEFSAII (Michael W. Deem and Ramdas Pophale) SiO2 
 PCOD9004703
Probable space group: P -1
;
_chemical_formula_sum "Si O2"
_cell_formula_units_Z 14
_cell_length_a 14.439232
_cell_length_b 14.862344
_cell_length_c 11.601753
_cell_angle_alpha 91.753331
_cell_angle_beta 98.108544
_cell_angle_gamma 159.608193
_cell_volume 757.176633
_symmetry_space_group_name_H-M "P -1"
_symmetry_group_IT_number 2
_symmetry_cell_setting 'triclinic'
loop_
_space_group_symop_operation_xyz
x,y,z
-x,-y,-z
loop_
_atom_site_type_symbol
_atom_site_label
_atom_site_fract_x
_atom_site_fract_y
_atom_site_fract_z
Si Si1 0.302322 0.840380 0.845230
Si Si2 0.780872 0.034766 0.512519
Si Si3 0.825502 0.928240 0.925320
Si Si4 0.147941 0.500649 0.733911
Si Si5 0.351042 0.690999 0.213478
Si Si6 0.463336 0.650044 0.646486
Si Si7 0.702354 0.481073 0.023238
O O1 0.197396 0.650902 0.761749
O O2 0.996614 0.612059 0.820940
O O3 0.504070 0.084985 0.804291
O O4 0.500000 0.000000 0.000000
O O5 0.114878 0.307577 0.542358
O O6 0.855910 0.196903 0.600529
O O7 0.551422 0.842410 0.362071
O O8 0.651504 0.846639 0.575209
O O9 0.624332 0.730054 0.766363
O O10 0.597837 0.754635 0.977507
O O11 0.000000 0.000000 0.000000
O O12 0.065415 0.225466 0.947055
O O13 0.418940 0.701058 0.716750
O O14 0.157501 0.461970 0.858827
O O15 0.363876 0.630904 0.110576
#
# Coordination Sequence:
#
# PCOD9004703 Si02
#       7
#     2   2   2   2   2   2   2
#     4  12  25  37  58  86 122 156 209 251 284 328
#     4  10  21  38  58  81 117 165 196 231 291 353
#     4  11  21  38  68  97 111 142 197 248 288 354
#     4   9  22  36  62  77 118 159 202 236 290 329
#     4  12  26  38  58  88 119 163 197 242 293 342
#     4   9  19  37  59  82 114 154 189 242 294 342
#     4  11  22  39  62  87 121 153 190 239 300 354
#
# _framework density 18.489742
#
# number of rings (size 3 to 8) (size 9 to 14) (size 15 to 20)
#    0.857    0.571    2.857    2.571    4.000    1.143 
#    0.000    0.000    0.000    5.143    0.000    0.000 
#    0.000    0.000    0.000    0.000    0.000    0.000 
#
# Total GULP energy -78112.712659 kJ/mol
# GULP energy per Si atom -5579.479476 kJ/mol
# Density = 1.844766 g / cm^3
# Si number density = 18.489742 Si / 1000 Ang^3
#
#
#
# Elastic Constant Matrix: (Units=GPa)
#
#
# Indices 1 2 3 4 5 6 
#
# 1 27.2118 -9.9131 7.2126 4.6821 11.0190 -0.4260
# 2 -9.9131 54.4121 -26.9644 6.7375 0.6771 0.1134
# 3 7.2126 -26.9644 96.2514 6.6202 10.9518 -1.4231
# 4 4.6821 6.7375 6.6202 18.8636 3.9109 3.8923
# 5 11.0190 0.6771 10.9518 3.9109 22.0117 -0.8711
# 6 -0.4260 0.1134 -1.4231 3.8923 -0.8711 18.6063
#
#
#
# Elastic Compliance Matrix: (Units=1/GPa)
#
#
# Indices 1 2 3 4 5 6 
#
# 1 0.054308 0.014069 0.004006 -0.015046 -0.026807 0.003356
# 2 0.014069 0.027248 0.008739 -0.015069 -0.009412 0.003536
# 3 0.004006 0.008739 0.013998 -0.007920 -0.007737 0.002404
# 4 -0.015046 -0.015069 -0.007920 0.068199 -0.000781 -0.015162
# 5 -0.026807 -0.009412 -0.007737 -0.000781 0.063206 0.001974
# 6 0.003356 0.003536 0.002404 -0.015162 0.001974 0.057249
#
#
# Mechanical properties :
#
#
# Convention : Reuss Voigt Hill
#
# Bulk Modulus (GPa) = 6.70318 13.17172 9.93745
# Shear Modulus (GPa) = 17.83765 25.73233 21.78499
#
# Velocity S-wave (km/s) = 3.10938 3.73461 3.43625
# Velocity P-wave (km/s) = 4.06500 5.07303 4.59673
#
# Compressibility (1/GPa) = 0.14918293
#
# Stress axis : x y z
#
# Youngs Moduli (GPa) = 18.41335 36.70035 71.43904
#
# Poissons Ratio (x) = -0.51635 -0.28622
# Poissons Ratio (y) = -0.25906 -0.62428
# Poissons Ratio (z) = -0.07377 -0.32071
#
# Static dielectric constant tensor:
#      x y z
#    x 1.616580 0.006240 0.003610 
#    y 0.006240 1.638070 0.014480 
#    z 0.003610 0.014480 1.633650 
# 
# From -- ./inp_files/128270.got.cif
#   From: 2010.05.17/outbox.cif.g08.bks.cpg/sg2_65_cif.got.tgz:128270.got - 2010.06.03 11:33:40.
