data_PCOD9004704
_publ_section_title
;
Structure prediction by ZEFSAII (Michael W. Deem and Ramdas Pophale) SiO2 
 PCOD9004704
Probable space group: P -1
;
_chemical_formula_sum "Si O2"
_cell_formula_units_Z 16
_cell_length_a 13.130532
_cell_length_b 7.326500
_cell_length_c 18.553949
_cell_angle_alpha 99.315479
_cell_angle_beta 140.254998
_cell_angle_gamma 52.315231
_cell_volume 716.317682
_symmetry_space_group_name_H-M "P -1"
_symmetry_group_IT_number 2
_symmetry_cell_setting 'triclinic'
loop_
_space_group_symop_operation_xyz
x,y,z
-x,-y,-z
loop_
_atom_site_type_symbol
_atom_site_label
_atom_site_fract_x
_atom_site_fract_y
_atom_site_fract_z
Si Si1 0.188471 0.672392 0.554311
Si Si2 0.963089 0.086773 0.098494
Si Si3 0.650817 0.452731 0.819212
Si Si4 0.521114 0.220110 0.916339
Si Si5 0.295710 0.078094 0.712821
Si Si6 0.735969 0.263723 0.562369
Si Si7 0.837993 0.841674 0.197009
Si Si8 0.006467 0.712790 0.731754
O O1 0.447934 0.469637 0.724477
O O2 0.270259 0.648286 0.515585
O O3 0.998934 0.668621 0.452913
O O4 0.000000 0.000000 0.500000
O O5 0.856853 0.287806 0.983381
O O6 0.727873 0.175214 0.999802
O O7 0.040636 0.157378 0.207566
O O8 0.189230 0.751074 0.175908
O O9 0.478178 0.789806 0.744997
O O10 0.412060 0.174303 0.795703
O O11 0.278694 0.531301 0.839495
O O12 0.651839 0.991476 0.038489
O O13 0.292472 0.991780 0.786943
O O14 0.500000 0.500000 0.500000
O O15 0.963568 0.177831 0.714674
O O16 0.811297 0.980406 0.587997
O O17 0.976397 0.523078 0.267678
#
# Coordination Sequence:
#
# PCOD9004704 Si02
#       8
#     2   2   2   2   2   2   2   2
#     4   9  20  37  62  79 116 169 201 244 301 366
#     4  11  22  34  60  92 117 162 200 253 311 370
#     4  10  21  38  58  81 123 163 206 244 309 363
#     4  11  21  35  62  93 123 153 205 259 311 360
#     4   9  19  37  58  83 113 158 200 246 297 360
#     4  11  23  39  64  93 125 165 208 252 313 373
#     4  10  21  38  62  94 124 156 197 262 315 359
#     4  11  22  38  64  94 123 153 205 262 309 365
#
# _framework density 22.336456999999999
#
# number of rings (size 3 to 8) (size 9 to 14) (size 15 to 20)
#    0.000    1.750    1.250    4.125    5.250    1.000 
#    0.000    1.875    8.250    0.000    0.000    0.000 
#    0.000    0.000    0.000    0.000    0.000    0.000 
#
# Total GULP energy -89307.735108 kJ/mol
# GULP energy per Si atom -5581.733444 kJ/mol
# Density = 2.228562 g / cm^3
# Si number density = 22.336457 Si / 1000 Ang^3
#
#
#
# Elastic Constant Matrix: (Units=GPa)
#
#
# Indices 1 2 3 4 5 6 
#
# 1 46.8322 25.9844 -3.1925 -14.2095 1.1159 -0.9612
# 2 25.9844 113.1143 13.7932 -11.9624 6.4942 -18.3318
# 3 -3.1925 13.7932 53.6179 5.0360 -3.5681 -0.3083
# 4 -14.2095 -11.9624 5.0360 38.4535 -1.7837 3.2819
# 5 1.1159 6.4942 -3.5681 -1.7837 19.4437 -6.3132
# 6 -0.9612 -18.3318 -0.3083 3.2819 -6.3132 29.1985
#
#
#
# Elastic Compliance Matrix: (Units=1/GPa)
#
#
# Indices 1 2 3 4 5 6 
#
# 1 0.027476 -0.006418 0.002530 0.008183 0.000513 -0.003907
# 2 -0.006418 0.012110 -0.003708 0.001208 -0.002047 0.006774
# 3 0.002530 -0.003708 0.020282 -0.002606 0.004315 -0.000805
# 4 0.008183 0.001208 -0.002606 0.029967 0.000676 -0.002222
# 5 0.000513 -0.002047 0.004315 0.000676 0.056482 0.010914
# 6 -0.003907 0.006774 -0.000805 -0.002222 0.010914 0.040974
#
#
# Mechanical properties :
#
#
# Convention : Reuss Voigt Hill
#
# Bulk Modulus (GPa) = 22.38265 31.85939 27.12102
# Shear Modulus (GPa) = 23.00161 29.21778 26.10969
#
# Velocity S-wave (km/s) = 3.21250 3.62066 3.42267
# Velocity P-wave (km/s) = 4.87879 5.63678 5.27143
#
# Compressibility (1/GPa) = 0.04467746
#
# Stress axis : x y z
#
# Youngs Moduli (GPa) = 36.39497 82.57486 49.30387
#
# Poissons Ratio (x) = 0.52993 -0.12474
# Poissons Ratio (y) = 0.23357 0.18283
# Poissons Ratio (z) = -0.09208 0.30621
#
# Static dielectric constant tensor:
#      x y z
#    x 1.844310 -0.004440 -0.043100 
#    y -0.004440 1.808380 0.036790 
#    z -0.043100 0.036790 1.892320 
# 
# From -- ./inp_files/597210.got.cif
#   From: 2010.05.17/outbox.cif.g08.bks.cpg/sg2_299_cif.got.tgz:597210.got - 2010.06.03 11:33:40.
