data_PCOD9004198
_publ_section_title
;
Structure prediction by ZEFSAII (Michael W. Deem and Ramdas Pophale) SiO2 
 PCOD9004198
Probable space group: P -1
;
_chemical_formula_sum "Si O2"
_cell_formula_units_Z 16
_cell_length_a 7.876289
_cell_length_b 12.078769
_cell_length_c 15.836341
_cell_angle_alpha 45.887130
_cell_angle_beta 118.296622
_cell_angle_gamma 85.222389
_cell_volume 720.763348
_symmetry_space_group_name_H-M "P -1"
_symmetry_group_IT_number 2
_symmetry_cell_setting 'triclinic'
loop_
_space_group_symop_operation_xyz
x,y,z
-x,-y,-z
loop_
_atom_site_type_symbol
_atom_site_label
_atom_site_fract_x
_atom_site_fract_y
_atom_site_fract_z
Si Si1 0.261668 0.826293 0.812502
Si Si2 0.239281 0.372640 0.559863
Si Si3 0.955985 0.275424 0.447394
Si Si4 0.069060 0.613331 0.152647
Si Si5 0.332326 0.020865 0.024830
Si Si6 0.168546 0.566286 0.850143
Si Si7 0.044290 0.943668 0.878412
Si Si8 0.377058 0.622204 0.518997
O O1 0.123602 0.735832 0.809291
O O2 0.227572 0.877572 0.876541
O O3 0.132769 0.032052 0.621949
O O4 0.554641 0.649864 0.951107
O O5 0.130508 0.333671 0.476758
O O6 0.328322 0.502227 0.509747
O O7 0.000000 0.500000 0.500000
O O8 0.472436 0.156517 0.769506
O O9 0.824042 0.368817 0.277453
O O10 0.760475 0.354261 0.437126
O O11 0.335853 0.494687 0.325651
O O12 0.840111 0.761565 0.086382
O O13 0.033242 0.466207 0.179730
O O14 0.041969 0.767939 0.998062
O O15 0.150360 0.986784 0.959013
O O16 0.500000 0.000000 0.000000
O O17 0.773703 0.153974 0.673809
#
# Coordination Sequence:
#
# PCOD9004198 Si02
#       8
#     2   2   2   2   2   2   2   2
#     4  10  23  46  67  92 124 169 228 268 322 372
#     4  10  21  37  64  97 126 170 214 248 321 390
#     4  10  21  42  66  95 129 166 220 272 316 375
#     4  12  26  41  62 100 134 167 217 259 334 389
#     4  12  24  41  64  94 132 173 211 267 319 386
#     4  11  24  40  70  96 122 172 220 275 318 381
#     4  11  24  44  63  90 140 172 207 270 319 385
#     4  10  23  41  63  96 133 177 208 258 328 390
#
# _framework density 22.198688000000001
#
# number of rings (size 3 to 8) (size 9 to 14) (size 15 to 20)
#    0.000    1.250    1.250    5.250    7.000    3.000 
#    0.000    2.500    0.000    0.000    0.000    0.000 
#    0.000    0.000    0.000    0.000    0.000    0.000 
#
# Total GULP energy -89610.044731 kJ/mol
# GULP energy per Si atom -5600.627796 kJ/mol
# Density = 2.214816 g / cm^3
# Si number density = 22.198688 Si / 1000 Ang^3
#
#
#
# Elastic Constant Matrix: (Units=GPa)
#
#
# Indices 1 2 3 4 5 6 
#
# 1 73.3153 -0.6900 32.6120 -2.6070 -3.4835 21.8952
# 2 -0.6900 89.4449 19.6661 -3.0592 9.0248 29.9238
# 3 32.6120 19.6661 116.4935 -6.8112 16.1006 11.7068
# 4 -2.6070 -3.0592 -6.8112 32.0261 1.3584 -3.1312
# 5 -3.4835 9.0248 16.1006 1.3584 30.1627 0.3915
# 6 21.8952 29.9238 11.7068 -3.1312 0.3915 35.5709
#
#
#
# Elastic Compliance Matrix: (Units=1/GPa)
#
#
# Indices 1 2 3 4 5 6 
#
# 1 0.021727 0.006849 -0.006098 -0.000728 0.003971 -0.017237
# 2 0.006849 0.018420 -0.002720 0.000031 -0.003026 -0.018781
# 3 -0.006098 -0.002720 0.011474 0.002192 -0.006147 0.002526
# 4 -0.000728 0.000031 0.002192 0.032000 -0.002737 0.002548
# 5 0.003971 -0.003026 -0.006147 -0.002737 0.037903 0.001466
# 6 -0.017237 -0.018781 0.002526 0.002548 0.001466 0.053899
#
#
# Mechanical properties :
#
#
# Convention : Reuss Voigt Hill
#
# Bulk Modulus (GPa) = 20.97096 42.49221 31.73159
# Shear Modulus (GPa) = 25.60752 34.72965 30.16859
#
# Velocity S-wave (km/s) = 3.40009 3.95966 3.69050
# Velocity P-wave (km/s) = 4.98815 6.33155 5.69957
#
# Compressibility (1/GPa) = 0.04768498
#
# Stress axis : x y z
#
# Youngs Moduli (GPa) = 46.02548 54.28755 87.15118
#
# Poissons Ratio (x) = -0.37183 0.53145
# Poissons Ratio (y) = -0.31524 0.23702
# Poissons Ratio (z) = 0.28066 0.14764
#
# Static dielectric constant tensor:
#      x y z
#    x 1.855890 -0.005990 -0.016110 
#    y -0.005990 1.805340 -0.001000 
#    z -0.016110 -0.001000 1.776330 
# 
# From -- ./inp_files/519652.got.cif
#   From: 2010.05.17/outbox.cif.g08.bks.cpg/sg2_260_cif.got.tgz:519652.got - 2010.06.03 11:33:40.
