data_PCOD9004690
_publ_section_title
;
Structure prediction by ZEFSAII (Michael W. Deem and Ramdas Pophale) SiO2 
 PCOD9004690
Probable space group: P -1
;
_chemical_formula_sum "Si O2"
_cell_formula_units_Z 16
_cell_length_a 30.721887
_cell_length_b 11.654375
_cell_length_c 16.029174
_cell_angle_alpha 31.799014
_cell_angle_beta 162.994300
_cell_angle_gamma 151.515372
_cell_volume 798.706075
_symmetry_space_group_name_H-M "P -1"
_symmetry_group_IT_number 2
_symmetry_cell_setting 'triclinic'
loop_
_space_group_symop_operation_xyz
x,y,z
-x,-y,-z
loop_
_atom_site_type_symbol
_atom_site_label
_atom_site_fract_x
_atom_site_fract_y
_atom_site_fract_z
Si Si1 0.132263 0.437629 0.594432
Si Si2 0.399506 0.242242 0.724490
Si Si3 0.653287 0.199986 0.350846
Si Si4 0.229150 0.636061 0.989405
Si Si5 0.504956 0.939168 0.683105
Si Si6 0.176539 0.723653 0.661682
Si Si7 0.387989 0.228100 0.173201
Si Si8 0.370403 0.286710 0.451911
O O1 0.181133 0.575235 0.511539
O O2 0.210062 0.632458 0.691274
O O3 0.938277 0.339902 0.312680
O O4 0.226475 0.267667 0.874250
O O5 0.448926 0.522329 0.663147
O O6 0.430457 0.251042 0.676065
O O7 0.223093 0.008702 0.559621
O O8 0.521807 0.196855 0.041582
O O9 0.592391 0.219911 0.318913
O O10 0.679019 0.958546 0.537307
O O11 0.276536 0.717353 0.930518
O O12 0.367474 0.815378 0.192031
O O13 0.224841 0.371639 0.150121
O O14 0.393488 0.015752 0.370490
O O15 0.598698 0.829024 0.863726
O O16 0.000000 0.500000 0.500000
O O17 0.500000 0.500000 0.500000
#
# Coordination Sequence:
#
# PCOD9004690 Si02
#       8
#     2   2   2   2   2   2   2   2
#     4  10  24  40  57  91 130 159 195 256 320 370
#     4  11  20  37  60  90 120 161 202 255 306 360
#     4  11  22  35  63  89 123 157 208 257 306 368
#     4  11  23  39  61  91 127 163 204 249 313 373
#     4  11  22  42  64  92 115 163 224 255 293 368
#     4  10  21  38  57  90 127 158 198 245 313 378
#     4  10  24  39  66  87 122 162 211 262 304 355
#     4  12  21  33  61  93 120 162 200 253 310 369
#
# _framework density 20.032401
#
# number of rings (size 3 to 8) (size 9 to 14) (size 15 to 20)
#    0.000    1.250    5.000    0.375    7.000    3.000 
#    0.000    0.000    0.000    1.500    0.000    0.000 
#    0.000    0.000    0.000    0.000    0.000    0.000 
#
# Total GULP energy -89085.986578 kJ/mol
# GULP energy per Si atom -5567.874161 kJ/mol
# Density = 1.998681 g / cm^3
# Si number density = 20.032401 Si / 1000 Ang^3
#
#
#
# Elastic Constant Matrix: (Units=GPa)
#
#
# Indices 1 2 3 4 5 6 
#
# 1 121.1455 1.4818 27.0945 -0.8821 -17.4727 8.7183
# 2 1.4818 28.1118 0.0525 -4.0524 -4.3003 18.0166
# 3 27.0945 0.0525 43.9345 -7.8552 6.1211 10.6967
# 4 -0.8821 -4.0524 -7.8552 17.4494 1.4275 -2.0751
# 5 -17.4727 -4.3003 6.1211 1.4275 29.3233 -4.4506
# 6 8.7183 18.0166 10.6967 -2.0751 -4.4506 37.3745
#
#
#
# Elastic Compliance Matrix: (Units=1/GPa)
#
#
# Indices 1 2 3 4 5 6 
#
# 1 0.011601 -0.000549 -0.009504 -0.004438 0.009203 0.001128
# 2 -0.000549 0.056210 0.009661 0.013874 0.000844 -0.028863
# 3 -0.009504 0.009661 0.037336 0.018147 -0.015034 -0.013909
# 4 -0.004438 0.013874 0.018147 0.068242 -0.008953 -0.008124
# 5 0.009203 0.000844 -0.015034 -0.008953 0.044275 0.006525
# 6 0.001128 -0.028863 -0.013909 -0.008124 0.006525 0.044713
#
#
# Mechanical properties :
#
#
# Convention : Reuss Voigt Hill
#
# Bulk Modulus (GPa) = 9.58173 27.82772 18.70472
# Shear Modulus (GPa) = 16.78150 27.80030 22.29090
#
# Velocity S-wave (km/s) = 2.89748 3.72932 3.33940
# Velocity P-wave (km/s) = 3.99841 5.69783 4.92202
#
# Compressibility (1/GPa) = 0.10436531
#
# Stress axis : x y z
#
# Youngs Moduli (GPa) = 86.20206 17.79033 26.78369
#
# Poissons Ratio (x) = 0.00976 0.25455
# Poissons Ratio (y) = 0.04728 -0.25877
# Poissons Ratio (z) = 0.81924 -0.17188
#
# Static dielectric constant tensor:
#      x y z
#    x 1.723780 0.018910 0.015100 
#    y 0.018910 1.755110 0.013650 
#    z 0.015100 0.013650 1.768750 
# 
# From -- ./inp_files/544949.got.cif
#   From: 2010.05.17/outbox.cif.g08.bks.cpg/sg2_273_cif.got.tgz:544949.got - 2010.06.03 11:33:40.
