data_PCOD9004250
_publ_section_title
;
Structure prediction by ZEFSAII (Michael W. Deem and Ramdas Pophale) SiO2 
 PCOD9004250
Probable space group: P -1
;
_chemical_formula_sum "Si O2"
_cell_formula_units_Z 16
_cell_length_a 8.131223
_cell_length_b 11.501535
_cell_length_c 20.637042
_cell_angle_alpha 41.524038
_cell_angle_beta 137.076012
_cell_angle_gamma 143.333633
_cell_volume 720.503651
_symmetry_space_group_name_H-M "P -1"
_symmetry_group_IT_number 2
_symmetry_cell_setting 'triclinic'
loop_
_space_group_symop_operation_xyz
x,y,z
-x,-y,-z
loop_
_atom_site_type_symbol
_atom_site_label
_atom_site_fract_x
_atom_site_fract_y
_atom_site_fract_z
Si Si1 0.099605 0.030748 0.942680
Si Si2 0.545247 0.136473 0.612816
Si Si3 0.500774 0.556499 0.190909
Si Si4 0.497058 0.130479 0.858711
Si Si5 0.187455 0.137172 0.191704
Si Si6 0.970679 0.583303 0.526883
Si Si7 0.242276 0.121007 0.658446
Si Si8 0.427039 0.217147 0.401618
O O1 0.359595 0.995359 0.032729
O O2 0.229991 0.258027 0.851146
O O3 0.000000 0.000000 0.000000
O O4 0.829339 0.857273 0.893101
O O5 0.319716 0.063342 0.636689
O O6 0.428187 0.175995 0.495789
O O7 0.819199 0.372604 0.613617
O O8 0.657611 0.985151 0.696963
O O9 0.351538 0.664619 0.136248
O O10 0.331015 0.359881 0.175456
O O11 0.542060 0.453882 0.310105
O O12 0.477881 0.162188 0.763366
O O13 0.154842 0.004549 0.830005
O O14 0.302526 0.781218 0.552751
O O15 0.000000 0.500000 0.500000
O O16 0.772174 0.673992 0.434381
O O17 0.904638 0.933759 0.655388
#
# Coordination Sequence:
#
# PCOD9004250 Si02
#       8
#     2   2   2   2   2   2   2   2
#     4  11  26  48  71 102 136 168 223 293 348 400
#     4  11  24  42  66  98 146 182 224 286 338 393
#     4  11  24  43  72  98 133 177 231 270 339 409
#     4  11  23  44  71  97 131 179 227 280 334 413
#     4  11  23  45  70 101 133 177 232 272 335 412
#     4  10  21  37  65  88 132 184 229 267 330 398
#     4  12  23  41  64 103 140 178 232 287 335 394
#     4  11  23  41  64 102 135 183 231 272 329 412
#
# _framework density 22.206689000000001
#
# number of rings (size 3 to 8) (size 9 to 14) (size 15 to 20)
#    0.000    1.000    1.250    7.875    1.750    2.500 
#    2.250    0.000    0.000    0.000    0.000    0.000 
#    0.000    0.000    0.000    0.000    0.000    0.000 
#
# Total GULP energy -89218.042034 kJ/mol
# GULP energy per Si atom -5576.127627 kJ/mol
# Density = 2.215615 g / cm^3
# Si number density = 22.206689 Si / 1000 Ang^3
#
#
#
# Elastic Constant Matrix: (Units=GPa)
#
#
# Indices 1 2 3 4 5 6 
#
# 1 93.5356 36.9626 53.1259 -0.4250 -9.2767 -12.5359
# 2 36.9626 122.9845 45.8144 -0.2007 -2.0160 -13.1228
# 3 53.1259 45.8144 145.7667 3.4607 -6.5373 -19.2935
# 4 -0.4250 -0.2007 3.4607 27.0178 -8.3044 -3.8352
# 5 -9.2767 -2.0160 -6.5373 -8.3044 38.3607 6.1073
# 6 -12.5359 -13.1228 -19.2935 -3.8352 6.1073 29.2742
#
#
#
# Elastic Compliance Matrix: (Units=1/GPa)
#
#
# Indices 1 2 3 4 5 6 
#
# 1 0.014638 -0.002579 -0.004176 0.001888 0.002779 0.002028
# 2 -0.002579 0.009842 -0.001896 0.000378 -0.000707 0.002255
# 3 -0.004176 -0.001896 0.009455 -0.000866 -0.000248 0.003532
# 4 0.001888 0.000378 -0.000866 0.040304 0.008428 0.003929
# 5 0.002779 -0.000707 -0.000248 0.008428 0.029165 -0.004271
# 6 0.002028 0.002255 0.003532 0.003929 -0.004271 0.039772
#
#
# Mechanical properties :
#
#
# Convention : Reuss Voigt Hill
#
# Bulk Modulus (GPa) = 60.11870 70.45472 65.28671
# Shear Modulus (GPa) = 30.11627 34.02280 32.06954
#
# Velocity S-wave (km/s) = 3.68663 3.91845 3.80431
# Velocity P-wave (km/s) = 6.72702 7.22966 6.98286
#
# Compressibility (1/GPa) = 0.01663376
#
# Stress axis : x y z
#
# Youngs Moduli (GPa) = 68.31492 101.60560 105.76342
#
# Poissons Ratio (x) = 0.26201 0.44170
# Poissons Ratio (y) = 0.17616 0.20049
# Poissons Ratio (z) = 0.28531 0.19261
#
# Static dielectric constant tensor:
#      x y z
#    x 1.846500 0.009790 -0.018060 
#    y 0.009790 1.929670 0.029950 
#    z -0.018060 0.029950 1.893140 
# 
# From -- ./inp_files/588979.got.cif
#   From: 2010.05.17/outbox.cif.g08.bks.cpg/sg2_295_cif.got.tgz:588979.got - 2010.06.03 11:33:40.
