data_PCOD9004839
_publ_section_title
;
Structure prediction by ZEFSAII (Michael W. Deem and Ramdas Pophale) SiO2 
 PCOD9004839
Probable space group: P -1
;
_chemical_formula_sum "Si O2"
_cell_formula_units_Z 16
_cell_length_a 11.629453
_cell_length_b 12.560520
_cell_length_c 10.777245
_cell_angle_alpha 115.026117
_cell_angle_beta 129.676374
_cell_angle_gamma 37.931289
_cell_volume 733.944661
_symmetry_space_group_name_H-M "P -1"
_symmetry_group_IT_number 2
_symmetry_cell_setting 'triclinic'
loop_
_space_group_symop_operation_xyz
x,y,z
-x,-y,-z
loop_
_atom_site_type_symbol
_atom_site_label
_atom_site_fract_x
_atom_site_fract_y
_atom_site_fract_z
Si Si1 0.861942 0.491220 0.073313
Si Si2 0.619463 0.054020 0.635193
Si Si3 0.828265 0.102467 0.128864
Si Si4 0.119266 0.092919 0.484734
Si Si5 0.805331 0.670253 0.368597
Si Si6 0.257008 0.251696 0.070208
Si Si7 0.742435 0.964854 0.190100
Si Si8 0.902209 0.211064 0.021019
O O1 0.128196 0.327196 0.147182
O O2 0.793033 0.398472 0.005606
O O3 0.811055 0.605438 0.207643
O O4 0.768947 0.607414 0.943096
O O5 0.432028 0.218742 0.675397
O O6 0.500000 0.000000 0.500000
O O7 0.679086 0.069478 0.547235
O O8 0.859694 0.906091 0.798957
O O9 0.909659 0.153549 0.305956
O O10 0.753307 0.219311 0.014537
O O11 0.692128 0.087322 0.106863
O O12 0.026549 0.906033 0.107680
O O13 0.139437 0.222827 0.551608
O O14 0.117092 0.065864 0.615365
O O15 0.000000 0.500000 0.500000
O O16 0.514469 0.065523 0.154886
O O17 0.154707 0.209850 0.890395
#
# Coordination Sequence:
#
# PCOD9004839 Si02
#       8
#     2   2   2   2   2   2   2   2
#     4  11  21  39  59  91 126 145 190 256 310 341
#     4   9  20  34  58  91 117 147 198 239 294 345
#     4  10  21  38  62  86 114 161 206 235 282 353
#     4  10  21  38  59  86 116 160 200 239 285 351
#     4  11  22  34  61  91 122 150 187 251 309 348
#     4  10  24  36  61  93 117 155 195 254 297 344
#     4  11  21  39  63  86 118 156 211 234 287 362
#     4  10  21  38  65  85 119 157 197 246 290 353
#
# _framework density 21.800008999999999
#
# number of rings (size 3 to 8) (size 9 to 14) (size 15 to 20)
#    0.000    1.750    2.500    2.625    7.000    0.000 
#    0.000    0.625    8.250    1.500    0.000    0.000 
#    0.000    0.000    0.000    0.000    0.000    0.000 
#
# Total GULP energy -89198.987770 kJ/mol
# GULP energy per Si atom -5574.936736 kJ/mol
# Density = 2.175039 g / cm^3
# Si number density = 21.800009 Si / 1000 Ang^3
#
#
#
# Elastic Constant Matrix: (Units=GPa)
#
#
# Indices 1 2 3 4 5 6 
#
# 1 97.6646 41.0119 9.0798 13.5331 -13.6275 10.4351
# 2 41.0119 69.4115 22.1296 23.4150 -2.7801 7.5349
# 3 9.0798 22.1296 82.5549 22.5246 -3.1781 2.5880
# 4 13.5331 23.4150 22.5246 34.6844 -1.8439 -2.9513
# 5 -13.6275 -2.7801 -3.1781 -1.8439 29.1692 9.5095
# 6 10.4351 7.5349 2.5880 -2.9513 9.5095 45.3773
#
#
#
# Elastic Compliance Matrix: (Units=1/GPa)
#
#
# Indices 1 2 3 4 5 6 
#
# 1 0.015248 -0.008323 0.001263 -0.001073 0.007663 -0.003872
# 2 -0.008323 0.024277 -0.002334 -0.011925 -0.001806 -0.002381
# 3 0.001263 -0.002334 0.015130 -0.008785 0.002036 -0.001764
# 4 -0.001073 -0.011925 -0.008785 0.043415 -0.001783 0.005925
# 5 0.007663 -0.001806 0.002036 -0.001783 0.041164 -0.010321
# 6 -0.003872 -0.002381 -0.001764 0.005925 -0.010321 0.025972
#
#
# Mechanical properties :
#
#
# Convention : Reuss Voigt Hill
#
# Bulk Modulus (GPa) = 27.87877 43.78596 35.83237
# Shear Modulus (GPa) = 25.51655 33.67350 29.59502
#
# Velocity S-wave (km/s) = 3.42494 3.93447 3.68852
# Velocity P-wave (km/s) = 5.33446 6.38506 5.88326
#
# Compressibility (1/GPa) = 0.03586959
#
# Stress axis : x y z
#
# Youngs Moduli (GPa) = 65.58083 41.19070 66.09184
#
# Poissons Ratio (x) = 0.34283 -0.08349
# Poissons Ratio (y) = 0.54582 0.15423
# Poissons Ratio (z) = -0.08284 0.09612
#
# Static dielectric constant tensor:
#      x y z
#    x 1.861600 -0.024610 0.011270 
#    y -0.024610 1.818930 -0.013230 
#    z 0.011270 -0.013230 1.853710 
# 
# From -- ./inp_files/271121.got.cif
#   From: 2010.05.17/outbox.cif.g08.bks.cpg/sg2_136_cif.got.tgz:271121.got - 2010.06.03 11:33:40.
