data_PCOD9004119
_publ_section_title
;
Structure prediction by ZEFSAII (Michael W. Deem and Ramdas Pophale) SiO2 
 PCOD9004119
Probable space group: P -1
;
_chemical_formula_sum "Si O2"
_cell_formula_units_Z 16
_cell_length_a 9.013111
_cell_length_b 9.948094
_cell_length_c 8.983164
_cell_angle_alpha 101.518616
_cell_angle_beta 92.535747
_cell_angle_gamma 118.830392
_cell_volume 682.083725
_symmetry_space_group_name_H-M "P -1"
_symmetry_group_IT_number 2
_symmetry_cell_setting 'triclinic'
loop_
_space_group_symop_operation_xyz
x,y,z
-x,-y,-z
loop_
_atom_site_type_symbol
_atom_site_label
_atom_site_fract_x
_atom_site_fract_y
_atom_site_fract_z
Si Si1 0.039749 0.584545 0.180238
Si Si2 0.360417 0.339263 0.881051
Si Si3 0.582820 0.213360 0.709740
Si Si4 0.619314 0.985272 0.883371
Si Si5 0.005816 0.868907 0.113676
Si Si6 0.204219 0.434001 0.615831
Si Si7 0.516069 0.740700 0.593041
Si Si8 0.914738 0.869033 0.596208
O O1 0.230239 0.628918 0.241074
O O2 0.033566 0.747337 0.193053
O O3 0.899286 0.496512 0.282604
O O4 0.000000 0.500000 0.000000
O O5 0.448819 0.240787 0.806325
O O6 0.291343 0.381259 0.737603
O O7 0.194461 0.240770 0.958793
O O8 0.500000 0.500000 0.000000
O O9 0.528683 0.181512 0.529617
O O10 0.609477 0.082031 0.762641
O O11 0.534849 0.809604 0.775259
O O12 0.818041 0.059726 0.956992
O O13 0.500000 0.000000 0.000000
O O14 0.019841 0.022081 0.230716
O O15 0.360560 0.562283 0.553840
O O16 0.067390 0.281718 0.479974
O O17 0.708655 0.783707 0.574734
O O18 0.000000 0.000000 0.500000
#
# Coordination Sequence:
#
# PCOD9004119 Si02
#       8
#     2   2   2   2   2   2   2   2
#     4  10  21  37  64  91 131 176 219 264 337 399
#     4  11  22  38  67  98 132 169 224 272 336 392
#     4  11  22  41  65  95 129 172 224 275 333 393
#     4  10  24  42  68  93 134 181 220 268 343 412
#     4   9  20  39  64  93 123 178 217 265 330 403
#     4  11  23  40  68  95 132 177 221 274 338 393
#     4  11  24  40  67  99 133 168 230 280 329 397
#     4  11  18  39  66  91 124 173 222 260 333 399
#
# _framework density 23.457530999999999
#
# number of rings (size 3 to 8) (size 9 to 14) (size 15 to 20)
#    0.000    1.500    3.750    2.250    5.250    0.500 
#    2.250    0.625    2.750    0.000    0.000    0.000 
#    0.000    0.000    0.000    0.000    0.000    0.000 
#
# Total GULP energy -89252.846252 kJ/mol
# GULP energy per Si atom -5578.302891 kJ/mol
# Density = 2.340414 g / cm^3
# Si number density = 23.457531 Si / 1000 Ang^3
#
#
#
# Elastic Constant Matrix: (Units=GPa)
#
#
# Indices 1 2 3 4 5 6 
#
# 1 98.4045 33.3407 37.1264 8.1849 -12.4390 34.8173
# 2 33.3407 115.9469 29.8447 11.4207 -9.0201 25.1919
# 3 37.1264 29.8447 85.7726 23.4916 -17.1835 13.5557
# 4 8.1849 11.4207 23.4916 34.8845 -3.7943 6.8274
# 5 -12.4390 -9.0201 -17.1835 -3.7943 35.3220 -9.7485
# 6 34.8173 25.1919 13.5557 6.8274 -9.7485 42.4945
#
#
#
# Elastic Compliance Matrix: (Units=1/GPa)
#
#
# Indices 1 2 3 4 5 6 
#
# 1 0.016514 -0.001038 -0.005683 0.002537 -0.000126 -0.011538
# 2 -0.001038 0.010584 -0.002325 -0.000773 -0.000144 -0.004591
# 3 -0.005683 -0.002325 0.018480 -0.010307 0.006174 0.003212
# 4 0.002537 -0.000773 -0.010307 0.035961 -0.001697 -0.004499
# 5 -0.000126 -0.000144 0.006174 -0.001697 0.032706 0.005995
# 6 -0.011538 -0.004591 0.003212 -0.004499 0.005995 0.036781
#
#
# Mechanical properties :
#
#
# Convention : Reuss Voigt Hill
#
# Bulk Modulus (GPa) = 36.38391 55.63861 46.01126
# Shear Modulus (GPa) = 28.04583 35.86101 31.95342
#
# Velocity S-wave (km/s) = 3.46150 3.91418 3.69478
# Velocity P-wave (km/s) = 5.61428 6.64817 6.15298
#
# Compressibility (1/GPa) = 0.02748468
#
# Stress axis : x y z
#
# Youngs Moduli (GPa) = 60.55622 94.48162 54.11308
#
# Poissons Ratio (x) = 0.09812 0.30753
# Poissons Ratio (y) = 0.06289 0.12580
# Poissons Ratio (z) = 0.34415 0.21965
#
# Static dielectric constant tensor:
#      x y z
#    x 1.925830 -0.024470 -0.067890 
#    y -0.024470 1.949220 0.028690 
#    z -0.067890 0.028690 2.017740 
# 
# From -- ./inp_files/188582.got.cif
#   From: 2010.05.17/outbox.cif.g08.bks.cpg/sg2_95_cif.got.tgz:188582.got - 2010.06.03 11:33:40.
