data_PCOD9004434
_publ_section_title
;
Structure prediction by ZEFSAII (Michael W. Deem and Ramdas Pophale) SiO2 
 PCOD9004434
Probable space group: P -1
;
_chemical_formula_sum "Si O2"
_cell_formula_units_Z 13
_cell_length_a 9.646949
_cell_length_b 11.888646
_cell_length_c 9.000853
_cell_angle_alpha 37.652259
_cell_angle_beta 92.222089
_cell_angle_gamma 109.472474
_cell_volume 547.214078
_symmetry_space_group_name_H-M "P -1"
_symmetry_group_IT_number 2
_symmetry_cell_setting 'triclinic'
loop_
_space_group_symop_operation_xyz
x,y,z
-x,-y,-z
loop_
_atom_site_type_symbol
_atom_site_label
_atom_site_fract_x
_atom_site_fract_y
_atom_site_fract_z
Si Si1 0.650594 0.771578 0.399467
Si Si2 0.248883 0.962753 0.139755
Si Si3 0.071005 0.343895 0.162502
Si Si4 0.978492 0.959958 0.767523
Si Si5 0.729271 0.433691 0.795306
Si Si6 0.502739 0.035821 0.636610
Si Si7 0.000000 0.500000 0.500000
O O1 0.632952 0.543548 0.611810
O O2 0.538698 0.783673 0.508105
O O3 0.837489 0.927814 0.290778
O O4 0.626320 0.874254 0.143222
O O5 0.335709 0.926242 0.320283
O O6 0.139577 0.739001 0.292813
O O7 0.139017 0.061214 0.084120
O O8 0.076464 0.263619 0.081616
O O9 0.229077 0.469770 0.135922
O O10 0.969655 0.123162 0.478783
O O11 0.000000 0.500000 0.000000
O O12 0.889098 0.511638 0.624556
O O13 0.634452 0.183726 0.069626
O O14 0.500000 0.000000 0.500000
#
# Coordination Sequence:
#
# PCOD9004434 Si02
#       7
#     2   2   2   2   2   2   1
#     4  11  24  48  73 106 151 194 252 309 365 450
#     4  12  26  48  75 116 147 200 245 320 376 440
#     4  10  21  37  67 103 144 187 237 305 354 431
#     4  10  23  41  71 108 143 185 254 302 367 428
#     4  11  26  45  76 110 146 199 253 302 377 446
#     4  12  30  50  73 106 163 198 242 308 386 449
#     4  12  24  46  80 112 144 192 264 300 372 440
#
# _framework density 23.756698
#
# number of rings (size 3 to 8) (size 9 to 14) (size 15 to 20)
#    0.000    0.923    4.615    1.846    8.615    1.231 
#    0.000    0.000    0.000    0.000    0.000    0.000 
#    0.000    0.000    0.000    0.000    0.000    0.000 
#
# Total GULP energy -72507.870063 kJ/mol
# GULP energy per Si atom -5577.528466 kJ/mol
# Density = 2.370263 g / cm^3
# Si number density = 23.756698 Si / 1000 Ang^3
#
#
#
# Elastic Constant Matrix: (Units=GPa)
#
#
# Indices 1 2 3 4 5 6 
#
# 1 88.3114 32.8166 18.2864 15.0414 11.0976 -17.4897
# 2 32.8166 128.4474 12.1963 -3.0590 12.0679 -22.9446
# 3 18.2864 12.1963 68.6011 -2.0265 15.8923 -3.2662
# 4 15.0414 -3.0590 -2.0265 37.9083 -3.0220 -2.7350
# 5 11.0976 12.0679 15.8923 -3.0220 34.2877 2.7105
# 6 -17.4897 -22.9446 -3.2662 -2.7350 2.7105 30.5649
#
#
#
# Elastic Compliance Matrix: (Units=1/GPa)
#
#
# Indices 1 2 3 4 5 6 
#
# 1 0.015680 -0.002313 -0.002683 -0.006393 -0.004114 0.006742
# 2 -0.002313 0.009881 -0.000067 0.001940 -0.003044 0.006531
# 3 -0.002683 -0.000067 0.017001 0.001486 -0.006934 0.000979
# 4 -0.006393 0.001940 0.001486 0.029434 0.003268 0.000301
# 5 -0.004114 -0.003044 -0.006934 0.003268 0.035722 -0.008255
# 6 0.006742 0.006531 0.000979 0.000301 -0.008255 0.042341
#
#
# Mechanical properties :
#
#
# Convention : Reuss Voigt Hill
#
# Bulk Modulus (GPa) = 30.82971 45.77318 38.30145
# Shear Modulus (GPa) = 29.24016 35.35623 32.29819
#
# Velocity S-wave (km/s) = 3.51211 3.86199 3.69119
# Velocity P-wave (km/s) = 5.42697 6.26066 5.85866
#
# Compressibility (1/GPa) = 0.03243624
#
# Stress axis : x y z
#
# Youngs Moduli (GPa) = 63.77713 101.20221 58.81963
#
# Poissons Ratio (x) = 0.23404 0.15783
# Poissons Ratio (y) = 0.14749 0.00394
# Poissons Ratio (z) = 0.17113 0.00678
#
# Static dielectric constant tensor:
#      x y z
#    x 1.928050 0.030550 0.069130 
#    y 0.030550 1.916930 0.061810 
#    z 0.069130 0.061810 1.947230 
# 
# From -- ./inp_files/183817.got.cif
#   From: 2010.05.17/outbox.cif.g08.bks.cpg/sg2_92_cif.got.tgz:183817.got - 2010.06.03 11:33:40.
