data_PCOD9004385
_publ_section_title
;
Structure prediction by ZEFSAII (Michael W. Deem and Ramdas Pophale) SiO2 
 PCOD9004385
Probable space group: P -1
;
_chemical_formula_sum "Si O2"
_cell_formula_units_Z 16
_cell_length_a 27.961795
_cell_length_b 10.034656
_cell_length_c 9.211975
_cell_angle_alpha 115.276038
_cell_angle_beta 42.672868
_cell_angle_gamma 149.121606
_cell_volume 728.226644
_symmetry_space_group_name_H-M "P -1"
_symmetry_group_IT_number 2
_symmetry_cell_setting 'triclinic'
loop_
_space_group_symop_operation_xyz
x,y,z
-x,-y,-z
loop_
_atom_site_type_symbol
_atom_site_label
_atom_site_fract_x
_atom_site_fract_y
_atom_site_fract_z
Si Si1 0.797485 0.902046 0.573703
Si Si2 0.000017 0.845978 0.347052
Si Si3 0.219061 0.862446 0.799542
Si Si4 0.128621 0.697141 0.601336
Si Si5 0.957349 0.886534 0.879848
Si Si6 0.673281 0.667583 0.061884
Si Si7 0.359379 0.597743 0.545199
Si Si8 0.558266 0.947670 0.533091
O O1 0.701247 0.725757 0.854724
O O2 0.715929 0.661181 0.513103
O O3 0.821149 0.109318 0.554414
O O4 0.956105 0.105578 0.348510
O O5 0.886394 0.505400 0.488506
O O6 0.000000 0.000000 0.500000
O O7 0.974867 0.852271 0.242853
O O8 0.170638 0.103220 0.107200
O O9 0.224310 0.894267 0.628635
O O10 0.272323 0.801308 0.704080
O O11 0.044216 0.569338 0.098844
O O12 0.331818 0.181585 0.782861
O O13 0.773190 0.563790 0.139182
O O14 0.000000 0.000000 0.000000
O O15 0.540035 0.310569 0.241051
O O16 0.478955 0.756530 0.468482
O O17 0.436302 0.866327 0.399749
#
# Coordination Sequence:
#
# PCOD9004385 Si02
#       8
#     2   2   2   2   2   2   2   2
#     4  11  23  41  63  95 131 160 201 268 314 359
#     4  11  22  41  62  97 128 158 202 260 315 370
#     4  10  23  40  67  88 121 166 213 252 304 374
#     4  10  24  41  66  95 123 160 209 256 316 371
#     4  10  21  37  66  93 126 159 205 259 312 360
#     4  11  23  40  62  89 132 162 209 256 309 367
#     4  10  23  39  65  92 126 160 219 254 301 376
#     4  11  22  41  62  90 120 176 212 250 303 372
#
# _framework density 21.971183
#
# number of rings (size 3 to 8) (size 9 to 14) (size 15 to 20)
#    0.000    1.500    2.500    1.875   12.250    2.500 
#    2.250    2.500    0.000    0.000    0.000    0.000 
#    0.000    0.000    0.000    0.000    0.000    0.000 
#
# Total GULP energy -89340.290090 kJ/mol
# GULP energy per Si atom -5583.768131 kJ/mol
# Density = 2.192118 g / cm^3
# Si number density = 21.971183 Si / 1000 Ang^3
#
#
#
# Elastic Constant Matrix: (Units=GPa)
#
#
# Indices 1 2 3 4 5 6 
#
# 1 156.2889 45.3258 39.6761 -0.9383 18.9836 -19.7825
# 2 45.3258 96.4500 39.1311 -2.0807 17.0143 -18.9855
# 3 39.6761 39.1311 47.7589 -0.1074 18.6658 -6.8179
# 4 -0.9383 -2.0807 -0.1074 19.7534 -3.7326 4.5905
# 5 18.9836 17.0143 18.6658 -3.7326 36.4261 -15.9751
# 6 -19.7825 -18.9855 -6.8179 4.5905 -15.9751 34.0841
#
#
#
# Elastic Compliance Matrix: (Units=1/GPa)
#
#
# Indices 1 2 3 4 5 6 
#
# 1 0.008601 -0.001000 -0.006055 -0.000444 0.000607 0.003568
# 2 -0.001000 0.017242 -0.013236 0.000437 0.002600 0.007536
# 3 -0.006055 -0.013236 0.041938 -0.002290 -0.016801 -0.010064
# 4 -0.000444 0.000437 -0.002290 0.052727 0.004131 -0.005638
# 5 0.000607 0.002600 -0.016801 0.004131 0.042830 0.017957
# 6 0.003568 0.007536 -0.010064 -0.005638 0.017957 0.042771
#
#
# Mechanical properties :
#
#
# Convention : Reuss Voigt Hill
#
# Bulk Modulus (GPa) = 36.76493 60.97375 48.86934
# Shear Modulus (GPa) = 19.54983 29.81037 24.68010
#
# Velocity S-wave (km/s) = 2.98618 3.68746 3.35519
# Velocity P-wave (km/s) = 5.35343 6.77804 6.10742
#
# Compressibility (1/GPa) = 0.02719984
#
# Stress axis : x y z
#
# Youngs Moduli (GPa) = 116.26998 57.99757 23.84473
#
# Poissons Ratio (x) = 0.05797 0.14438
# Poissons Ratio (y) = 0.11621 0.31561
# Poissons Ratio (z) = 0.70399 0.76766
#
# Static dielectric constant tensor:
#      x y z
#    x 1.776680 0.118730 0.047400 
#    y 0.118730 1.525650 -0.073010 
#    z 0.047400 -0.073010 1.877550 
# 
# From -- ./inp_files/352241.got.cif
#   From: 2010.05.17/outbox.cif.g08.bks.cpg/sg2_177_cif.got.tgz:352241.got - 2010.06.03 11:33:40.
