data_PCOD9004512
_publ_section_title
;
Structure prediction by ZEFSAII (Michael W. Deem and Ramdas Pophale) SiO2 
 PCOD9004512
Probable space group: P -1
;
_chemical_formula_sum "Si O2"
_cell_formula_units_Z 16
_cell_length_a 19.269523
_cell_length_b 12.370155
_cell_length_c 8.538391
_cell_angle_alpha 50.151288
_cell_angle_beta 149.479602
_cell_angle_gamma 135.630862
_cell_volume 720.988640
_symmetry_space_group_name_H-M "P -1"
_symmetry_group_IT_number 2
_symmetry_cell_setting 'triclinic'
loop_
_space_group_symop_operation_xyz
x,y,z
-x,-y,-z
loop_
_atom_site_type_symbol
_atom_site_label
_atom_site_fract_x
_atom_site_fract_y
_atom_site_fract_z
Si Si1 0.552901 0.174186 0.385624
Si Si2 0.788930 0.430481 0.167806
Si Si3 0.834206 0.206688 0.716551
Si Si4 0.042637 0.706010 0.557510
Si Si5 0.404714 0.535278 0.649195
Si Si6 0.452237 0.298110 0.759616
Si Si7 0.064269 0.370133 0.239937
Si Si8 0.169844 0.015040 0.335555
O O1 0.721734 0.215653 0.619633
O O2 0.546185 0.281738 0.415388
O O3 0.500000 0.000000 0.500000
O O4 0.477439 0.213922 0.046469
O O5 0.840915 0.334509 0.484664
O O6 0.849891 0.386474 0.166896
O O7 0.892568 0.608396 0.251065
O O8 0.610505 0.362245 0.912739
O O9 0.784746 0.045993 0.679434
O O10 0.990320 0.252452 0.064208
O O11 0.980539 0.708804 0.605710
O O12 0.143338 0.878539 0.535817
O O13 0.423978 0.447594 0.616178
O O14 0.237974 0.453267 0.467046
O O15 0.500000 0.500000 0.000000
O O16 0.304838 0.174484 0.501738
O O17 0.000000 0.500000 0.000000
O O18 0.000000 0.000000 0.000000
#
# Coordination Sequence:
#
# PCOD9004512 Si02
#       8
#     2   2   2   2   2   2   2   2
#     4  10  21  38  64 102 132 158 219 278 331 393
#     4   9  19  41  65  95 126 173 219 270 333 404
#     4  10  21  39  63  92 131 166 212 276 321 386
#     4  10  21  37  68  95 129 168 227 276 326 401
#     4  10  21  40  64  94 135 174 209 271 338 394
#     4  10  22  43  69  90 136 187 211 270 353 396
#     4  12  20  37  69  99 126 171 223 274 335 401
#     4  11  25  45  60  89 137 182 222 272 329 396
#
# _framework density 22.191749999999999
#
# number of rings (size 3 to 8) (size 9 to 14) (size 15 to 20)
#    0.000    1.750    2.500    2.250    1.750    4.500 
#    6.750    1.875    0.000    0.000    0.000    0.000 
#    0.000    0.000    0.000    0.000    0.000    0.000 
#
# Total GULP energy -89335.852876 kJ/mol
# GULP energy per Si atom -5583.490805 kJ/mol
# Density = 2.214124 g / cm^3
# Si number density = 22.191750 Si / 1000 Ang^3
#
#
#
# Elastic Constant Matrix: (Units=GPa)
#
#
# Indices 1 2 3 4 5 6 
#
# 1 68.5884 44.8226 52.9641 6.5584 20.2096 -4.5242
# 2 44.8226 143.4781 51.6542 23.9789 3.6625 -22.2543
# 3 52.9641 51.6542 95.1173 30.8946 18.7680 -8.2950
# 4 6.5584 23.9789 30.8946 36.6971 4.3548 -2.1482
# 5 20.2096 3.6625 18.7680 4.3548 36.6211 1.1810
# 6 -4.5242 -22.2543 -8.2950 -2.1482 1.1810 34.4435
#
#
#
# Elastic Compliance Matrix: (Units=1/GPa)
#
#
# Indices 1 2 3 4 5 6 
#
# 1 0.035306 -0.006956 -0.019009 0.015335 -0.010770 -0.003109
# 2 -0.006956 0.011047 -0.000484 -0.005650 0.003472 0.005636
# 3 -0.019009 -0.000484 0.028390 -0.019813 -0.001747 0.002852
# 4 0.015335 -0.005650 -0.019813 0.045031 -0.002986 -0.003497
# 5 -0.010770 0.003472 -0.001747 -0.002986 0.034184 -0.000950
# 6 -0.003109 0.005636 0.002852 -0.003497 -0.000950 0.032767
#
#
# Mechanical properties :
#
#
# Convention : Reuss Voigt Hill
#
# Bulk Modulus (GPa) = 45.77935 67.34062 56.55999
# Shear Modulus (GPa) = 20.25069 32.06853 26.15961
#
# Velocity S-wave (km/s) = 3.02409 3.80553 3.43709
# Velocity P-wave (km/s) = 5.73300 7.05125 6.42602
#
# Compressibility (1/GPa) = 0.02184391
#
# Stress axis : x y z
#
# Youngs Moduli (GPa) = 28.32349 90.52285 35.22405
#
# Poissons Ratio (x) = 0.62972 0.66957
# Poissons Ratio (y) = 0.19703 0.01705
# Poissons Ratio (z) = 0.53840 0.04383
#
# Static dielectric constant tensor:
#      x y z
#    x 1.896690 0.047980 -0.004400 
#    y 0.047980 1.929840 0.060710 
#    z -0.004400 0.060710 1.922980 
# 
# From -- ./inp_files/346009.got.cif
#   From: 2010.05.17/outbox.cif.g08.bks.cpg/sg2_174_cif.got.tgz:346009.got - 2010.06.03 11:33:40.
