data_PCOD9004806
_publ_section_title
;
Structure prediction by ZEFSAII (Michael W. Deem and Ramdas Pophale) SiO2 
 PCOD9004806
Probable space group: P -1
;
_chemical_formula_sum "Si O2"
_cell_formula_units_Z 14
_cell_length_a 14.197187
_cell_length_b 12.002227
_cell_length_c 12.371018
_cell_angle_alpha 38.233724
_cell_angle_beta 49.108449
_cell_angle_gamma 30.172936
_cell_volume 653.668479
_symmetry_space_group_name_H-M "P -1"
_symmetry_group_IT_number 2
_symmetry_cell_setting 'triclinic'
loop_
_space_group_symop_operation_xyz
x,y,z
-x,-y,-z
loop_
_atom_site_type_symbol
_atom_site_label
_atom_site_fract_x
_atom_site_fract_y
_atom_site_fract_z
Si Si1 0.167222 0.036302 0.065548
Si Si2 0.342988 0.662992 0.643765
Si Si3 0.022233 0.252746 0.522330
Si Si4 0.243974 0.687229 0.459510
Si Si5 0.199601 0.422758 0.183880
Si Si6 0.492637 0.117453 0.026491
Si Si7 0.166118 0.725019 0.151726
O O1 0.165947 0.941431 0.255340
O O2 0.299150 0.066177 0.948484
O O3 0.253664 0.792608 0.104325
O O4 0.961041 0.309404 0.972305
O O5 0.240805 0.727860 0.557820
O O6 0.535307 0.561018 0.548702
O O7 0.406263 0.407553 0.844085
O O8 0.202818 0.927963 0.620395
O O9 0.875900 0.350899 0.463803
O O10 0.922379 0.312467 0.664026
O O11 0.094852 0.375085 0.360267
O O12 0.276255 0.485944 0.164238
O O13 0.360876 0.175891 0.172185
O O14 0.500000 0.000000 0.000000
O O15 0.000000 0.000000 0.000000
#
# Coordination Sequence:
#
# PCOD9004806 Si02
#       7
#     2   2   2   2   2   2   2
#     4   9  21  41  63  88 118 161 205 240 299 356
#     4  10  21  38  59  83 122 162 199 242 296 352
#     4  11  22  36  63  91 119 155 197 247 303 352
#     4   9  20  37  59  83 119 161 201 236 290 361
#     4  11  24  38  62  91 124 156 196 254 299 347
#     4  11  25  40  61  90 124 159 202 246 296 360
#     4   9  19  42  65  85 117 157 206 244 294 358
#
# _framework density 21.417586
#
# number of rings (size 3 to 8) (size 9 to 14) (size 15 to 20)
#    0.000    2.000    0.000    3.429    8.000    1.143 
#    0.000    4.286    0.000   12.857    0.000    0.000 
#    0.000    0.000    0.000    0.000    0.000    0.000 
#
# Total GULP energy -78224.055793 kJ/mol
# GULP energy per Si atom -5587.432557 kJ/mol
# Density = 2.136884 g / cm^3
# Si number density = 21.417586 Si / 1000 Ang^3
#
#
#
# Elastic Constant Matrix: (Units=GPa)
#
#
# Indices 1 2 3 4 5 6 
#
# 1 76.4590 21.7136 -2.6949 17.0550 -14.3100 0.5419
# 2 21.7136 75.1957 -6.6341 13.6962 -4.0124 12.3004
# 3 -2.6949 -6.6341 51.6209 -1.4568 3.6890 -0.0285
# 4 17.0550 13.6962 -1.4568 26.4975 1.3182 1.2227
# 5 -14.3100 -4.0124 3.6890 1.3182 30.7106 4.4313
# 6 0.5419 12.3004 -0.0285 1.2227 4.4313 21.3085
#
#
#
# Elastic Compliance Matrix: (Units=1/GPa)
#
#
# Indices 1 2 3 4 5 6 
#
# 1 0.017760 -0.002818 -0.000328 -0.010411 0.008390 0.000027
# 2 -0.002818 0.017246 0.001699 -0.006668 0.002467 -0.010012
# 3 -0.000328 0.001699 0.019750 0.000554 -0.002254 -0.000509
# 4 -0.010411 -0.006668 0.000554 0.048189 -0.008301 0.003076
# 5 0.008390 0.002467 -0.002254 -0.008301 0.038751 -0.009223
# 6 0.000027 -0.010012 -0.000509 0.003076 -0.009223 0.054449
#
#
# Mechanical properties :
#
#
# Convention : Reuss Voigt Hill
#
# Bulk Modulus (GPa) = 19.28195 25.33831 22.31013
# Shear Modulus (GPa) = 23.11328 28.42939 25.77134
#
# Velocity S-wave (km/s) = 3.28864 3.64728 3.47259
# Velocity P-wave (km/s) = 4.84176 5.43996 5.14955
#
# Compressibility (1/GPa) = 0.05186198
#
# Stress axis : x y z
#
# Youngs Moduli (GPa) = 56.30654 57.98422 50.63383
#
# Poissons Ratio (x) = 0.16339 0.01662
# Poissons Ratio (y) = 0.15866 -0.08604
# Poissons Ratio (z) = 0.01849 -0.09853
#
# Static dielectric constant tensor:
#      x y z
#    x 1.775110 -0.005680 -0.017810 
#    y -0.005680 1.791960 0.009290 
#    z -0.017810 0.009290 1.783620 
# 
# From -- ./inp_files/250141.got.cif
#   From: 2010.05.17/outbox.cif.g08.bks.cpg/sg2_126_cif.got.tgz:250141.got - 2010.06.03 11:33:40.
