data_PCOD9004239
_publ_section_title
;
Structure prediction by ZEFSAII (Michael W. Deem and Ramdas Pophale) SiO2 
 PCOD9004239
Probable space group: P -1
;
_chemical_formula_sum "Si O2"
_cell_formula_units_Z 16
_cell_length_a 10.892182
_cell_length_b 13.605026
_cell_length_c 14.208126
_cell_angle_alpha 138.589208
_cell_angle_beta 68.087212
_cell_angle_gamma 144.268744
_cell_volume 644.479634
_symmetry_space_group_name_H-M "P -1"
_symmetry_group_IT_number 2
_symmetry_cell_setting 'triclinic'
loop_
_space_group_symop_operation_xyz
x,y,z
-x,-y,-z
loop_
_atom_site_type_symbol
_atom_site_label
_atom_site_fract_x
_atom_site_fract_y
_atom_site_fract_z
Si Si1 0.618912 0.632137 0.200226
Si Si2 0.468149 0.894502 0.331222
Si Si3 0.127965 0.285466 0.975640
Si Si4 0.797664 0.933881 0.984275
Si Si5 0.978423 0.815214 0.420031
Si Si6 0.409420 0.584169 0.582499
Si Si7 0.961643 0.285443 0.363927
Si Si8 0.805301 0.180984 0.792770
O O1 0.359379 0.422015 0.064068
O O2 0.836187 0.755923 0.165226
O O3 0.496683 0.405585 0.151885
O O4 0.743851 0.902705 0.399340
O O5 0.216215 0.541215 0.142416
O O6 0.420762 0.970781 0.319161
O O7 0.500000 0.000000 0.500000
O O8 0.710070 0.029622 0.321495
O O9 0.856363 0.011751 0.913963
O O10 0.882291 0.147421 0.184331
O O11 0.000000 0.000000 0.000000
O O12 0.754799 0.555808 0.373681
O O13 0.013438 0.736826 0.269995
O O14 0.000000 0.000000 0.500000
O O15 0.500000 0.500000 0.500000
O O16 0.195609 0.416268 0.439216
O O17 0.653464 0.932461 0.735413
O O18 0.000000 0.500000 0.500000
O O19 0.000000 0.500000 0.000000
#
# Coordination Sequence:
#
# PCOD9004239 Si02
#       8
#     2   2   2   2   2   2   2   2
#     4  10  22  41  65 106 150 188 260 318 387 464
#     4  12  24  46  77 114 162 204 268 341 410 475
#     4  10  21  37  65 105 142 195 240 318 387 465
#     4  10  23  38  66 111 154 198 247 327 403 468
#     4  12  28  49  80 109 151 216 273 325 404 495
#     4  12  28  52  84 115 160 220 276 337 414 501
#     4  12  24  45  77 116 159 206 272 337 404 484
#     4  12  30  55  80 121 167 216 274 344 413 497
#
# _framework density 24.826228
#
# number of rings (size 3 to 8) (size 9 to 14) (size 15 to 20)
#    0.000    0.750    3.750    3.000    8.750    0.500 
#    2.250    0.000    0.000    0.000    0.000    0.000 
#    0.000    0.000    0.000    0.000    0.000    0.000 
#
# Total GULP energy -89519.255102 kJ/mol
# GULP energy per Si atom -5594.953444 kJ/mol
# Density = 2.476972 g / cm^3
# Si number density = 24.826228 Si / 1000 Ang^3
#
#
#
# Elastic Constant Matrix: (Units=GPa)
#
#
# Indices 1 2 3 4 5 6 
#
# 1 118.5008 53.1753 38.7708 -0.0622 -1.5069 -13.4110
# 2 53.1753 224.9025 95.8827 2.2249 -17.0151 -19.3637
# 3 38.7708 95.8827 156.9782 -14.4343 -31.7507 -2.1219
# 4 -0.0622 2.2249 -14.4343 48.9907 2.4192 -4.5132
# 5 -1.5069 -17.0151 -31.7507 2.4192 45.4122 0.3958
# 6 -13.4110 -19.3637 -2.1219 -4.5132 0.3958 50.2137
#
#
#
# Elastic Compliance Matrix: (Units=1/GPa)
#
#
# Indices 1 2 3 4 5 6 
#
# 1 0.009919 -0.001508 -0.001828 -0.000199 -0.001520 0.001984
# 2 -0.001508 0.006565 -0.003760 -0.001228 -0.000170 0.001861
# 3 -0.001828 -0.003760 0.010527 0.002868 0.005749 -0.001281
# 4 -0.000199 -0.001228 0.002868 0.021434 0.000384 0.001518
# 5 -0.001520 -0.000170 0.005749 0.000384 0.025909 -0.000398
# 6 0.001984 0.001861 -0.001281 0.001518 -0.000398 0.021248
#
#
# Mechanical properties :
#
#
# Convention : Reuss Voigt Hill
#
# Bulk Modulus (GPa) = 77.99993 97.33767 87.66880
# Shear Modulus (GPa) = 43.83397 49.76016 46.79706
#
# Velocity S-wave (km/s) = 4.20650 4.48184 4.34635
# Velocity P-wave (km/s) = 7.42155 8.12867 7.78314
#
# Compressibility (1/GPa) = 0.01282052
#
# Stress axis : x y z
#
# Youngs Moduli (GPa) = 100.82074 152.31362 94.98966
#
# Poissons Ratio (x) = 0.22972 0.17360
# Poissons Ratio (y) = 0.15206 0.35713
# Poissons Ratio (z) = 0.18425 0.57266
#
# Static dielectric constant tensor:
#      x y z
#    x 2.779550 -0.422890 0.333780 
#    y -0.422890 2.244980 -0.057040 
#    z 0.333780 -0.057040 2.146880 
# 
# From -- ./inp_files/522500.got.cif
#   From: 2010.05.17/outbox.cif.g08.bks.cpg/sg2_262_cif.got.tgz:522500.got - 2010.06.03 11:33:40.
