data_PCOD9004177
_publ_section_title
;
Structure prediction by ZEFSAII (Michael W. Deem and Ramdas Pophale) SiO2 
 PCOD9004177
Probable space group: P -1
;
_chemical_formula_sum "Si O2"
_cell_formula_units_Z 14
_cell_length_a 13.372553
_cell_length_b 11.699756
_cell_length_c 9.128490
_cell_angle_alpha 59.137276
_cell_angle_beta 47.219875
_cell_angle_gamma 37.686307
_cell_volume 639.879864
_symmetry_space_group_name_H-M "P -1"
_symmetry_group_IT_number 2
_symmetry_cell_setting 'triclinic'
loop_
_space_group_symop_operation_xyz
x,y,z
-x,-y,-z
loop_
_atom_site_type_symbol
_atom_site_label
_atom_site_fract_x
_atom_site_fract_y
_atom_site_fract_z
Si Si1 0.903897 0.509347 0.234443
Si Si2 0.527916 0.702971 0.068291
Si Si3 0.524142 0.638237 0.430881
Si Si4 0.841231 0.688195 0.632816
Si Si5 0.767327 0.265388 0.143896
Si Si6 0.280646 0.117080 0.651815
Si Si7 0.832393 0.059229 0.937537
O O1 0.734909 0.527026 0.348870
O O2 0.820232 0.692580 0.286171
O O3 0.058670 0.337560 0.300305
O O4 0.000000 0.500000 0.000000
O O5 0.487833 0.754587 0.247487
O O6 0.666488 0.477861 0.086799
O O7 0.324006 0.814744 0.118327
O O8 0.657115 0.724537 0.840357
O O9 0.500000 0.500000 0.500000
O O10 0.383691 0.738755 0.642767
O O11 0.788629 0.840980 0.474068
O O12 0.000000 0.500000 0.500000
O O13 0.832487 0.181948 0.970420
O O14 0.943392 0.135760 0.169671
O O15 0.500000 0.000000 0.500000
O O16 0.246757 0.010724 0.847597
#
# Coordination Sequence:
#
# PCOD9004177 Si02
#       7
#     2   2   2   2   2   2   2
#     4  11  22  41  68  95 129 175 222 271 331 395
#     4  11  21  42  66  93 130 171 218 268 327 388
#     4  10  23  41  64  92 132 170 217 266 325 394
#     4  10  21  37  64  95 126 167 218 264 335 387
#     4  10  23  42  63  92 132 174 219 267 325 393
#     4  11  22  40  65  94 136 164 214 282 327 386
#     4  11  23  41  66  95 129 170 222 273 323 388
#
# _framework density 21.879107000000001
#
# number of rings (size 3 to 8) (size 9 to 14) (size 15 to 20)
#    0.000    1.429    2.857    3.000    4.000    0.571 
#   10.286    4.286    0.000    0.000    0.000    0.000 
#    0.000    0.000    0.000    0.000    0.000    0.000 
#
# Total GULP energy -78099.748759 kJ/mol
# GULP energy per Si atom -5578.553483 kJ/mol
# Density = 2.182931 g / cm^3
# Si number density = 21.879107 Si / 1000 Ang^3
#
#
#
# Elastic Constant Matrix: (Units=GPa)
#
#
# Indices 1 2 3 4 5 6 
#
# 1 115.2910 32.8602 24.9627 2.4323 5.4202 -45.5883
# 2 32.8602 78.7949 10.7971 -3.9877 4.8461 -26.3773
# 3 24.9627 10.7971 100.9034 7.8451 -4.4807 -16.6582
# 4 2.4323 -3.9877 7.8451 23.2220 -11.0007 -7.4407
# 5 5.4202 4.8461 -4.4807 -11.0007 40.4686 -2.1364
# 6 -45.5883 -26.3773 -16.6582 -7.4407 -2.1364 49.5765
#
#
#
# Elastic Compliance Matrix: (Units=1/GPa)
#
#
# Indices 1 2 3 4 5 6 
#
# 1 0.014184 -0.001514 -0.001570 0.002348 -0.000619 0.012035
# 2 -0.001514 0.016358 -0.000493 0.005794 0.000188 0.008023
# 3 -0.001570 -0.000493 0.010857 -0.002695 0.000822 0.001573
# 4 0.002348 0.005794 -0.002695 0.055918 0.014599 0.013358
# 5 -0.000619 0.000188 0.000822 0.014599 0.029002 0.003248
# 6 0.012035 0.008023 0.001573 0.013358 0.003248 0.038180
#
#
# Mechanical properties :
#
#
# Convention : Reuss Voigt Hill
#
# Bulk Modulus (GPa) = 29.20269 48.02549 38.61409
# Shear Modulus (GPa) = 27.31229 37.74471 32.52850
#
# Velocity S-wave (km/s) = 3.53700 4.15800 3.86001
# Velocity P-wave (km/s) = 5.48241 6.71193 6.12808
#
# Compressibility (1/GPa) = 0.03424342
#
# Stress axis : x y z
#
# Youngs Moduli (GPa) = 70.50317 61.13396 92.10327
#
# Poissons Ratio (x) = 0.09257 0.14461
# Poissons Ratio (y) = 0.10675 0.04544
# Poissons Ratio (z) = 0.11069 0.03016
#
# Static dielectric constant tensor:
#      x y z
#    x 1.869500 -0.009640 0.020500 
#    y -0.009640 1.929700 0.049850 
#    z 0.020500 0.049850 1.804040 
# 
# From -- ./inp_files/155608.got.cif
#   From: 2010.05.17/outbox.cif.g08.bks.cpg/sg2_78_cif.got.tgz:155608.got - 2010.06.03 11:33:40.
