data_PCOD9004451
_publ_section_title
;
Structure prediction by ZEFSAII (Michael W. Deem and Ramdas Pophale) SiO2 
 PCOD9004451
Probable space group: P -1
;
_chemical_formula_sum "Si O2"
_cell_formula_units_Z 16
_cell_length_a 9.081594
_cell_length_b 22.479172
_cell_length_c 5.286274
_cell_angle_alpha 120.695525
_cell_angle_beta 100.030856
_cell_angle_gamma 45.405373
_cell_volume 630.188272
_symmetry_space_group_name_H-M "P -1"
_symmetry_group_IT_number 2
_symmetry_cell_setting 'triclinic'
loop_
_space_group_symop_operation_xyz
x,y,z
-x,-y,-z
loop_
_atom_site_type_symbol
_atom_site_label
_atom_site_fract_x
_atom_site_fract_y
_atom_site_fract_z
Si Si1 0.094859 0.897254 0.429555
Si Si2 0.481989 0.288645 0.588866
Si Si3 0.002191 0.800418 0.911761
Si Si4 0.135930 0.618814 0.614920
Si Si5 0.508099 0.432770 0.041212
Si Si6 0.260082 0.315889 0.064201
Si Si7 0.360227 0.135950 0.744827
Si Si8 0.696751 0.973465 0.807853
O O1 0.306050 0.828002 0.523445
O O2 0.889239 0.938878 0.616222
O O3 0.000000 0.000000 0.500000
O O4 0.155050 0.812548 0.073336
O O5 0.381463 0.305233 0.322955
O O6 0.552323 0.345383 0.733809
O O7 0.299997 0.343923 0.878693
O O8 0.825200 0.904773 0.937364
O O9 0.051034 0.709353 0.597016
O O10 0.880026 0.807216 0.129446
O O11 0.275900 0.514540 0.287129
O O12 0.305850 0.609994 0.798113
O O13 0.970762 0.632667 0.778417
O O14 0.500000 0.500000 0.000000
O O15 0.372191 0.206128 0.785391
O O16 0.420948 0.057158 0.394021
O O17 0.502252 0.091073 0.946157
#
# Coordination Sequence:
#
# PCOD9004451 Si02
#       8
#     2   2   2   2   2   2   2   2
#     4  11  25  40  62  98 144 195 238 293 360 425
#     4  12  29  49  72 112 149 193 240 302 362 435
#     4  10  21  38  69  95 132 184 246 297 348 436
#     4  10  25  48  73 107 136 191 243 300 364 436
#     4  11  27  47  80 103 143 188 244 301 365 442
#     4  11  28  47  75 105 155 186 239 300 368 428
#     4   9  21  40  61 103 134 190 235 298 350 431
#     4  10  21  37  67  91 139 185 251 291 349 425
#
# _framework density 25.389239
#
# number of rings (size 3 to 8) (size 9 to 14) (size 15 to 20)
#    0.000    1.500    1.250    1.125   14.000    1.500 
#    0.000    0.000    0.000    0.000    0.000    0.000 
#    0.000    0.000    0.000    0.000    0.000    0.000 
#
# Total GULP energy -89189.568839 kJ/mol
# GULP energy per Si atom -5574.348052 kJ/mol
# Density = 2.533145 g / cm^3
# Si number density = 25.389239 Si / 1000 Ang^3
#
#
#
# Elastic Constant Matrix: (Units=GPa)
#
#
# Indices 1 2 3 4 5 6 
#
# 1 108.4504 19.5812 32.0808 4.3245 -12.5868 19.8720
# 2 19.5812 35.0497 8.1637 10.1711 -5.3346 12.3660
# 3 32.0808 8.1637 43.1439 -1.6388 9.7042 0.3753
# 4 4.3245 10.1711 -1.6388 37.3541 -0.0082 0.4062
# 5 -12.5868 -5.3346 9.7042 -0.0082 44.6641 4.0686
# 6 19.8720 12.3660 0.3753 0.4062 4.0686 38.6738
#
#
#
# Elastic Compliance Matrix: (Units=1/GPa)
#
#
# Indices 1 2 3 4 5 6 
#
# 1 0.016009 -0.000878 -0.013574 -0.002114 0.008143 -0.008648
# 2 -0.000878 0.040054 -0.008956 -0.011055 0.007661 -0.012959
# 3 -0.013574 -0.008956 0.038278 0.005568 -0.014204 0.010903
# 4 -0.002114 -0.011055 0.005568 0.030219 -0.003541 0.004622
# 5 0.008143 0.007661 -0.014204 -0.003541 0.029556 -0.009568
# 6 -0.008648 -0.012959 0.010903 0.004622 -0.009568 0.035297
#
#
# Mechanical properties :
#
#
# Convention : Reuss Voigt Hill
#
# Bulk Modulus (GPa) = 21.04246 34.03283 27.53764
# Shear Modulus (GPa) = 19.83573 32.59296 26.21434
#
# Velocity S-wave (km/s) = 2.79814 3.58681 3.21674
# Velocity P-wave (km/s) = 4.32960 5.53056 4.96651
#
# Compressibility (1/GPa) = 0.04752296
#
# Stress axis : x y z
#
# Youngs Moduli (GPa) = 62.46576 24.96659 26.12472
#
# Poissons Ratio (x) = 0.02192 0.35462
# Poissons Ratio (y) = 0.05484 0.23398
# Poissons Ratio (z) = 0.84793 0.22361
#
# Static dielectric constant tensor:
#      x y z
#    x 2.010290 -0.120680 -0.063030 
#    y -0.120680 2.602780 0.088120 
#    z -0.063030 0.088120 2.218090 
# 
# From -- ./inp_files/53753.got.cif
#   From: 2010.05.17/outbox.cif.g08.bks.cpg/sg2_27_cif.got.tgz:53753.got - 2010.06.03 11:33:40.
