data_PCOD9004764
_publ_section_title
;
Structure prediction by ZEFSAII (Michael W. Deem and Ramdas Pophale) SiO2 
 PCOD9004764
Probable space group: P -1
;
_chemical_formula_sum "Si O2"
_cell_formula_units_Z 16
_cell_length_a 16.626563
_cell_length_b 13.585692
_cell_length_c 11.602083
_cell_angle_alpha 58.420028
_cell_angle_beta 111.201378
_cell_angle_gamma 159.098329
_cell_volume 722.948107
_symmetry_space_group_name_H-M "P -1"
_symmetry_group_IT_number 2
_symmetry_cell_setting 'triclinic'
loop_
_space_group_symop_operation_xyz
x,y,z
-x,-y,-z
loop_
_atom_site_type_symbol
_atom_site_label
_atom_site_fract_x
_atom_site_fract_y
_atom_site_fract_z
Si Si1 0.592252 0.749379 0.913537
Si Si2 0.010684 0.431621 0.331875
Si Si3 0.442919 0.893282 0.877249
Si Si4 0.077157 0.114088 0.104577
Si Si5 0.245086 0.871790 0.850049
Si Si6 0.101279 0.882413 0.925480
Si Si7 0.926415 0.142584 0.656821
Si Si8 0.734415 0.300345 0.355785
O O1 0.684724 0.897217 0.743110
O O2 0.500000 0.500000 0.000000
O O3 0.353408 0.513167 0.984775
O O4 0.804719 0.027190 0.950903
O O5 0.815846 0.173299 0.285410
O O6 0.010340 0.315778 0.480805
O O7 0.915837 0.416933 0.372750
O O8 0.273733 0.792718 0.185022
O O9 0.449786 0.027559 0.861963
O O10 0.365445 0.814824 0.752882
O O11 0.183612 0.507276 0.018598
O O12 0.895575 0.975490 0.157582
O O13 0.102562 0.031451 0.246428
O O14 0.000000 0.000000 0.000000
O O15 0.275690 0.025341 0.846168
O O16 0.000000 0.500000 0.000000
O O17 0.126733 0.416549 0.692323
O O18 0.500000 0.000000 0.500000
#
# Coordination Sequence:
#
# PCOD9004764 Si02
#       8
#     2   2   2   2   2   2   2   2
#     4  10  21  38  58  90 123 157 206 249 308 362
#     4  11  24  39  61  93 129 163 201 256 316 364
#     4  10  21  38  62  93 126 157 207 255 310 371
#     4  11  22  39  62  93 122 163 207 253 309 366
#     4   9  23  42  60  87 125 163 215 251 306 367
#     4  11  21  39  64  88 122 166 209 260 301 366
#     4  11  22  38  58  93 130 157 201 255 311 371
#     4  11  21  37  57  95 128 162 192 245 323 384
#
# _framework density 22.131602999999998
#
# number of rings (size 3 to 8) (size 9 to 14) (size 15 to 20)
#    0.000    1.500    5.000    0.375    1.750    4.000 
#    0.000    0.625    0.000    3.750    0.000    0.000 
#    0.000    0.000    0.000    0.000    0.000    0.000 
#
# Total GULP energy -89137.256977 kJ/mol
# GULP energy per Si atom -5571.078561 kJ/mol
# Density = 2.208123 g / cm^3
# Si number density = 22.131603 Si / 1000 Ang^3
#
#
#
# Elastic Constant Matrix: (Units=GPa)
#
#
# Indices 1 2 3 4 5 6 
#
# 1 132.5735 10.8357 11.2754 4.0961 -10.0046 3.2772
# 2 10.8357 73.5263 5.7155 2.7274 -1.1999 3.1361
# 3 11.2754 5.7155 53.7151 4.7624 5.0440 -1.9984
# 4 4.0961 2.7274 4.7624 32.7335 7.7588 -6.9745
# 5 -10.0046 -1.1999 5.0440 7.7588 28.6053 2.0322
# 6 3.2772 3.1361 -1.9984 -6.9745 2.0322 29.1127
#
#
#
# Elastic Compliance Matrix: (Units=1/GPa)
#
#
# Indices 1 2 3 4 5 6 
#
# 1 0.008159 -0.000852 -0.001869 -0.001936 0.003792 -0.001683
# 2 -0.000852 0.013988 -0.001348 -0.001534 0.001081 -0.001946
# 3 -0.001869 -0.001348 0.019697 -0.001217 -0.003974 0.001694
# 4 -0.001936 -0.001534 -0.001217 0.035731 -0.010902 0.009621
# 5 0.003792 0.001081 -0.003974 -0.010902 0.040432 -0.006250
# 6 -0.001683 -0.001946 0.001694 0.009621 -0.006250 0.037606
#
#
# Mechanical properties :
#
#
# Convention : Reuss Voigt Hill
#
# Bulk Modulus (GPa) = 29.66718 35.05200 32.35959
# Shear Modulus (GPa) = 28.57388 33.55618 31.06503
#
# Velocity S-wave (km/s) = 3.59707 3.89808 3.75060
# Velocity P-wave (km/s) = 5.53948 6.01102 5.78006
#
# Compressibility (1/GPa) = 0.03370728
#
# Stress axis : x y z
#
# Youngs Moduli (GPa) = 122.56163 71.48784 50.77036
#
# Poissons Ratio (x) = 0.06088 0.09490
# Poissons Ratio (y) = 0.10438 0.06842
# Poissons Ratio (z) = 0.22909 0.09634
#
# Static dielectric constant tensor:
#      x y z
#    x 1.971440 0.111880 0.000240 
#    y 0.111880 1.985020 -0.048340 
#    z 0.000240 -0.048340 1.850100 
# 
# From -- ./inp_files/466076.got.cif
#   From: 2010.05.17/outbox.cif.g08.bks.cpg/sg2_234_cif.got.tgz:466076.got - 2010.06.03 11:33:40.
