data_PCOD9004095
_publ_section_title
;
Structure prediction by ZEFSAII (Michael W. Deem and Ramdas Pophale) SiO2 
 PCOD9004095
Probable space group: P -1
;
_chemical_formula_sum "Si O2"
_cell_formula_units_Z 16
_cell_length_a 9.255039
_cell_length_b 8.530763
_cell_length_c 19.938294
_cell_angle_alpha 45.868760
_cell_angle_beta 41.005824
_cell_angle_gamma 73.211843
_cell_volume 640.966233
_symmetry_space_group_name_H-M "P -1"
_symmetry_group_IT_number 2
_symmetry_cell_setting 'triclinic'
loop_
_space_group_symop_operation_xyz
x,y,z
-x,-y,-z
loop_
_atom_site_type_symbol
_atom_site_label
_atom_site_fract_x
_atom_site_fract_y
_atom_site_fract_z
Si Si1 0.257317 0.632994 0.955642
Si Si2 0.487511 0.168241 0.510606
Si Si3 0.917018 0.142575 0.161169
Si Si4 0.253506 0.606892 0.287643
Si Si5 0.289965 0.065655 0.886407
Si Si6 0.702776 0.661170 0.323088
Si Si7 0.184103 0.228014 0.317889
Si Si8 0.016064 0.153697 0.613226
O O1 0.083384 0.705529 0.948876
O O2 0.527000 0.716863 0.802138
O O3 0.302007 0.808907 0.951918
O O4 0.101915 0.329503 0.096977
O O5 0.739117 0.439891 0.345851
O O6 0.262849 0.213670 0.550971
O O7 0.500000 0.000000 0.500000
O O8 0.373713 0.999314 0.666682
O O9 0.939412 0.905125 0.199375
O O10 0.550334 0.755480 0.161725
O O11 0.202847 0.480152 0.269448
O O12 0.162197 0.800041 0.287052
O O13 0.103776 0.366110 0.461311
O O14 0.406328 0.229677 0.727991
O O15 0.000000 0.000000 0.000000
O O16 0.500000 0.500000 0.500000
O O17 0.085617 0.109828 0.313255
O O18 0.000000 0.000000 0.500000
#
# Coordination Sequence:
#
# PCOD9004095 Si02
#       8
#     2   2   2   2   2   2   2   2
#     4  10  21  39  61  95 132 158 219 269 325 379
#     4  11  23  38  64  91 128 166 212 262 326 390
#     4   9  22  37  60  91 125 168 196 268 324 380
#     4  10  21  37  64  89 126 168 214 267 325 375
#     4  11  22  35  65  97 131 168 217 275 326 386
#     4   9  20  40  56  89 129 169 208 259 327 390
#     4  10  22  36  62  90 121 170 213 264 321 382
#     4  10  21  42  58  91 125 163 220 265 317 385
#
# _framework density 24.962313999999999
#
# number of rings (size 3 to 8) (size 9 to 14) (size 15 to 20)
#    0.000    2.000    2.500    0.000   10.500    0.000 
#    4.500    0.625    0.000    0.750    0.000    0.000 
#    0.000    0.000    0.000    0.000    0.000    0.000 
#
# Total GULP energy -89195.216888 kJ/mol
# GULP energy per Si atom -5574.701055 kJ/mol
# Density = 2.490550 g / cm^3
# Si number density = 24.962314 Si / 1000 Ang^3
#
#
#
# Elastic Constant Matrix: (Units=GPa)
#
#
# Indices 1 2 3 4 5 6 
#
# 1 77.7252 36.3363 10.7142 -5.3797 -9.4665 23.6417
# 2 36.3363 212.5217 52.0922 -32.1900 -28.7707 52.2304
# 3 10.7142 52.0922 81.8454 -17.5124 -21.7636 7.2880
# 4 -5.3797 -32.1900 -17.5124 48.7000 5.8882 -19.1844
# 5 -9.4665 -28.7707 -21.7636 5.8882 29.4508 -1.3854
# 6 23.6417 52.2304 7.2880 -19.1844 -1.3854 34.3160
#
#
#
# Elastic Compliance Matrix: (Units=1/GPa)
#
#
# Indices 1 2 3 4 5 6 
#
# 1 0.017901 0.001499 -0.001082 -0.004847 0.006596 -0.016828
# 2 0.001499 0.010026 -0.003593 -0.001762 0.007211 -0.016224
# 3 -0.001082 -0.003593 0.017413 0.004987 0.008278 0.005638
# 4 -0.004847 -0.001762 0.004987 0.029566 -0.004503 0.021310
# 5 0.006596 0.007211 0.008278 -0.004503 0.049300 -0.017805
# 6 -0.016828 -0.016224 0.005638 0.021310 -0.017805 0.075426
#
#
# Mechanical properties :
#
#
# Convention : Reuss Voigt Hill
#
# Bulk Modulus (GPa) = 25.64853 63.37531 44.51192
# Shear Modulus (GPa) = 22.83325 40.69000 31.76163
#
# Velocity S-wave (km/s) = 3.02770 4.04178 3.57092
# Velocity P-wave (km/s) = 4.74550 6.87203 5.90528
#
# Compressibility (1/GPa) = 0.03898859
#
# Stress axis : x y z
#
# Youngs Moduli (GPa) = 55.86385 99.73719 57.42889
#
# Poissons Ratio (x) = -0.14953 0.06215
# Poissons Ratio (y) = -0.08375 0.20632
# Poissons Ratio (z) = 0.06046 0.35832
#
# Static dielectric constant tensor:
#      x y z
#    x 1.823370 0.089540 0.026110 
#    y 0.089540 2.159280 -0.007270 
#    z 0.026110 -0.007270 2.051910 
# 
# From -- ./inp_files/330828.got.cif
#   From: 2010.05.17/outbox.cif.g08.bks.cpg/sg2_166_cif.got.tgz:330828.got - 2010.06.03 11:33:40.
