data_PCOD9004818
_publ_section_title
;
Structure prediction by ZEFSAII (Michael W. Deem and Ramdas Pophale) SiO2 
 PCOD9004818
Probable space group: P -1
;
_chemical_formula_sum "Si O2"
_cell_formula_units_Z 16
_cell_length_a 7.612082
_cell_length_b 5.824088
_cell_length_c 19.374565
_cell_angle_alpha 115.336515
_cell_angle_beta 86.836133
_cell_angle_gamma 119.586058
_cell_volume 661.651760
_symmetry_space_group_name_H-M "P -1"
_symmetry_group_IT_number 2
_symmetry_cell_setting 'triclinic'
loop_
_space_group_symop_operation_xyz
x,y,z
-x,-y,-z
loop_
_atom_site_type_symbol
_atom_site_label
_atom_site_fract_x
_atom_site_fract_y
_atom_site_fract_z
Si Si1 0.809006 0.656795 0.315203
Si Si2 0.577971 0.372773 0.832974
Si Si3 0.955974 0.503551 0.921717
Si Si4 0.591570 0.880892 0.676260
Si Si5 0.928857 0.222210 0.554977
Si Si6 0.815569 0.180678 0.167068
Si Si7 0.297576 0.863980 0.582218
Si Si8 0.184763 0.148956 0.213236
O O1 0.623677 0.412187 0.334707
O O2 0.794883 0.459306 0.225573
O O3 0.031256 0.772717 0.362746
O O4 0.751522 0.909686 0.346470
O O5 0.752293 0.508101 0.905724
O O6 0.621424 0.638172 0.813796
O O7 0.614156 0.155411 0.754979
O O8 0.365220 0.140780 0.844991
O O9 0.137465 0.774913 0.909390
O O10 0.909235 0.188286 0.852185
O O11 0.000000 0.500000 0.000000
O O12 0.519097 0.915933 0.606469
O O13 0.755035 0.818850 0.703131
O O14 0.734230 0.130012 0.498348
O O15 0.104945 0.548089 0.568750
O O16 0.000000 0.000000 0.500000
O O17 0.016272 0.231680 0.209702
#
# Coordination Sequence:
#
# PCOD9004818 Si02
#       8
#     2   2   2   2   2   2   2   2
#     4   9  17  30  52  81 113 150 197 243 290 351
#     4   9  20  38  58  85 116 153 199 240 289 353
#     4  10  23  41  59  86 122 155 193 243 298 355
#     4   9  17  30  52  80 112 149 191 242 291 343
#     4   8  15  26  43  76 113 150 195 239 287 347
#     4  10  22  38  61  89 116 156 199 242 295 351
#     4   9  15  26  48  78 114 151 191 241 295 345
#     4  10  21  38  59  84 118 154 195 245 294 350
#
# _framework density 24.181905
#
# number of rings (size 3 to 8) (size 9 to 14) (size 15 to 20)
#    0.000    2.750    0.000    0.750    0.000    8.500 
#    0.000    1.250    0.000    0.750    0.000   48.125 
#    0.000  108.000    0.000    0.000    0.000    0.125 
#
# Total GULP energy -89198.143796 kJ/mol
# GULP energy per Si atom -5574.883987 kJ/mol
# Density = 2.412687 g / cm^3
# Si number density = 24.181905 Si / 1000 Ang^3
#
#
#
# Elastic Constant Matrix: (Units=GPa)
#
#
# Indices 1 2 3 4 5 6 
#
# 1 55.2408 43.5388 35.3290 -15.4557 21.2517 3.8415
# 2 43.5388 149.0243 43.6832 -24.3140 4.5361 7.3655
# 3 35.3290 43.6832 89.1525 -37.0545 33.4762 0.1542
# 4 -15.4557 -24.3140 -37.0545 52.2459 -13.8847 -0.0553
# 5 21.2517 4.5361 33.4762 -13.8847 28.1468 -4.9764
# 6 3.8415 7.3655 0.1542 -0.0553 -4.9764 26.5810
#
#
#
# Elastic Compliance Matrix: (Units=1/GPa)
#
#
# Indices 1 2 3 4 5 6 
#
# 1 0.036846 -0.009850 0.000771 -0.000850 -0.028987 -0.008029
# 2 -0.009850 0.011175 -0.006096 0.001650 0.013871 0.000963
# 3 0.000771 -0.006096 0.029660 0.010303 -0.030552 -0.004293
# 4 -0.000850 0.001650 0.010303 0.027397 0.001631 -0.000032
# 5 -0.028987 0.013871 -0.030552 0.001631 0.095577 0.018420
# 6 -0.008029 0.000963 -0.004293 -0.000032 0.018420 0.041988
#
#
# Mechanical properties :
#
#
# Convention : Reuss Voigt Hill
#
# Bulk Modulus (GPa) = 21.12883 59.83553 40.48218
# Shear Modulus (GPa) = 17.31482 32.78584 25.05033
#
# Velocity S-wave (km/s) = 2.67877 3.68611 3.22205
# Velocity P-wave (km/s) = 4.28067 6.55090 5.53346
#
# Compressibility (1/GPa) = 0.04732869
#
# Stress axis : x y z
#
# Youngs Moduli (GPa) = 27.14031 89.48914 33.71539
#
# Poissons Ratio (x) = 0.88148 -0.02598
# Poissons Ratio (y) = 0.26734 0.20554
# Poissons Ratio (z) = -0.02092 0.54555
#
# Static dielectric constant tensor:
#      x y z
#    x 2.034060 -0.083410 -0.004150 
#    y -0.083410 2.137470 0.032410 
#    z -0.004150 0.032410 1.996590 
# 
# From -- ./inp_files/585381.got.cif
#   From: 2010.05.17/outbox.cif.g08.bks.cpg/sg2_293_cif.got.tgz:585381.got - 2010.06.03 11:33:40.
