data_PCOD9004101
_publ_section_title
;
Structure prediction by ZEFSAII (Michael W. Deem and Ramdas Pophale) SiO2 
 PCOD9004101
Probable space group: P -1
;
_chemical_formula_sum "Si O2"
_cell_formula_units_Z 16
_cell_length_a 23.715792
_cell_length_b 14.939964
_cell_length_c 13.845665
_cell_angle_alpha 145.751009
_cell_angle_beta 21.774229
_cell_angle_gamma 156.614671
_cell_volume 711.140716
_symmetry_space_group_name_H-M "P -1"
_symmetry_group_IT_number 2
_symmetry_cell_setting 'triclinic'
loop_
_space_group_symop_operation_xyz
x,y,z
-x,-y,-z
loop_
_atom_site_type_symbol
_atom_site_label
_atom_site_fract_x
_atom_site_fract_y
_atom_site_fract_z
Si Si1 0.344417 0.113617 0.296406
Si Si2 0.568048 0.806077 0.560795
Si Si3 0.290652 0.729701 0.589880
Si Si4 0.486255 0.692596 0.091990
Si Si5 0.875958 0.344804 0.832884
Si Si6 0.903480 0.227383 0.897488
Si Si7 0.254586 0.718407 0.313640
Si Si8 0.641336 0.584885 0.599317
O O1 0.347382 0.188933 0.465594
O O2 0.296628 0.213207 0.382897
O O3 0.175879 0.837579 0.320137
O O4 0.577417 0.213594 0.978325
O O5 0.526991 0.645486 0.401494
O O6 0.704142 0.063028 0.541079
O O7 0.330717 0.699292 0.868066
O O8 0.373551 0.628425 0.318474
O O9 0.090126 0.615929 0.734371
O O10 0.500000 0.000000 0.500000
O O11 0.189990 0.693146 0.821945
O O12 0.343999 0.687958 0.236603
O O13 0.524219 0.555146 0.856658
O O14 0.723814 0.953829 0.954225
O O15 0.899981 0.266719 0.825739
O O16 0.135958 0.339789 0.664445
O O17 0.000000 0.500000 0.500000
#
# Coordination Sequence:
#
# PCOD9004101 Si02
#       8
#     2   2   2   2   2   2   2   2
#     4  10  23  40  61  95 122 164 219 254 305 371
#     4  11  22  39  66  93 119 163 222 257 297 370
#     4  10  23  36  62  93 126 158 207 262 300 375
#     4  10  22  40  58  94 133 158 202 253 327 370
#     4  11  20  39  67  93 118 164 216 257 303 373
#     4  11  20  40  69  91 124 160 214 252 314 371
#     4  10  21  37  64  90 123 166 205 261 310 361
#     4  11  22  39  67  92 129 164 204 262 313 377
#
# _framework density 22.499061999999999
#
# number of rings (size 3 to 8) (size 9 to 14) (size 15 to 20)
#    0.000    1.500    5.000    2.625    3.500    0.000 
#    0.000    3.125    5.500    0.000    0.000    0.000 
#    0.000    0.000    0.000    0.000    0.000    0.000 
#
# Total GULP energy -89277.715639 kJ/mol
# GULP energy per Si atom -5579.857227 kJ/mol
# Density = 2.244785 g / cm^3
# Si number density = 22.499062 Si / 1000 Ang^3
#
#
#
# Elastic Constant Matrix: (Units=GPa)
#
#
# Indices 1 2 3 4 5 6 
#
# 1 95.7781 16.9364 51.3205 13.8356 3.0790 7.1440
# 2 16.9364 106.6066 43.9670 5.0675 4.7485 30.0904
# 3 51.3205 43.9670 103.7171 13.4946 24.3494 14.3622
# 4 13.8356 5.0675 13.4946 46.7242 13.9441 3.6295
# 5 3.0790 4.7485 24.3494 13.9441 36.7510 11.6951
# 6 7.1440 30.0904 14.3622 3.6295 11.6951 34.2750
#
#
#
# Elastic Compliance Matrix: (Units=1/GPa)
#
#
# Indices 1 2 3 4 5 6 
#
# 1 0.015693 0.002182 -0.009401 -0.004068 0.007219 -0.003279
# 2 0.002182 0.015637 -0.007428 -0.001400 0.007544 -0.013496
# 3 -0.009401 -0.007428 0.019747 0.001521 -0.013381 0.004611
# 4 -0.004068 -0.001400 0.001521 0.025381 -0.010903 0.002472
# 5 0.007219 0.007544 -0.013381 -0.010903 0.043826 -0.016321
# 6 -0.003279 -0.013496 0.004611 0.002472 -0.016321 0.045083
#
#
# Mechanical properties :
#
#
# Convention : Reuss Voigt Hill
#
# Bulk Modulus (GPa) = 45.91140 58.94995 52.43067
# Shear Modulus (GPa) = 24.76184 36.47523 30.61854
#
# Velocity S-wave (km/s) = 3.32109 4.03077 3.69301
# Velocity P-wave (km/s) = 5.92928 6.92248 6.44504
#
# Compressibility (1/GPa) = 0.02178108
#
# Stress axis : x y z
#
# Youngs Moduli (GPa) = 63.72456 63.95000 50.63969
#
# Poissons Ratio (x) = -0.13951 0.47607
# Poissons Ratio (y) = -0.13902 0.37618
# Poissons Ratio (z) = 0.59908 0.47505
#
# Static dielectric constant tensor:
#      x y z
#    x 1.864460 0.007610 0.034720 
#    y 0.007610 1.920360 -0.034490 
#    z 0.034720 -0.034490 1.871580 
# 
# From -- ./inp_files/186980.got.cif
#   From: 2010.05.17/outbox.cif.g08.bks.cpg/sg2_94_cif.got.tgz:186980.got - 2010.06.03 11:33:40.
