data_PCOD9004267
_publ_section_title
;
Structure prediction by ZEFSAII (Michael W. Deem and Ramdas Pophale) SiO2 
 PCOD9004267
Probable space group: P -1
;
_chemical_formula_sum "Si O2"
_cell_formula_units_Z 16
_cell_length_a 10.076888
_cell_length_b 22.869729
_cell_length_c 19.037476
_cell_angle_alpha 163.001987
_cell_angle_beta 133.033182
_cell_angle_gamma 37.631223
_cell_volume 710.751708
_symmetry_space_group_name_H-M "P -1"
_symmetry_group_IT_number 2
_symmetry_cell_setting 'triclinic'
loop_
_space_group_symop_operation_xyz
x,y,z
-x,-y,-z
loop_
_atom_site_type_symbol
_atom_site_label
_atom_site_fract_x
_atom_site_fract_y
_atom_site_fract_z
Si Si1 0.233177 0.117682 0.126728
Si Si2 0.830878 0.181294 0.710662
Si Si3 0.457385 0.768125 0.927802
Si Si4 0.051494 0.099990 0.848604
Si Si5 0.456254 0.326860 0.386591
Si Si6 0.415658 0.229830 0.680389
Si Si7 0.136530 0.920397 0.106535
Si Si8 0.959549 0.454923 0.683634
O O1 0.257427 0.323548 0.343070
O O2 0.993923 0.173391 0.084289
O O3 0.301787 0.045728 0.149995
O O4 0.442309 0.846150 0.846709
O O5 0.632496 0.156098 0.626470
O O6 0.981344 0.101920 0.746009
O O7 0.695204 0.489273 0.002192
O O8 0.000000 0.000000 0.500000
O O9 0.393389 0.603427 0.677970
O O10 0.732994 0.618996 0.842177
O O11 0.380670 0.794958 0.011169
O O12 0.866628 0.130429 0.870757
O O13 0.314253 0.843464 0.673093
O O14 0.048893 0.341628 0.132762
O O15 0.204938 0.292879 0.629035
O O16 0.500000 0.000000 0.500000
O O17 0.968177 0.235534 0.397291
#
# Coordination Sequence:
#
# PCOD9004267 Si02
#       8
#     2   2   2   2   2   2   2   2
#     4  10  21  39  61  92 129 167 217 264 313 371
#     4  10  23  45  71  98 127 173 218 269 326 395
#     4  12  23  39  63  94 124 170 219 263 311 380
#     4  10  21  44  63  90 132 164 208 263 320 379
#     4  10  21  37  65  91 122 174 208 257 322 368
#     4  10  23  44  67  99 133 166 211 273 334 393
#     4  11  25  40  63  97 126 172 214 263 318 375
#     4  11  23  42  64  90 132 168 208 263 322 379
#
# _framework density 22.511375999999998
#
# number of rings (size 3 to 8) (size 9 to 14) (size 15 to 20)
#    0.000    1.500    3.750    1.500    0.000    4.000 
#    9.000    0.000    0.000    0.000    0.000    0.000 
#    0.000    0.000    0.000    0.000    0.000    0.000 
#
# Total GULP energy -89516.098603 kJ/mol
# GULP energy per Si atom -5594.756163 kJ/mol
# Density = 2.246014 g / cm^3
# Si number density = 22.511376 Si / 1000 Ang^3
#
#
#
# Elastic Constant Matrix: (Units=GPa)
#
#
# Indices 1 2 3 4 5 6 
#
# 1 166.7222 42.8719 67.8897 -0.3258 4.9718 7.0263
# 2 42.8719 105.4463 11.6428 2.0803 -0.1627 0.5991
# 3 67.8897 11.6428 78.5420 1.5666 0.3409 14.1796
# 4 -0.3258 2.0803 1.5666 21.1696 3.9564 2.2893
# 5 4.9718 -0.1627 0.3409 3.9564 43.5621 -2.2842
# 6 7.0263 0.5991 14.1796 2.2893 -2.2842 32.8089
#
#
#
# Elastic Compliance Matrix: (Units=1/GPa)
#
#
# Indices 1 2 3 4 5 6 
#
# 1 0.010395 -0.003290 -0.008780 0.001192 -0.001161 0.001465
# 2 -0.003290 0.010708 0.001264 -0.001305 0.000529 0.000091
# 3 -0.008780 0.001264 0.021473 -0.001164 0.000562 -0.007303
# 4 0.001192 -0.001305 -0.001164 0.048730 -0.004739 -0.003459
# 5 -0.001161 0.000529 0.000562 -0.004739 0.023620 0.001971
# 6 0.001465 0.000091 -0.007303 -0.003459 0.001971 0.033699
#
#
# Mechanical properties :
#
#
# Convention : Reuss Voigt Hill
#
# Bulk Modulus (GPa) = 47.70353 66.16880 56.93616
# Shear Modulus (GPa) = 28.21271 34.72851 31.47061
#
# Velocity S-wave (km/s) = 3.54399 3.93200 3.74302
# Velocity P-wave (km/s) = 6.16306 7.07612 6.63531
#
# Compressibility (1/GPa) = 0.02096281
#
# Stress axis : x y z
#
# Youngs Moduli (GPa) = 96.20264 93.39025 46.56936
#
# Poissons Ratio (x) = 0.30729 0.40889
# Poissons Ratio (y) = 0.31654 -0.05887
# Poissons Ratio (z) = 0.84469 -0.11807
#
# Static dielectric constant tensor:
#      x y z
#    x 1.829590 -0.005660 -0.005530 
#    y -0.005660 1.816890 -0.014680 
#    z -0.005530 -0.014680 1.872600 
# 
# From -- ./inp_files/562789.got.cif
#   From: 2010.05.17/outbox.cif.g08.bks.cpg/sg2_282_cif.got.tgz:562789.got - 2010.06.03 11:33:40.
