data_PCOD9004943
_publ_section_title
;
Structure prediction by ZEFSAII (Michael W. Deem and Ramdas Pophale) SiO2 
 PCOD9004943
Probable space group: P -1
;
_chemical_formula_sum "Si O2"
_cell_formula_units_Z 12
_cell_length_a 9.018891
_cell_length_b 9.339939
_cell_length_c 19.515865
_cell_angle_alpha 32.815608
_cell_angle_beta 142.841466
_cell_angle_gamma 148.902929
_cell_volume 442.240443
_symmetry_space_group_name_H-M "P -1"
_symmetry_group_IT_number 2
_symmetry_cell_setting 'triclinic'
loop_
_space_group_symop_operation_xyz
x,y,z
-x,-y,-z
loop_
_atom_site_type_symbol
_atom_site_label
_atom_site_fract_x
_atom_site_fract_y
_atom_site_fract_z
Si Si1 0.497133 0.208318 0.084139
Si Si2 0.209628 0.252981 0.394343
Si Si3 0.831673 0.374336 0.884167
Si Si4 0.463533 0.511620 0.769139
Si Si5 0.946995 0.159133 0.622174
Si Si6 0.644055 0.109898 0.317623
O O1 0.464321 0.015931 0.218746
O O2 0.821235 0.368985 0.104703
O O3 0.259787 0.973259 0.034057
O O4 0.500000 0.500000 0.000000
O O5 0.327310 0.534390 0.268927
O O6 0.985048 0.262566 0.358889
O O7 0.013999 0.939897 0.398767
O O8 0.426529 0.186881 0.541274
O O9 0.702049 0.418626 0.888179
O O10 0.386743 0.626382 0.762755
O O11 0.171432 0.219532 0.741753
O O12 0.626668 0.850985 0.651102
O O13 0.000000 0.500000 0.500000
#
# Coordination Sequence:
#
# PCOD9004943 Si02
#       6
#     2   2   2   2   2   2
#     4  11  24  46  66  86 119 163 209 253 307 360
#     4   9  20  38  60  91 132 157 202 241 308 368
#     4  10  22  41  65  90 119 164 198 248 310 371
#     4  11  22  37  59  90 125 161 205 241 300 362
#     4  11  21  36  55  85 128 172 190 231 302 372
#     4  10  21  38  59  96 122 162 202 256 296 355
#
# _framework density 27.134561999999999
#
# number of rings (size 3 to 8) (size 9 to 14) (size 15 to 20)
#    0.000    1.667    1.667    4.000    2.333    3.333 
#    0.000    1.667    0.000    0.000    0.000    0.000 
#    0.000    0.000    0.000    0.000    0.000    0.000 
#
# Total GULP energy -67103.739586 kJ/mol
# GULP energy per Si atom -5591.978299 kJ/mol
# Density = 2.707280 g / cm^3
# Si number density = 27.134562 Si / 1000 Ang^3
#
#
#
# Elastic Constant Matrix: (Units=GPa)
#
#
# Indices 1 2 3 4 5 6 
#
# 1 178.9285 38.1459 22.7900 -3.5547 15.6687 -47.0324
# 2 38.1459 122.5468 1.0754 -12.4988 0.9662 -20.8563
# 3 22.7900 1.0754 76.2545 -12.2201 -9.0193 -13.1227
# 4 -3.5547 -12.4988 -12.2201 36.1387 -12.3456 7.8753
# 5 15.6687 0.9662 -9.0193 -12.3456 40.0788 -11.6707
# 6 -47.0324 -20.8563 -13.1227 7.8753 -11.6707 36.9781
#
#
#
# Elastic Compliance Matrix: (Units=1/GPa)
#
#
# Indices 1 2 3 4 5 6 
#
# 1 0.008771 -0.001307 -0.001562 -0.002877 -0.001745 0.009927
# 2 -0.001307 0.009756 0.002140 0.004089 0.003417 0.004808
# 3 -0.001562 0.002140 0.016911 0.007884 0.008616 0.006262
# 4 -0.002877 0.004089 0.007884 0.036515 0.013439 -0.002090
# 5 -0.001745 0.003417 0.008616 0.013439 0.034799 0.010887
# 6 0.009927 0.004808 0.006262 -0.002090 0.010887 0.048484
#
#
# Mechanical properties :
#
#
# Convention : Reuss Voigt Hill
#
# Bulk Modulus (GPa) = 29.42889 55.75026 42.58958
# Shear Modulus (GPa) = 29.75809 43.68704 36.72257
#
# Velocity S-wave (km/s) = 3.31522 4.01685 3.68278
# Velocity P-wave (km/s) = 5.05206 6.48875 5.81495
#
# Compressibility (1/GPa) = 0.03398021
#
# Stress axis : x y z
#
# Youngs Moduli (GPa) = 114.00754 102.49652 59.13388
#
# Poissons Ratio (x) = 0.13394 0.09237
# Poissons Ratio (y) = 0.14898 -0.12653
# Poissons Ratio (z) = 0.17809 -0.21931
#
# Static dielectric constant tensor:
#      x y z
#    x 2.138480 -0.018770 -0.037320 
#    y -0.018770 2.015470 -0.007780 
#    z -0.037320 -0.007780 2.261000 
# 
# From -- ./inp_files/107108.got.cif
#   From: 2010.05.17/outbox.cif.g08.bks.cpg/sg2_54_cif.got.tgz:107108.got - 2010.06.03 11:33:40.
