data_PCOD9004987
_publ_section_title
;
Structure prediction by ZEFSAII (Michael W. Deem and Ramdas Pophale) SiO2 
 PCOD9004987
Probable space group: P -1
;
_chemical_formula_sum "Si O2"
_cell_formula_units_Z 16
_cell_length_a 18.046116
_cell_length_b 7.659220
_cell_length_c 8.673016
_cell_angle_alpha 52.115921
_cell_angle_beta 103.717355
_cell_angle_gamma 130.357896
_cell_volume 694.821408
_symmetry_space_group_name_H-M "P -1"
_symmetry_group_IT_number 2
_symmetry_cell_setting 'triclinic'
loop_
_space_group_symop_operation_xyz
x,y,z
-x,-y,-z
loop_
_atom_site_type_symbol
_atom_site_label
_atom_site_fract_x
_atom_site_fract_y
_atom_site_fract_z
Si Si1 0.085926 0.705239 0.059353
Si Si2 0.607252 0.775048 0.335432
Si Si3 0.853584 0.598646 0.539813
Si Si4 0.185284 0.995799 0.650686
Si Si5 0.415418 0.792167 0.811123
Si Si6 0.533693 0.519853 0.834618
Si Si7 0.048124 0.419024 0.687868
Si Si8 0.626662 0.158419 0.558380
O O1 0.110095 0.528491 0.261745
O O2 0.040414 0.790676 0.116098
O O3 0.000000 0.500000 0.000000
O O4 0.175532 0.938030 0.862259
O O5 0.500000 0.500000 0.500000
O O6 0.695084 0.784697 0.432546
O O7 0.572175 0.707857 0.179263
O O8 0.632448 0.073938 0.224993
O O9 0.866930 0.866235 0.475389
O O10 0.906105 0.674690 0.355638
O O11 0.734191 0.348604 0.586540
O O12 0.132997 0.710421 0.672763
O O13 0.371975 0.676997 0.678938
O O14 0.535132 0.048957 0.687849
O O15 0.405221 0.590508 0.049309
O O16 0.596552 0.857602 0.639668
O O17 0.500000 0.500000 0.000000
O O18 0.000000 0.500000 0.500000
#
# Coordination Sequence:
#
# PCOD9004987 Si02
#       8
#     2   2   2   2   2   2   2   2
#     4   9  22  44  67  97 129 159 212 277 330 398
#     4  12  23  41  61  95 136 178 223 268 314 385
#     4  11  23  40  71  96 131 173 213 268 338 390
#     4  11  25  42  67  99 133 171 222 269 325 395
#     4  10  21  38  60  85 129 181 223 264 319 366
#     4  10  23  38  60  85 127 179 220 265 315 371
#     4   9  21  44  68  98 126 162 213 273 332 398
#     4  10  21  38  60  94 128 173 222 262 320 382
#
# _framework density 23.027498999999999
#
# number of rings (size 3 to 8) (size 9 to 14) (size 15 to 20)
#    0.000    1.750    1.250    1.875    7.000    5.000 
#    2.250    3.750    0.000    0.000    0.000    0.000 
#    0.000    0.000    0.000    0.000    0.000    0.000 
#
# Total GULP energy -89223.949001 kJ/mol
# GULP energy per Si atom -5576.496813 kJ/mol
# Density = 2.297509 g / cm^3
# Si number density = 23.027499 Si / 1000 Ang^3
#
#
#
# Elastic Constant Matrix: (Units=GPa)
#
#
# Indices 1 2 3 4 5 6 
#
# 1 101.6736 13.5067 23.2770 4.1672 14.2715 -1.4268
# 2 13.5067 48.9983 16.4828 13.6385 4.0190 10.4586
# 3 23.2770 16.4828 72.1090 15.3917 13.0024 6.3555
# 4 4.1672 13.6385 15.3917 31.9290 -4.7551 4.8912
# 5 14.2715 4.0190 13.0024 -4.7551 39.4188 -1.5251
# 6 -1.4268 10.4586 6.3555 4.8912 -1.5251 37.8227
#
#
#
# Elastic Compliance Matrix: (Units=1/GPa)
#
#
# Indices 1 2 3 4 5 6 
#
# 1 0.011173 -0.002275 -0.002740 0.000203 -0.002832 0.001371
# 2 -0.002275 0.025750 -0.002282 -0.009075 -0.002366 -0.005745
# 3 -0.002740 -0.002282 0.018189 -0.008038 -0.005811 -0.001724
# 4 0.000203 -0.009075 -0.008038 0.040443 0.008342 -0.001026
# 5 -0.002832 -0.002366 -0.005811 0.008342 0.029622 0.001640
# 6 0.001371 -0.005745 -0.001724 -0.001026 0.001640 0.028568
#
#
# Mechanical properties :
#
#
# Convention : Reuss Voigt Hill
#
# Bulk Modulus (GPa) = 24.67982 36.59045 30.63513
# Shear Modulus (GPa) = 27.49592 33.13505 30.31548
#
# Velocity S-wave (km/s) = 3.45925 3.79744 3.63228
# Velocity P-wave (km/s) = 5.16682 5.92890 5.56093
#
# Compressibility (1/GPa) = 0.04051894
#
# Stress axis : x y z
#
# Youngs Moduli (GPa) = 89.49830 38.83557 54.97706
#
# Poissons Ratio (x) = 0.08835 0.15065
# Poissons Ratio (y) = 0.20360 0.12544
# Poissons Ratio (z) = 0.24524 0.08861
#
# Static dielectric constant tensor:
#      x y z
#    x 1.946800 -0.102830 -0.089190 
#    y -0.102830 1.877420 -0.146060 
#    z -0.089190 -0.146060 1.812260 
# 
# From -- ./inp_files/327149.got.cif
#   From: 2010.05.17/outbox.cif.g08.bks.cpg/sg2_164_cif.got.tgz:327149.got - 2010.06.03 11:33:40.
