data_PCOD9004126
_publ_section_title
;
Structure prediction by ZEFSAII (Michael W. Deem and Ramdas Pophale) SiO2 
 PCOD9004126
Probable space group: P -1
;
_chemical_formula_sum "Si O2"
_cell_formula_units_Z 16
_cell_length_a 22.162025
_cell_length_b 17.104088
_cell_length_c 10.583456
_cell_angle_alpha 41.841510
_cell_angle_beta 31.941315
_cell_angle_gamma 22.903960
_cell_volume 812.801892
_symmetry_space_group_name_H-M "P -1"
_symmetry_group_IT_number 2
_symmetry_cell_setting 'triclinic'
loop_
_space_group_symop_operation_xyz
x,y,z
-x,-y,-z
loop_
_atom_site_type_symbol
_atom_site_label
_atom_site_fract_x
_atom_site_fract_y
_atom_site_fract_z
Si Si1 0.043269 0.643152 0.354902
Si Si2 0.406243 0.178857 0.300123
Si Si3 0.033890 0.051807 0.753450
Si Si4 0.672083 0.801682 0.851795
Si Si5 0.869204 0.405092 0.031374
Si Si6 0.362702 0.697509 0.919069
Si Si7 0.324533 0.981952 0.764691
Si Si8 0.532733 0.384861 0.462670
O O1 0.827781 0.767474 0.568128
O O2 0.192981 0.419303 0.409689
O O3 0.028972 0.763620 0.327424
O O4 0.116454 0.625569 0.109167
O O5 0.434980 0.168190 0.112962
O O6 0.564596 0.112040 0.184746
O O7 0.395863 0.048322 0.503025
O O8 0.871340 0.136761 0.844201
O O9 0.270331 0.850491 0.557102
O O10 0.000000 0.000000 0.000000
O O11 0.809411 0.591052 0.930053
O O12 0.500000 0.000000 0.000000
O O13 0.680229 0.497925 0.309688
O O14 0.086615 0.189484 0.953469
O O15 0.380997 0.820317 0.775392
O O16 0.415337 0.626906 0.762364
O O17 0.500000 0.500000 0.000000
O O18 0.500000 0.500000 0.500000
#
# Coordination Sequence:
#
# PCOD9004126 Si02
#       8
#     2   2   2   2   2   2   2   2
#     4  11  19  40  60  91 126 159 215 252 315 364
#     4  10  22  38  62  90 120 171 203 254 307 377
#     4  10  21  37  64  92 122 166 208 259 309 375
#     4  11  22  36  61  94 125 157 208 263 308 361
#     4  11  20  37  62  90 122 165 201 262 309 366
#     4  11  24  43  65  93 128 171 206 262 318 376
#     4  11  21  40  63  87 124 165 212 244 316 377
#     4  11  23  40  64  97 124 163 217 262 313 375
#
# _framework density 19.684994
#
# number of rings (size 3 to 8) (size 9 to 14) (size 15 to 20)
#    0.000    1.250    2.500    6.000    1.750    1.000 
#    0.000    8.125    0.000    0.000    0.000    0.000 
#    0.000    0.000    0.000    0.000    0.000    0.000 
#
# Total GULP energy -89168.109380 kJ/mol
# GULP energy per Si atom -5573.006836 kJ/mol
# Density = 1.964019 g / cm^3
# Si number density = 19.684994 Si / 1000 Ang^3
#
#
#
# Elastic Constant Matrix: (Units=GPa)
#
#
# Indices 1 2 3 4 5 6 
#
# 1 115.5324 63.5605 24.0102 10.1097 -11.2916 -1.1486
# 2 63.5605 125.7240 22.6160 16.2481 5.3137 6.8226
# 3 24.0102 22.6160 57.8903 22.4679 1.9090 -8.0074
# 4 10.1097 16.2481 22.4679 30.6818 2.0919 -8.7338
# 5 -11.2916 5.3137 1.9090 2.0919 21.1760 6.6789
# 6 -1.1486 6.8226 -8.0074 -8.7338 6.6789 45.7990
#
#
#
# Elastic Compliance Matrix: (Units=1/GPa)
#
#
# Indices 1 2 3 4 5 6 
#
# 1 0.014164 -0.006975 -0.003980 0.001137 0.009707 -0.000500
# 2 -0.006975 0.012454 -0.000454 -0.004161 -0.005741 -0.002066
# 3 -0.003980 -0.000454 0.025945 -0.016715 -0.003261 0.001792
# 4 0.001137 -0.004161 -0.016715 0.049134 -0.004124 0.007697
# 5 0.009707 -0.005741 -0.003261 -0.004124 0.057256 -0.008608
# 6 -0.000500 -0.002066 0.001792 0.007697 -0.008608 0.025166
#
#
# Mechanical properties :
#
#
# Convention : Reuss Voigt Hill
#
# Bulk Modulus (GPa) = 33.61933 57.72447 45.67190
# Shear Modulus (GPa) = 23.05700 32.12869 27.59284
#
# Velocity S-wave (km/s) = 3.42614 4.04436 3.74802
# Velocity P-wave (km/s) = 5.72424 7.15520 6.47935
#
# Compressibility (1/GPa) = 0.02974479
#
# Stress axis : x y z
#
# Youngs Moduli (GPa) = 70.59965 80.29306 38.54319
#
# Poissons Ratio (x) = 0.56004 0.15342
# Poissons Ratio (y) = 0.49243 0.01750
# Poissons Ratio (z) = 0.28102 0.03646
#
# Static dielectric constant tensor:
#      x y z
#    x 1.716470 0.002340 -0.027440 
#    y 0.002340 1.723850 -0.014760 
#    z -0.027440 -0.014760 1.727030 
# 
# From -- ./inp_files/314689.got.cif
#   From: 2010.05.17/outbox.cif.g08.bks.cpg/sg2_158_cif.got.tgz:314689.got - 2010.06.03 11:33:40.
