data_PCOD9004180
_publ_section_title
;
Structure prediction by ZEFSAII (Michael W. Deem and Ramdas Pophale) SiO2 
 PCOD9004180
Probable space group: P -1
;
_chemical_formula_sum "Si O2"
_cell_formula_units_Z 15
_cell_length_a 15.775877
_cell_length_b 7.854584
_cell_length_c 9.126287
_cell_angle_alpha 68.640079
_cell_angle_beta 36.719811
_cell_angle_gamma 61.559142
_cell_volume 594.211868
_symmetry_space_group_name_H-M "P -1"
_symmetry_group_IT_number 2
_symmetry_cell_setting 'triclinic'
loop_
_space_group_symop_operation_xyz
x,y,z
-x,-y,-z
loop_
_atom_site_type_symbol
_atom_site_label
_atom_site_fract_x
_atom_site_fract_y
_atom_site_fract_z
Si Si1 0.000000 0.500000 0.000000
Si Si2 0.271164 0.147417 0.726696
Si Si3 0.938555 0.904191 0.479475
Si Si4 0.867129 0.159740 0.043698
Si Si5 0.506405 0.187892 0.157774
Si Si6 0.706971 0.763256 0.992800
Si Si7 0.222865 0.697534 0.574078
Si Si8 0.573754 0.522609 0.072925
O O1 0.886855 0.704921 0.152530
O O2 0.905682 0.388200 0.268660
O O3 0.406005 0.163136 0.438674
O O4 0.256847 0.937589 0.798193
O O5 0.278571 0.217680 0.859403
O O6 0.856916 0.763718 0.703635
O O7 0.821481 0.086403 0.496873
O O8 0.000000 0.000000 0.500000
O O9 0.060235 0.801046 0.219321
O O10 0.795179 0.314670 0.220625
O O11 0.000000 0.000000 0.000000
O O12 0.616946 0.303091 0.025182
O O13 0.410484 0.334074 0.122554
O O14 0.586975 0.973663 0.052886
O O15 0.654038 0.585477 0.076430
O O16 0.394817 0.585604 0.332467
#
# Coordination Sequence:
#
# PCOD9004180 Si02
#       8
#     1   2   2   2   2   2   2   2
#     4  12  22  42  68  94 136 172 220 286 332 404
#     4  12  24  43  67  99 132 177 228 273 348 395
#     4  11  21  41  66  99 135 170 224 280 341 401
#     4  10  21  37  64  96 119 175 223 262 330 407
#     4  11  25  44  69  99 137 179 228 280 324 418
#     4  12  25  44  69 100 140 180 220 284 343 399
#     4  11  22  42  68  95 130 178 225 277 336 404
#     4  11  25  44  68 103 131 183 228 274 343 399
#
# _framework density 25.24352
#
# number of rings (size 3 to 8) (size 9 to 14) (size 15 to 20)
#    0.000    0.800    6.667    1.600    3.733    0.533 
#    2.400    0.000    0.000    3.200    0.000    0.000 
#    0.000    0.000    0.000    0.000    0.000    0.000 
#
# Total GULP energy -83690.048395 kJ/mol
# GULP energy per Si atom -5579.336560 kJ/mol
# Density = 2.518606 g / cm^3
# Si number density = 25.243520 Si / 1000 Ang^3
#
#
#
# Elastic Constant Matrix: (Units=GPa)
#
#
# Indices 1 2 3 4 5 6 
#
# 1 96.0371 -5.6368 17.1483 -0.2313 16.7992 -2.8115
# 2 -5.6368 114.3515 29.2438 -1.3089 14.0520 81.9478
# 3 17.1483 29.2438 192.0569 -9.8667 33.3509 54.8479
# 4 -0.2313 -1.3089 -9.8667 29.5202 7.7143 -1.5676
# 5 16.7992 14.0520 33.3509 7.7143 43.0566 17.4445
# 6 -2.8115 81.9478 54.8479 -1.5676 17.4445 124.9879
#
#
#
# Elastic Compliance Matrix: (Units=1/GPa)
#
#
# Indices 1 2 3 4 5 6 
#
# 1 0.011410 0.000887 -0.000394 0.001305 -0.004892 0.000547
# 2 0.000887 0.016764 0.000983 0.001089 -0.002289 -0.011069
# 3 -0.000394 0.000983 0.006994 0.003529 -0.005010 -0.002979
# 4 0.001305 0.001089 0.003529 0.037769 -0.010231 -0.000332
# 5 -0.004892 -0.002289 -0.005010 -0.010231 0.032002 -0.001005
# 6 0.000547 -0.011069 -0.002979 -0.000332 -0.001005 0.016714
#
#
# Mechanical properties :
#
#
# Convention : Reuss Voigt Hill
#
# Bulk Modulus (GPa) = 26.23206 53.77290 40.00248
# Shear Modulus (GPa) = 38.04974 63.62562 50.83768
#
# Velocity S-wave (km/s) = 3.88662 5.02588 4.49251
# Velocity P-wave (km/s) = 5.52768 7.41803 6.54150
#
# Compressibility (1/GPa) = 0.03812129
#
# Stress axis : x y z
#
# Youngs Moduli (GPa) = 87.64384 59.65284 142.97154
#
# Poissons Ratio (x) = -0.05294 0.05626
# Poissons Ratio (y) = -0.07777 -0.14052
# Poissons Ratio (z) = 0.03449 -0.05863
#
# Static dielectric constant tensor:
#      x y z
#    x 2.072840 -0.077160 0.027170 
#    y -0.077160 2.019270 0.029170 
#    z 0.027170 0.029170 1.902770 
# 
# From -- ./inp_files/237777.got.cif
#   From: 2010.05.17/outbox.cif.g08.bks.cpg/sg2_119_cif.got.tgz:237777.got - 2010.06.03 11:33:40.
