data_PCOD9004046
_publ_section_title
;
Structure prediction by ZEFSAII (Michael W. Deem and Ramdas Pophale) SiO2 
 PCOD9004046
Probable space group: P -1
;
_chemical_formula_sum "Si O2"
_cell_formula_units_Z 12
_cell_length_a 13.203289
_cell_length_b 15.215720
_cell_length_c 14.662838
_cell_angle_alpha 152.297006
_cell_angle_beta 22.429013
_cell_angle_gamma 148.460249
_cell_volume 512.869807
_symmetry_space_group_name_H-M "P -1"
_symmetry_group_IT_number 2
_symmetry_cell_setting 'triclinic'
loop_
_space_group_symop_operation_xyz
x,y,z
-x,-y,-z
loop_
_atom_site_type_symbol
_atom_site_label
_atom_site_fract_x
_atom_site_fract_y
_atom_site_fract_z
Si Si1 0.985835 0.653360 0.048798
Si Si2 0.173519 0.459430 0.229934
Si Si3 0.094326 0.859656 0.959976
Si Si4 0.589447 0.294083 0.121443
Si Si5 0.670206 0.950851 0.625960
Si Si6 0.974692 0.760310 0.542344
O O1 0.857681 0.799469 0.354545
O O2 0.967379 0.741219 0.045796
O O3 0.292896 0.668457 0.840645
O O4 0.807633 0.444598 0.020160
O O5 0.000000 0.500000 0.500000
O O6 0.095524 0.598973 0.344695
O O7 0.500000 0.500000 0.000000
O O8 0.059754 0.241154 0.091155
O O9 0.088766 0.083653 0.187073
O O10 0.407644 0.844326 0.691925
O O11 0.826618 0.111054 0.574787
O O12 0.295689 0.327246 0.368817
O O13 0.586418 0.073840 0.891954
#
# Coordination Sequence:
#
# PCOD9004046 Si02
#       6
#     2   2   2   2   2   2
#     4  10  21  37  63  97 135 177 219 266 328 401
#     4  12  30  48  75 100 133 176 232 292 350 408
#     4  10  24  43  68  96 137 172 224 277 340 404
#     4  10  21  37  63  97 135 177 219 266 328 401
#     4  10  21  38  64  92 140 172 218 268 331 402
#     4  10  24  43  68  96 137 172 224 277 340 404
#
# _framework density 23.397751
#
# number of rings (size 3 to 8) (size 9 to 14) (size 15 to 20)
#    0.000    1.667    0.000    2.500   11.667    8.667 
#    0.000    4.167    0.000    0.000    0.000    0.000 
#    0.000    0.000    0.000    0.000    0.000    0.000 
#
# Total GULP energy -67139.180843 kJ/mol
# GULP energy per Si atom -5594.931737 kJ/mol
# Density = 2.334450 g / cm^3
# Si number density = 23.397751 Si / 1000 Ang^3
#
#
#
# Elastic Constant Matrix: (Units=GPa)
#
#
# Indices 1 2 3 4 5 6 
#
# 1 45.6927 27.9722 42.1238 -3.1432 0.3362 18.3635
# 2 27.9722 121.6356 30.3966 -9.8136 1.0097 20.3682
# 3 42.1238 30.3966 93.0359 -1.2640 -14.7967 14.2211
# 4 -3.1432 -9.8136 -1.2640 44.4463 -0.9864 -5.6002
# 5 0.3362 1.0097 -14.7967 -0.9864 29.6037 2.8664
# 6 18.3635 20.3682 14.2211 -5.6002 2.8664 45.7282
#
#
#
# Elastic Compliance Matrix: (Units=1/GPa)
#
#
# Indices 1 2 3 4 5 6 
#
# 1 0.046764 -0.003993 -0.019776 0.000369 -0.009277 -0.010224
# 2 -0.003993 0.009939 -0.001175 0.001585 -0.000613 -0.002225
# 3 -0.019776 -0.001175 0.021679 -0.000678 0.010986 0.000951
# 4 0.000369 0.001585 -0.000678 0.023134 0.000163 0.002180
# 5 -0.009277 -0.000613 0.010986 0.000163 0.039584 -0.001879
# 6 -0.010224 -0.002225 0.000951 0.002180 -0.001879 0.027054
#
#
# Mechanical properties :
#
#
# Convention : Reuss Voigt Hill
#
# Bulk Modulus (GPa) = 35.09651 51.26105 43.17878
# Shear Modulus (GPa) = 21.97403 34.61375 28.29389
#
# Velocity S-wave (km/s) = 3.06788 3.85042 3.48121
# Velocity P-wave (km/s) = 5.25183 6.45939 5.88666
#
# Compressibility (1/GPa) = 0.02849286
#
# Stress axis : x y z
#
# Youngs Moduli (GPa) = 21.38384 100.61563 46.12741
#
# Poissons Ratio (x) = 0.40180 0.91224
# Poissons Ratio (y) = 0.08539 0.05419
# Poissons Ratio (z) = 0.42290 0.11821
#
# Static dielectric constant tensor:
#      x y z
#    x 1.890750 0.014350 0.072330 
#    y 0.014350 1.834320 0.010320 
#    z 0.072330 0.010320 1.978060 
# 
# From -- ./inp_files/30913.got.cif
#   From: 2010.05.17/outbox.cif.g08.bks.cpg/sg2_16_cif.got.tgz:30913.got - 2010.06.03 11:33:40.
