data_PCOD9004368
_publ_section_title
;
Structure prediction by ZEFSAII (Michael W. Deem and Ramdas Pophale) SiO2 
 PCOD9004368
Probable space group: P -1
;
_chemical_formula_sum "Si O2"
_cell_formula_units_Z 16
_cell_length_a 9.314220
_cell_length_b 17.209998
_cell_length_c 14.052142
_cell_angle_alpha 147.045835
_cell_angle_beta 64.757634
_cell_angle_gamma 91.362689
_cell_volume 813.710767
_symmetry_space_group_name_H-M "P -1"
_symmetry_group_IT_number 2
_symmetry_cell_setting 'triclinic'
loop_
_space_group_symop_operation_xyz
x,y,z
-x,-y,-z
loop_
_atom_site_type_symbol
_atom_site_label
_atom_site_fract_x
_atom_site_fract_y
_atom_site_fract_z
Si Si1 0.658051 0.257366 0.408079
Si Si2 0.257196 0.330597 0.245974
Si Si3 0.836173 0.139524 0.605350
Si Si4 0.728711 0.413547 0.380807
Si Si5 0.028404 0.217662 0.486946
Si Si6 0.524442 0.913556 0.800341
Si Si7 0.955142 0.963847 0.192827
Si Si8 0.592622 0.561108 0.851798
O O1 0.786551 0.282688 0.324182
O O2 0.534857 0.212851 0.336728
O O3 0.522155 0.459757 0.711853
O O4 0.797411 0.095769 0.285135
O O5 0.309805 0.399092 0.391101
O O6 0.366075 0.341547 0.136792
O O7 0.000000 0.500000 0.500000
O O8 0.348141 0.117012 0.003176
O O9 0.923267 0.235545 0.635211
O O10 0.847343 0.031667 0.397407
O O11 0.594982 0.291425 0.869427
O O12 0.000000 0.000000 0.500000
O O13 0.500000 0.500000 0.500000
O O14 0.910134 0.259456 0.096105
O O15 0.826444 0.391915 0.659764
O O16 0.230732 0.197835 0.413775
O O17 0.103064 0.018136 0.215891
O O18 0.500000 0.000000 0.000000
#
# Coordination Sequence:
#
# PCOD9004368 Si02
#       8
#     2   2   2   2   2   2   2   2
#     4  10  22  36  62  85 125 157 200 245 302 362
#     4  11  23  36  60  87 124 157 198 250 305 359
#     4  10  21  37  66  90 118 157 211 254 295 361
#     4  11  21  35  57  90 117 156 201 252 294 357
#     4   9  20  35  61  86 116 160 199 249 296 358
#     4  12  22  38  57  91 129 160 194 248 314 358
#     4   9  20  36  58  86 117 158 203 241 303 352
#     4  10  21  41  63  90 116 160 209 247 298 362
#
# _framework density 19.663008000000001
#
# number of rings (size 3 to 8) (size 9 to 14) (size 15 to 20)
#    0.750    1.000    0.000    5.250    3.500    2.000 
#    0.000    0.625    0.000    3.750    0.000    0.000 
#    0.000    0.000    0.000    0.000    0.000    0.000 
#
# Total GULP energy -89130.178467 kJ/mol
# GULP energy per Si atom -5570.636154 kJ/mol
# Density = 1.961825 g / cm^3
# Si number density = 19.663008 Si / 1000 Ang^3
#
#
#
# Elastic Constant Matrix: (Units=GPa)
#
#
# Indices 1 2 3 4 5 6 
#
# 1 76.4181 11.6648 14.9781 -6.0817 5.7773 2.5699
# 2 11.6648 59.6674 38.6218 -5.5816 10.8182 -7.9834
# 3 14.9781 38.6218 106.2134 -27.1957 0.5488 -0.1450
# 4 -6.0817 -5.5816 -27.1957 33.7634 0.4202 0.0016
# 5 5.7773 10.8182 0.5488 0.4202 26.2318 -1.6151
# 6 2.5699 -7.9834 -0.1450 0.0016 -1.6151 30.0316
#
#
#
# Elastic Compliance Matrix: (Units=1/GPa)
#
#
# Indices 1 2 3 4 5 6 
#
# 1 0.013902 -0.001781 -0.000919 0.001500 -0.002443 -0.001799
# 2 -0.001781 0.025913 -0.010164 -0.004104 -0.009617 0.006475
# 3 -0.000919 -0.010164 0.016042 0.011029 0.003737 -0.002345
# 4 0.001500 -0.004104 0.011029 0.038088 0.000451 -0.001144
# 5 -0.002443 -0.009617 0.003737 0.000451 0.042538 -0.000042
# 6 -0.001799 0.006475 -0.002345 -0.001144 -0.000042 0.035160
#
#
# Mechanical properties :
#
#
# Convention : Reuss Voigt Hill
#
# Bulk Modulus (GPa) = 33.18870 41.42538 37.30704
# Shear Modulus (GPa) = 24.10660 29.80764 26.95712
#
# Velocity S-wave (km/s) = 3.50521 3.89771 3.70666
# Velocity P-wave (km/s) = 5.77039 6.43192 6.11011
#
# Compressibility (1/GPa) = 0.03013074
#
# Stress axis : x y z
#
# Youngs Moduli (GPa) = 71.93019 38.59131 62.33703
#
# Poissons Ratio (x) = 0.06872 0.05727
# Poissons Ratio (y) = 0.12808 0.63358
# Poissons Ratio (z) = 0.06608 0.39223
#
# Static dielectric constant tensor:
#      x y z
#    x 1.699760 -0.044550 -0.022320 
#    y -0.044550 1.756880 0.023650 
#    z -0.022320 0.023650 1.683260 
# 
# From -- ./inp_files/507085.got.cif
#   From: 2010.05.17/outbox.cif.g08.bks.cpg/sg2_254_cif.got.tgz:507085.got - 2010.06.03 11:33:40.
