data_PCOD9004800
_publ_section_title
;
Structure prediction by ZEFSAII (Michael W. Deem and Ramdas Pophale) SiO2 
 PCOD9004800
Probable space group: P -1
;
_chemical_formula_sum "Si O2"
_cell_formula_units_Z 16
_cell_length_a 21.306712
_cell_length_b 7.670772
_cell_length_c 17.487018
_cell_angle_alpha 125.700898
_cell_angle_beta 162.494212
_cell_angle_gamma 50.246577
_cell_volume 656.655702
_symmetry_space_group_name_H-M "P -1"
_symmetry_group_IT_number 2
_symmetry_cell_setting 'triclinic'
loop_
_space_group_symop_operation_xyz
x,y,z
-x,-y,-z
loop_
_atom_site_type_symbol
_atom_site_label
_atom_site_fract_x
_atom_site_fract_y
_atom_site_fract_z
Si Si1 0.837922 0.761221 0.814979
Si Si2 0.132630 0.111026 0.349783
Si Si3 0.162156 0.991695 0.617513
Si Si4 0.429962 0.259309 0.235470
Si Si5 0.439260 0.310593 0.078038
Si Si6 0.962970 0.329939 0.350291
Si Si7 0.234045 0.751957 0.173811
Si Si8 0.972037 0.717120 0.127415
O O1 0.836096 0.533370 0.711285
O O2 0.699665 0.021742 0.698482
O O3 0.832040 0.718409 0.887085
O O4 0.086795 0.759316 0.079771
O O5 0.377023 0.965675 0.568100
O O6 0.058982 0.920428 0.260027
O O7 0.123685 0.288944 0.452956
O O8 0.946575 0.223294 0.098695
O O9 0.307830 0.145640 0.852974
O O10 0.014881 0.106421 0.403444
O O11 0.000000 0.000000 0.500000
O O12 0.335302 0.758774 0.726110
O O13 0.421229 0.506934 0.320285
O O14 0.459797 0.267672 0.181160
O O15 0.192835 0.252096 0.985726
O O16 0.281807 0.565029 0.941227
O O17 0.000000 0.500000 0.500000
#
# Coordination Sequence:
#
# PCOD9004800 Si02
#       8
#     2   2   2   2   2   2   2   2
#     4   8  16  38  58  82 119 151 185 243 289 340
#     4  11  21  38  59  87 117 154 193 239 288 339
#     4  10  22  39  61  85 112 152 191 241 288 339
#     4  11  21  36  59  87 116 155 191 234 288 341
#     4  10  21  38  59  83 117 152 192 235 287 340
#     4  10  21  39  60  84 118 153 192 238 281 342
#     4   9  18  36  63  83 115 157 189 234 296 339
#     4   9  20  36  60  87 117 148 193 242 286 338
#
# _framework density 24.365888000000002
#
# number of rings (size 3 to 8) (size 9 to 14) (size 15 to 20)
#    0.000    2.250    2.500    0.000    1.750    0.500 
#    0.000   31.250    0.000    0.000    0.000    0.000 
#    0.000    0.000    0.000    0.000    0.000    0.000 
#
# Total GULP energy -89339.597539 kJ/mol
# GULP energy per Si atom -5583.724846 kJ/mol
# Density = 2.431043 g / cm^3
# Si number density = 24.365888 Si / 1000 Ang^3
#
#
#
# Elastic Constant Matrix: (Units=GPa)
#
#
# Indices 1 2 3 4 5 6 
#
# 1 130.5245 10.8119 39.5981 -6.1135 0.9974 -16.7911
# 2 10.8119 66.8053 23.2102 -16.1456 5.1789 -13.1180
# 3 39.5981 23.2102 71.3730 -22.7222 4.5250 -2.3063
# 4 -6.1135 -16.1456 -22.7222 37.2355 -0.2096 5.6439
# 5 0.9974 5.1789 4.5250 -0.2096 43.0549 -0.9441
# 6 -16.7911 -13.1180 -2.3063 5.6439 -0.9441 38.6347
#
#
#
# Elastic Compliance Matrix: (Units=1/GPa)
#
#
# Indices 1 2 3 4 5 6 
#
# 1 0.010067 0.000903 -0.006616 -0.002701 0.000443 0.004693
# 2 0.000903 0.018878 -0.004939 0.004428 -0.001623 0.005821
# 3 -0.006616 -0.004939 0.022890 0.011474 -0.001710 -0.004904
# 4 -0.002701 0.004428 0.011474 0.035974 -0.001595 -0.004280
# 5 0.000443 -0.001623 -0.001710 -0.001595 0.023591 0.000349
# 6 0.004693 0.005821 -0.004904 -0.004280 0.000349 0.030240
#
#
# Mechanical properties :
#
#
# Convention : Reuss Voigt Hill
#
# Bulk Modulus (GPa) = 32.75212 46.21589 39.48401
# Shear Modulus (GPa) = 28.88140 36.79051 32.83596
#
# Velocity S-wave (km/s) = 3.44658 3.88998 3.67498
# Velocity P-wave (km/s) = 5.41383 6.25976 5.85210
#
# Compressibility (1/GPa) = 0.03053238
#
# Stress axis : x y z
#
# Youngs Moduli (GPa) = 99.33087 52.97216 43.68644
#
# Poissons Ratio (x) = -0.04786 0.28901
# Poissons Ratio (y) = -0.08974 0.21578
# Poissons Ratio (z) = 0.65714 0.26165
#
# Static dielectric constant tensor:
#      x y z
#    x 1.943080 -0.073880 -0.006080 
#    y -0.073880 2.113670 -0.022540 
#    z -0.006080 -0.022540 1.973290 
# 
# From -- ./inp_files/52989.got.cif
#   From: 2010.05.17/outbox.cif.g08.bks.cpg/sg2_27_cif.got.tgz:52989.got - 2010.06.03 11:33:40.
