data_PCOD9004593
_publ_section_title
;
Structure prediction by ZEFSAII (Michael W. Deem and Ramdas Pophale) SiO2 
 PCOD9004593
Probable space group: P -1
;
_chemical_formula_sum "Si O2"
_cell_formula_units_Z 14
_cell_length_a 17.046894
_cell_length_b 6.039031
_cell_length_c 17.373007
_cell_angle_alpha 136.556458
_cell_angle_beta 34.781938
_cell_angle_gamma 128.641674
_cell_volume 699.762547
_symmetry_space_group_name_H-M "P -1"
_symmetry_group_IT_number 2
_symmetry_cell_setting 'triclinic'
loop_
_space_group_symop_operation_xyz
x,y,z
-x,-y,-z
loop_
_atom_site_type_symbol
_atom_site_label
_atom_site_fract_x
_atom_site_fract_y
_atom_site_fract_z
Si Si1 0.474159 0.872046 0.108886
Si Si2 0.334942 0.688917 0.025959
Si Si3 0.543242 0.112260 0.701663
Si Si4 0.215083 0.199987 0.612695
Si Si5 0.959975 0.507056 0.851321
Si Si6 0.391775 0.855710 0.614725
Si Si7 0.865476 0.826509 0.151939
O O1 0.360600 0.872074 0.133076
O O2 0.442695 0.999474 0.250167
O O3 0.500000 0.500000 0.000000
O O4 0.614777 0.055114 0.014081
O O5 0.179256 0.566636 0.102984
O O6 0.449419 0.420338 0.858579
O O7 0.700835 0.119597 0.545704
O O8 0.460555 0.882729 0.649584
O O9 0.318449 0.498818 0.575115
O O10 0.184165 0.246738 0.740045
O O11 0.072917 0.240415 0.692084
O O12 0.927174 0.554961 0.981037
O O13 0.031137 0.851001 0.852333
O O14 0.500000 0.000000 0.500000
O O15 0.267243 0.085675 0.767629
#
# Coordination Sequence:
#
# PCOD9004593 Si02
#       7
#     2   2   2   2   2   2   2
#     4   9  22  40  63  93 109 142 208 249 292 343
#     4  10  21  41  65  85 116 151 194 252 292 342
#     4  11  22  35  61  87 115 155 192 245 291 338
#     4  11  24  35  55  89 123 157 196 235 284 365
#     4  10  22  37  58  83 122 160 188 240 292 347
#     4  11  22  35  55  89 123 157 197 236 288 348
#     4  10  21  38  53  86 123 158 200 229 287 356
#
# _framework density 20.006785000000001
#
# number of rings (size 3 to 8) (size 9 to 14) (size 15 to 20)
#    0.000    1.714    2.857    0.857    4.000    2.286 
#    0.000    0.714    0.000    8.571    0.000    0.000 
#    0.000    0.000    0.000    0.000    0.000    0.000 
#
# Total GULP energy -77984.995857 kJ/mol
# GULP energy per Si atom -5570.356847 kJ/mol
# Density = 1.996125 g / cm^3
# Si number density = 20.006785 Si / 1000 Ang^3
#
#
#
# Elastic Constant Matrix: (Units=GPa)
#
#
# Indices 1 2 3 4 5 6 
#
# 1 92.7232 16.4447 69.8433 -1.9549 -11.8613 14.2081
# 2 16.4447 44.3101 31.3096 -17.5486 -5.4400 6.2909
# 3 69.8433 31.3096 100.6096 -9.6378 -9.9577 3.2544
# 4 -1.9549 -17.5486 -9.6378 28.3051 -11.2393 -5.7990
# 5 -11.8613 -5.4400 -9.9577 -11.2393 50.9711 -3.1380
# 6 14.2081 6.2909 3.2544 -5.7990 -3.1380 24.8339
#
#
#
# Elastic Compliance Matrix: (Units=1/GPa)
#
#
# Indices 1 2 3 4 5 6 
#
# 1 0.027995 0.004541 -0.020756 -0.005166 0.000848 -0.015547
# 2 0.004541 0.040715 -0.012661 0.023347 0.007780 -0.004818
# 3 -0.020756 -0.012661 0.028274 0.003161 0.000791 0.012215
# 4 -0.005166 0.023347 0.003161 0.059337 0.015759 0.012475
# 5 0.000848 0.007780 0.000791 0.015759 0.024536 0.004220
# 6 -0.015547 -0.004818 0.012215 0.012475 0.004220 0.052228
#
#
# Mechanical properties :
#
#
# Convention : Reuss Voigt Hill
#
# Bulk Modulus (GPa) = 25.48797 52.53755 39.01276
# Shear Modulus (GPa) = 16.45208 28.82504 22.63856
#
# Velocity S-wave (km/s) = 2.87073 3.79986 3.36749
# Velocity P-wave (km/s) = 4.87396 6.75046 5.88745
#
# Compressibility (1/GPa) = 0.03923420
#
# Stress axis : x y z
#
# Youngs Moduli (GPa) = 35.72026 24.56127 35.36810
#
# Poissons Ratio (x) = -0.11154 0.73409
# Poissons Ratio (y) = -0.16222 0.44778
# Poissons Ratio (z) = 0.74140 0.31096
#
# Static dielectric constant tensor:
#      x y z
#    x 1.732430 -0.028680 -0.009300 
#    y -0.028680 1.728160 0.027580 
#    z -0.009300 0.027580 1.780570 
# 
# From -- ./inp_files/370137.got.cif
#   From: 2010.05.17/outbox.cif.g08.bks.cpg/sg2_186_cif.got.tgz:370137.got - 2010.06.03 11:33:40.
