data_PCOD9004374
_publ_section_title
;
Structure prediction by ZEFSAII (Michael W. Deem and Ramdas Pophale) SiO2 
 PCOD9004374
Probable space group: P -1
;
_chemical_formula_sum "Si O2"
_cell_formula_units_Z 12
_cell_length_a 8.543132
_cell_length_b 10.050229
_cell_length_c 10.695881
_cell_angle_alpha 78.709853
_cell_angle_beta 75.077722
_cell_angle_gamma 132.574101
_cell_volume 558.185533
_symmetry_space_group_name_H-M "P -1"
_symmetry_group_IT_number 2
_symmetry_cell_setting 'triclinic'
loop_
_space_group_symop_operation_xyz
x,y,z
-x,-y,-z
loop_
_atom_site_type_symbol
_atom_site_label
_atom_site_fract_x
_atom_site_fract_y
_atom_site_fract_z
Si Si1 0.756140 0.202531 0.977269
Si Si2 0.825242 0.507286 0.779332
Si Si3 0.405699 0.260213 0.707330
Si Si4 0.970679 0.789851 0.892633
Si Si5 0.712596 0.537116 0.228187
Si Si6 0.630098 0.229878 0.440019
O O1 0.787522 0.383696 0.928827
O O2 0.989763 0.290557 0.833821
O O3 0.811505 0.174708 0.106592
O O4 0.500000 0.000000 0.000000
O O5 0.581056 0.340265 0.775279
O O6 0.887493 0.693559 0.789982
O O7 0.072881 0.613148 0.637549
O O8 0.408592 0.424724 0.669954
O O9 0.519222 0.247311 0.572664
O O10 0.115704 0.024884 0.827545
O O11 0.740915 0.616892 0.067816
O O12 0.600568 0.315484 0.312835
O O13 0.500000 0.000000 0.500000
#
# Coordination Sequence:
#
# PCOD9004374 Si02
#       6
#     2   2   2   2   2   2
#     4   9  18  36  61  93 119 161 199 248 302 362
#     4  11  21  38  63  92 120 163 209 252 301 362
#     4  12  22  40  65  91 128 160 202 253 316 364
#     4  10  21  37  66  90 126 150 210 251 307 357
#     4   9  23  39  63  93 127 159 199 261 310 356
#     4  11  23  41  65  86 123 170 208 251 298 368
#
# _framework density 21.498228999999998
#
# number of rings (size 3 to 8) (size 9 to 14) (size 15 to 20)
#    1.000    0.667    3.333    2.000    0.000    0.667 
#    0.000    0.833    3.667    0.000    0.000    0.000 
#    0.000    0.000    0.000    0.000    0.000    0.000 
#
# Total GULP energy -66833.739366 kJ/mol
# GULP energy per Si atom -5569.478280 kJ/mol
# Density = 2.144930 g / cm^3
# Si number density = 21.498229 Si / 1000 Ang^3
#
#
#
# Elastic Constant Matrix: (Units=GPa)
#
#
# Indices 1 2 3 4 5 6 
#
# 1 36.8561 19.2505 9.5364 0.0284 -4.1053 -22.0405
# 2 19.2505 94.7268 20.5754 0.6987 -2.7377 -18.8386
# 3 9.5364 20.5754 77.9858 9.8048 -4.4136 -13.4640
# 4 0.0284 0.6987 9.8048 30.4537 -10.7202 3.1778
# 5 -4.1053 -2.7377 -4.4136 -10.7202 22.4157 1.5543
# 6 -22.0405 -18.8386 -13.4640 3.1778 1.5543 37.3203
#
#
#
# Elastic Compliance Matrix: (Units=1/GPa)
#
#
# Indices 1 2 3 4 5 6 
#
# 1 0.044135 -0.004094 0.000189 -0.000480 0.005736 0.023869
# 2 -0.004094 0.012494 -0.002286 0.000213 0.000217 0.003037
# 3 0.000189 -0.002286 0.014886 -0.005304 -0.000182 0.004787
# 4 -0.000480 0.000213 -0.005304 0.042067 0.019462 -0.006482
# 5 0.005736 0.000217 -0.000182 0.019462 0.054996 -0.000516
# 6 0.023869 0.003037 0.004787 -0.006482 -0.000516 0.044725
#
#
# Mechanical properties :
#
#
# Convention : Reuss Voigt Hill
#
# Bulk Modulus (GPa) = 16.91108 34.25483 25.58295
# Shear Modulus (GPa) = 20.37525 28.71838 24.54681
#
# Velocity S-wave (km/s) = 3.08192 3.65889 3.38273
# Velocity P-wave (km/s) = 4.53295 5.81536 5.21373
#
# Compressibility (1/GPa) = 0.05913283
#
# Stress axis : x y z
#
# Youngs Moduli (GPa) = 22.65771 80.03936 67.17777
#
# Poissons Ratio (x) = 0.32769 -0.01269
# Poissons Ratio (y) = 0.09276 0.15355
# Poissons Ratio (z) = -0.00428 0.18295
#
# Static dielectric constant tensor:
#      x y z
#    x 1.789650 -0.044690 0.035000 
#    y -0.044690 1.782960 -0.023970 
#    z 0.035000 -0.023970 1.868070 
# 
# From -- ./inp_files/198874.got.cif
#   From: 2010.05.17/outbox.cif.g08.bks.cpg/sg2_100_cif.got.tgz:198874.got - 2010.06.03 11:33:40.
