data_PCOD9004128
_publ_section_title
;
Structure prediction by ZEFSAII (Michael W. Deem and Ramdas Pophale) SiO2 
 PCOD9004128
Probable space group: P -1
;
_chemical_formula_sum "Si O2"
_cell_formula_units_Z 16
_cell_length_a 9.767457
_cell_length_b 11.543082
_cell_length_c 8.464972
_cell_angle_alpha 48.716666
_cell_angle_beta 121.965206
_cell_angle_gamma 107.829736
_cell_volume 607.047529
_symmetry_space_group_name_H-M "P -1"
_symmetry_group_IT_number 2
_symmetry_cell_setting 'triclinic'
loop_
_space_group_symop_operation_xyz
x,y,z
-x,-y,-z
loop_
_atom_site_type_symbol
_atom_site_label
_atom_site_fract_x
_atom_site_fract_y
_atom_site_fract_z
Si Si1 0.156166 0.472872 0.420062
Si Si2 0.337766 0.346150 0.203950
Si Si3 0.077042 0.225344 0.387481
Si Si4 0.907938 0.207466 0.765615
Si Si5 0.593917 0.083538 0.619192
Si Si6 0.207123 0.901743 0.864574
Si Si7 0.389064 0.603466 0.216586
Si Si8 0.280506 0.220449 0.932142
O O1 0.035342 0.356695 0.375306
O O2 0.111551 0.606773 0.395868
O O3 0.217764 0.562984 0.226999
O O4 0.290496 0.352916 0.689579
O O5 0.177790 0.297929 0.241433
O O6 0.484548 0.233631 0.465517
O O7 0.383117 0.518536 0.120226
O O8 0.319735 0.300062 0.052116
O O9 0.916311 0.157904 0.287504
O O10 0.194333 0.085110 0.658377
O O11 0.770178 0.140952 0.631412
O O12 0.094420 0.176712 0.868753
O O13 0.867207 0.136034 0.975807
O O14 0.500000 0.000000 0.500000
O O15 0.621336 0.942581 0.883758
O O16 0.370062 0.788961 0.045165
O O17 0.500000 0.500000 0.500000
#
# Coordination Sequence:
#
# PCOD9004128 Si02
#       8
#     2   2   2   2   2   2   2   2
#     4  10  23  37  63  93 127 157 206 254 303 369
#     4  10  21  40  63  87 124 161 204 254 315 361
#     4  10  21  39  61  95 122 159 203 259 307 366
#     4  11  21  40  64  89 123 165 207 252 311 366
#     4  10  23  41  60  87 124 163 206 254 305 370
#     4  10  21  37  64  92 123 156 211 255 304 366
#     4  10  22  40  63  90 125 168 205 253 311 368
#     4  11  22  40  62  91 123 167 204 255 308 364
#
# _framework density 26.357082999999999
#
# number of rings (size 3 to 8) (size 9 to 14) (size 15 to 20)
#    0.000    1.750    1.250    3.000    1.750    2.500 
#    2.250    8.750    0.000    0.000    0.000    0.000 
#    0.000    0.000    0.000    0.000    0.000    0.000 
#
# Total GULP energy -89444.694650 kJ/mol
# GULP energy per Si atom -5590.293416 kJ/mol
# Density = 2.629709 g / cm^3
# Si number density = 26.357083 Si / 1000 Ang^3
#
#
#
# Elastic Constant Matrix: (Units=GPa)
#
#
# Indices 1 2 3 4 5 6 
#
# 1 63.5179 22.4727 19.3917 -10.3511 -2.4902 16.6343
# 2 22.4727 160.9924 39.1257 -7.3978 3.9308 1.3229
# 3 19.3917 39.1257 100.7676 -14.1556 8.6423 -0.9733
# 4 -10.3511 -7.3978 -14.1556 47.7150 -2.2632 12.4343
# 5 -2.4902 3.9308 8.6423 -2.2632 44.2790 -7.5500
# 6 16.6343 1.3229 -0.9733 12.4343 -7.5500 33.9149
#
#
#
# Elastic Compliance Matrix: (Units=1/GPa)
#
#
# Indices 1 2 3 4 5 6 
#
# 1 0.021899 -0.001995 -0.002562 0.007164 -0.000004 -0.013364
# 2 -0.001995 0.007053 -0.002365 -0.000226 -0.000172 0.000680
# 3 -0.002562 -0.002365 0.011854 0.002406 -0.002066 0.000347
# 4 0.007164 -0.000226 0.002406 0.026641 -0.000973 -0.013420
# 5 -0.000004 -0.000172 -0.002066 -0.000973 0.023912 0.005629
# 6 -0.013364 0.000680 0.000347 -0.013420 0.005629 0.042197
#
#
# Mechanical properties :
#
#
# Convention : Reuss Voigt Hill
#
# Bulk Modulus (GPa) = 37.09061 54.13980 45.61520
# Shear Modulus (GPa) = 31.97199 41.46764 36.71982
#
# Velocity S-wave (km/s) = 3.48664 3.97079 3.73656
# Velocity P-wave (km/s) = 5.50561 6.45046 5.99667
#
# Compressibility (1/GPa) = 0.02696100
#
# Stress axis : x y z
#
# Youngs Moduli (GPa) = 45.66510 141.78476 84.36281
#
# Poissons Ratio (x) = 0.28287 0.21613
# Poissons Ratio (y) = 0.09111 0.19952
# Poissons Ratio (z) = 0.11699 0.33532
#
# Static dielectric constant tensor:
#      x y z
#    x 2.174110 0.007570 0.066460 
#    y 0.007570 2.126230 0.005370 
#    z 0.066460 0.005370 2.109890 
# 
# From -- ./inp_files/261813.got.cif
#   From: 2010.05.17/outbox.cif.g08.bks.cpg/sg2_131_cif.got.tgz:261813.got - 2010.06.03 11:33:40.
