data_PCOD9004166
_publ_section_title
;
Structure prediction by ZEFSAII (Michael W. Deem and Ramdas Pophale) SiO2 
 PCOD9004166
Probable space group: P -1
;
_chemical_formula_sum "Si O2"
_cell_formula_units_Z 16
_cell_length_a 10.906054
_cell_length_b 8.319444
_cell_length_c 15.795069
_cell_angle_alpha 65.055585
_cell_angle_beta 133.617692
_cell_angle_gamma 79.692690
_cell_volume 656.935697
_symmetry_space_group_name_H-M "P -1"
_symmetry_group_IT_number 2
_symmetry_cell_setting 'triclinic'
loop_
_space_group_symop_operation_xyz
x,y,z
-x,-y,-z
loop_
_atom_site_type_symbol
_atom_site_label
_atom_site_fract_x
_atom_site_fract_y
_atom_site_fract_z
Si Si1 0.376487 0.848835 0.829399
Si Si2 0.713820 0.535258 0.551047
Si Si3 0.569380 0.741484 0.606169
Si Si4 0.565598 0.027093 0.351374
Si Si5 0.921621 0.787299 0.970751
Si Si6 0.107275 0.614592 0.508051
Si Si7 0.609506 0.548694 0.153471
Si Si8 0.133826 0.968121 0.943414
O O1 0.402497 0.939384 0.736564
O O2 0.367541 0.655509 0.835841
O O3 0.590341 0.705093 0.032712
O O4 0.120429 0.095853 0.690750
O O5 0.529791 0.660929 0.517768
O O6 0.695787 0.518825 0.444595
O O7 0.935475 0.246840 0.747158
O O8 0.741243 0.730319 0.521872
O O9 0.420856 0.827016 0.604345
O O10 0.500000 0.000000 0.500000
O O11 0.849364 0.491527 0.819829
O O12 0.286975 0.165357 0.185989
O O13 0.801961 0.981450 0.949260
O O14 0.023671 0.861122 0.940763
O O15 0.199425 0.593883 0.649265
O O16 0.000000 0.500000 0.500000
O O17 0.357957 0.764621 0.035067
#
# Coordination Sequence:
#
# PCOD9004166 Si02
#       8
#     2   2   2   2   2   2   2   2
#     4  11  25  45  69 102 139 180 230 281 348 413
#     4  10  21  40  63  95 133 170 230 279 333 408
#     4   9  20  37  60  86 129 169 211 280 330 389
#     4  11  21  40  64  96 132 174 227 280 339 408
#     4  10  21  37  64  94 126 180 227 277 340 404
#     4  12  24  44  70 104 136 179 233 286 340 410
#     4  11  25  44  70  99 138 184 225 284 351 407
#     4  10  21  40  62  90 136 176 224 284 341 405
#
# _framework density 24.355504
#
# number of rings (size 3 to 8) (size 9 to 14) (size 15 to 20)
#    0.000    1.500    2.500    2.250    0.000    3.000 
#    0.000    7.500    2.750    0.000    0.000    0.000 
#    0.000    0.000    0.000    0.000    0.000    0.000 
#
# Total GULP energy -89265.725670 kJ/mol
# GULP energy per Si atom -5579.107854 kJ/mol
# Density = 2.430007 g / cm^3
# Si number density = 24.355504 Si / 1000 Ang^3
#
#
#
# Elastic Constant Matrix: (Units=GPa)
#
#
# Indices 1 2 3 4 5 6 
#
# 1 67.9185 33.6978 36.5333 1.2849 -33.2116 -21.0295
# 2 33.6978 137.6077 61.6425 -9.4742 -9.4086 -28.2717
# 3 36.5333 61.6425 189.3484 -21.3244 -37.5193 2.6955
# 4 1.2849 -9.4742 -21.3244 52.5285 -6.5852 -6.0526
# 5 -33.2116 -9.4086 -37.5193 -6.5852 29.1969 7.5720
# 6 -21.0295 -28.2717 2.6955 -6.0526 7.5720 34.5134
#
#
#
# Elastic Compliance Matrix: (Units=1/GPa)
#
#
# Indices 1 2 3 4 5 6 
#
# 1 0.045645 -0.006868 0.005092 0.007903 0.055163 0.011072
# 2 -0.006868 0.012394 -0.005569 -0.000479 -0.013489 0.009278
# 3 0.005092 -0.005569 0.010882 0.005199 0.020694 -0.005937
# 4 0.007903 -0.000479 0.005199 0.023803 0.019892 0.003827
# 5 0.055163 -0.013489 0.020694 0.019892 0.124477 -0.002875
# 6 0.011072 0.009278 -0.005937 0.003827 -0.002875 0.045087
#
#
# Mechanical properties :
#
#
# Convention : Reuss Voigt Hill
#
# Bulk Modulus (GPa) = 18.43928 73.18019 45.80974
# Shear Modulus (GPa) = 16.94596 40.78116 28.86356
#
# Velocity S-wave (km/s) = 2.64062 4.09640 3.44625
# Velocity P-wave (km/s) = 4.10907 7.24471 5.88941
#
# Compressibility (1/GPa) = 0.05423205
#
# Stress axis : x y z
#
# Youngs Moduli (GPa) = 21.90814 80.68097 91.89217
#
# Poissons Ratio (x) = 0.55413 -0.46791
# Poissons Ratio (y) = 0.15047 0.51172
# Poissons Ratio (z) = -0.11156 0.44929
#
# Static dielectric constant tensor:
#      x y z
#    x 1.991420 -0.047380 -0.014450 
#    y -0.047380 1.960040 0.049440 
#    z -0.014450 0.049440 1.909210 
# 
# From -- ./inp_files/499784.got.cif
#   From: 2010.05.17/outbox.cif.g08.bks.cpg/sg2_250_cif.got.tgz:499784.got - 2010.06.03 11:33:40.
