data_PCOD9004344
_publ_section_title
;
Structure prediction by ZEFSAII (Michael W. Deem and Ramdas Pophale) SiO2 
 PCOD9004344
Probable space group: P -1
;
_chemical_formula_sum "Si O2"
_cell_formula_units_Z 14
_cell_length_a 7.268553
_cell_length_b 5.526955
_cell_length_c 22.855823
_cell_angle_alpha 76.006253
_cell_angle_beta 128.784228
_cell_angle_gamma 112.345759
_cell_volume 661.979954
_symmetry_space_group_name_H-M "P -1"
_symmetry_group_IT_number 2
_symmetry_cell_setting 'triclinic'
loop_
_space_group_symop_operation_xyz
x,y,z
-x,-y,-z
loop_
_atom_site_type_symbol
_atom_site_label
_atom_site_fract_x
_atom_site_fract_y
_atom_site_fract_z
Si Si1 0.265477 0.833714 0.799026
Si Si2 0.364654 0.521185 0.410399
Si Si3 0.364654 0.022672 0.410399
Si Si4 0.704349 0.583961 0.268213
Si Si5 0.854548 0.016165 0.911111
Si Si6 0.762447 0.466258 0.414966
Si Si7 0.886253 0.600061 0.843068
O O1 0.237724 0.114120 0.757267
O O2 0.557963 0.909140 0.869843
O O3 0.594903 0.524058 0.773394
O O4 0.237724 0.609072 0.757267
O O5 0.500000 0.500000 0.500000
O O6 0.216520 0.227600 0.380660
O O7 0.586971 0.610346 0.403196
O O8 0.239200 0.743966 0.375634
O O9 0.586971 0.170233 0.403196
O O10 0.500000 0.000000 0.500000
O O11 0.813820 0.551871 0.355039
O O12 0.919270 0.321570 0.886456
O O13 0.919269 0.824798 0.886454
O O14 0.928417 0.283679 0.180529
O O15 0.000000 0.000000 0.000000
O O16 0.000000 0.500000 0.500000
#
# Coordination Sequence:
#
# PCOD9004344 Si02
#       7
#     2   2   2   2   2   2   2
#     4  10  22  42  61  87 126 165 204 235 296 373
#     4   8  16  32  49  69  97 126 163 222 292 350
#     4   8  16  32  49  69  97 126 163 222 292 350
#     4  10  23  41  57  87 117 162 211 250 298 371
#     4  10  21  37  66 100 127 155 201 247 284 347
#     4  10  22  37  55  80 109 139 191 262 311 338
#     4  10  21  41  62  86 132 168 193 243 299 352
#
# _framework density 21.148676999999999
#
# number of rings (size 3 to 8) (size 9 to 14) (size 15 to 20)
#    0.857    1.714    0.000    1.286    2.000    1.714 
#    5.143    0.000    0.000    0.000    0.000    0.000 
#    0.000    0.000    0.000    0.000    0.000    0.000 
#
# Total GULP energy -78024.855848 kJ/mol
# GULP energy per Si atom -5573.203989 kJ/mol
# Density = 2.110054 g / cm^3
# Si number density = 21.148677 Si / 1000 Ang^3
#
#
#
# Elastic Constant Matrix: (Units=GPa)
#
#
# Indices 1 2 3 4 5 6 
#
# 1 185.1762 97.6858 76.4995 -5.5310 -28.3990 8.2243
# 2 97.6858 226.8755 73.9732 -10.0320 -6.9847 -24.2024
# 3 76.4995 73.9732 130.9494 -2.1908 -8.1428 1.0311
# 4 -5.5310 -10.0320 -2.1908 25.6782 -0.1303 -5.9962
# 5 -28.3990 -6.9847 -8.1428 -0.1303 24.5206 -5.0165
# 6 8.2243 -24.2024 1.0311 -5.9962 -5.0165 39.7400
#
#
#
# Elastic Compliance Matrix: (Units=1/GPa)
#
#
# Indices 1 2 3 4 5 6 
#
# 1 0.010025 -0.003211 -0.003463 -0.000001 0.008972 -0.002808
# 2 -0.003211 0.007211 -0.002267 0.003194 -0.001289 0.005434
# 3 -0.003463 -0.002267 0.010851 -0.001008 -0.001317 -0.001264
# 4 -0.000001 0.003194 -0.001008 0.042139 0.002569 0.008654
# 5 0.008972 -0.001289 -0.001317 0.002569 0.051252 0.004250
# 6 -0.002808 0.005434 -0.001264 0.008654 0.004250 0.030929
#
#
# Mechanical properties :
#
#
# Convention : Reuss Voigt Hill
#
# Bulk Modulus (GPa) = 97.98357 115.47978 106.73168
# Shear Modulus (GPa) = 28.78673 37.64392 33.21532
#
# Velocity S-wave (km/s) = 3.69339 4.22354 3.96733
# Velocity P-wave (km/s) = 8.03863 8.86040 8.45950
#
# Compressibility (1/GPa) = 0.01020579
#
# Stress axis : x y z
#
# Youngs Moduli (GPa) = 99.74742 138.68416 92.15429
#
# Poissons Ratio (x) = 0.44530 0.31912
# Poissons Ratio (y) = 0.32028 0.20891
# Poissons Ratio (z) = 0.34541 0.31440
#
# Static dielectric constant tensor:
#      x y z
#    x 1.744310 -0.022600 0.027530 
#    y -0.022600 1.816860 0.005530 
#    z 0.027530 0.005530 1.753290 
# 
# From -- ./inp_files/617747.got.cif
#   From: 2010.05.17/outbox.cif.g08.bks.cpg/sg2_309_cif.got.tgz:617747.got - 2010.06.03 11:33:40.
