data_PCOD9004117
_publ_section_title
;
Structure prediction by ZEFSAII (Michael W. Deem and Ramdas Pophale) SiO2 
 PCOD9004117
Probable space group: P -1
;
_chemical_formula_sum "Si O2"
_cell_formula_units_Z 16
_cell_length_a 14.771380
_cell_length_b 14.079215
_cell_length_c 12.420534
_cell_angle_alpha 147.641991
_cell_angle_beta 137.526995
_cell_angle_gamma 29.603169
_cell_volume 682.888468
_symmetry_space_group_name_H-M "P -1"
_symmetry_group_IT_number 2
_symmetry_cell_setting 'triclinic'
loop_
_space_group_symop_operation_xyz
x,y,z
-x,-y,-z
loop_
_atom_site_type_symbol
_atom_site_label
_atom_site_fract_x
_atom_site_fract_y
_atom_site_fract_z
Si Si1 0.410736 0.069463 0.367100
Si Si2 0.252991 0.639010 0.508643
Si Si3 0.327233 0.809307 0.538335
Si Si4 0.665870 0.323094 0.826722
Si Si5 0.206701 0.412643 0.794112
Si Si6 0.055755 0.366259 0.809824
Si Si7 0.271127 0.591497 0.718054
Si Si8 0.120251 0.170662 0.332959
O O1 0.347402 0.319508 0.511058
O O2 0.232828 0.105208 0.259691
O O3 0.500000 0.000000 0.500000
O O4 0.584273 0.837385 0.234350
O O5 0.232428 0.795857 0.543249
O O6 0.457734 0.377285 0.425636
O O7 0.236762 0.715446 0.691421
O O8 0.102630 0.623998 0.354567
O O9 0.313739 0.717858 0.324460
O O10 0.235361 0.082148 0.704549
O O11 0.449616 0.525653 0.859714
O O12 0.755116 0.070606 0.716271
O O13 0.768744 0.404659 0.034585
O O14 0.085692 0.488194 0.864096
O O15 0.124968 0.358024 0.577547
O O16 0.000000 0.500000 0.000000
O O17 0.079791 0.736129 0.749426
#
# Coordination Sequence:
#
# PCOD9004117 Si02
#       8
#     2   2   2   2   2   2   2   2
#     4  10  21  42  70  92 126 178 207 268 336 373
#     4  10  21  37  64  91 123 175 211 255 324 374
#     4  10  21  41  61  89 133 168 211 263 316 378
#     4  11  22  41  67  91 133 176 208 269 321 375
#     4  11  22  42  64  96 131 167 220 260 317 387
#     4  12  23  39  64  94 129 172 211 260 317 381
#     4  11  20  41  68  91 131 169 213 268 323 382
#     4  11  22  44  66  95 131 170 216 268 323 380
#
# _framework density 23.429886
#
# number of rings (size 3 to 8) (size 9 to 14) (size 15 to 20)
#    0.000    1.250    5.000    2.250    0.000    2.000 
#    2.250    4.375    0.000    0.000    0.000    0.000 
#    0.000    0.000    0.000    0.000    0.000    0.000 
#
# Total GULP energy -89518.127633 kJ/mol
# GULP energy per Si atom -5594.882977 kJ/mol
# Density = 2.337656 g / cm^3
# Si number density = 23.429886 Si / 1000 Ang^3
#
#
#
# Elastic Constant Matrix: (Units=GPa)
#
#
# Indices 1 2 3 4 5 6 
#
# 1 160.2672 43.5545 41.2139 -33.0746 23.1532 -19.6715
# 2 43.5545 123.4761 64.9931 -46.5315 13.2489 -37.9585
# 3 41.2139 64.9931 111.4735 -39.5816 19.3743 -33.0065
# 4 -33.0746 -46.5315 -39.5816 49.2217 -9.8738 32.1081
# 5 23.1532 13.2489 19.3743 -9.8738 41.9418 -7.4247
# 6 -19.6715 -37.9585 -33.0065 32.1081 -7.4247 66.9171
#
#
#
# Elastic Compliance Matrix: (Units=1/GPa)
#
#
# Indices 1 2 3 4 5 6 
#
# 1 0.007760 -0.000851 -0.000768 0.003627 -0.002920 -0.000645
# 2 -0.000851 0.014510 -0.004762 0.008275 0.000335 0.001698
# 3 -0.000768 -0.004762 0.014980 0.005346 -0.003465 0.001512
# 4 0.003627 0.008275 0.005346 0.042955 0.000882 -0.012116
# 5 -0.002920 0.000335 -0.003465 0.000882 0.027195 0.000217
# 6 -0.000645 0.001698 0.001512 -0.012116 0.000217 0.022301
#
#
# Mechanical properties :
#
#
# Convention : Reuss Voigt Hill
#
# Bulk Modulus (GPa) = 40.83979 77.19332 59.01655
# Shear Modulus (GPa) = 33.19470 47.97979 40.58725
#
# Velocity S-wave (km/s) = 3.76808 4.53018 4.16659
# Velocity P-wave (km/s) = 6.03322 7.77054 6.95633
#
# Compressibility (1/GPa) = 0.02448593
#
# Stress axis : x y z
#
# Youngs Moduli (GPa) = 128.87327 68.91695 66.75733
#
# Poissons Ratio (x) = 0.05863 0.05130
# Poissons Ratio (y) = 0.10964 0.31793
# Poissons Ratio (z) = 0.09904 0.32822
#
# Static dielectric constant tensor:
#      x y z
#    x 1.897230 -0.012050 -0.017870 
#    y -0.012050 1.911110 -0.000240 
#    z -0.017870 -0.000240 1.848020 
# 
# From -- ./inp_files/533931.got.cif
#   From: 2010.05.17/outbox.cif.g08.bks.cpg/sg2_267_cif.got.tgz:533931.got - 2010.06.03 11:33:40.
