data_PCOD9004097
_publ_section_title
;
Structure prediction by ZEFSAII (Michael W. Deem and Ramdas Pophale) SiO2 
 PCOD9004097
Probable space group: P -1
;
_chemical_formula_sum "Si O2"
_cell_formula_units_Z 16
_cell_length_a 17.058522
_cell_length_b 11.488630
_cell_length_c 6.310207
_cell_angle_alpha 43.434609
_cell_angle_beta 73.302349
_cell_angle_gamma 61.274518
_cell_volume 741.692729
_symmetry_space_group_name_H-M "P -1"
_symmetry_group_IT_number 2
_symmetry_cell_setting 'triclinic'
loop_
_space_group_symop_operation_xyz
x,y,z
-x,-y,-z
loop_
_atom_site_type_symbol
_atom_site_label
_atom_site_fract_x
_atom_site_fract_y
_atom_site_fract_z
Si Si1 0.102539 0.560666 0.291826
Si Si2 0.952514 0.692513 0.908709
Si Si3 0.458888 0.649405 0.145672
Si Si4 0.771748 0.699274 0.148763
Si Si5 0.616759 0.364262 0.183049
Si Si6 0.050452 0.843370 0.333842
Si Si7 0.210372 0.642467 0.715485
Si Si8 0.415100 0.948551 0.120870
O O1 0.180545 0.367216 0.569517
O O2 0.083344 0.664098 0.394655
O O3 0.152190 0.617903 0.988075
O O4 0.002176 0.631475 0.176526
O O5 0.982706 0.835528 0.575976
O O6 0.846851 0.752753 0.907663
O O7 0.000000 0.500000 0.000000
O O8 0.500000 0.500000 0.500000
O O9 0.544264 0.571700 0.025204
O O10 0.424757 0.846886 0.021199
O O11 0.380484 0.642360 0.065663
O O12 0.762244 0.536624 0.226022
O O13 0.676159 0.868711 0.023793
O O14 0.705998 0.334576 0.278834
O O15 0.586614 0.204612 0.504164
O O16 0.141911 0.823674 0.401733
O O17 0.000000 0.000000 0.000000
O O18 0.500000 0.000000 0.000000
#
# Coordination Sequence:
#
# PCOD9004097 Si02
#       8
#     2   2   2   2   2   2   2   2
#     4  10  21  37  64  89 129 169 212 268 324 378
#     4  11  20  41  63  91 128 171 222 266 323 384
#     4   9  21  43  67  90 120 167 209 259 327 385
#     4  11  23  39  66  98 128 174 216 270 322 391
#     4  10  22  42  68  91 130 171 207 270 326 388
#     4  10  23  39  62  91 132 173 215 270 322 383
#     4  10  22  40  61  96 129 167 221 257 327 393
#     4  11  25  42  64  98 131 162 216 268 322 387
#
# _framework density 21.572277
#
# number of rings (size 3 to 8) (size 9 to 14) (size 15 to 20)
#    0.000    1.750    3.750    1.125    0.000   12.500 
#    0.000    0.000    0.000    0.000    0.000    0.000 
#    0.000    0.000    0.000    0.000    0.000    0.000 
#
# Total GULP energy -89134.325874 kJ/mol
# GULP energy per Si atom -5570.895367 kJ/mol
# Density = 2.152318 g / cm^3
# Si number density = 21.572277 Si / 1000 Ang^3
#
#
#
# Elastic Constant Matrix: (Units=GPa)
#
#
# Indices 1 2 3 4 5 6 
#
# 1 176.4905 60.4623 62.0219 -7.7425 34.3540 -7.7615
# 2 60.4623 105.5310 28.6901 -0.7101 11.5383 -8.4444
# 3 62.0219 28.6901 118.0723 -3.7462 27.5489 -5.3287
# 4 -7.7425 -0.7101 -3.7462 27.9890 2.7467 17.4505
# 5 34.3540 11.5383 27.5489 2.7467 34.1110 3.0670
# 6 -7.7615 -8.4444 -5.3287 17.4505 3.0670 38.0552
#
#
#
# Elastic Compliance Matrix: (Units=1/GPa)
#
#
# Indices 1 2 3 4 5 6 
#
# 1 0.009157 -0.003925 -0.002317 0.002805 -0.006240 -0.000111
# 2 -0.003925 0.012149 -0.000984 -0.002848 0.000596 0.003015
# 3 -0.002317 -0.000984 0.011607 0.000888 -0.006877 0.001081
# 4 0.002805 -0.002848 0.000888 0.051439 -0.004640 -0.023149
# 5 -0.006240 0.000596 -0.006877 -0.004640 0.041626 -0.003330
# 6 -0.000111 0.003015 0.001081 -0.023149 -0.003330 0.037959
#
#
# Mechanical properties :
#
#
# Convention : Reuss Voigt Hill
#
# Bulk Modulus (GPa) = 54.16222 78.04917 66.10570
# Shear Modulus (GPa) = 27.09413 36.62569 31.85991
#
# Velocity S-wave (km/s) = 3.54781 4.12492 3.84720
# Velocity P-wave (km/s) = 6.47645 7.67760 7.10246
#
# Compressibility (1/GPa) = 0.01846305
#
# Stress axis : x y z
#
# Youngs Moduli (GPa) = 109.20090 82.31255 86.15583
#
# Poissons Ratio (x) = 0.32304 0.19960
# Poissons Ratio (y) = 0.42856 0.08476
# Poissons Ratio (z) = 0.25299 0.08098
#
# Static dielectric constant tensor:
#      x y z
#    x 1.874430 -0.002260 0.023010 
#    y -0.002260 1.875340 -0.058340 
#    z 0.023010 -0.058340 1.889270 
# 
# From -- ./inp_files/108782.got.cif
#   From: 2010.05.17/outbox.cif.g08.bks.cpg/sg2_55_cif.got.tgz:108782.got - 2010.06.03 11:33:40.
