data_PCOD9004766
_publ_section_title
;
Structure prediction by ZEFSAII (Michael W. Deem and Ramdas Pophale) SiO2 
 PCOD9004766
Probable space group: P -1
;
_chemical_formula_sum "Si O2"
_cell_formula_units_Z 16
_cell_length_a 9.483047
_cell_length_b 8.641025
_cell_length_c 17.490415
_cell_angle_alpha 151.438308
_cell_angle_beta 78.459477
_cell_angle_gamma 102.083714
_cell_volume 669.644914
_symmetry_space_group_name_H-M "P -1"
_symmetry_group_IT_number 2
_symmetry_cell_setting 'triclinic'
loop_
_space_group_symop_operation_xyz
x,y,z
-x,-y,-z
loop_
_atom_site_type_symbol
_atom_site_label
_atom_site_fract_x
_atom_site_fract_y
_atom_site_fract_z
Si Si1 0.578081 0.102918 0.248588
Si Si2 0.153783 0.257569 0.689241
Si Si3 0.312308 0.658712 0.373232
Si Si4 0.974630 0.042576 0.765348
Si Si5 0.703448 0.604646 0.573840
Si Si6 0.193757 0.350398 0.979862
Si Si7 0.089439 0.336522 0.153254
Si Si8 0.423700 0.681582 0.833073
O O1 0.665504 0.377117 0.408084
O O2 0.410145 0.115583 0.293675
O O3 0.597390 0.215978 0.208060
O O4 0.651350 0.768317 0.108611
O O5 0.270313 0.550500 0.825299
O O6 0.079155 0.117498 0.713868
O O7 0.028133 0.397844 0.714148
O O8 0.240799 0.997490 0.521028
O O9 0.333746 0.600649 0.435157
O O10 0.197869 0.381735 0.231539
O O11 0.465570 0.602076 0.294770
O O12 0.076528 0.064747 0.838237
O O13 0.867866 0.736520 0.623008
O O14 0.865521 0.330194 0.911748
O O15 0.181410 0.399766 0.093201
O O16 0.000000 0.000000 0.000000
O O17 0.500000 0.000000 0.000000
#
# Coordination Sequence:
#
# PCOD9004766 Si02
#       8
#     2   2   2   2   2   2   2   2
#     4  10  22  41  64  88 120 160 209 256 301 368
#     4  11  24  41  63  94 126 161 208 258 311 370
#     4  11  23  41  65  91 125 166 208 258 308 367
#     4  10  23  40  62  91 127 163 204 254 308 368
#     4  10  23  42  62  90 123 165 207 250 309 363
#     4  10  21  38  58  90 123 158 204 255 305 360
#     4  11  22  38  62  93 127 163 206 254 309 369
#     4  11  24  43  66  91 123 164 207 256 316 375
#
# _framework density 23.893257999999999
#
# number of rings (size 3 to 8) (size 9 to 14) (size 15 to 20)
#    0.000    1.500    0.000    4.500    0.000   11.500 
#    0.000    8.750    0.000    0.000    0.000    0.000 
#    0.000    0.000    0.000    0.000    0.000    0.000 
#
# Total GULP energy -89518.919106 kJ/mol
# GULP energy per Si atom -5594.932444 kJ/mol
# Density = 2.383888 g / cm^3
# Si number density = 23.893258 Si / 1000 Ang^3
#
#
#
# Elastic Constant Matrix: (Units=GPa)
#
#
# Indices 1 2 3 4 5 6 
#
# 1 124.1027 8.3853 45.8283 0.1857 -15.4759 -3.0003
# 2 8.3853 29.8991 7.1992 -17.9991 5.1771 -6.4331
# 3 45.8283 7.1992 76.8107 -8.3137 -5.8668 -12.6374
# 4 0.1857 -17.9991 -8.3137 24.7332 -13.6576 7.3023
# 5 -15.4759 5.1771 -5.8668 -13.6576 63.9518 9.5660
# 6 -3.0003 -6.4331 -12.6374 7.3023 9.5660 40.6580
#
#
#
# Elastic Compliance Matrix: (Units=1/GPa)
#
#
# Indices 1 2 3 4 5 6 
#
# 1 0.011064 -0.004760 -0.006767 -0.004355 0.001762 -0.001673
# 2 -0.004760 0.063033 0.002676 0.049036 0.004371 0.000618
# 3 -0.006767 0.002676 0.018342 0.007386 0.000791 0.004113
# 4 -0.004355 0.049036 0.007386 0.090927 0.016645 -0.010514
# 5 0.001762 0.004371 0.000791 0.016645 0.020340 -0.006708
# 6 -0.001673 0.000618 0.004113 -0.010514 -0.006708 0.029315
#
#
# Mechanical properties :
#
#
# Convention : Reuss Voigt Hill
#
# Bulk Modulus (GPa) = 13.38061 39.29312 26.33686
# Shear Modulus (GPa) = 18.13981 37.16194 27.65087
#
# Velocity S-wave (km/s) = 2.75835 3.94805 3.40555
# Velocity P-wave (km/s) = 3.96951 6.10440 5.14882
#
# Compressibility (1/GPa) = 0.07473501
#
# Stress axis : x y z
#
# Youngs Moduli (GPa) = 90.38093 15.86483 54.51889
#
# Poissons Ratio (x) = 0.07552 0.36894
# Poissons Ratio (y) = 0.43025 -0.14587
# Poissons Ratio (z) = 0.61163 -0.04245
#
# Static dielectric constant tensor:
#      x y z
#    x 1.904840 0.003060 -0.023030 
#    y 0.003060 1.877480 0.043030 
#    z -0.023030 0.043030 1.950070 
# 
# From -- ./inp_files/557720.got.cif
#   From: 2010.05.17/outbox.cif.g08.bks.cpg/sg2_279_cif.got.tgz:557720.got - 2010.06.03 11:33:40.
