data_PCOD9004696
_publ_section_title
;
Structure prediction by ZEFSAII (Michael W. Deem and Ramdas Pophale) SiO2 
 PCOD9004696
Probable space group: P -1
;
_chemical_formula_sum "Si O2"
_cell_formula_units_Z 16
_cell_length_a 11.162935
_cell_length_b 8.238478
_cell_length_c 15.270233
_cell_angle_alpha 127.989566
_cell_angle_beta 105.305818
_cell_angle_gamma 42.564735
_cell_volume 699.833706
_symmetry_space_group_name_H-M "P -1"
_symmetry_group_IT_number 2
_symmetry_cell_setting 'triclinic'
loop_
_space_group_symop_operation_xyz
x,y,z
-x,-y,-z
loop_
_atom_site_type_symbol
_atom_site_label
_atom_site_fract_x
_atom_site_fract_y
_atom_site_fract_z
Si Si1 0.838940 0.654470 0.092924
Si Si2 0.974632 0.592452 0.769026
Si Si3 0.777578 0.781985 0.471246
Si Si4 0.393802 0.391820 0.523454
Si Si5 0.189321 0.634687 0.387107
Si Si6 0.256487 0.809797 0.291530
Si Si7 0.918572 0.106505 0.895791
Si Si8 0.678269 0.256831 0.212023
O O1 0.913506 0.615796 0.191534
O O2 0.678734 0.010471 0.146093
O O3 0.807848 0.448201 0.020137
O O4 0.000000 0.500000 0.000000
O O5 0.101831 0.466034 0.665131
O O6 0.847188 0.561468 0.702051
O O7 0.893165 0.923273 0.881816
O O8 0.685486 0.725152 0.495000
O O9 0.615222 0.107838 0.493810
O O10 0.856324 0.855506 0.577118
O O11 0.338697 0.482317 0.442784
O O12 0.302436 0.673088 0.663556
O O13 0.254193 0.644342 0.311501
O O14 0.000000 0.000000 0.500000
O O15 0.160418 0.844714 0.199069
O O16 0.478036 0.586256 0.244860
O O17 0.140000 0.894590 0.858250
#
# Coordination Sequence:
#
# PCOD9004696 Si02
#       8
#     2   2   2   2   2   2   2   2
#     4  10  23  43  66  89 121 164 214 263 313 360
#     4  12  23  39  67  91 122 167 207 256 313 372
#     4  10  22  37  62  92 128 162 204 246 311 381
#     4  10  21  38  57  94 132 162 196 253 310 378
#     4  12  23  35  58  93 133 164 201 244 310 379
#     4  11  24  40  63  98 128 166 204 254 312 379
#     4  11  23  44  66  88 125 165 217 261 307 363
#     4  10  22  40  67  90 124 166 206 260 310 364
#
# _framework density 22.862573999999999
#
# number of rings (size 3 to 8) (size 9 to 14) (size 15 to 20)
#    0.000    1.250    2.500    4.125    1.750    2.500 
#    0.000    0.000    0.000    4.500    0.000    0.000 
#    0.000    0.000    0.000    0.000    0.000    0.000 
#
# Total GULP energy -89426.571824 kJ/mol
# GULP energy per Si atom -5589.160739 kJ/mol
# Density = 2.281054 g / cm^3
# Si number density = 22.862574 Si / 1000 Ang^3
#
#
#
# Elastic Constant Matrix: (Units=GPa)
#
#
# Indices 1 2 3 4 5 6 
#
# 1 58.6046 7.6794 4.6151 6.8001 19.2751 12.7850
# 2 7.6794 76.3183 22.2303 -10.9636 -4.3234 3.7904
# 3 4.6151 22.2303 80.9431 -2.9463 21.6400 -0.2517
# 4 6.8001 -10.9636 -2.9463 47.4933 19.4205 9.4513
# 5 19.2751 -4.3234 21.6400 19.4205 34.4942 4.0290
# 6 12.7850 3.7904 -0.2517 9.4513 4.0290 33.0681
#
#
#
# Elastic Compliance Matrix: (Units=1/GPa)
#
#
# Indices 1 2 3 4 5 6 
#
# 1 0.024828 -0.003889 0.005108 0.005591 -0.019743 -0.008307
# 2 -0.003889 0.015955 -0.006168 0.001054 0.007637 -0.001604
# 3 0.005108 -0.006168 0.019294 0.007268 -0.019731 -0.000794
# 4 0.005591 0.001054 0.007268 0.032911 -0.025079 -0.008578
# 5 -0.019743 0.007637 -0.019731 -0.025079 0.066820 0.005634
# 6 -0.008307 -0.001604 -0.000794 -0.008578 0.005634 0.035395
#
#
# Mechanical properties :
#
#
# Convention : Reuss Voigt Hill
#
# Bulk Modulus (GPa) = 19.92866 31.65731 25.79299
# Shear Modulus (GPa) = 22.54005 35.10052 28.82029
#
# Velocity S-wave (km/s) = 3.14330 3.92252 3.55433
# Velocity P-wave (km/s) = 4.68075 5.86445 5.30571
#
# Compressibility (1/GPa) = 0.05017898
#
# Stress axis : x y z
#
# Youngs Moduli (GPa) = 40.27732 62.67730 51.82866
#
# Poissons Ratio (x) = 0.24375 -0.26476
# Poissons Ratio (y) = 0.15664 0.31970
# Poissons Ratio (z) = -0.20575 0.38662
#
# Static dielectric constant tensor:
#      x y z
#    x 1.893380 -0.015490 0.028980 
#    y -0.015490 1.868380 0.061530 
#    z 0.028980 0.061530 1.870640 
# 
# From -- ./inp_files/222105.got.cif
#   From: 2010.05.17/outbox.cif.g08.bks.cpg/sg2_112_cif.got.tgz:222105.got - 2010.06.03 11:33:40.
