data_PCOD9004172
_publ_section_title
;
Structure prediction by ZEFSAII (Michael W. Deem and Ramdas Pophale) SiO2 
 PCOD9004172
Probable space group: P -1
;
_chemical_formula_sum "Si O2"
_cell_formula_units_Z 16
_cell_length_a 9.593090
_cell_length_b 8.715451
_cell_length_c 12.418875
_cell_angle_alpha 54.641901
_cell_angle_beta 128.552545
_cell_angle_gamma 94.781930
_cell_volume 596.366528
_symmetry_space_group_name_H-M "P -1"
_symmetry_group_IT_number 2
_symmetry_cell_setting 'triclinic'
loop_
_space_group_symop_operation_xyz
x,y,z
-x,-y,-z
loop_
_atom_site_type_symbol
_atom_site_label
_atom_site_fract_x
_atom_site_fract_y
_atom_site_fract_z
Si Si1 0.228803 0.498453 0.026978
Si Si2 0.926121 0.449828 0.297474
Si Si3 0.881087 0.120077 0.544302
Si Si4 0.262780 0.694946 0.177371
Si Si5 0.340732 0.377131 0.525574
Si Si6 0.476736 0.945879 0.672068
Si Si7 0.154178 0.103173 0.861568
Si Si8 0.328296 0.830699 0.862499
O O1 0.172382 0.621759 0.062537
O O2 0.330863 0.251390 0.196850
O O3 0.077122 0.550954 0.833657
O O4 0.374954 0.593957 0.010051
O O5 0.826960 0.322247 0.362292
O O6 0.827290 0.690085 0.185569
O O7 0.152857 0.349670 0.489823
O O8 0.709368 0.046456 0.488339
O O9 0.947047 0.162636 0.675635
O O10 0.091470 0.942822 0.675272
O O11 0.246857 0.582429 0.323203
O O12 0.502192 0.612368 0.319736
O O13 0.175755 0.944164 0.032071
O O14 0.460395 0.175872 0.587760
O O15 0.444599 0.872769 0.805780
O O16 0.319358 0.956887 0.915468
#
# Coordination Sequence:
#
# PCOD9004172 Si02
#       8
#     2   2   2   2   2   2   2   2
#     4  11  24  39  65  92 134 160 208 259 314 368
#     4  12  22  41  66  99 122 169 208 255 315 379
#     4  10  21  37  64  94 137 155 205 254 309 379
#     4  10  25  49  60  92 125 164 214 270 306 365
#     4  11  25  43  71  86 123 168 216 259 315 369
#     4  12  21  39  64  97 126 172 201 255 314 372
#     4   9  22  40  62  91 130 165 204 257 307 370
#     4   9  19  37  56  91 128 167 190 253 307 371
#
# _framework density 26.829138
#
# number of rings (size 3 to 8) (size 9 to 14) (size 15 to 20)
#    0.750    0.750    2.500    2.625    1.750    1.500 
#    0.000    3.750    0.000    0.000    0.000    0.000 
#    0.000    0.000    0.000    0.000    0.000    0.000 
#
# Total GULP energy -89547.547802 kJ/mol
# GULP energy per Si atom -5596.721738 kJ/mol
# Density = 2.676807 g / cm^3
# Si number density = 26.829138 Si / 1000 Ang^3
#
#
#
# Elastic Constant Matrix: (Units=GPa)
#
#
# Indices 1 2 3 4 5 6 
#
# 1 36.6305 8.7075 18.9474 3.5308 -4.8855 -0.5337
# 2 8.7075 128.6340 42.9955 -21.3643 -12.5654 -5.9584
# 3 18.9474 42.9955 126.3183 -0.3069 -14.3484 7.4773
# 4 3.5308 -21.3643 -0.3069 65.7278 8.4655 3.0377
# 5 -4.8855 -12.5654 -14.3484 8.4655 41.3548 0.5525
# 6 -0.5337 -5.9584 7.4773 3.0377 0.5525 21.4828
#
#
#
# Elastic Compliance Matrix: (Units=1/GPa)
#
#
# Indices 1 2 3 4 5 6 
#
# 1 0.030184 -0.000695 -0.004164 -0.002274 0.002345 0.002268
# 2 -0.000695 0.009643 -0.003246 0.002861 0.001091 0.003354
# 3 -0.004164 -0.003246 0.010169 -0.000872 0.002288 -0.004479
# 4 -0.002274 0.002861 -0.000872 0.016720 -0.003108 -0.001244
# 5 0.002345 0.001091 0.002288 -0.003108 0.026229 -0.000671
# 6 0.002268 0.003354 -0.004479 -0.001244 -0.000671 0.049287
#
#
# Mechanical properties :
#
#
# Convention : Reuss Voigt Hill
#
# Bulk Modulus (GPa) = 29.59811 48.09819 38.84815
# Shear Modulus (GPa) = 29.46316 40.44192 34.95254
#
# Velocity S-wave (km/s) = 3.31747 3.88672 3.61332
# Velocity P-wave (km/s) = 5.07249 6.17322 5.64973
#
# Compressibility (1/GPa) = 0.03378594
#
# Stress axis : x y z
#
# Youngs Moduli (GPa) = 33.13036 103.70187 98.33982
#
# Poissons Ratio (x) = 0.07205 0.40953
# Poissons Ratio (y) = 0.02302 0.31918
# Poissons Ratio (z) = 0.13797 0.33658
#
# Static dielectric constant tensor:
#      x y z
#    x 2.146730 -0.012480 0.043500 
#    y -0.012480 2.100340 0.024750 
#    z 0.043500 0.024750 2.095800 
# 
# From -- ./inp_files/515113.got.cif
#   From: 2010.05.17/outbox.cif.g08.bks.cpg/sg2_258_cif.got.tgz:515113.got - 2010.06.03 11:33:40.
