data_PCOD9004307
_publ_section_title
;
Structure prediction by ZEFSAII (Michael W. Deem and Ramdas Pophale) SiO2 
 PCOD9004307
Probable space group: P -1
;
_chemical_formula_sum "Si O2"
_cell_formula_units_Z 14
_cell_length_a 14.886618
_cell_length_b 8.272665
_cell_length_c 12.065423
_cell_angle_alpha 125.099602
_cell_angle_beta 30.972849
_cell_angle_gamma 133.052378
_cell_volume 558.565070
_symmetry_space_group_name_H-M "P -1"
_symmetry_group_IT_number 2
_symmetry_cell_setting 'triclinic'
loop_
_space_group_symop_operation_xyz
x,y,z
-x,-y,-z
loop_
_atom_site_type_symbol
_atom_site_label
_atom_site_fract_x
_atom_site_fract_y
_atom_site_fract_z
Si Si1 0.423070 0.412114 0.170633
Si Si2 0.950084 0.153331 0.865153
Si Si3 0.466350 0.064071 0.877268
Si Si4 0.922751 0.369014 0.191893
Si Si5 0.669936 0.808394 0.499662
Si Si6 0.871602 0.433654 0.501130
Si Si7 0.514856 0.334180 0.580346
O O1 0.203236 0.389787 0.394725
O O2 0.533069 0.581361 0.220167
O O3 0.500000 0.500000 0.000000
O O4 0.441839 0.184939 0.060372
O O5 0.990674 0.378272 0.844123
O O6 0.107915 0.061816 0.640751
O O7 0.980249 0.229673 0.991183
O O8 0.728178 0.990308 0.007898
O O9 0.667005 0.226577 0.667264
O O10 0.505779 0.851618 0.753521
O O11 0.976082 0.379411 0.267521
O O12 0.686063 0.265024 0.395368
O O13 0.624465 0.559527 0.481855
O O14 0.642648 0.824054 0.402784
O O15 0.000000 0.500000 0.500000
#
# Coordination Sequence:
#
# PCOD9004307 Si02
#       7
#     2   2   2   2   2   2   2
#     4   9  21  41  59  84 125 168 196 252 312 359
#     4  10  21  38  65  95 124 156 207 258 308 359
#     4  11  23  41  63  95 127 157 212 262 294 369
#     4   9  19  41  63  89 128 166 196 256 317 360
#     4  10  21  37  65  95 122 159 205 257 304 370
#     4  10  23  43  64  85 125 173 205 246 318 374
#     4   9  18  39  62  88 127 163 199 248 319 363
#
# _framework density 25.064222999999998
#
# number of rings (size 3 to 8) (size 9 to 14) (size 15 to 20)
#    0.000    2.286    1.429    0.000    4.000    3.429 
#    5.143    2.857    0.000    0.000    0.000    0.000 
#    0.000    0.000    0.000    0.000    0.000    0.000 
#
# Total GULP energy -78152.709101 kJ/mol
# GULP energy per Si atom -5582.336364 kJ/mol
# Density = 2.500718 g / cm^3
# Si number density = 25.064223 Si / 1000 Ang^3
#
#
#
# Elastic Constant Matrix: (Units=GPa)
#
#
# Indices 1 2 3 4 5 6 
#
# 1 133.8479 21.9843 46.5004 -8.1029 8.7896 26.5922
# 2 21.9843 44.5458 12.4736 1.4408 -10.5557 14.7039
# 3 46.5004 12.4736 83.1178 9.0669 -9.1161 21.1573
# 4 -8.1029 1.4408 9.0669 38.6411 2.1367 -3.4421
# 5 8.7896 -10.5557 -9.1161 2.1367 54.1686 6.0622
# 6 26.5922 14.7039 21.1573 -3.4421 6.0622 26.5651
#
#
#
# Elastic Compliance Matrix: (Units=1/GPa)
#
#
# Indices 1 2 3 4 5 6 
#
# 1 0.011117 -0.003658 -0.005525 0.003629 -0.003198 -0.003503
# 2 -0.003658 0.032471 0.004105 -0.005335 0.010126 -0.020582
# 3 -0.005525 0.004105 0.020030 -0.007768 0.007088 -0.015318
# 4 0.003629 -0.005335 -0.007768 0.029898 -0.005300 0.010591
# 5 -0.003198 0.010126 0.007088 -0.005300 0.023944 -0.014200
# 6 -0.003503 -0.020582 -0.015318 0.010591 -0.014200 0.069355
#
#
# Mechanical properties :
#
#
# Convention : Reuss Voigt Hill
#
# Bulk Modulus (GPa) = 18.70511 47.04757 32.87634
# Shear Modulus (GPa) = 23.27826 35.91183 29.59505
#
# Velocity S-wave (km/s) = 3.05084 3.78933 3.43996
# Velocity P-wave (km/s) = 4.45973 6.16092 5.37802
#
# Compressibility (1/GPa) = 0.05346131
#
# Stress axis : x y z
#
# Youngs Moduli (GPa) = 89.94983 30.79718 49.92451
#
# Poissons Ratio (x) = 0.11266 0.27586
# Poissons Ratio (y) = 0.32905 -0.20495
# Poissons Ratio (z) = 0.49701 -0.12643
#
# Static dielectric constant tensor:
#      x y z
#    x 1.985560 -0.063800 -0.017210 
#    y -0.063800 2.217990 0.053240 
#    z -0.017210 0.053240 2.008900 
# 
# From -- ./inp_files/402503.got.cif
#   From: 2010.05.17/outbox.cif.g08.bks.cpg/sg2_202_cif.got.tgz:402503.got - 2010.06.03 11:33:40.
