data_PCOD9004463
_publ_section_title
;
Structure prediction by ZEFSAII (Michael W. Deem and Ramdas Pophale) SiO2 
 PCOD9004463
Probable space group: P -1
;
_chemical_formula_sum "Si O2"
_cell_formula_units_Z 14
_cell_length_a 9.280027
_cell_length_b 11.616373
_cell_length_c 11.802080
_cell_angle_alpha 125.047490
_cell_angle_beta 140.146502
_cell_angle_gamma 42.423435
_cell_volume 549.922681
_symmetry_space_group_name_H-M "P -1"
_symmetry_group_IT_number 2
_symmetry_cell_setting 'triclinic'
loop_
_space_group_symop_operation_xyz
x,y,z
-x,-y,-z
loop_
_atom_site_type_symbol
_atom_site_label
_atom_site_fract_x
_atom_site_fract_y
_atom_site_fract_z
Si Si1 0.611734 0.257969 0.448859
Si Si2 0.382292 0.587032 0.227256
Si Si3 0.668429 0.084524 0.041186
Si Si4 0.931009 0.896729 0.534029
Si Si5 0.271795 0.704689 0.989959
Si Si6 0.020655 0.657616 0.622748
Si Si7 0.213381 0.279832 0.052589
O O1 0.567080 0.357129 0.592132
O O2 0.357695 0.335972 0.256706
O O3 0.866967 0.226443 0.512888
O O4 0.703170 0.070182 0.436049
O O5 0.668320 0.414109 0.269716
O O6 0.300098 0.721082 0.150047
O O7 0.111028 0.590168 0.073470
O O8 0.691643 0.166242 0.986571
O O9 0.373409 0.216354 0.994285
O O10 0.888733 0.063221 0.254672
O O11 0.722678 0.900070 0.961741
O O12 0.833594 0.808181 0.507839
O O13 0.013521 0.717526 0.780746
O O14 0.500000 0.500000 0.000000
O O15 0.000000 0.500000 0.500000
#
# Coordination Sequence:
#
# PCOD9004463 Si02
#       7
#     2   2   2   2   2   2   2
#     4  10  21  38  66  95 124 157 206 261 306 361
#     4  11  23  41  63  96 126 158 213 262 293 374
#     4   9  18  39  62  89 125 164 199 250 317 366
#     4   9  19  41  63  90 128 164 201 254 314 368
#     4   9  21  41  59  83 127 166 199 249 310 365
#     4  10  23  43  64  85 126 173 205 247 320 371
#     4  10  21  37  67  95 122 158 208 257 309 362
#
# _framework density 25.458126
#
# number of rings (size 3 to 8) (size 9 to 14) (size 15 to 20)
#    0.000    2.286    1.429    0.000    4.000    3.429 
#    0.000   12.857    0.000    0.000    0.000    0.000 
#    0.000    0.000    0.000    0.000    0.000    0.000 
#
# Total GULP energy -78324.674477 kJ/mol
# GULP energy per Si atom -5594.619606 kJ/mol
# Density = 2.540018 g / cm^3
# Si number density = 25.458126 Si / 1000 Ang^3
#
#
#
# Elastic Constant Matrix: (Units=GPa)
#
#
# Indices 1 2 3 4 5 6 
#
# 1 50.1443 27.3232 30.5362 -5.8614 -17.5034 10.9914
# 2 27.3232 80.8818 27.8113 -8.8297 -7.1271 19.0211
# 3 30.5362 27.8113 110.1743 -4.3566 -17.1186 -1.7651
# 4 -5.8614 -8.8297 -4.3566 42.3827 -1.1409 -2.7357
# 5 -17.5034 -7.1271 -17.1186 -1.1409 53.0372 -4.8296
# 6 10.9914 19.0211 -1.7651 -2.7357 -4.8296 58.1037
#
#
#
# Elastic Compliance Matrix: (Units=1/GPa)
#
#
# Indices 1 2 3 4 5 6 
#
# 1 0.030438 -0.006788 -0.005579 0.002219 0.007106 -0.003010
# 2 -0.006788 0.016620 -0.002483 0.001964 -0.001152 -0.004235
# 3 -0.005579 -0.002483 0.011568 0.000101 0.001777 0.002372
# 4 0.002219 0.001964 0.000101 0.024377 0.001573 0.000219
# 5 0.007106 -0.001152 0.001777 0.001573 0.021741 0.000968
# 6 -0.003010 -0.004235 0.002372 0.000219 0.000968 0.019329
#
#
# Mechanical properties :
#
#
# Convention : Reuss Voigt Hill
#
# Bulk Modulus (GPa) = 34.57186 45.83798 40.20492
# Shear Modulus (GPa) = 30.59695 41.07336 35.83516
#
# Velocity S-wave (km/s) = 3.47054 4.02103 3.75589
# Velocity P-wave (km/s) = 5.44691 6.29306 5.88521
#
# Compressibility (1/GPa) = 0.02892526
#
# Stress axis : x y z
#
# Youngs Moduli (GPa) = 32.85338 60.17025 86.44700
#
# Poissons Ratio (x) = 0.40842 0.48231
# Poissons Ratio (y) = 0.22300 0.21465
# Poissons Ratio (z) = 0.18330 0.14941
#
# Static dielectric constant tensor:
#      x y z
#    x 2.104750 0.003910 -0.019660 
#    y 0.003910 2.037750 0.020480 
#    z -0.019660 0.020480 2.024830 
# 
# From -- ./inp_files/188486.got.cif
#   From: 2010.05.17/outbox.cif.g08.bks.cpg/sg2_95_cif.got.tgz:188486.got - 2010.06.03 11:33:40.
