data_PCOD9004395
_publ_section_title
;
Structure prediction by ZEFSAII (Michael W. Deem and Ramdas Pophale) SiO2 
 PCOD9004395
Probable space group: P -1
;
_chemical_formula_sum "Si O2"
_cell_formula_units_Z 14
_cell_length_a 12.354459
_cell_length_b 18.436491
_cell_length_c 5.132991
_cell_angle_alpha 68.815394
_cell_angle_beta 95.651288
_cell_angle_gamma 139.559420
_cell_volume 676.331933
_symmetry_space_group_name_H-M "P -1"
_symmetry_group_IT_number 2
_symmetry_cell_setting 'triclinic'
loop_
_space_group_symop_operation_xyz
x,y,z
-x,-y,-z
loop_
_atom_site_type_symbol
_atom_site_label
_atom_site_fract_x
_atom_site_fract_y
_atom_site_fract_z
Si Si1 0.620701 0.064948 0.195110
Si Si2 0.559433 0.601880 0.579717
Si Si3 0.951933 0.151863 0.221472
Si Si4 0.111299 0.473002 0.349163
Si Si5 0.877713 0.349481 0.953675
Si Si6 0.249375 0.426755 0.070946
Si Si7 0.078103 0.128344 0.785607
O O1 0.752256 0.065518 0.249399
O O2 0.500000 0.000000 0.500000
O O3 0.737590 0.207211 0.039752
O O4 0.500000 0.000000 0.000000
O O5 0.500000 0.500000 0.500000
O O6 0.665877 0.609809 0.803043
O O7 0.709042 0.745642 0.336268
O O8 0.387164 0.540431 0.754225
O O9 0.059683 0.292142 0.110827
O O10 0.993585 0.116536 0.515880
O O11 0.021753 0.153791 0.971188
O O12 0.036513 0.428826 0.680192
O O13 0.196066 0.604837 0.161799
O O14 0.226400 0.467363 0.267475
O O15 0.949338 0.383436 0.221153
O O16 0.000000 0.000000 0.000000
#
# Coordination Sequence:
#
# PCOD9004395 Si02
#       7
#     2   2   2   2   2   2   2
#     4  12  25  42  66  94 133 172 225 278 312 397
#     4  10  21  38  61  99 128 162 217 276 314 387
#     4  11  23  42  70  92 124 181 224 260 339 394
#     4  10  21  38  66  91 124 165 208 274 324 393
#     4  10  22  40  62  94 124 162 219 263 334 377
#     4  10  21  37  66  94 128 165 217 271 327 389
#     4  11  24  44  68  96 136 175 215 271 332 402
#
# _framework density 20.699894
#
# number of rings (size 3 to 8) (size 9 to 14) (size 15 to 20)
#    0.000    1.429    2.857    2.143    6.000    0.000 
#    2.571    1.429    0.000    0.000    0.000    0.000 
#    0.000    0.000    0.000    0.000    0.000    0.000 
#
# Total GULP energy -78126.434369 kJ/mol
# GULP energy per Si atom -5580.459598 kJ/mol
# Density = 2.065278 g / cm^3
# Si number density = 20.699894 Si / 1000 Ang^3
#
#
#
# Elastic Constant Matrix: (Units=GPa)
#
#
# Indices 1 2 3 4 5 6 
#
# 1 76.9624 15.3561 25.6905 -13.1546 -15.0649 5.0912
# 2 15.3561 87.3668 25.6600 -12.5309 4.6740 13.3503
# 3 25.6905 25.6600 78.7662 -5.5872 -11.8337 16.0679
# 4 -13.1546 -12.5309 -5.5872 47.6871 -5.0596 5.2321
# 5 -15.0649 4.6740 -11.8337 -5.0596 42.7623 2.5142
# 6 5.0912 13.3503 16.0679 5.2321 2.5142 35.5027
#
#
#
# Elastic Compliance Matrix: (Units=1/GPa)
#
#
# Indices 1 2 3 4 5 6 
#
# 1 0.016361 -0.001299 -0.003487 0.004499 0.005551 -0.001335
# 2 -0.001299 0.013818 -0.003456 0.003028 -0.002347 -0.003726
# 3 -0.003487 -0.003456 0.017016 0.001291 0.004387 -0.006402
# 4 0.004499 0.003028 0.001291 0.024366 0.004865 -0.006303
# 5 0.005551 -0.002347 0.004387 0.004865 0.027656 -0.004575
# 6 -0.001335 -0.003726 -0.006402 -0.006303 -0.004575 0.033910
#
#
# Mechanical properties :
#
#
# Convention : Reuss Voigt Hill
#
# Bulk Modulus (GPa) = 32.56224 41.83430 37.19827
# Shear Modulus (GPa) = 31.27971 36.94967 34.11469
#
# Velocity S-wave (km/s) = 3.89151 4.22953 4.06404
# Velocity P-wave (km/s) = 5.99638 6.64121 6.32702
#
# Compressibility (1/GPa) = 0.03071042
#
# Stress axis : x y z
#
# Youngs Moduli (GPa) = 61.12233 72.36698 58.76861
#
# Poissons Ratio (x) = 0.09401 0.20495
# Poissons Ratio (y) = 0.07940 0.20309
# Poissons Ratio (z) = 0.21316 0.25009
#
# Static dielectric constant tensor:
#      x y z
#    x 1.811280 0.049710 0.031730 
#    y 0.049710 1.756640 0.004320 
#    z 0.031730 0.004320 1.778330 
# 
# From -- ./inp_files/80358.got.cif
#   From: 2010.05.17/outbox.cif.g08.bks.cpg/sg2_41_cif.got.tgz:80358.got - 2010.06.03 11:33:40.
