data_PCOD9004356
_publ_section_title
;
Structure prediction by ZEFSAII (Michael W. Deem and Ramdas Pophale) SiO2 
 PCOD9004356
Probable space group: P -1
;
_chemical_formula_sum "Si O2"
_cell_formula_units_Z 14
_cell_length_a 15.684563
_cell_length_b 9.877000
_cell_length_c 17.339311
_cell_angle_alpha 31.937505
_cell_angle_beta 28.177677
_cell_angle_gamma 36.724597
_cell_volume 655.434750
_symmetry_space_group_name_H-M "P -1"
_symmetry_group_IT_number 2
_symmetry_cell_setting 'triclinic'
loop_
_space_group_symop_operation_xyz
x,y,z
-x,-y,-z
loop_
_atom_site_type_symbol
_atom_site_label
_atom_site_fract_x
_atom_site_fract_y
_atom_site_fract_z
Si Si1 0.947734 0.410941 0.001069
Si Si2 0.708806 0.838493 0.258409
Si Si3 0.954659 0.669968 0.531243
Si Si4 0.294914 0.950044 0.556861
Si Si5 0.301197 0.401264 0.456270
Si Si6 0.602460 0.702746 0.050260
Si Si7 0.343064 0.553040 0.033552
O O1 0.829623 0.192386 0.221173
O O2 0.806059 0.630108 0.959830
O O3 0.000000 0.500000 0.000000
O O4 0.134556 0.307918 0.853808
O O5 0.496384 0.804500 0.435984
O O6 0.759859 0.738400 0.352759
O O7 0.698111 0.146627 0.105619
O O8 0.835386 0.520297 0.751518
O O9 0.000000 0.500000 0.500000
O O10 0.146749 0.649587 0.431281
O O11 0.830849 0.940130 0.469776
O O12 0.333804 0.190177 0.462807
O O13 0.482528 0.509579 0.276588
O O14 0.603856 0.629655 0.994453
O O15 0.500000 0.000000 0.000000
O O16 0.500000 0.500000 0.000000
#
# Coordination Sequence:
#
# PCOD9004356 Si02
#       7
#     2   2   2   2   2   2   2
#     4  12  30  48  71 109 150 196 242 301 375 432
#     4  12  23  45  77 102 140 187 249 301 353 430
#     4  10  21  37  66 106 140 180 235 300 358 419
#     4  11  22  45  74 105 142 186 245 305 354 433
#     4  11  22  45  72 105 140 186 247 303 361 428
#     4  12  28  48  72 107 156 190 235 308 373 435
#     4  12  23  43  76 112 139 190 249 300 363 428
#
# _framework density 21.359867999999999
#
# number of rings (size 3 to 8) (size 9 to 14) (size 15 to 20)
#    0.000    0.571    4.286    4.714    4.000    2.286 
#    2.571    1.429    0.000    0.000    0.000    0.000 
#    0.000    0.000    0.000    0.000    0.000    0.000 
#
# Total GULP energy -78254.662035 kJ/mol
# GULP energy per Si atom -5589.618717 kJ/mol
# Density = 2.131125 g / cm^3
# Si number density = 21.359868 Si / 1000 Ang^3
#
#
#
# Elastic Constant Matrix: (Units=GPa)
#
#
# Indices 1 2 3 4 5 6 
#
# 1 142.7630 77.6840 25.2596 21.7841 11.6587 -20.1446
# 2 77.6840 131.3731 53.1965 28.2388 9.0280 -7.3197
# 3 25.2596 53.1965 122.8003 31.4753 18.1111 -1.5575
# 4 21.7841 28.2388 31.4753 39.3654 -6.0746 -3.3925
# 5 11.6587 9.0280 18.1111 -6.0746 39.8546 3.3888
# 6 -20.1446 -7.3197 -1.5575 -3.3925 3.3888 40.3947
#
#
#
# Elastic Compliance Matrix: (Units=1/GPa)
#
#
# Indices 1 2 3 4 5 6 
#
# 1 0.011659 -0.006369 0.001893 -0.003570 -0.003776 0.004750
# 2 -0.006369 0.013525 -0.003739 -0.003272 0.000098 -0.001153
# 3 0.001893 -0.003739 0.012930 -0.009755 -0.007116 0.000543
# 4 -0.003570 -0.003272 -0.009755 0.039377 0.012260 -0.000471
# 5 -0.003776 0.000098 -0.007116 0.012260 0.031596 -0.003761
# 6 0.004750 -0.001153 0.000543 -0.000471 -0.003761 0.027213
#
#
# Mechanical properties :
#
#
# Convention : Reuss Voigt Hill
#
# Bulk Modulus (GPa) = 46.11849 78.80184 62.46017
# Shear Modulus (GPa) = 31.25835 39.97602 35.61718
#
# Velocity S-wave (km/s) = 3.82961 4.33083 4.08791
# Velocity P-wave (km/s) = 6.41815 7.87278 7.18239
#
# Compressibility (1/GPa) = 0.02168328
#
# Stress axis : x y z
#
# Youngs Moduli (GPa) = 85.77226 73.93961 77.33672
#
# Poissons Ratio (x) = 0.47094 -0.14640
# Poissons Ratio (y) = 0.54630 0.28917
# Poissons Ratio (z) = -0.16237 0.27647
#
# Static dielectric constant tensor:
#      x y z
#    x 1.787650 -0.033450 -0.071150 
#    y -0.033450 1.789380 0.008860 
#    z -0.071150 0.008860 1.756800 
# 
# From -- ./inp_files/529255.got.cif
#   From: 2010.05.17/outbox.cif.g08.bks.cpg/sg2_265_cif.got.tgz:529255.got - 2010.06.03 11:33:40.
