data_PCOD9004163
_publ_section_title
;
Structure prediction by ZEFSAII (Michael W. Deem and Ramdas Pophale) SiO2 
 PCOD9004163
Probable space group: P -1
;
_chemical_formula_sum "Si O2"
_cell_formula_units_Z 16
_cell_length_a 11.747557
_cell_length_b 5.197357
_cell_length_c 29.056283
_cell_angle_alpha 129.088623
_cell_angle_beta 148.930497
_cell_angle_gamma 59.575121
_cell_volume 708.115443
_symmetry_space_group_name_H-M "P -1"
_symmetry_group_IT_number 2
_symmetry_cell_setting 'triclinic'
loop_
_space_group_symop_operation_xyz
x,y,z
-x,-y,-z
loop_
_atom_site_type_symbol
_atom_site_label
_atom_site_fract_x
_atom_site_fract_y
_atom_site_fract_z
Si Si1 0.860527 0.810261 0.995412
Si Si2 0.067296 0.228572 0.189461
Si Si3 0.223171 0.885548 0.425908
Si Si4 0.590151 0.371725 0.924586
Si Si5 0.479797 0.492309 0.411267
Si Si6 0.203697 0.196553 0.875807
Si Si7 0.828214 0.093700 0.261504
Si Si8 0.963224 0.227613 0.557469
O O1 0.673060 0.637433 0.944892
O O2 0.037986 0.049989 0.110950
O O3 0.000000 0.500000 0.000000
O O4 0.747623 0.062426 0.950356
O O5 0.319307 0.312956 0.298839
O O6 0.923785 0.539028 0.167278
O O7 0.953960 0.989858 0.162107
O O8 0.323044 0.542785 0.407227
O O9 0.060414 0.927975 0.417208
O O10 0.436548 0.140229 0.535623
O O11 0.075068 0.982093 0.342452
O O12 0.352351 0.181038 0.811493
O O13 0.612205 0.588038 0.004675
O O14 0.710911 0.335170 0.479139
O O15 0.240330 0.924570 0.818339
O O16 0.856231 0.456239 0.336585
O O17 0.000000 0.000000 0.500000
#
# Coordination Sequence:
#
# PCOD9004163 Si02
#       8
#     2   2   2   2   2   2   2   2
#     4  10  22  42  61  91 132 173 222 265 318 403
#     4  10  21  37  64  94 126 164 219 276 324 386
#     4  10  22  41  66  92 127 162 231 276 330 394
#     4  10  23  39  65  97 129 171 215 272 335 391
#     4  10  21  39  66  95 116 175 220 281 334 382
#     4  10  21  39  63  99 131 160 215 273 333 388
#     4  11  23  39  65  93 128 173 211 276 335 399
#     4  11  26  43  61  94 137 174 222 277 338 410
#
# _framework density 22.595185000000001
#
# number of rings (size 3 to 8) (size 9 to 14) (size 15 to 20)
#    0.000    1.750    1.250    1.875    3.500    3.000 
#    2.250    3.750    0.000    0.000    0.000    0.000 
#    0.000    0.000    0.000    0.000    0.000    0.000 
#
# Total GULP energy -89144.952103 kJ/mol
# GULP energy per Si atom -5571.559506 kJ/mol
# Density = 2.254376 g / cm^3
# Si number density = 22.595185 Si / 1000 Ang^3
#
#
#
# Elastic Constant Matrix: (Units=GPa)
#
#
# Indices 1 2 3 4 5 6 
#
# 1 90.4872 67.7768 31.0780 -15.9854 -29.8123 24.4446
# 2 67.7768 166.3783 48.9910 -33.3477 -45.6302 55.8088
# 3 31.0780 48.9910 165.2090 19.4253 5.9355 4.5870
# 4 -15.9854 -33.3477 19.4253 49.3343 8.6918 -28.7507
# 5 -29.8123 -45.6302 5.9355 8.6918 34.8998 -11.9459
# 6 24.4446 55.8088 4.5870 -28.7507 -11.9459 90.2827
#
#
#
# Elastic Compliance Matrix: (Units=1/GPa)
#
#
# Indices 1 2 3 4 5 6 
#
# 1 0.019072 -0.002072 -0.003830 0.003490 0.013075 -0.000847
# 2 -0.002072 0.016089 -0.005645 0.006687 0.016943 -0.004726
# 3 -0.003830 -0.005645 0.009594 -0.006688 -0.010437 0.000528
# 4 0.003490 0.006687 -0.006688 0.030787 0.007257 0.006025
# 5 0.013075 0.016943 -0.010437 0.007257 0.060875 -0.003117
# 6 -0.000847 -0.004726 0.000528 0.006025 -0.003117 0.015707
#
#
# Mechanical properties :
#
#
# Convention : Reuss Voigt Hill
#
# Bulk Modulus (GPa) = 46.16609 79.75179 62.95894
# Shear Modulus (GPa) = 27.40672 53.18527 40.29599
#
# Velocity S-wave (km/s) = 3.48651 4.85689 4.22760
# Velocity P-wave (km/s) = 6.05672 8.17466 7.19406
#
# Compressibility (1/GPa) = 0.02166092
#
# Stress axis : x y z
#
# Youngs Moduli (GPa) = 52.43420 62.15412 104.23211
#
# Poissons Ratio (x) = 0.12879 0.39918
# Poissons Ratio (y) = 0.10865 0.58839
# Poissons Ratio (z) = 0.20081 0.35086
#
# Static dielectric constant tensor:
#      x y z
#    x 1.979010 0.175710 0.001550 
#    y 0.175710 0.050880 -0.344660 
#    z 0.001550 -0.344660 1.765490 
# 
# From -- ./inp_files/81503.got.cif
#   From: 2010.05.17/outbox.cif.g08.bks.cpg/sg2_41_cif.got.tgz:81503.got - 2010.06.03 11:33:40.
