data_PCOD9004052
_publ_section_title
;
Structure prediction by ZEFSAII (Michael W. Deem and Ramdas Pophale) SiO2 
 PCOD9004052
Probable space group: P -1
;
_chemical_formula_sum "Si O2"
_cell_formula_units_Z 16
_cell_length_a 15.558990
_cell_length_b 5.496846
_cell_length_c 23.915927
_cell_angle_alpha 93.028687
_cell_angle_beta 160.284495
_cell_angle_gamma 87.340298
_cell_volume 689.024410
_symmetry_space_group_name_H-M "P -1"
_symmetry_group_IT_number 2
_symmetry_cell_setting 'triclinic'
loop_
_space_group_symop_operation_xyz
x,y,z
-x,-y,-z
loop_
_atom_site_type_symbol
_atom_site_label
_atom_site_fract_x
_atom_site_fract_y
_atom_site_fract_z
Si Si1 0.983328 0.502178 0.322521
Si Si2 0.947147 0.214295 0.193295
Si Si3 0.467138 0.739959 0.332232
Si Si4 0.148180 0.854298 0.042501
Si Si5 0.298993 0.855881 0.459114
Si Si6 0.231519 0.463222 0.684617
Si Si7 0.781578 0.551323 0.732907
Si Si8 0.460096 0.036334 0.138181
O O1 0.854182 0.318895 0.196830
O O2 0.855986 0.530141 0.304265
O O3 0.272130 0.407366 0.506887
O O4 0.041660 0.745536 0.326638
O O5 0.048636 0.436985 0.218745
O O6 0.740029 0.051254 0.032837
O O7 0.198525 0.056172 0.357187
O O8 0.331991 0.687932 0.190494
O O9 0.290697 0.684317 0.277591
O O10 0.555701 0.017065 0.398283
O O11 0.310290 0.032276 0.104731
O O12 0.956517 0.707380 0.884336
O O13 0.000000 0.000000 0.000000
O O14 0.507785 0.679554 0.558418
O O15 0.350267 0.195754 0.744421
O O16 0.000000 0.500000 0.500000
O O17 0.417025 0.698977 0.793493
#
# Coordination Sequence:
#
# PCOD9004052 Si02
#       8
#     2   2   2   2   2   2   2   2
#     4  10  25  42  70  96 135 187 236 295 347 413
#     4  10  24  43  64 101 141 183 236 283 349 420
#     4  10  21  37  63  98 135 177 235 282 352 414
#     4  11  22  41  68 101 141 181 228 289 352 425
#     4  10  21  38  63  95 133 182 229 283 340 415
#     4  12  28  51  78 105 140 182 238 297 357 415
#     4  10  21  38  61  99 135 189 224 287 348 416
#     4  11  29  47  75 108 141 186 233 294 353 420
#
# _framework density 23.221236999999999
#
# number of rings (size 3 to 8) (size 9 to 14) (size 15 to 20)
#    0.000    1.500    1.250    1.875    7.000    9.500 
#    0.000    0.000    0.000    0.000    0.000    0.000 
#    0.000    0.000    0.000    0.000    0.000    0.000 
#
# Total GULP energy -89437.069210 kJ/mol
# GULP energy per Si atom -5589.816826 kJ/mol
# Density = 2.316838 g / cm^3
# Si number density = 23.221237 Si / 1000 Ang^3
#
#
#
# Elastic Constant Matrix: (Units=GPa)
#
#
# Indices 1 2 3 4 5 6 
#
# 1 155.6802 25.8269 19.0702 12.3387 6.3330 2.0514
# 2 25.8269 63.9974 3.7591 16.7969 10.1260 9.7640
# 3 19.0702 3.7591 71.9413 10.3309 -18.0555 3.0558
# 4 12.3387 16.7969 10.3309 32.8951 4.3112 6.7936
# 5 6.3330 10.1260 -18.0555 4.3112 35.7203 2.6733
# 6 2.0514 9.7640 3.0558 6.7936 2.6733 30.7573
#
#
#
# Elastic Compliance Matrix: (Units=1/GPa)
#
#
# Indices 1 2 3 4 5 6 
#
# 1 0.007204 -0.002457 -0.002117 -0.000738 -0.001623 0.000814
# 2 -0.002457 0.019943 -0.000095 -0.007865 -0.004012 -0.004072
# 3 -0.002117 -0.000095 0.017941 -0.005890 0.010272 -0.001203
# 4 -0.000738 -0.007865 -0.005890 0.038187 -0.004860 -0.004881
# 5 -0.001623 -0.004012 0.010272 -0.004860 0.035321 -0.001635
# 6 0.000814 -0.004072 -0.001203 -0.004881 -0.001635 0.035091
#
#
# Mechanical properties :
#
#
# Convention : Reuss Voigt Hill
#
# Bulk Modulus (GPa) = 27.97197 43.21458 35.59328
# Shear Modulus (GPa) = 28.58077 36.07206 32.32641
#
# Velocity S-wave (km/s) = 3.51209 3.94561 3.73514
# Velocity P-wave (km/s) = 5.34026 6.27753 5.82777
#
# Compressibility (1/GPa) = 0.03575007
#
# Stress axis : x y z
#
# Youngs Moduli (GPa) = 138.80974 50.14307 55.73745
#
# Poissons Ratio (x) = 0.12318 0.11800
# Poissons Ratio (y) = 0.34099 0.00532
# Poissons Ratio (z) = 0.29388 0.00479
#
# Static dielectric constant tensor:
#      x y z
#    x 1.857110 0.025910 -0.018690 
#    y 0.025910 1.988980 -0.055540 
#    z -0.018690 -0.055540 1.915410 
# 
# From -- ./inp_files/72279.got.cif
#   From: 2010.05.17/outbox.cif.g08.bks.cpg/sg2_37_cif.got.tgz:72279.got - 2010.06.03 11:33:40.
