data_PCOD9004702
_publ_section_title
;
Structure prediction by ZEFSAII (Michael W. Deem and Ramdas Pophale) SiO2 
 PCOD9004702
Probable space group: P -1
;
_chemical_formula_sum "Si O2"
_cell_formula_units_Z 16
_cell_length_a 9.155820
_cell_length_b 23.041336
_cell_length_c 4.828065
_cell_angle_alpha 102.262805
_cell_angle_beta 95.293355
_cell_angle_gamma 130.861484
_cell_volume 714.952406
_symmetry_space_group_name_H-M "P -1"
_symmetry_group_IT_number 2
_symmetry_cell_setting 'triclinic'
loop_
_space_group_symop_operation_xyz
x,y,z
-x,-y,-z
loop_
_atom_site_type_symbol
_atom_site_label
_atom_site_fract_x
_atom_site_fract_y
_atom_site_fract_z
Si Si1 0.260552 0.815111 0.676360
Si Si2 0.262816 0.639689 0.236276
Si Si3 0.694924 0.090583 0.721808
Si Si4 0.579526 0.469954 0.673314
Si Si5 0.139117 0.189673 0.795025
Si Si6 0.816051 0.716931 0.605208
Si Si7 0.187131 0.493597 0.771902
Si Si8 0.462533 0.754937 0.880039
O O1 0.285011 0.844633 0.398561
O O2 0.398921 0.799140 0.775847
O O3 0.685745 0.112536 0.052745
O O4 0.021024 0.736421 0.610729
O O5 0.251592 0.574171 0.005096
O O6 0.420222 0.694597 0.569616
O O7 0.046315 0.585233 0.292185
O O8 0.319117 0.701466 0.065396
O O9 0.500000 0.000000 0.500000
O O10 0.500000 0.500000 0.500000
O O11 0.387491 0.374268 0.593876
O O12 0.750257 0.488701 0.518262
O O13 0.687529 0.516766 0.024921
O O14 0.158793 0.217238 0.512425
O O15 0.902824 0.111493 0.737387
O O16 0.307629 0.189146 0.912091
O O17 0.811630 0.737629 0.940957
#
# Coordination Sequence:
#
# PCOD9004702 Si02
#       8
#     2   2   2   2   2   2   2   2
#     4  10  23  38  62  95 121 155 200 247 301 362
#     4  11  24  38  63  78 120 164 197 269 304 370
#     4  10  21  43  66  92 126 161 191 234 298 375
#     4  12  24  37  57  81 117 157 207 265 307 351
#     4  10  21  38  64  88 113 160 201 237 294 368
#     4  10  21  38  58  81 117 158 205 247 300 365
#     4  11  24  41  53  85 112 157 221 244 325 363
#     4  12  22  39  62  91 121 154 208 256 308 343
#
# _framework density 22.379111999999999
#
# number of rings (size 3 to 8) (size 9 to 14) (size 15 to 20)
#    0.000    1.250    0.000    6.750    3.500    2.000 
#    0.000    1.250    0.000    0.000    0.000    0.000 
#    0.000    0.000    0.000    0.000    0.000    0.000 
#
# Total GULP energy -89506.243828 kJ/mol
# GULP energy per Si atom -5594.140239 kJ/mol
# Density = 2.232818 g / cm^3
# Si number density = 22.379112 Si / 1000 Ang^3
#
#
#
# Elastic Constant Matrix: (Units=GPa)
#
#
# Indices 1 2 3 4 5 6 
#
# 1 136.2605 38.0109 1.0999 4.2995 28.9711 6.5199
# 2 38.0109 42.2295 6.4660 0.4479 6.0267 14.6794
# 3 1.0999 6.4660 88.2004 -10.1139 4.9143 9.5435
# 4 4.2995 0.4479 -10.1139 31.2110 2.8565 15.9453
# 5 28.9711 6.0267 4.9143 2.8565 41.3147 -1.6879
# 6 6.5199 14.6794 9.5435 15.9453 -1.6879 29.8876
#
#
#
# Elastic Compliance Matrix: (Units=1/GPa)
#
#
# Indices 1 2 3 4 5 6 
#
# 1 0.011608 -0.010914 0.000268 -0.002758 -0.006232 0.003862
# 2 -0.010914 0.042830 0.001856 0.015738 -0.001035 -0.027703
# 3 0.000268 0.001856 0.013766 0.010353 -0.003265 -0.011074
# 4 -0.002758 0.015738 0.010353 0.057398 -0.007256 -0.041466
# 5 -0.006232 -0.001035 -0.003265 -0.007256 0.029961 0.008473
# 6 0.003862 -0.027703 -0.011074 -0.041466 0.008473 0.072360
#
#
# Mechanical properties :
#
#
# Convention : Reuss Voigt Hill
#
# Bulk Modulus (GPa) = 19.75277 39.76044 29.75661
# Shear Modulus (GPa) = 19.05658 35.22356 27.14007
#
# Velocity S-wave (km/s) = 2.92127 3.97161 3.48622
# Velocity P-wave (km/s) = 4.49711 6.23192 5.43419
#
# Compressibility (1/GPa) = 0.05062582
#
# Stress axis : x y z
#
# Youngs Moduli (GPa) = 86.14496 23.34810 72.64427
#
# Poissons Ratio (x) = 0.25481 -0.01950
# Poissons Ratio (y) = 0.94016 -0.13484
# Poissons Ratio (z) = -0.02312 -0.04334
#
# Static dielectric constant tensor:
#      x y z
#    x 1.942430 -0.041760 -0.012480 
#    y -0.041760 1.781420 -0.006630 
#    z -0.012480 -0.006630 1.779900 
# 
# From -- ./inp_files/83661.got.cif
#   From: 2010.05.17/outbox.cif.g08.bks.cpg/sg2_42_cif.got.tgz:83661.got - 2010.06.03 11:33:40.
