data_PCOD9004070
_publ_section_title
;
Structure prediction by ZEFSAII (Michael W. Deem and Ramdas Pophale) SiO2 
 PCOD9004070
Probable space group: P -1
;
_chemical_formula_sum "Si O2"
_cell_formula_units_Z 16
_cell_length_a 11.614418
_cell_length_b 5.118543
_cell_length_c 11.968856
_cell_angle_alpha 109.541654
_cell_angle_beta 116.106461
_cell_angle_gamma 67.521429
_cell_volume 578.426067
_symmetry_space_group_name_H-M "P -1"
_symmetry_group_IT_number 2
_symmetry_cell_setting 'triclinic'
loop_
_space_group_symop_operation_xyz
x,y,z
-x,-y,-z
loop_
_atom_site_type_symbol
_atom_site_label
_atom_site_fract_x
_atom_site_fract_y
_atom_site_fract_z
Si Si1 0.705068 0.937246 0.476891
Si Si2 0.006297 0.773819 0.656484
Si Si3 0.197260 0.636003 0.003673
Si Si4 0.086969 0.222105 0.159409
Si Si5 0.356881 0.818043 0.920780
Si Si6 0.438066 0.231542 0.174235
Si Si7 0.332885 0.406527 0.385739
Si Si8 0.183272 0.148756 0.712772
O O1 0.669846 0.263849 0.552588
O O2 0.641332 0.751607 0.505992
O O3 0.699036 0.910633 0.337198
O O4 0.866115 0.807728 0.542615
O O5 0.079050 0.451180 0.682099
O O6 0.964325 0.934963 0.779977
O O7 0.102820 0.905126 0.643058
O O8 0.296706 0.453223 0.110361
O O9 0.165545 0.971901 0.075857
O O10 0.275648 0.627641 0.919225
O O11 0.050735 0.592578 0.926029
O O12 0.188272 0.380377 0.279132
O O13 0.451206 0.672861 0.837911
O O14 0.251264 0.085637 0.854487
O O15 0.435942 0.934805 0.068050
O O16 0.433349 0.249375 0.308362
#
# Coordination Sequence:
#
# PCOD9004070 Si02
#       8
#     2   2   2   2   2   2   2   2
#     4  11  24  42  68  98 134 181 220 274 332 401
#     4  11  21  38  63  97 134 177 214 271 334 397
#     4  11  21  42  63 100 138 176 220 272 340 404
#     4  10  21  37  64 101 138 168 215 272 339 402
#     4  11  25  43  66  98 132 179 228 275 334 395
#     4  11  24  43  68  95 133 180 225 281 330 399
#     4  11  23  44  67 101 135 175 225 271 338 396
#     4  12  24  43  64  98 137 176 227 270 328 398
#
# _framework density 27.661268
#
# number of rings (size 3 to 8) (size 9 to 14) (size 15 to 20)
#    0.000    1.000    2.500    5.625    0.000    0.500 
#    0.000    1.250    0.000    0.000    0.000    0.000 
#    0.000    0.000    0.000    0.000    0.000    0.000 
#
# Total GULP energy -89704.136851 kJ/mol
# GULP energy per Si atom -5606.508553 kJ/mol
# Density = 2.759831 g / cm^3
# Si number density = 27.661268 Si / 1000 Ang^3
#
#
#
# Elastic Constant Matrix: (Units=GPa)
#
#
# Indices 1 2 3 4 5 6 
#
# 1 120.9515 22.3852 27.7506 -6.4211 -27.5014 0.6122
# 2 22.3852 104.3301 2.6099 -15.0097 -9.7679 16.9421
# 3 27.7506 2.6099 112.1522 0.4893 -35.8218 12.1398
# 4 -6.4211 -15.0097 0.4893 33.1349 3.3175 -10.6235
# 5 -27.5014 -9.7679 -35.8218 3.3175 64.4170 -3.8306
# 6 0.6122 16.9421 12.1398 -10.6235 -3.8306 42.2406
#
#
#
# Elastic Compliance Matrix: (Units=1/GPa)
#
#
# Indices 1 2 3 4 5 6 
#
# 1 0.009720 -0.001845 -0.001582 0.001299 0.003022 0.001654
# 2 -0.001845 0.011150 0.000914 0.003370 0.001014 -0.003768
# 3 -0.001582 0.000914 0.011518 -0.001786 0.005747 -0.003582
# 4 0.001299 0.003370 -0.001786 0.034587 -0.001249 0.007728
# 5 0.003022 0.001014 0.005747 -0.001249 0.020193 -0.000585
# 6 0.001654 -0.003768 -0.003582 0.007728 -0.000585 0.028081
#
#
# Mechanical properties :
#
#
# Convention : Reuss Voigt Hill
#
# Bulk Modulus (GPa) = 36.54666 49.21391 42.88029
# Shear Modulus (GPa) = 38.64148 46.93771 42.78959
#
# Velocity S-wave (km/s) = 3.74164 4.12378 3.93735
# Velocity P-wave (km/s) = 5.64866 6.36430 6.01713
#
# Compressibility (1/GPa) = 0.02736228
#
# Stress axis : x y z
#
# Youngs Moduli (GPa) = 102.88315 89.68938 86.82244
#
# Poissons Ratio (x) = 0.16545 0.13732
# Poissons Ratio (y) = 0.18979 -0.07935
# Poissons Ratio (z) = 0.16273 -0.08198
#
# Static dielectric constant tensor:
#      x y z
#    x 2.172140 -0.038360 0.006440 
#    y -0.038360 2.157170 0.043340 
#    z 0.006440 0.043340 2.247500 
# 
# From -- ./inp_files/410849.got.cif
#   From: 2010.05.17/outbox.cif.g08.bks.cpg/sg2_206_cif.got.tgz:410849.got - 2010.06.03 11:33:40.
