data_PCOD9004916
_publ_section_title
;
Structure prediction by ZEFSAII (Michael W. Deem and Ramdas Pophale) SiO2 
 PCOD9004916
Probable space group: P -1
;
_chemical_formula_sum "Si O2"
_cell_formula_units_Z 16
_cell_length_a 14.264893
_cell_length_b 11.575207
_cell_length_c 12.500311
_cell_angle_alpha 99.206291
_cell_angle_beta 31.947361
_cell_angle_gamma 123.500541
_cell_volume 651.431657
_symmetry_space_group_name_H-M "P -1"
_symmetry_group_IT_number 2
_symmetry_cell_setting 'triclinic'
loop_
_space_group_symop_operation_xyz
x,y,z
-x,-y,-z
loop_
_atom_site_type_symbol
_atom_site_label
_atom_site_fract_x
_atom_site_fract_y
_atom_site_fract_z
Si Si1 0.806595 0.672391 0.283231
Si Si2 0.767059 0.234222 0.757596
Si Si3 0.468354 0.126249 0.826858
Si Si4 0.606270 0.956140 0.552528
Si Si5 0.124456 0.668264 0.828867
Si Si6 0.921048 0.943730 0.944279
Si Si7 0.132673 0.270518 0.542767
Si Si8 0.339340 0.635136 0.936803
O O1 0.500000 0.500000 0.500000
O O2 0.874497 0.842442 0.263421
O O3 0.820184 0.624491 0.380558
O O4 0.018609 0.728980 0.000217
O O5 0.731554 0.265076 0.676991
O O6 0.053890 0.310376 0.524166
O O7 0.726699 0.319138 0.891179
O O8 0.500000 0.000000 0.000000
O O9 0.518662 0.036058 0.694291
O O10 0.388945 0.186709 0.828509
O O11 0.175387 0.958019 0.161624
O O12 0.466302 0.852338 0.555892
O O13 0.949438 0.109097 0.231999
O O14 0.476149 0.797116 0.741249
O O15 0.000000 0.500000 0.000000
O O16 0.957748 0.568567 0.863455
O O17 0.000000 0.000000 0.000000
O O18 0.415556 0.335125 0.269865
#
# Coordination Sequence:
#
# PCOD9004916 Si02
#       8
#     2   2   2   2   2   2   2   2
#     4  11  17  33  55  81 115 142 175 231 277 322
#     4  10  20  30  46  73 111 148 183 216 270 332
#     4  10  20  35  50  72 110 149 185 221 266 333
#     4  11  18  34  53  75 108 147 176 224 279 324
#     4  10  18  28  49  79 110 137 175 219 275 327
#     4  11  24  38  55  82 112 146 187 226 277 332
#     4  10  17  28  48  77 108 141 177 218 274 322
#     4  11  18  29  49  81 112 143 174 222 278 328
#
# _framework density 24.561287
#
# number of rings (size 3 to 8) (size 9 to 14) (size 15 to 20)
#    0.000    1.500    8.750    1.500    0.000    3.500 
#    0.000    0.000    0.000    0.000    0.000    4.375 
#    0.000    0.000    0.000    0.000    0.000    0.000 
#
# Total GULP energy -89279.216314 kJ/mol
# GULP energy per Si atom -5579.951020 kJ/mol
# Density = 2.450538 g / cm^3
# Si number density = 24.561287 Si / 1000 Ang^3
#
#
#
# Elastic Constant Matrix: (Units=GPa)
#
#
# Indices 1 2 3 4 5 6 
#
# 1 189.0864 54.8131 57.8581 -4.0110 -35.4097 40.2594
# 2 54.8131 97.5158 42.4316 21.4421 -10.2113 25.4783
# 3 57.8581 42.4316 87.8579 17.6204 -37.8031 -4.2932
# 4 -4.0110 21.4421 17.6204 31.5297 -3.7755 1.2820
# 5 -35.4097 -10.2113 -37.8031 -3.7755 43.9777 -5.8246
# 6 40.2594 25.4783 -4.2932 1.2820 -5.8246 47.3356
#
#
#
# Elastic Compliance Matrix: (Units=1/GPa)
#
#
# Indices 1 2 3 4 5 6 
#
# 1 0.010124 -0.001848 -0.007101 0.006985 0.001118 -0.008312
# 2 -0.001848 0.019748 -0.010781 -0.008194 -0.008309 -0.010835
# 3 -0.007101 -0.010781 0.033892 -0.010562 0.022385 0.017957
# 4 0.006985 -0.008194 -0.010562 0.043988 -0.002103 -0.003938
# 5 0.001118 -0.008309 0.022385 -0.002103 0.042201 0.010802
# 6 -0.008312 -0.010835 0.017957 -0.003938 0.010802 0.037091
#
#
# Mechanical properties :
#
#
# Convention : Reuss Voigt Hill
#
# Bulk Modulus (GPa) = 41.14667 76.07397 58.61032
# Shear Modulus (GPa) = 21.31228 39.19241 30.25234
#
# Velocity S-wave (km/s) = 2.94890 3.99895 3.51338
# Velocity P-wave (km/s) = 5.32764 7.23620 6.35398
#
# Compressibility (1/GPa) = 0.02430331
#
# Stress axis : x y z
#
# Youngs Moduli (GPa) = 98.77288 50.63907 29.50526
#
# Poissons Ratio (x) = 0.09360 0.20951
# Poissons Ratio (y) = 0.18257 0.31811
# Poissons Ratio (z) = 0.70135 0.54596
#
# Static dielectric constant tensor:
#      x y z
#    x 2.181150 -0.013330 -0.140350 
#    y -0.013330 1.909250 0.049590 
#    z -0.140350 0.049590 2.131550 
# 
# From -- ./inp_files/454825.got.cif
#   From: 2010.05.17/outbox.cif.g08.bks.cpg/sg2_228_cif.got.tgz:454825.got - 2010.06.03 11:33:40.
