data_PCOD9004338
_publ_section_title
;
Structure prediction by ZEFSAII (Michael W. Deem and Ramdas Pophale) SiO2 
 PCOD9004338
Probable space group: P -1
;
_chemical_formula_sum "Si O2"
_cell_formula_units_Z 16
_cell_length_a 19.911742
_cell_length_b 8.648698
_cell_length_c 14.250148
_cell_angle_alpha 44.369228
_cell_angle_beta 150.611045
_cell_angle_gamma 136.664711
_cell_volume 802.133686
_symmetry_space_group_name_H-M "P -1"
_symmetry_group_IT_number 2
_symmetry_cell_setting 'triclinic'
loop_
_space_group_symop_operation_xyz
x,y,z
-x,-y,-z
loop_
_atom_site_type_symbol
_atom_site_label
_atom_site_fract_x
_atom_site_fract_y
_atom_site_fract_z
Si Si1 0.877768 0.115568 0.831578
Si Si2 0.567621 0.628976 0.929064
Si Si3 0.864002 0.006006 0.076365
Si Si4 0.993892 0.673007 0.723255
Si Si5 0.659923 0.146657 0.414145
Si Si6 0.102362 0.744503 0.487710
Si Si7 0.805186 0.005133 0.322420
Si Si8 0.505695 0.132794 0.045207
O O1 0.737271 0.020137 0.635301
O O2 0.940515 0.395837 0.776465
O O3 0.834375 0.068772 0.907526
O O4 0.000000 0.000000 0.000000
O O5 0.439605 0.733863 0.700296
O O6 0.500000 0.500000 0.000000
O O7 0.721255 0.822164 0.025417
O O8 0.582751 0.401483 0.996161
O O9 0.995212 0.895780 0.272327
O O10 0.918994 0.221428 0.121577
O O11 0.867520 0.792666 0.510802
O O12 0.090030 0.789837 0.700439
O O13 0.800057 0.294376 0.461784
O O14 0.559513 0.043537 0.245728
O O15 0.000000 0.500000 0.500000
O O16 0.202947 0.878892 0.636837
O O17 0.663473 0.902704 0.133817
O O18 0.500000 0.000000 0.000000
#
# Coordination Sequence:
#
# PCOD9004338 Si02
#       8
#     2   2   2   2   2   2   2   2
#     4  12  25  42  65  94 133 182 219 266 324 401
#     4  10  22  40  65  94 130 167 217 277 336 380
#     4  11  24  42  65  94 129 176 222 264 328 397
#     4  10  22  42  66  97 129 162 223 276 329 395
#     4  11  22  40  59  89 131 168 218 263 320 391
#     4  11  20  35  64  97 126 162 215 276 328 377
#     4  10  21  37  65  99 126 165 214 277 341 374
#     4  11  21  36  62  94 128 170 212 276 335 385
#
# _framework density 19.9468
#
# number of rings (size 3 to 8) (size 9 to 14) (size 15 to 20)
#    0.000    1.250    2.500    4.875    0.000    4.500 
#    0.000    0.000    0.000    3.750    0.000    0.000 
#    0.000    0.000    0.000    0.000    0.000    0.000 
#
# Total GULP energy -89096.870533 kJ/mol
# GULP energy per Si atom -5568.554408 kJ/mol
# Density = 1.990140 g / cm^3
# Si number density = 19.946800 Si / 1000 Ang^3
#
#
#
# Elastic Constant Matrix: (Units=GPa)
#
#
# Indices 1 2 3 4 5 6 
#
# 1 86.0623 33.4812 41.2284 3.5847 -10.7913 -10.0878
# 2 33.4812 102.3281 35.1004 7.7627 -7.6970 -5.2713
# 3 41.2284 35.1004 141.2030 22.2223 -15.5312 -8.0011
# 4 3.5847 7.7627 22.2223 30.9005 -3.8184 1.7503
# 5 -10.7913 -7.6970 -15.5312 -3.8184 37.1413 8.0240
# 6 -10.0878 -5.2713 -8.0011 1.7503 8.0240 25.2750
#
#
#
# Elastic Compliance Matrix: (Units=1/GPa)
#
#
# Indices 1 2 3 4 5 6 
#
# 1 0.015225 -0.003624 -0.003412 0.001594 0.001629 0.003613
# 2 -0.003624 0.011650 -0.001547 -0.001359 0.000481 0.000435
# 3 -0.003412 -0.001547 0.009682 -0.006018 0.001857 0.001208
# 4 0.001594 -0.001359 -0.006018 0.037447 0.002588 -0.004967
# 5 0.001629 0.000481 0.001857 0.002588 0.030373 -0.008483
# 6 0.003613 0.000435 0.001208 -0.004967 -0.008483 0.044517
#
#
# Mechanical properties :
#
#
# Convention : Reuss Voigt Hill
#
# Bulk Modulus (GPa) = 51.56139 61.02368 56.29253
# Shear Modulus (GPa) = 28.98168 33.31559 31.14864
#
# Velocity S-wave (km/s) = 3.81589 4.09127 3.95598
# Velocity P-wave (km/s) = 6.73203 7.27857 7.01063
#
# Compressibility (1/GPa) = 0.01939436
#
# Stress axis : x y z
#
# Youngs Moduli (GPa) = 65.68185 85.83461 103.28055
#
# Poissons Ratio (x) = 0.31102 0.35235
# Poissons Ratio (y) = 0.23800 0.15973
# Poissons Ratio (z) = 0.22408 0.13275
#
# Static dielectric constant tensor:
#      x y z
#    x 1.836520 -0.104180 0.060450 
#    y -0.104180 1.782850 0.003400 
#    z 0.060450 0.003400 1.800520 
# 
# From -- ./inp_files/540396.got.cif
#   From: 2010.05.17/outbox.cif.g08.bks.cpg/sg2_271_cif.got.tgz:540396.got - 2010.06.03 11:33:40.
