data_PCOD9004932
_publ_section_title
;
Structure prediction by ZEFSAII (Michael W. Deem and Ramdas Pophale) SiO2 
 PCOD9004932
Probable space group: P -1
;
_chemical_formula_sum "Si O2"
_cell_formula_units_Z 16
_cell_length_a 27.165623
_cell_length_b 16.590674
_cell_length_c 20.217614
_cell_angle_alpha 26.636320
_cell_angle_beta 161.030066
_cell_angle_gamma 164.613071
_cell_volume 768.787551
_symmetry_space_group_name_H-M "P -1"
_symmetry_group_IT_number 2
_symmetry_cell_setting 'triclinic'
loop_
_space_group_symop_operation_xyz
x,y,z
-x,-y,-z
loop_
_atom_site_type_symbol
_atom_site_label
_atom_site_fract_x
_atom_site_fract_y
_atom_site_fract_z
Si Si1 0.972665 0.309114 0.155005
Si Si2 0.390171 0.346067 0.869615
Si Si3 0.705800 0.637847 0.405493
Si Si4 0.729256 0.258214 0.004565
Si Si5 0.210061 0.295296 0.098804
Si Si6 0.217333 0.277046 0.275935
Si Si7 0.852334 0.340342 0.245261
Si Si8 0.791941 0.596143 0.287556
O O1 0.236234 0.499159 0.387544
O O2 0.861807 0.026768 0.183731
O O3 0.775539 0.177412 0.059756
O O4 0.000000 0.500000 0.000000
O O5 0.430975 0.480391 0.752767
O O6 0.364670 0.476696 0.795586
O O7 0.613826 0.428889 0.119004
O O8 0.508387 0.552935 0.264494
O O9 0.000000 0.000000 0.500000
O O10 0.834007 0.559382 0.901252
O O11 0.427188 0.990753 0.837563
O O12 0.861516 0.304262 0.205014
O O13 0.195785 0.218097 0.213289
O O14 0.148453 0.446593 0.908390
O O15 0.000000 0.000000 0.000000
O O16 0.500000 0.500000 0.500000
O O17 0.014814 0.957987 0.291121
O O18 0.078016 0.463408 0.482651
#
# Coordination Sequence:
#
# PCOD9004932 Si02
#       8
#     2   2   2   2   2   2   2   2
#     4  11  23  37  61  92 120 159 210 258 302 368
#     4  10  23  40  61  89 127 164 209 249 319 375
#     4  10  22  40  63  85 122 164 203 249 307 374
#     4  10  21  38  59  93 120 154 213 257 302 369
#     4  11  25  43  63  94 130 166 206 263 328 376
#     4  11  23  38  64  91 125 162 206 261 315 366
#     4  10  21  39  64  87 120 162 209 254 306 371
#     4  11  22  40  63  90 124 167 206 261 311 376
#
# _framework density 20.811990999999999
#
# number of rings (size 3 to 8) (size 9 to 14) (size 15 to 20)
#    0.000    1.500    1.250    3.750    5.250    1.000 
#    0.000    1.875    0.000    8.250    0.000    0.000 
#    0.000    0.000    0.000    0.000    0.000    0.000 
#
# Total GULP energy -89350.755178 kJ/mol
# GULP energy per Si atom -5584.422199 kJ/mol
# Density = 2.076462 g / cm^3
# Si number density = 20.811991 Si / 1000 Ang^3
#
#
#
# Elastic Constant Matrix: (Units=GPa)
#
#
# Indices 1 2 3 4 5 6 
#
# 1 81.7326 -0.6072 40.8971 -3.6277 -11.5560 -0.2827
# 2 -0.6072 25.5949 0.9122 -6.4494 -5.7094 -0.3441
# 3 40.8971 0.9122 158.4302 -7.0750 -35.0416 10.2815
# 4 -3.6277 -6.4494 -7.0750 30.3732 1.8399 -6.9798
# 5 -11.5560 -5.7094 -35.0416 1.8399 34.4234 2.5977
# 6 -0.2827 -0.3441 10.2815 -6.9798 2.5977 22.5994
#
#
#
# Elastic Compliance Matrix: (Units=1/GPa)
#
#
# Indices 1 2 3 4 5 6 
#
# 1 0.014231 0.001142 -0.003490 0.001547 0.001171 0.002126
# 2 0.001142 0.043422 0.001671 0.009662 0.008626 0.001908
# 3 -0.003490 0.001671 0.009620 0.000389 0.009280 -0.005341
# 4 0.001547 0.009662 0.000389 0.037979 -0.000400 0.011765
# 5 0.001171 0.008626 0.009280 -0.000400 0.041015 -0.008914
# 6 0.002126 0.001908 -0.005341 0.011765 -0.008914 0.051393
#
#
# Mechanical properties :
#
#
# Convention : Reuss Voigt Hill
#
# Bulk Modulus (GPa) = 15.17048 38.68467 26.92757
# Shear Modulus (GPa) = 22.62565 32.44956 27.53760
#
# Velocity S-wave (km/s) = 3.30076 3.95292 3.64147
# Velocity P-wave (km/s) = 4.67246 6.28189 5.53597
#
# Compressibility (1/GPa) = 0.06591749
#
# Stress axis : x y z
#
# Youngs Moduli (GPa) = 70.26677 23.02979 103.95092
#
# Poissons Ratio (x) = -0.02629 0.36281
# Poissons Ratio (y) = -0.08021 -0.17368
# Poissons Ratio (z) = 0.24525 -0.03848
#
# Static dielectric constant tensor:
#      x y z
#    x 1.765810 -0.007550 -0.006570 
#    y -0.007550 1.762870 0.017590 
#    z -0.006570 0.017590 1.775820 
# 
# From -- ./inp_files/338243.got.cif
#   From: 2010.05.17/outbox.cif.g08.bks.cpg/sg2_170_cif.got.tgz:338243.got - 2010.06.03 11:33:40.
