data_PCOD9004772
_publ_section_title
;
Structure prediction by ZEFSAII (Michael W. Deem and Ramdas Pophale) SiO2 
 PCOD9004772
Probable space group: P -1
;
_chemical_formula_sum "Si O2"
_cell_formula_units_Z 16
_cell_length_a 21.308547
_cell_length_b 9.712969
_cell_length_c 14.785921
_cell_angle_alpha 29.763207
_cell_angle_beta 148.285336
_cell_angle_gamma 127.431844
_cell_volume 691.323264
_symmetry_space_group_name_H-M "P -1"
_symmetry_group_IT_number 2
_symmetry_cell_setting 'triclinic'
loop_
_space_group_symop_operation_xyz
x,y,z
-x,-y,-z
loop_
_atom_site_type_symbol
_atom_site_label
_atom_site_fract_x
_atom_site_fract_y
_atom_site_fract_z
Si Si1 0.869860 0.730886 0.150125
Si Si2 0.700953 0.526638 0.167786
Si Si3 0.189616 0.311109 0.094689
Si Si4 0.014721 0.072634 0.080821
Si Si5 0.447801 0.768077 0.612749
Si Si6 0.318203 0.497711 0.309301
Si Si7 0.644645 0.667637 0.356024
Si Si8 0.359115 0.040081 0.991313
O O1 0.741133 0.755976 0.030211
O O2 0.000000 0.500000 0.500000
O O3 0.889392 0.040141 0.986336
O O4 0.872633 0.563639 0.153051
O O5 0.843680 0.205525 0.542721
O O6 0.583254 0.504254 0.982324
O O7 0.643862 0.698444 0.094351
O O8 0.259000 0.432811 0.182255
O O9 0.058711 0.338416 0.973403
O O10 0.321630 0.974393 0.410626
O O11 0.000000 0.000000 0.000000
O O12 0.401627 0.584025 0.591678
O O13 0.500000 0.000000 0.500000
O O14 0.276160 0.433087 0.393586
O O15 0.287249 0.859076 0.052129
O O16 0.482668 0.244497 0.660084
O O17 0.500000 0.000000 0.000000
O O18 0.708463 0.769284 0.292878
#
# Coordination Sequence:
#
# PCOD9004772 Si02
#       8
#     2   2   2   2   2   2   2   2
#     4   9  20  38  58  88 116 161 212 263 308 358
#     4  11  20  35  65  91 124 158 209 267 311 385
#     4  11  21  37  64  91 124 160 205 267 311 380
#     4   9  21  38  57  85 117 162 212 264 307 355
#     4  12  23  35  62 105 128 158 211 261 332 379
#     4  10  22  38  58  89 137 171 200 249 327 394
#     4  10  24  38  54  86 142 174 199 240 314 412
#     4  10  21  38  58  90 134 172 200 249 327 400
#
# _framework density 23.144020000000001
#
# number of rings (size 3 to 8) (size 9 to 14) (size 15 to 20)
#    0.000    1.750    2.500    1.500    7.000    1.000 
#    2.250    0.000    0.000    7.500    0.000    0.000 
#    0.000    0.000    0.000    0.000    0.000    0.000 
#
# Total GULP energy -89097.194732 kJ/mol
# GULP energy per Si atom -5568.574671 kJ/mol
# Density = 2.309134 g / cm^3
# Si number density = 23.144020 Si / 1000 Ang^3
#
#
#
# Elastic Constant Matrix: (Units=GPa)
#
#
# Indices 1 2 3 4 5 6 
#
# 1 96.3205 19.3111 25.6534 4.0056 -25.7912 0.5391
# 2 19.3111 101.2687 48.3405 16.2211 -14.2607 -19.4259
# 3 25.6534 48.3405 78.6453 35.4705 -20.8077 -7.6856
# 4 4.0056 16.2211 35.4705 40.3114 -1.8081 -1.6803
# 5 -25.7912 -14.2607 -20.8077 -1.8081 43.5816 8.9300
# 6 0.5391 -19.4259 -7.6856 -1.6803 8.9300 34.4524
#
#
#
# Elastic Compliance Matrix: (Units=1/GPa)
#
#
# Indices 1 2 3 4 5 6 
#
# 1 0.013132 -0.000992 -0.003113 0.002004 0.006677 -0.003092
# 2 -0.000992 0.015716 -0.010638 0.003350 -0.001849 0.007146
# 3 -0.003113 -0.010638 0.034082 -0.025027 0.010372 -0.002256
# 4 0.002004 0.003350 -0.025027 0.044948 -0.007908 0.000516
# 5 0.006677 -0.001849 0.010372 -0.007908 0.032481 -0.007638
# 6 -0.003092 0.007146 -0.002256 0.000516 -0.007638 0.034605
#
#
# Mechanical properties :
#
#
# Convention : Reuss Voigt Hill
#
# Bulk Modulus (GPa) = 29.90249 51.42716 40.66482
# Shear Modulus (GPa) = 23.19124 35.86437 29.52781
#
# Velocity S-wave (km/s) = 3.16894 3.94079 3.57575
# Velocity P-wave (km/s) = 5.13203 6.55554 5.88697
#
# Compressibility (1/GPa) = 0.03344203
#
# Stress axis : x y z
#
# Youngs Moduli (GPa) = 76.15030 63.62984 29.34134
#
# Poissons Ratio (x) = 0.06312 0.09135
# Poissons Ratio (y) = 0.07554 0.31214
# Poissons Ratio (z) = 0.23709 0.67692
#
# Static dielectric constant tensor:
#      x y z
#    x 1.981380 0.057810 -0.045560 
#    y 0.057810 1.843580 -0.001070 
#    z -0.045560 -0.001070 1.940490 
# 
# From -- ./inp_files/542637.got.cif
#   From: 2010.05.17/outbox.cif.g08.bks.cpg/sg2_272_cif.got.tgz:542637.got - 2010.06.03 11:33:40.
