data_PCOD9004072
_publ_section_title
;
Structure prediction by ZEFSAII (Michael W. Deem and Ramdas Pophale) SiO2 
 PCOD9004072
Probable space group: P -1
;
_chemical_formula_sum "Si O2"
_cell_formula_units_Z 16
_cell_length_a 19.314213
_cell_length_b 5.175613
_cell_length_c 9.367824
_cell_angle_alpha 101.093467
_cell_angle_beta 50.947131
_cell_angle_gamma 101.449314
_cell_volume 709.935893
_symmetry_space_group_name_H-M "P -1"
_symmetry_group_IT_number 2
_symmetry_cell_setting 'triclinic'
loop_
_space_group_symop_operation_xyz
x,y,z
-x,-y,-z
loop_
_atom_site_type_symbol
_atom_site_label
_atom_site_fract_x
_atom_site_fract_y
_atom_site_fract_z
Si Si1 0.892042 0.009325 0.914311
Si Si2 0.999485 0.536848 0.831729
Si Si3 0.551918 0.581594 0.219375
Si Si4 0.408459 0.704100 0.608879
Si Si5 0.421764 0.171032 0.070338
Si Si6 0.294102 0.052709 0.972382
Si Si7 0.301151 0.359724 0.497551
Si Si8 0.184257 0.830466 0.664673
O O1 0.967773 0.239590 0.789876
O O2 0.931433 0.741068 0.885742
O O3 0.811841 0.967556 0.900015
O O4 0.847726 0.121296 0.126715
O O5 0.097233 0.682161 0.684274
O O6 0.000000 0.500000 0.000000
O O7 0.484097 0.775782 0.397847
O O8 0.538337 0.342732 0.319540
O O9 0.540658 0.608291 0.070520
O O10 0.659199 0.657235 0.097520
O O11 0.334563 0.885704 0.775850
O O12 0.353445 0.442597 0.584150
O O13 0.370714 0.277982 0.281649
O O14 0.500000 0.000000 0.000000
O O15 0.344292 0.006740 0.052835
O O16 0.259175 0.627675 0.538282
O O17 0.224505 0.117358 0.588363
#
# Coordination Sequence:
#
# PCOD9004072 Si02
#       8
#     2   2   2   2   2   2   2   2
#     4  11  20  37  67 100 136 171 222 280 345 405
#     4  10  21  37  64 102 140 168 208 287 356 404
#     4   9  24  40  64  91 131 174 230 278 345 389
#     4  11  22  40  69  97 128 176 234 293 334 393
#     4  10  27  46  65  94 141 189 226 280 344 407
#     4  10  23  41  64  95 134 177 228 275 336 403
#     4  12  26  41  70  98 138 181 229 280 334 408
#     4  11  22  41  65 101 138 171 223 277 346 404
#
# _framework density 22.537247000000001
#
# number of rings (size 3 to 8) (size 9 to 14) (size 15 to 20)
#    0.750    0.750    1.250    4.875    7.000    1.500 
#    0.000    0.000    0.000    4.500    0.000    0.000 
#    0.000    0.000    0.000    0.000    0.000    0.000 
#
# Total GULP energy -89155.097792 kJ/mol
# GULP energy per Si atom -5572.193612 kJ/mol
# Density = 2.248595 g / cm^3
# Si number density = 22.537247 Si / 1000 Ang^3
#
#
#
# Elastic Constant Matrix: (Units=GPa)
#
#
# Indices 1 2 3 4 5 6 
#
# 1 141.4338 26.3519 13.7635 -0.0216 5.8530 6.7422
# 2 26.3519 93.6531 5.9312 -11.5121 10.9467 1.5113
# 3 13.7635 5.9312 51.5453 7.4816 18.0381 -0.7057
# 4 -0.0216 -11.5121 7.4816 32.0828 1.8184 -13.7356
# 5 5.8530 10.9467 18.0381 1.8184 28.7606 3.0950
# 6 6.7422 1.5113 -0.7057 -13.7356 3.0950 32.6865
#
#
#
# Elastic Compliance Matrix: (Units=1/GPa)
#
#
# Indices 1 2 3 4 5 6 
#
# 1 0.007754 -0.002286 -0.001930 -0.001344 0.000822 -0.002178
# 2 -0.002286 0.012604 0.000107 0.006029 -0.005093 0.002907
# 3 -0.001930 0.000107 0.026156 -0.005023 -0.015772 0.000340
# 4 -0.001344 0.006029 -0.005023 0.042429 -0.003496 0.018051
# 5 0.000822 -0.005093 -0.015772 -0.003496 0.047324 -0.006225
# 6 -0.002178 0.002907 0.000340 0.018051 -0.006225 0.039091
#
#
# Mechanical properties :
#
#
# Convention : Reuss Voigt Hill
#
# Bulk Modulus (GPa) = 26.11156 42.08061 34.09609
# Shear Modulus (GPa) = 25.46608 34.74501 30.10554
#
# Velocity S-wave (km/s) = 3.36513 3.93067 3.65884
# Velocity P-wave (km/s) = 5.16816 6.26996 5.74553
#
# Compressibility (1/GPa) = 0.03829721
#
# Stress axis : x y z
#
# Youngs Moduli (GPa) = 128.97089 79.34259 38.23166
#
# Poissons Ratio (x) = 0.18134 0.07377
# Poissons Ratio (y) = 0.29477 -0.00409
# Poissons Ratio (z) = 0.24886 -0.00849
#
# Static dielectric constant tensor:
#      x y z
#    x 1.893440 0.054580 -0.016340 
#    y 0.054580 1.994090 -0.000010 
#    z -0.016340 -0.000010 1.804360 
# 
# From -- ./inp_files/340543.got.cif
#   From: 2010.05.17/outbox.cif.g08.bks.cpg/sg2_171_cif.got.tgz:340543.got - 2010.06.03 11:33:40.
