data_PCOD9004038
_publ_section_title
;
Structure prediction by ZEFSAII (Michael W. Deem and Ramdas Pophale) SiO2 
 PCOD9004038
Probable space group: P -1
;
_chemical_formula_sum "Si O2"
_cell_formula_units_Z 16
_cell_length_a 8.757053
_cell_length_b 15.070484
_cell_length_c 8.916761
_cell_angle_alpha 47.530580
_cell_angle_beta 62.999910
_cell_angle_gamma 83.241782
_cell_volume 740.803912
_symmetry_space_group_name_H-M "P -1"
_symmetry_group_IT_number 2
_symmetry_cell_setting 'triclinic'
loop_
_space_group_symop_operation_xyz
x,y,z
-x,-y,-z
loop_
_atom_site_type_symbol
_atom_site_label
_atom_site_fract_x
_atom_site_fract_y
_atom_site_fract_z
Si Si1 0.445860 0.065856 0.301053
Si Si2 0.312575 0.421464 0.604669
Si Si3 0.690161 0.544610 0.781314
Si Si4 0.205414 0.956545 0.937488
Si Si5 0.963781 0.421529 0.952556
Si Si6 0.910523 0.140679 0.379806
Si Si7 0.787432 0.818523 0.557105
Si Si8 0.873847 0.862048 0.011344
O O1 0.373684 0.179947 0.258013
O O2 0.500000 0.000000 0.500000
O O3 0.623640 0.093991 0.091266
O O4 0.278339 0.964964 0.414584
O O5 0.500000 0.500000 0.500000
O O6 0.315205 0.466393 0.381833
O O7 0.146226 0.437665 0.758640
O O8 0.276856 0.269968 0.785857
O O9 0.760153 0.690510 0.628574
O O10 0.821548 0.469551 0.869695
O O11 0.500000 0.500000 0.000000
O O12 0.214412 0.069720 0.684616
O O13 0.193287 0.025186 0.020521
O O14 0.027498 0.854228 0.073587
O O15 0.000000 0.500000 0.000000
O O16 0.885430 0.275012 0.195326
O O17 0.034768 0.158794 0.449069
O O18 0.025806 0.110955 0.223154
#
# Coordination Sequence:
#
# PCOD9004038 Si02
#       8
#     2   2   2   2   2   2   2   2
#     4  10  21  37  63  97 121 169 214 265 318 390
#     4  11  25  44  68  97 135 178 224 279 335 399
#     4  12  26  43  68  98 132 178 228 281 332 403
#     4  10  21  40  67  94 128 172 216 263 337 392
#     4  11  24  44  67  97 132 176 229 269 335 391
#     4  11  22  39  67  91 131 169 215 272 323 395
#     4  11  22  40  65  94 131 167 217 264 330 389
#     4  10  21  39  66  91 131 169 209 269 335 386
#
# _framework density 21.598158000000002
#
# number of rings (size 3 to 8) (size 9 to 14) (size 15 to 20)
#    0.000    1.250    5.000    1.500    5.250    1.000 
#    0.000    0.625    0.000    0.000    0.000    0.000 
#    0.000    0.000    0.000    0.000    0.000    0.000 
#
# Total GULP energy -89462.163090 kJ/mol
# GULP energy per Si atom -5591.385193 kJ/mol
# Density = 2.154900 g / cm^3
# Si number density = 21.598158 Si / 1000 Ang^3
#
#
#
# Elastic Constant Matrix: (Units=GPa)
#
#
# Indices 1 2 3 4 5 6 
#
# 1 130.6232 59.9107 31.1288 -1.0921 -4.3748 4.3263
# 2 59.9107 140.4062 36.2616 8.6662 -0.1180 9.4694
# 3 31.1288 36.2616 66.0534 3.5777 -4.7172 4.9173
# 4 -1.0921 8.6662 3.5777 40.7210 -3.0192 -0.8168
# 5 -4.3748 -0.1180 -4.7172 -3.0192 34.9474 3.6495
# 6 4.3263 9.4694 4.9173 -0.8168 3.6495 44.1771
#
#
#
# Elastic Compliance Matrix: (Units=1/GPa)
#
#
# Indices 1 2 3 4 5 6 
#
# 1 0.010027 -0.003662 -0.002722 0.001362 0.000988 0.000050
# 2 -0.003662 0.009803 -0.003518 -0.001971 -0.000934 -0.001310
# 3 -0.002722 -0.003518 0.018650 -0.000823 0.002225 -0.001254
# 4 0.001362 -0.001971 -0.000823 0.025260 0.002165 0.000669
# 5 0.000988 -0.000934 0.002225 0.002165 0.029488 -0.002540
# 6 0.000050 -0.001310 -0.001254 0.000669 -0.002540 0.023274
#
#
# Mechanical properties :
#
#
# Convention : Reuss Voigt Hill
#
# Bulk Modulus (GPa) = 53.54522 65.74278 59.64400
# Shear Modulus (GPa) = 35.08060 37.95455 36.51758
#
# Velocity S-wave (km/s) = 4.03456 4.19657 4.11636
# Velocity P-wave (km/s) = 6.82268 7.34757 7.08998
#
# Compressibility (1/GPa) = 0.01867580
#
# Stress axis : x y z
#
# Youngs Moduli (GPa) = 99.73452 102.01476 53.61910
#
# Poissons Ratio (x) = 0.37357 0.14594
# Poissons Ratio (y) = 0.36522 0.18863
# Poissons Ratio (z) = 0.27146 0.35888
#
# Static dielectric constant tensor:
#      x y z
#    x 1.794900 0.000940 0.025820 
#    y 0.000940 1.790980 0.039940 
#    z 0.025820 0.039940 1.881990 
# 
# From -- ./inp_files/199452.got.cif
#   From: 2010.05.17/outbox.cif.g08.bks.cpg/sg2_100_cif.got.tgz:199452.got - 2010.06.03 11:33:40.
