data_PCOD9004380
_publ_section_title
;
Structure prediction by ZEFSAII (Michael W. Deem and Ramdas Pophale) SiO2 
 PCOD9004380
Probable space group: P -1
;
_chemical_formula_sum "Si O2"
_cell_formula_units_Z 16
_cell_length_a 17.846265
_cell_length_b 9.473988
_cell_length_c 10.846386
_cell_angle_alpha 92.195264
_cell_angle_beta 25.926348
_cell_angle_gamma 90.614465
_cell_volume 800.019366
_symmetry_space_group_name_H-M "P -1"
_symmetry_group_IT_number 2
_symmetry_cell_setting 'triclinic'
loop_
_space_group_symop_operation_xyz
x,y,z
-x,-y,-z
loop_
_atom_site_type_symbol
_atom_site_label
_atom_site_fract_x
_atom_site_fract_y
_atom_site_fract_z
Si Si1 0.996571 0.055115 0.144619
Si Si2 0.909116 0.769411 0.385591
Si Si3 0.661946 0.568678 0.821246
Si Si4 0.948360 0.328783 0.332086
Si Si5 0.906048 0.859391 0.662931
Si Si6 0.650138 0.890176 0.234110
Si Si7 0.436939 0.410108 0.747135
Si Si8 0.212124 0.546788 0.884164
O O1 0.890100 0.204498 0.325119
O O2 0.916995 0.929691 0.335451
O O3 0.188449 0.084680 0.912447
O O4 0.000000 0.000000 0.000000
O O5 0.731265 0.691855 0.633819
O O6 0.919553 0.769146 0.517574
O O7 0.075711 0.680351 0.084792
O O8 0.813198 0.446713 0.585021
O O9 0.500000 0.500000 0.000000
O O10 0.617829 0.607718 0.030473
O O11 0.018819 0.241432 0.343503
O O12 0.094862 0.412158 0.048706
O O13 0.000000 0.000000 0.500000
O O14 0.722731 0.915206 0.990038
O O15 0.586687 0.731464 0.305539
O O16 0.500000 0.000000 0.500000
O O17 0.312384 0.528178 0.866634
O O18 0.635008 0.447149 0.440228
#
# Coordination Sequence:
#
# PCOD9004380 Si02
#       8
#     2   2   2   2   2   2   2   2
#     4  11  24  43  64  93 129 169 211 257 317 388
#     4  11  21  41  65  89 120 171 207 253 315 383
#     4  11  25  42  62  93 129 164 211 259 319 375
#     4  10  21  42  64  92 124 167 206 261 310 380
#     4  11  19  37  66  92 120 155 217 256 311 370
#     4  11  22  39  64  97 125 162 210 265 312 363
#     4  11  21  38  62  94 129 156 208 267 307 366
#     4  10  21  37  66  93 121 161 210 255 317 364
#
# _framework density 19.999516
#
# number of rings (size 3 to 8) (size 9 to 14) (size 15 to 20)
#    0.000    1.250    6.250    1.500    0.000    5.000 
#    0.000    3.125    0.000    0.000    0.000    0.000 
#    0.000    0.000    0.000    0.000    0.000    0.000 
#
# Total GULP energy -89154.465366 kJ/mol
# GULP energy per Si atom -5572.154085 kJ/mol
# Density = 1.995400 g / cm^3
# Si number density = 19.999516 Si / 1000 Ang^3
#
#
#
# Elastic Constant Matrix: (Units=GPa)
#
#
# Indices 1 2 3 4 5 6 
#
# 1 42.3894 17.3386 17.2741 -2.3086 13.0921 19.2011
# 2 17.3386 123.2243 60.2086 -13.7949 1.4195 11.2191
# 3 17.2741 60.2086 128.9943 -14.0975 3.9968 -0.4141
# 4 -2.3086 -13.7949 -14.0975 37.0009 6.3081 5.0393
# 5 13.0921 1.4195 3.9968 6.3081 27.6233 -0.2461
# 6 19.2011 11.2191 -0.4141 5.0393 -0.2461 21.9449
#
#
#
# Elastic Compliance Matrix: (Units=1/GPa)
#
#
# Indices 1 2 3 4 5 6 
#
# 1 0.065733 0.002256 -0.007160 0.016698 -0.034609 -0.063025
# 2 0.002256 0.011667 -0.005277 0.004028 -0.001905 -0.008985
# 3 -0.007160 -0.005277 0.011166 0.000241 0.002076 0.009142
# 4 0.016698 0.004028 0.000241 0.035906 -0.016579 -0.025096
# 5 -0.034609 -0.001905 0.002076 -0.016579 0.056506 0.035735
# 6 -0.063025 -0.008985 0.009142 -0.025096 0.035735 0.111643
#
#
# Mechanical properties :
#
#
# Convention : Reuss Voigt Hill
#
# Bulk Modulus (GPa) = 14.66239 53.80563 34.23401
# Shear Modulus (GPa) = 14.89337 30.63293 22.76315
#
# Velocity S-wave (km/s) = 2.73185 3.91792 3.37736
# Velocity P-wave (km/s) = 4.15909 6.88685 5.68888
#
# Compressibility (1/GPa) = 0.06820170
#
# Stress axis : x y z
#
# Youngs Moduli (GPa) = 15.21309 85.70863 89.55920
#
# Poissons Ratio (x) = -0.19334 0.64129
# Poissons Ratio (y) = -0.03432 0.47265
# Poissons Ratio (z) = 0.10893 0.45232
#
# Static dielectric constant tensor:
#      x y z
#    x 1.738230 0.033410 -0.006830 
#    y 0.033410 1.779220 -0.007830 
#    z -0.006830 -0.007830 1.753660 
# 
# From -- ./inp_files/470012.got.cif
#   From: 2010.05.17/outbox.cif.g08.bks.cpg/sg2_236_cif.got.tgz:470012.got - 2010.06.03 11:33:40.
