data_PCOD9004469
_publ_section_title
;
Structure prediction by ZEFSAII (Michael W. Deem and Ramdas Pophale) SiO2 
 PCOD9004469
Probable space group: P -1
;
_chemical_formula_sum "Si O2"
_cell_formula_units_Z 16
_cell_length_a 8.431898
_cell_length_b 8.713840
_cell_length_c 22.611458
_cell_angle_alpha 58.681050
_cell_angle_beta 48.090121
_cell_angle_gamma 32.984807
_cell_volume 669.733995
_symmetry_space_group_name_H-M "P -1"
_symmetry_group_IT_number 2
_symmetry_cell_setting 'triclinic'
loop_
_space_group_symop_operation_xyz
x,y,z
-x,-y,-z
loop_
_atom_site_type_symbol
_atom_site_label
_atom_site_fract_x
_atom_site_fract_y
_atom_site_fract_z
Si Si1 0.853379 0.762511 0.275097
Si Si2 0.322229 0.728908 0.218675
Si Si3 0.275525 0.140509 0.441274
Si Si4 0.199150 0.274281 0.941791
Si Si5 0.554917 0.677742 0.944228
Si Si6 0.804495 0.287382 0.287249
Si Si7 0.352005 0.188371 0.220819
Si Si8 0.439444 0.335319 0.460828
O O1 0.115948 0.755837 0.215515
O O2 0.112640 0.430608 0.281287
O O3 0.565525 0.955689 0.357311
O O4 0.654449 0.890565 0.237103
O O5 0.489871 0.797513 0.136316
O O6 0.604474 0.445284 0.244293
O O7 0.026729 0.963724 0.291700
O O8 0.353422 0.247840 0.447705
O O9 0.887717 0.420920 0.466720
O O10 0.292387 0.938826 0.510699
O O11 0.932389 0.456542 0.918498
O O12 0.329799 0.981219 0.972524
O O13 0.000000 0.500000 0.000000
O O14 0.512006 0.754186 0.870599
O O15 0.500000 0.500000 0.000000
O O16 0.565667 0.425352 0.375553
O O17 0.094536 0.240536 0.236378
#
# Coordination Sequence:
#
# PCOD9004469 Si02
#       8
#     2   2   2   2   2   2   2   2
#     4  12  26  43  71 105 140 187 236 299 352 418
#     4  12  24  45  73 101 142 178 251 295 339 417
#     4  10  21  39  61 102 137 173 234 298 347 417
#     4  12  26  50  77 111 144 183 246 310 351 423
#     4  12  27  52  75 106 150 195 234 287 377 450
#     4  12  23  45  72 101 133 196 237 289 351 430
#     4  12  26  47  70 100 149 185 233 286 361 439
#     4  10  21  37  67  96 134 182 231 292 359 410
#
# _framework density 23.890083000000001
#
# number of rings (size 3 to 8) (size 9 to 14) (size 15 to 20)
#    0.000    0.500    3.750    4.500    5.250    0.000 
#    0.000    3.750    0.000    0.000    0.000    0.000 
#    0.000    0.000    0.000    0.000    0.000    0.000 
#
# Total GULP energy -89356.144436 kJ/mol
# GULP energy per Si atom -5584.759027 kJ/mol
# Density = 2.383571 g / cm^3
# Si number density = 23.890083 Si / 1000 Ang^3
#
#
#
# Elastic Constant Matrix: (Units=GPa)
#
#
# Indices 1 2 3 4 5 6 
#
# 1 40.5724 33.7213 30.7384 8.5597 -3.6555 -11.3990
# 2 33.7213 124.4068 24.6007 9.3246 -0.8512 -0.9271
# 3 30.7384 24.6007 111.3707 5.9291 -0.7827 12.0819
# 4 8.5597 9.3246 5.9291 44.4955 3.0176 11.5315
# 5 -3.6555 -0.8512 -0.7827 3.0176 24.0552 6.5291
# 6 -11.3990 -0.9271 12.0819 11.5315 6.5291 32.9049
#
#
#
# Elastic Compliance Matrix: (Units=1/GPa)
#
#
# Indices 1 2 3 4 5 6 
#
# 1 0.057835 -0.011178 -0.016006 -0.014638 0.001446 0.030440
# 2 -0.011178 0.010748 0.001123 0.000862 -0.000240 -0.004236
# 3 -0.016006 0.001123 0.014280 0.004085 0.000917 -0.012370
# 4 -0.014638 0.000862 0.004085 0.028907 -0.001227 -0.016433
# 5 0.001446 -0.000240 0.000917 -0.001227 0.044186 -0.008180
# 6 0.030440 -0.004236 -0.012370 -0.016433 -0.008180 0.052741
#
#
# Mechanical properties :
#
#
# Convention : Reuss Voigt Hill
#
# Bulk Modulus (GPa) = 32.53033 50.49676 41.51355
# Shear Modulus (GPa) = 18.44576 32.77708 25.61142
#
# Velocity S-wave (km/s) = 2.78170 3.70806 3.27777
# Velocity P-wave (km/s) = 4.89524 6.28617 5.63380
#
# Compressibility (1/GPa) = 0.03074054
#
# Stress axis : x y z
#
# Youngs Moduli (GPa) = 17.29065 93.04047 70.02976
#
# Poissons Ratio (x) = 1.03996 1.12091
# Poissons Ratio (y) = 0.19327 -0.07863
# Poissons Ratio (z) = 0.27676 -0.10447
#
# Static dielectric constant tensor:
#      x y z
#    x 1.993520 0.096960 0.009500 
#    y 0.096960 1.895570 0.030100 
#    z 0.009500 0.030100 1.954940 
# 
# From -- ./inp_files/606666.got.cif
#   From: 2010.05.17/outbox.cif.g08.bks.cpg/sg2_304_cif.got.tgz:606666.got - 2010.06.03 11:33:40.
