data_PCOD9004010
_publ_section_title
;
Structure prediction by ZEFSAII (Michael W. Deem and Ramdas Pophale) SiO2 
 PCOD9004010
Probable space group: P -1
;
_chemical_formula_sum "Si O2"
_cell_formula_units_Z 14
_cell_length_a 10.684626
_cell_length_b 6.936664
_cell_length_c 11.846308
_cell_angle_alpha 64.288784
_cell_angle_beta 54.413845
_cell_angle_gamma 91.555956
_cell_volume 594.645004
_symmetry_space_group_name_H-M "P -1"
_symmetry_group_IT_number 2
_symmetry_cell_setting 'triclinic'
loop_
_space_group_symop_operation_xyz
x,y,z
-x,-y,-z
loop_
_atom_site_type_symbol
_atom_site_label
_atom_site_fract_x
_atom_site_fract_y
_atom_site_fract_z
Si Si1 0.380623 0.687655 0.069618
Si Si2 0.168596 0.592830 0.818655
Si Si3 0.326289 0.961656 0.322925
Si Si4 0.112598 0.875608 0.253270
Si Si5 0.647777 0.915150 0.472368
Si Si6 0.674730 0.619539 0.035595
Si Si7 0.237007 0.445607 0.577721
O O1 0.495010 0.637637 0.117376
O O2 0.514326 0.897339 0.873720
O O3 0.232786 0.748936 0.179711
O O4 0.310156 0.478851 0.071166
O O5 0.199455 0.856797 0.706855
O O6 0.173738 0.463350 0.732622
O O7 0.303690 0.551216 0.839544
O O8 0.000000 0.500000 0.000000
O O9 0.162605 0.927184 0.344703
O O10 0.335791 0.098937 0.398535
O O11 0.316421 0.708071 0.426369
O O12 0.924638 0.711982 0.369369
O O13 0.183156 0.125197 0.091307
O O14 0.500000 0.000000 0.500000
O O15 0.641444 0.691709 0.464942
#
# Coordination Sequence:
#
# PCOD9004010 Si02
#       7
#     2   2   2   2   2   2   2
#     4  10  22  40  67  98 122 159 214 267 316 372
#     4  11  24  43  66  94 128 167 214 262 313 378
#     4  10  23  42  65  94 128 165 209 261 319 382
#     4  11  23  41  67  96 124 162 214 264 318 376
#     4  11  26  43  62  92 129 172 215 256 312 380
#     4  10  21  37  63  94 125 158 202 261 315 364
#     4  11  26  43  64  94 131 172 208 260 323 375
#
# _framework density 23.543458000000001
#
# number of rings (size 3 to 8) (size 9 to 14) (size 15 to 20)
#    0.000    1.429    0.000    4.714    0.000   16.571 
#    0.000    1.429    0.000    0.000    0.000    0.000 
#    0.000    0.000    0.000    0.000    0.000    0.000 
#
# Total GULP energy -78404.660332 kJ/mol
# GULP energy per Si atom -5600.332881 kJ/mol
# Density = 2.348987 g / cm^3
# Si number density = 23.543458 Si / 1000 Ang^3
#
#
#
# Elastic Constant Matrix: (Units=GPa)
#
#
# Indices 1 2 3 4 5 6 
#
# 1 83.3322 22.1846 29.9397 4.5115 7.2719 -3.9666
# 2 22.1846 137.9886 31.5884 -1.8965 -2.1401 -4.1141
# 3 29.9397 31.5884 88.8517 4.0820 6.6607 -9.4946
# 4 4.5115 -1.8965 4.0820 30.4246 4.2547 1.5367
# 5 7.2719 -2.1401 6.6607 4.2547 37.4628 -0.3550
# 6 -3.9666 -4.1141 -9.4946 1.5367 -0.3550 34.9791
#
#
#
# Elastic Compliance Matrix: (Units=1/GPa)
#
#
# Indices 1 2 3 4 5 6 
#
# 1 0.014067 -0.001384 -0.003998 -0.001384 -0.001938 0.000388
# 2 -0.001384 0.008077 -0.002518 0.000892 0.001077 0.000081
# 3 -0.003998 -0.002518 0.014017 -0.001367 -0.001675 0.003098
# 4 -0.001384 0.000892 -0.001367 0.033872 -0.003303 -0.001945
# 5 -0.001938 0.001077 -0.001675 -0.003303 0.027803 -0.000121
# 6 0.000388 0.000081 0.003098 -0.001945 -0.000121 0.029567
#
#
# Mechanical properties :
#
#
# Convention : Reuss Voigt Hill
#
# Bulk Modulus (GPa) = 49.11297 53.06643 51.08970
# Shear Modulus (GPa) = 33.33530 35.67064 34.50297
#
# Velocity S-wave (km/s) = 3.76693 3.89665 3.83234
# Velocity P-wave (km/s) = 6.31075 6.54476 6.42882
#
# Compressibility (1/GPa) = 0.02036122
#
# Stress axis : x y z
#
# Youngs Moduli (GPa) = 71.08588 123.80262 71.34402
#
# Poissons Ratio (x) = 0.17134 0.28522
# Poissons Ratio (y) = 0.09838 0.17967
# Poissons Ratio (z) = 0.28419 0.31178
#
# Static dielectric constant tensor:
#      x y z
#    x 1.937260 0.003200 -0.039770 
#    y 0.003200 1.890540 -0.021820 
#    z -0.039770 -0.021820 1.911870 
# 
# From -- ./inp_files/409968.got.cif
#   From: 2010.05.17/outbox.cif.g08.bks.cpg/sg2_205_cif.got.tgz:409968.got - 2010.06.03 11:33:40.
