data_PCOD9004497
_publ_section_title
;
Structure prediction by ZEFSAII (Michael W. Deem and Ramdas Pophale) SiO2 
 PCOD9004497
Probable space group: P -1
;
_chemical_formula_sum "Si O2"
_cell_formula_units_Z 14
_cell_length_a 14.024579
_cell_length_b 12.994381
_cell_length_c 8.745543
_cell_angle_alpha 141.209986
_cell_angle_beta 138.857395
_cell_angle_gamma 34.144251
_cell_volume 533.334072
_symmetry_space_group_name_H-M "P -1"
_symmetry_group_IT_number 2
_symmetry_cell_setting 'triclinic'
loop_
_space_group_symop_operation_xyz
x,y,z
-x,-y,-z
loop_
_atom_site_type_symbol
_atom_site_label
_atom_site_fract_x
_atom_site_fract_y
_atom_site_fract_z
Si Si1 0.381928 0.902103 0.443126
Si Si2 0.078505 0.668553 0.211777
Si Si3 0.883882 0.488740 0.216827
Si Si4 0.267915 0.887195 0.634697
Si Si5 0.295029 0.465327 0.532429
Si Si6 0.015416 0.184034 0.226551
Si Si7 0.466174 0.698737 0.977352
O O1 0.347423 0.869023 0.540470
O O2 0.598155 0.769208 0.561896
O O3 0.379930 0.821795 0.174637
O O4 0.201466 0.127084 0.456280
O O5 0.195700 0.748262 0.388892
O O6 0.195606 0.521961 0.320423
O O7 0.068881 0.524351 0.915959
O O8 0.891809 0.875684 0.267976
O O9 0.673280 0.612208 0.126893
O O10 0.000000 0.500000 0.500000
O O11 0.978223 0.247916 0.080530
O O12 0.384927 0.813726 0.849411
O O13 0.150828 0.631353 0.668187
O O14 0.437766 0.521530 0.754605
O O15 0.000000 0.000000 0.000000
#
# Coordination Sequence:
#
# PCOD9004497 Si02
#       7
#     2   2   2   2   2   2   2
#     4  12  21  36  65 102 136 174 222 285 353 410
#     4  10  21  39  63 100 139 181 222 287 354 408
#     4  12  27  46  66  97 147 193 228 280 355 429
#     4  10  21  37  68 107 137 167 235 302 344 398
#     4  11  21  37  68 105 137 168 229 300 349 395
#     4  12  22  39  70 104 134 177 233 292 344 403
#     4  11  22  38  65 100 135 182 229 284 345 409
#
# _framework density 26.249963000000001
#
# number of rings (size 3 to 8) (size 9 to 14) (size 15 to 20)
#    0.000    0.857    4.286    4.714    2.000    2.286 
#    0.000    3.571    0.000    2.571    0.000    0.000 
#    0.000    0.000    0.000    0.000    0.000    0.000 
#
# Total GULP energy -78033.194720 kJ/mol
# GULP energy per Si atom -5573.799623 kJ/mol
# Density = 2.619022 g / cm^3
# Si number density = 26.249963 Si / 1000 Ang^3
#
#
#
# Elastic Constant Matrix: (Units=GPa)
#
#
# Indices 1 2 3 4 5 6 
#
# 1 97.8188 19.0382 63.9397 -14.8116 -21.0342 -23.8024
# 2 19.0382 139.5066 58.8686 -61.3197 -18.3807 -38.7961
# 3 63.9397 58.8686 163.7828 -34.0373 -31.7985 -4.5791
# 4 -14.8116 -61.3197 -34.0373 37.8196 8.4747 -30.8328
# 5 -21.0342 -18.3807 -31.7985 8.4747 58.2008 -5.1942
# 6 -23.8024 -38.7961 -4.5791 -30.8328 -5.1942 28.0207
#
#
#
# Elastic Compliance Matrix: (Units=1/GPa)
#
#
# Indices 1 2 3 4 5 6 
#
# 1 0.012814 -0.003373 -0.005095 -0.007475 0.001644 -0.002538
# 2 -0.003373 0.001551 -0.001508 -0.008334 -0.001265 -0.010370
# 3 -0.005095 -0.001508 0.009921 0.003825 0.002535 -0.000116
# 4 -0.007475 -0.008334 0.003825 -0.002779 -0.004731 -0.021199
# 5 0.001644 -0.001265 0.002535 -0.004731 0.019311 -0.001567
# 6 -0.002538 -0.010370 -0.000116 -0.021199 -0.001567 -0.004462
#
#
# Mechanical properties :
#
#
# Convention : Reuss Voigt Hill
#
# Bulk Modulus (GPa) = 230.83255 76.08903 153.46079
# Shear Modulus (GPa) = 86.57700 42.09233 64.33466
#
# Velocity S-wave (km/s) = 5.74921 4.00874 4.95597
# Velocity P-wave (km/s) = 11.49776 7.10464 9.55705
#
# Compressibility (1/GPa) = 0.00433214
#
# Stress axis : x y z
#
# Youngs Moduli (GPa) = 78.03957 644.73976 100.79964
#
# Poissons Ratio (x) = 2.17500 0.51359
# Poissons Ratio (y) = 0.26326 0.15202
# Poissons Ratio (z) = 0.39763 0.97235
#
# Static dielectric constant tensor:
#      x y z
#    x 2.172360 0.041160 0.162760 
#    y 0.041160 2.157220 0.175780 
#    z 0.162760 0.175780 2.004200 
# 
# From -- ./inp_files/257336.got.cif
#   From: 2010.05.17/outbox.cif.g08.bks.cpg/sg2_129_cif.got.tgz:257336.got - 2010.06.03 11:33:40.
