data_PCOD9004779
_publ_section_title
;
Structure prediction by ZEFSAII (Michael W. Deem and Ramdas Pophale) SiO2 
 PCOD9004779
Probable space group: P -1
;
_chemical_formula_sum "Si O2"
_cell_formula_units_Z 13
_cell_length_a 13.290896
_cell_length_b 11.088120
_cell_length_c 8.228383
_cell_angle_alpha 57.333311
_cell_angle_beta 35.016958
_cell_angle_gamma 47.568285
_cell_volume 513.342089
_symmetry_space_group_name_H-M "P -1"
_symmetry_group_IT_number 2
_symmetry_cell_setting 'triclinic'
loop_
_space_group_symop_operation_xyz
x,y,z
-x,-y,-z
loop_
_atom_site_type_symbol
_atom_site_label
_atom_site_fract_x
_atom_site_fract_y
_atom_site_fract_z
Si Si1 0.213592 0.465323 0.408179
Si Si2 0.030307 0.667484 0.986613
Si Si3 0.500000 0.500000 0.500000
Si Si4 0.340375 0.185649 0.191288
Si Si5 0.422381 0.751785 0.711381
Si Si6 0.976270 0.186817 0.760688
Si Si7 0.667056 0.877915 0.110217
O O1 0.234557 0.356654 0.299315
O O2 0.436118 0.376876 0.249093
O O3 0.129127 0.648483 0.328512
O O4 0.070064 0.444883 0.744870
O O5 0.002620 0.768562 0.115244
O O6 0.891964 0.789499 0.940519
O O7 0.262334 0.566945 0.710470
O O8 0.423229 0.641151 0.640791
O O9 0.201699 0.097753 0.460509
O O10 0.554411 0.068503 0.072660
O O11 0.353585 0.205087 0.968915
O O12 0.534807 0.851882 0.439911
O O13 0.191793 0.868641 0.979623
#
# Coordination Sequence:
#
# PCOD9004779 Si02
#       7
#     2   2   1   2   2   2   2
#     4  10  21  38  63  91 118 161 198 244 298 360
#     4   9  20  37  59  86 117 160 196 236 304 347
#     4  10  22  36  58  92 122 146 192 262 282 354
#     4  10  22  40  62  85 124 156 205 246 287 354
#     4  10  23  37  60  91 118 160 197 239 312 342
#     4  10  21  38  58  93 120 155 196 251 293 356
#     4  10  23  40  61  89 115 169 197 240 298 356
#
# _framework density 25.324242999999999
#
# number of rings (size 3 to 8) (size 9 to 14) (size 15 to 20)
#    0.000    2.154    0.000    2.308    8.615    7.385 
#    0.000    1.538    0.000    9.231    0.000    0.000 
#    0.000    0.000    0.000    0.000    0.000    0.000 
#
# Total GULP energy -72499.776150 kJ/mol
# GULP energy per Si atom -5576.905858 kJ/mol
# Density = 2.526660 g / cm^3
# Si number density = 25.324243 Si / 1000 Ang^3
#
#
#
# Elastic Constant Matrix: (Units=GPa)
#
#
# Indices 1 2 3 4 5 6 
#
# 1 83.2294 28.1773 28.0421 3.4863 -11.5578 -25.6770
# 2 28.1773 100.5235 35.4391 14.7243 -0.2794 -28.0034
# 3 28.0421 35.4391 108.5872 25.9337 -21.2267 -21.8434
# 4 3.4863 14.7243 25.9337 24.0947 -11.1660 0.2660
# 5 -11.5578 -0.2794 -21.2267 -11.1660 39.8741 10.7819
# 6 -25.6770 -28.0034 -21.8434 0.2660 10.7819 40.3084
#
#
#
# Elastic Compliance Matrix: (Units=1/GPa)
#
#
# Indices 1 2 3 4 5 6 
#
# 1 0.015755 -0.002083 -0.002110 0.002206 0.002196 0.006844
# 2 -0.002083 0.015644 -0.000975 -0.011702 -0.007274 0.011036
# 3 -0.002110 -0.000975 0.015048 -0.014542 0.001763 0.005758
# 4 0.002206 -0.011702 -0.014542 0.072848 0.018643 -0.020072
# 5 0.002196 -0.007274 0.001763 0.018643 0.035128 -0.012218
# 6 0.006844 0.011036 0.005758 -0.020072 -0.012218 0.043356
#
#
# Mechanical properties :
#
#
# Convention : Reuss Voigt Hill
#
# Bulk Modulus (GPa) = 27.69195 52.85079 40.27137
# Shear Modulus (GPa) = 22.71172 34.23423 28.47298
#
# Velocity S-wave (km/s) = 2.99797 3.68072 3.35675
# Velocity P-wave (km/s) = 4.78983 6.24328 5.56422
#
# Compressibility (1/GPa) = 0.03611158
#
# Stress axis : x y z
#
# Youngs Moduli (GPa) = 63.47221 63.92379 66.45323
#
# Poissons Ratio (x) = 0.13315 0.14020
# Poissons Ratio (y) = 0.13221 0.06478
# Poissons Ratio (z) = 0.13391 0.06231
#
# Static dielectric constant tensor:
#      x y z
#    x 1.975490 0.008720 -0.036060 
#    y 0.008720 2.002990 -0.044120 
#    z -0.036060 -0.044120 2.054250 
# 
# From -- ./inp_files/219910.got.cif
#   From: 2010.05.17/outbox.cif.g08.bks.cpg/sg2_110_cif.got.tgz:219910.got - 2010.06.03 11:33:40.
