data_PCOD9004051
_publ_section_title
;
Structure prediction by ZEFSAII (Michael W. Deem and Ramdas Pophale) SiO2 
 PCOD9004051
Probable space group: P -1
;
_chemical_formula_sum "Si O2"
_cell_formula_units_Z 16
_cell_length_a 14.460909
_cell_length_b 8.900640
_cell_length_c 9.236404
_cell_angle_alpha 71.955751
_cell_angle_beta 118.368583
_cell_angle_gamma 64.957521
_cell_volume 727.544241
_symmetry_space_group_name_H-M "P -1"
_symmetry_group_IT_number 2
_symmetry_cell_setting 'triclinic'
loop_
_space_group_symop_operation_xyz
x,y,z
-x,-y,-z
loop_
_atom_site_type_symbol
_atom_site_label
_atom_site_fract_x
_atom_site_fract_y
_atom_site_fract_z
Si Si1 0.345566 0.205483 0.642270
Si Si2 0.849485 0.045787 0.704345
Si Si3 0.908092 0.986298 0.098000
Si Si4 0.645125 0.469160 0.786360
Si Si5 0.652380 0.786211 0.864001
Si Si6 0.418730 0.466571 0.611579
Si Si7 0.158330 0.277117 0.729317
Si Si8 0.840448 0.710230 0.768664
O O1 0.371643 0.352600 0.682536
O O2 0.275347 0.165732 0.721600
O O3 0.222982 0.337312 0.387995
O O4 0.497442 0.997477 0.747798
O O5 0.691770 0.277139 0.531264
O O6 0.849236 0.881757 0.669570
O O7 0.908985 0.944768 0.940067
O O8 0.942934 0.098335 0.707039
O O9 0.858034 0.882588 0.174010
O O10 0.806407 0.244177 0.955009
O O11 0.636070 0.627456 0.835551
O O12 0.564924 0.391475 0.798191
O O13 0.578867 0.574599 0.546864
O O14 0.720531 0.820907 0.773555
O O15 0.772324 0.683481 0.107111
O O16 0.000000 0.500000 0.500000
O O17 0.000000 0.500000 0.000000
#
# Coordination Sequence:
#
# PCOD9004051 Si02
#       8
#     2   2   2   2   2   2   2   2
#     4  12  26  42  67 100 135 177 220 268 336 398
#     4  10  21  37  65  95 127 166 214 273 323 384
#     4  10  21  40  64  91 127 169 217 265 330 385
#     4  10  21  38  66  94 127 167 215 274 323 378
#     4  12  24  44  67  98 136 174 224 273 328 391
#     4  10  21  37  63  98 130 165 214 267 329 385
#     4  12  26  46  67  94 134 181 220 269 334 404
#     4  12  24  40  67 102 134 168 225 277 326 385
#
# _framework density 21.991789000000001
#
# number of rings (size 3 to 8) (size 9 to 14) (size 15 to 20)
#    0.000    1.000    2.500    4.500    7.000    0.000 
#    0.000    6.250    0.000    0.000    0.000    0.000 
#    0.000    0.000    0.000    0.000    0.000    0.000 
#
# Total GULP energy -89401.778473 kJ/mol
# GULP energy per Si atom -5587.611155 kJ/mol
# Density = 2.194173 g / cm^3
# Si number density = 21.991789 Si / 1000 Ang^3
#
#
#
# Elastic Constant Matrix: (Units=GPa)
#
#
# Indices 1 2 3 4 5 6 
#
# 1 132.7072 22.0813 13.0076 -3.8874 -1.9533 7.4928
# 2 22.0813 81.2896 15.2430 -11.5742 4.4910 21.8142
# 3 13.0076 15.2430 60.7439 -1.2577 15.3032 2.8772
# 4 -3.8874 -11.5742 -1.2577 27.1586 -0.6664 5.6708
# 5 -1.9533 4.4910 15.3032 -0.6664 24.9886 -1.8453
# 6 7.4928 21.8142 2.8772 5.6708 -1.8453 31.0238
#
#
#
# Elastic Compliance Matrix: (Units=1/GPa)
#
#
# Indices 1 2 3 4 5 6 
#
# 1 0.008074 -0.001770 -0.001754 0.000476 0.001998 -0.000511
# 2 -0.001770 0.018928 -0.002787 0.010696 -0.002636 -0.014735
# 3 -0.001754 -0.002787 0.020626 -0.000760 -0.012297 -0.000122
# 4 0.000476 0.010696 -0.000760 0.044680 -0.001396 -0.015815
# 5 0.001998 -0.002636 -0.012297 -0.001396 0.048559 0.005655
# 6 -0.000511 -0.014735 -0.000122 -0.015815 0.005655 0.045956
#
#
# Mechanical properties :
#
#
# Convention : Reuss Voigt Hill
#
# Bulk Modulus (GPa) = 28.56748 41.71159 35.13953
# Shear Modulus (GPa) = 23.68396 31.59481 27.63939
#
# Velocity S-wave (km/s) = 3.28525 3.79445 3.54899
# Velocity P-wave (km/s) = 5.23533 6.18103 5.72773
#
# Compressibility (1/GPa) = 0.03500484
#
# Stress axis : x y z
#
# Youngs Moduli (GPa) = 123.85412 52.83240 48.48350
#
# Poissons Ratio (x) = 0.09350 0.08505
# Poissons Ratio (y) = 0.21919 0.13514
# Poissons Ratio (z) = 0.21727 0.14726
#
# Static dielectric constant tensor:
#      x y z
#    x 1.851810 -0.015050 -0.014170 
#    y -0.015050 1.783660 0.020800 
#    z -0.014170 0.020800 1.798150 
# 
# From -- ./inp_files/298350.got.cif
#   From: 2010.05.17/outbox.cif.g08.bks.cpg/sg2_150_cif.got.tgz:298350.got - 2010.06.03 11:33:40.
