data_PCOD9004796
_publ_section_title
;
Structure prediction by ZEFSAII (Michael W. Deem and Ramdas Pophale) SiO2 
 PCOD9004796
Probable space group: P -1
;
_chemical_formula_sum "Si O2"
_cell_formula_units_Z 14
_cell_length_a 12.784483
_cell_length_b 9.969496
_cell_length_c 11.863680
_cell_angle_alpha 129.632987
_cell_angle_beta 34.276818
_cell_angle_gamma 132.609416
_cell_volume 615.433350
_symmetry_space_group_name_H-M "P -1"
_symmetry_group_IT_number 2
_symmetry_cell_setting 'triclinic'
loop_
_space_group_symop_operation_xyz
x,y,z
-x,-y,-z
loop_
_atom_site_type_symbol
_atom_site_label
_atom_site_fract_x
_atom_site_fract_y
_atom_site_fract_z
Si Si1 0.717970 0.889216 0.979452
Si Si2 0.354384 0.357139 0.731449
Si Si3 0.166762 0.869314 0.193839
Si Si4 0.961993 0.789399 0.881595
Si Si5 0.641961 0.176024 0.361053
Si Si6 0.843258 0.545480 0.245297
Si Si7 0.448728 0.236527 0.171883
O O1 0.627126 0.990912 0.206861
O O2 0.837060 0.772853 0.870331
O O3 0.566331 0.778459 0.959100
O O4 0.864834 0.055706 0.861557
O O5 0.437613 0.191677 0.593555
O O6 0.721685 0.637416 0.323839
O O7 0.523807 0.556891 0.707384
O O8 0.177725 0.338362 0.966575
O O9 0.975950 0.694524 0.297095
O O10 0.256984 0.060804 0.286903
O O11 0.355965 0.802276 0.983097
O O12 0.178417 0.774998 0.683352
O O13 0.000000 0.000000 0.000000
O O14 0.711534 0.348304 0.304802
O O15 0.000000 0.500000 0.000000
#
# Coordination Sequence:
#
# PCOD9004796 Si02
#       7
#     2   2   2   2   2   2   2
#     4   9  18  35  58  80 113 157 187 224 287 342
#     4  12  23  36  61  89 115 145 196 245 278 336
#     4   9  17  33  61  81 114 151 185 229 286 344
#     4  10  21  38  59  82 116 155 192 233 284 338
#     4  11  22  36  60  90 112 148 199 236 281 338
#     4  12  17  35  61  85 114 153 188 235 287 338
#     4   9  18  35  59  86 116 148 186 236 293 336
#
# _framework density 22.748197999999999
#
# number of rings (size 3 to 8) (size 9 to 14) (size 15 to 20)
#    0.857    0.857    4.286    1.286    0.000    2.857 
#    0.000    1.429    3.143    0.000    0.000    0.000 
#    0.000    0.000    0.000    0.000    0.000    0.000 
#
# Total GULP energy -78089.919585 kJ/mol
# GULP energy per Si atom -5577.851399 kJ/mol
# Density = 2.269642 g / cm^3
# Si number density = 22.748198 Si / 1000 Ang^3
#
#
#
# Elastic Constant Matrix: (Units=GPa)
#
#
# Indices 1 2 3 4 5 6 
#
# 1 146.4270 24.8818 17.2084 2.9177 -15.1177 -8.0315
# 2 24.8818 64.9701 11.2505 -4.2587 2.5533 21.8233
# 3 17.2084 11.2505 48.1990 11.9404 -18.1019 0.8030
# 4 2.9177 -4.2587 11.9404 37.0365 -8.1501 2.0711
# 5 -15.1177 2.5533 -18.1019 -8.1501 28.1095 2.3546
# 6 -8.0315 21.8233 0.8030 2.0711 2.3546 44.1559
#
#
#
# Elastic Compliance Matrix: (Units=1/GPa)
#
#
# Indices 1 2 3 4 5 6 
#
# 1 0.008266 -0.004490 -0.000268 -0.000334 0.004290 0.003515
# 2 -0.004490 0.022907 -0.007232 0.004472 -0.006864 -0.011850
# 3 -0.000268 -0.007232 0.031095 -0.006930 0.018335 0.002307
# 4 -0.000334 0.004472 -0.006930 0.030921 0.004237 -0.003821
# 5 0.004290 -0.006864 0.018335 0.004237 0.051467 0.000896
# 6 0.003515 -0.011850 0.002307 -0.003821 0.000896 0.029233
#
#
# Mechanical properties :
#
#
# Convention : Reuss Voigt Hill
#
# Bulk Modulus (GPa) = 26.11756 40.69751 33.40754
# Shear Modulus (GPa) = 23.73815 35.61075 29.67445
#
# Velocity S-wave (km/s) = 3.23386 3.96085 3.61567
# Velocity P-wave (km/s) = 5.04479 6.23274 5.66996
#
# Compressibility (1/GPa) = 0.03828841
#
# Stress axis : x y z
#
# Youngs Moduli (GPa) = 120.97495 43.65483 32.15923
#
# Poissons Ratio (x) = 0.19602 0.00862
# Poissons Ratio (y) = 0.54322 0.23257
# Poissons Ratio (z) = 0.03241 0.31570
#
# Static dielectric constant tensor:
#      x y z
#    x 1.879490 -0.010710 -0.000990 
#    y -0.010710 1.904250 -0.007620 
#    z -0.000990 -0.007620 1.940280 
# 
# From -- ./inp_files/450575.got.cif
#   From: 2010.05.17/outbox.cif.g08.bks.cpg/sg2_226_cif.got.tgz:450575.got - 2010.06.03 11:33:40.
