data_PCOD9004582
_publ_section_title
;
Structure prediction by ZEFSAII (Michael W. Deem and Ramdas Pophale) SiO2 
 PCOD9004582
Probable space group: P -1
;
_chemical_formula_sum "Si O2"
_cell_formula_units_Z 15
_cell_length_a 7.620553
_cell_length_b 10.002460
_cell_length_c 9.848951
_cell_angle_alpha 54.073126
_cell_angle_beta 72.660699
_cell_angle_gamma 96.334729
_cell_volume 539.343821
_symmetry_space_group_name_H-M "P -1"
_symmetry_group_IT_number 2
_symmetry_cell_setting 'triclinic'
loop_
_space_group_symop_operation_xyz
x,y,z
-x,-y,-z
loop_
_atom_site_type_symbol
_atom_site_label
_atom_site_fract_x
_atom_site_fract_y
_atom_site_fract_z
Si Si1 0.292119 0.028875 0.643258
Si Si2 0.949682 0.791788 0.124269
Si Si3 0.397564 0.903324 0.944037
Si Si4 0.890495 0.311142 0.444309
Si Si5 0.000000 0.000000 0.500000
Si Si6 0.376898 0.347887 0.931350
Si Si7 0.745747 0.514157 0.567535
Si Si8 0.663714 0.319191 0.239033
O O1 0.095557 0.023306 0.617874
O O2 0.181844 0.324589 0.653273
O O3 0.456841 0.182071 0.428081
O O4 0.269805 0.820991 0.770756
O O5 0.830168 0.747987 0.037655
O O6 0.166448 0.780730 0.090812
O O7 0.614360 0.942260 0.245124
O O8 0.000000 0.000000 0.000000
O O9 0.531027 0.786441 0.943830
O O10 0.500000 0.000000 0.000000
O O11 0.782536 0.355544 0.572623
O O12 0.816638 0.391466 0.285260
O O13 0.864515 0.116461 0.511996
O O14 0.116353 0.410160 0.377954
O O15 0.527356 0.447060 0.716168
O O16 0.352538 0.507523 0.928290
#
# Coordination Sequence:
#
# PCOD9004582 Si02
#       8
#     2   2   2   2   1   2   2   2
#     4  10  25  48  74 112 153 199 262 316 385 466
#     4  12  27  44  68 114 152 205 253 317 398 449
#     4  12  28  47  72 114 162 201 248 325 398 456
#     4  10  21  37  72 109 140 190 261 318 373 442
#     4  10  22  44  72 108 148 206 256 318 376 462
#     4  12  26  46  76 108 152 206 255 320 390 450
#     4  11  24  43  75 107 154 200 266 321 369 474
#     4  10  23  45  75 106 145 204 267 307 374 471
#
# _framework density 27.811572000000002
#
# number of rings (size 3 to 8) (size 9 to 14) (size 15 to 20)
#    0.000    1.067    2.667    2.800    7.467    0.533 
#    4.800    0.667    0.000    0.000    0.000    0.000 
#    0.000    0.000    0.000    0.000    0.000    0.000 
#
# Total GULP energy -83643.295550 kJ/mol
# GULP energy per Si atom -5576.219703 kJ/mol
# Density = 2.774827 g / cm^3
# Si number density = 27.811572 Si / 1000 Ang^3
#
#
#
# Elastic Constant Matrix: (Units=GPa)
#
#
# Indices 1 2 3 4 5 6 
#
# 1 214.3213 29.9763 43.7208 -14.0106 28.4123 22.5967
# 2 29.9763 126.0939 11.2276 -35.8240 5.1768 -5.2391
# 3 43.7208 11.2276 112.2579 -5.7587 6.7916 5.0391
# 4 -14.0106 -35.8240 -5.7587 38.0586 -4.5079 15.6500
# 5 28.4123 5.1768 6.7916 -4.5079 51.0260 -10.3333
# 6 22.5967 -5.2391 5.0391 15.6500 -10.3333 57.7603
#
#
#
# Elastic Compliance Matrix: (Units=1/GPa)
#
#
# Indices 1 2 3 4 5 6 
#
# 1 0.006148 -0.000593 -0.001825 0.002488 -0.003634 -0.003624
# 2 -0.000593 0.011127 -0.000236 0.010909 -0.000152 -0.001721
# 3 -0.001825 -0.000236 0.009713 0.000706 -0.000270 -0.000395
# 4 0.002488 0.010909 0.000706 0.042236 -0.001226 -0.011709
# 5 -0.003634 -0.000152 -0.000270 -0.001226 0.022746 0.005833
# 6 -0.003624 -0.001721 -0.000395 -0.011709 0.005833 0.022825
#
#
# Mechanical properties :
#
#
# Convention : Reuss Voigt Hill
#
# Bulk Modulus (GPa) = 46.12729 69.16916 57.64822
# Shear Modulus (GPa) = 39.26875 53.88556 46.57715
#
# Velocity S-wave (km/s) = 3.76168 4.40651 4.09680
# Velocity P-wave (km/s) = 5.95723 7.12842 6.56898
#
# Compressibility (1/GPa) = 0.02167914
#
# Stress axis : x y z
#
# Youngs Moduli (GPa) = 162.66334 89.87395 102.95894
#
# Poissons Ratio (x) = 0.05334 0.18788
# Poissons Ratio (y) = 0.09654 0.02426
# Poissons Ratio (z) = 0.29682 0.02118
#
# Static dielectric constant tensor:
#      x y z
#    x 2.149770 -0.019930 -0.005640 
#    y -0.019930 2.376900 0.062070 
#    z -0.005640 0.062070 2.177250 
# 
# From -- ./inp_files/554223.got.cif
#   From: 2010.05.17/outbox.cif.g08.bks.cpg/sg2_278_cif.got.tgz:554223.got - 2010.06.03 11:33:40.
