data_PCOD9004033
_publ_section_title
;
Structure prediction by ZEFSAII (Michael W. Deem and Ramdas Pophale) SiO2 
 PCOD9004033
Probable space group: P -1
;
_chemical_formula_sum "Si O2"
_cell_formula_units_Z 14
_cell_length_a 11.909331
_cell_length_b 12.606463
_cell_length_c 9.153185
_cell_angle_alpha 143.856433
_cell_angle_beta 57.946443
_cell_angle_gamma 134.230791
_cell_volume 579.039595
_symmetry_space_group_name_H-M "P -1"
_symmetry_group_IT_number 2
_symmetry_cell_setting 'triclinic'
loop_
_space_group_symop_operation_xyz
x,y,z
-x,-y,-z
loop_
_atom_site_type_symbol
_atom_site_label
_atom_site_fract_x
_atom_site_fract_y
_atom_site_fract_z
Si Si1 0.497453 0.147186 0.816752
Si Si2 0.125439 0.583427 0.141519
Si Si3 0.645455 0.176312 0.194404
Si Si4 0.918370 0.132985 0.834432
Si Si5 0.604614 0.738384 0.248647
Si Si6 0.454478 0.511882 0.380410
Si Si7 0.064588 0.918399 0.582226
O O1 0.686927 0.272506 0.857956
O O2 0.461862 0.141446 0.662375
O O3 0.396287 0.931818 0.738596
O O4 0.437360 0.300318 0.089185
O O5 0.074223 0.724720 0.421708
O O6 0.000000 0.500000 0.000000
O O7 0.083409 0.360882 0.991351
O O8 0.666695 0.408136 0.437550
O O9 0.792155 0.179385 0.030638
O O10 0.500000 0.000000 0.000000
O O11 0.902770 0.081765 0.615543
O O12 0.918175 0.945194 0.713975
O O13 0.582446 0.705747 0.402245
O O14 0.785042 0.867869 0.224928
O O15 0.500000 0.500000 0.000000
O O16 0.500000 0.500000 0.500000
#
# Coordination Sequence:
#
# PCOD9004033 Si02
#       7
#     2   2   2   2   2   2   2
#     4  11  24  42  67  98 135 170 219 277 328 396
#     4  10  21  37  63  96 130 170 221 265 324 398
#     4  12  23  38  62  99 131 164 218 277 332 382
#     4  10  22  39  62  96 132 166 221 278 320 393
#     4  10  22  42  67  97 133 177 224 268 333 403
#     4  11  23  37  63  94 131 167 212 272 330 376
#     4  10  21  39  64  90 129 177 217 267 333 394
#
# _framework density 24.177965
#
# number of rings (size 3 to 8) (size 9 to 14) (size 15 to 20)
#    0.000    1.429    1.429    5.143    0.000    5.714 
#    0.000    0.714    0.000   10.286    0.000    0.000 
#    0.000    0.000    0.000    0.000    0.000    0.000 
#
# Total GULP energy -78040.643847 kJ/mol
# GULP energy per Si atom -5574.331703 kJ/mol
# Density = 2.412294 g / cm^3
# Si number density = 24.177965 Si / 1000 Ang^3
#
#
#
# Elastic Constant Matrix: (Units=GPa)
#
#
# Indices 1 2 3 4 5 6 
#
# 1 103.9459 36.1683 26.7803 8.8358 -29.9425 -11.7293
# 2 36.1683 67.2615 11.1777 -0.7773 2.3120 -21.4208
# 3 26.7803 11.1777 63.2795 7.1670 -31.4377 4.0649
# 4 8.8358 -0.7773 7.1670 45.2558 -5.9801 -2.0214
# 5 -29.9425 2.3120 -31.4377 -5.9801 50.9912 4.6512
# 6 -11.7293 -21.4208 4.0649 -2.0214 4.6512 56.0795
#
#
#
# Elastic Compliance Matrix: (Units=1/GPa)
#
#
# Indices 1 2 3 4 5 6 
#
# 1 0.015512 -0.009014 -0.000029 -0.001988 0.009362 -0.001045
# 2 -0.009014 0.024041 -0.006753 0.002169 -0.011094 0.008785
# 3 -0.000029 -0.006753 0.025840 -0.002287 0.016491 -0.005909
# 4 -0.001988 0.002169 -0.002287 0.022932 -0.000116 0.001415
# 5 0.009362 -0.011094 0.016491 -0.000116 0.036357 -0.006494
# 6 -0.001045 0.008785 -0.005909 0.001415 -0.006494 0.021987
#
#
# Mechanical properties :
#
#
# Convention : Reuss Voigt Hill
#
# Bulk Modulus (GPa) = 29.58633 42.52662 36.05647
# Shear Modulus (GPa) = 26.38121 41.15600 33.76860
#
# Velocity S-wave (km/s) = 3.30680 4.13026 3.74126
# Velocity P-wave (km/s) = 5.18106 6.35394 5.79724
#
# Compressibility (1/GPa) = 0.03379939
#
# Stress axis : x y z
#
# Youngs Moduli (GPa) = 64.46542 41.59576 38.70039
#
# Poissons Ratio (x) = 0.37494 0.00114
# Poissons Ratio (y) = 0.58108 0.26135
# Poissons Ratio (z) = 0.00190 0.28091
#
# Static dielectric constant tensor:
#      x y z
#    x 1.973900 -0.036560 -0.005790 
#    y -0.036560 2.001060 -0.033440 
#    z -0.005790 -0.033440 1.897150 
# 
# From -- ./inp_files/263722.got.cif
#   From: 2010.05.17/outbox.cif.g08.bks.cpg/sg2_132_cif.got.tgz:263722.got - 2010.06.03 11:33:40.
