data_PCOD9004249
_publ_section_title
;
Structure prediction by ZEFSAII (Michael W. Deem and Ramdas Pophale) SiO2 
 PCOD9004249
Probable space group: P -1
;
_chemical_formula_sum "Si O2"
_cell_formula_units_Z 16
_cell_length_a 13.753160
_cell_length_b 9.541393
_cell_length_c 15.208702
_cell_angle_alpha 127.354313
_cell_angle_beta 32.405147
_cell_angle_gamma 104.881342
_cell_volume 680.359147
_symmetry_space_group_name_H-M "P -1"
_symmetry_group_IT_number 2
_symmetry_cell_setting 'triclinic'
loop_
_space_group_symop_operation_xyz
x,y,z
-x,-y,-z
loop_
_atom_site_type_symbol
_atom_site_label
_atom_site_fract_x
_atom_site_fract_y
_atom_site_fract_z
Si Si1 0.335818 0.906083 0.885997
Si Si2 0.808314 0.593204 0.107711
Si Si3 0.540691 0.435729 0.547341
Si Si4 0.833574 0.867058 0.717876
Si Si5 0.061578 0.248170 0.092794
Si Si6 0.751522 0.552261 0.845682
Si Si7 0.847356 0.263871 0.811222
Si Si8 0.652084 0.972261 0.723092
O O1 0.384919 0.685097 0.798834
O O2 0.576331 0.861869 0.672978
O O3 0.220026 0.089837 0.121856
O O4 0.200210 0.005257 0.937514
O O5 0.569704 0.678312 0.370954
O O6 0.842409 0.739122 0.069727
O O7 0.000000 0.500000 0.000000
O O8 0.853756 0.399653 0.936485
O O9 0.500000 0.500000 0.500000
O O10 0.802187 0.334011 0.325643
O O11 0.077576 0.635996 0.426213
O O12 0.678025 0.871070 0.761676
O O13 0.801635 0.089750 0.801161
O O14 0.115522 0.379116 0.169065
O O15 0.691305 0.439568 0.921396
O O16 0.531537 0.768428 0.053397
O O17 0.100205 0.111231 0.521560
#
# Coordination Sequence:
#
# PCOD9004249 Si02
#       8
#     2   2   2   2   2   2   2   2
#     4  11  24  43  62  98 133 167 219 270 317 390
#     4  11  22  45  72  95 128 173 217 273 331 389
#     4  12  24  44  73  96 126 175 215 273 337 380
#     4  11  21  36  60  95 130 168 215 262 315 384
#     4  10  24  45  65  98 137 166 218 269 320 391
#     4   9  20  38  63  91 132 171 212 259 315 387
#     4  10  21  39  59  92 131 163 215 270 319 380
#     4  10  21  37  65  88 129 179 207 257 322 384
#
# _framework density 23.51699
#
# number of rings (size 3 to 8) (size 9 to 14) (size 15 to 20)
#    0.000    1.500    2.500    4.125    0.000    5.500 
#    6.750    0.625    0.000    0.000    0.000    0.000 
#    0.000    0.000    0.000    0.000    0.000    0.000 
#
# Total GULP energy -89224.087246 kJ/mol
# GULP energy per Si atom -5576.505453 kJ/mol
# Density = 2.346346 g / cm^3
# Si number density = 23.516990 Si / 1000 Ang^3
#
#
#
# Elastic Constant Matrix: (Units=GPa)
#
#
# Indices 1 2 3 4 5 6 
#
# 1 72.6500 7.0151 23.1605 -10.6130 0.1908 -18.9723
# 2 7.0151 122.6577 38.1533 -15.1837 -22.0992 -21.6148
# 3 23.1605 38.1533 73.8935 -12.7004 -2.8557 -19.6406
# 4 -10.6130 -15.1837 -12.7004 44.1298 0.8524 0.7236
# 5 0.1908 -22.0992 -2.8557 0.8524 33.6017 3.6465
# 6 -18.9723 -21.6148 -19.6406 0.7236 3.6465 37.0374
#
#
#
# Elastic Compliance Matrix: (Units=1/GPa)
#
#
# Indices 1 2 3 4 5 6 
#
# 1 0.017398 0.002031 -0.003732 0.003678 -0.000047 0.008052
# 2 0.002031 0.011969 -0.004765 0.003025 0.006862 0.004764
# 3 -0.003732 -0.004765 0.019058 0.002898 -0.002171 0.005571
# 4 0.003678 0.003025 0.002898 0.025324 0.001075 0.004586
# 5 -0.000047 0.006862 -0.002171 0.001075 0.034121 -0.000551
# 6 0.008052 0.004764 0.005571 0.004586 -0.000551 0.036823
#
#
# Mechanical properties :
#
#
# Convention : Reuss Voigt Hill
#
# Bulk Modulus (GPa) = 28.17370 45.09547 36.63458
# Shear Modulus (GPa) = 29.50612 36.34526 32.92569
#
# Velocity S-wave (km/s) = 3.54598 3.93554 3.74582
# Velocity P-wave (km/s) = 5.36390 6.31416 5.85833
#
# Compressibility (1/GPa) = 0.03549410
#
# Stress axis : x y z
#
# Youngs Moduli (GPa) = 57.47744 83.54877 52.47127
#
# Poissons Ratio (x) = -0.16972 0.19580
# Poissons Ratio (y) = -0.11676 0.25005
# Poissons Ratio (z) = 0.21448 0.39814
#
# Static dielectric constant tensor:
#      x y z
#    x 1.986860 0.026340 0.079150 
#    y 0.026340 1.973160 -0.021470 
#    z 0.079150 -0.021470 1.982730 
# 
# From -- ./inp_files/529950.got.cif
#   From: 2010.05.17/outbox.cif.g08.bks.cpg/sg2_265_cif.got.tgz:529950.got - 2010.06.03 11:33:40.
