data_PCOD9004362
_publ_section_title
;
Structure prediction by ZEFSAII (Michael W. Deem and Ramdas Pophale) SiO2 
 PCOD9004362
Probable space group: P -1
;
_chemical_formula_sum "Si O2"
_cell_formula_units_Z 16
_cell_length_a 12.217646
_cell_length_b 9.633462
_cell_length_c 15.029896
_cell_angle_alpha 80.592552
_cell_angle_beta 58.975290
_cell_angle_gamma 35.105800
_cell_volume 742.566057
_symmetry_space_group_name_H-M "P -1"
_symmetry_group_IT_number 2
_symmetry_cell_setting 'triclinic'
loop_
_space_group_symop_operation_xyz
x,y,z
-x,-y,-z
loop_
_atom_site_type_symbol
_atom_site_label
_atom_site_fract_x
_atom_site_fract_y
_atom_site_fract_z
Si Si1 0.113631 0.790196 0.657797
Si Si2 0.675304 0.184209 0.552667
Si Si3 0.060130 0.352495 0.299389
Si Si4 0.799680 0.177481 0.920649
Si Si5 0.774756 0.740430 0.212788
Si Si6 0.313131 0.148771 0.478520
Si Si7 0.002653 0.195884 0.961664
Si Si8 0.460810 0.263118 0.800398
O O1 0.396014 0.514983 0.612227
O O2 0.124556 0.898968 0.565502
O O3 0.074595 0.670497 0.650516
O O4 0.912128 0.013847 0.797477
O O5 0.646735 0.179395 0.669886
O O6 0.710230 0.995626 0.514432
O O7 0.964247 0.536917 0.237899
O O8 0.953844 0.524697 0.415908
O O9 0.360213 0.029968 0.204064
O O10 0.979187 0.135146 0.884697
O O11 0.500000 0.500000 0.000000
O O12 0.842324 0.030319 0.001328
O O13 0.880267 0.763371 0.106657
O O14 0.744149 0.620787 0.188685
O O15 0.486744 0.045682 0.337505
O O16 0.500000 0.000000 0.500000
O O17 0.706769 0.490513 0.086735
#
# Coordination Sequence:
#
# PCOD9004362 Si02
#       8
#     2   2   2   2   2   2   2   2
#     4  11  21  40  65  90 123 169 208 254 317 365
#     4  10  21  37  66  88 125 168 201 259 313 368
#     4  11  22  38  66  93 127 165 207 259 310 373
#     4  11  25  44  63  90 128 165 210 262 305 376
#     4  10  22  39  62  92 124 166 205 256 311 370
#     4   9  18  38  58  90 125 159 201 255 310 359
#     4  11  24  42  65  89 125 169 208 256 316 369
#     4  11  22  42  62  92 129 160 209 262 310 367
#
# _framework density 21.546903
#
# number of rings (size 3 to 8) (size 9 to 14) (size 15 to 20)
#    0.000    1.500    5.000    1.125    3.500    4.000 
#    2.250    0.000    0.000    0.000    0.000    0.000 
#    0.000    0.000    0.000    0.000    0.000    0.000 
#
# Total GULP energy -89320.962033 kJ/mol
# GULP energy per Si atom -5582.560127 kJ/mol
# Density = 2.149786 g / cm^3
# Si number density = 21.546903 Si / 1000 Ang^3
#
#
#
# Elastic Constant Matrix: (Units=GPa)
#
#
# Indices 1 2 3 4 5 6 
#
# 1 37.4819 10.4448 32.9784 -6.1376 -0.9175 11.3114
# 2 10.4448 107.8613 57.0017 10.2708 -5.2304 -4.1905
# 3 32.9784 57.0017 86.6268 1.9699 4.5256 11.6389
# 4 -6.1376 10.2708 1.9699 43.2373 11.7287 -6.6547
# 5 -0.9175 -5.2304 4.5256 11.7287 25.7277 5.1702
# 6 11.3114 -4.1905 11.6389 -6.6547 5.1702 32.0165
#
#
#
# Elastic Compliance Matrix: (Units=1/GPa)
#
#
# Indices 1 2 3 4 5 6 
#
# 1 0.046971 0.006565 -0.021500 0.002824 0.007212 -0.008497
# 2 0.006565 0.017185 -0.014532 -0.004032 0.007486 0.003166
# 3 -0.021500 -0.014532 0.030226 0.000795 -0.008650 -0.003732
# 4 0.002824 -0.004032 0.000795 0.029818 -0.015847 0.006943
# 5 0.007212 0.007486 -0.008650 -0.015847 0.051407 -0.010019
# 6 -0.008497 0.003166 -0.003732 0.006943 -0.010019 0.039068
#
#
# Mechanical properties :
#
#
# Convention : Reuss Voigt Hill
#
# Bulk Modulus (GPa) = 28.21146 48.09111 38.15129
# Shear Modulus (GPa) = 17.51770 28.96598 23.24184
#
# Velocity S-wave (km/s) = 2.85441 3.67048 3.28786
# Velocity P-wave (km/s) = 4.89745 6.35066 5.67080
#
# Compressibility (1/GPa) = 0.03544659
#
# Stress axis : x y z
#
# Youngs Moduli (GPa) = 21.28994 58.18993 33.08365
#
# Poissons Ratio (x) = -0.38200 0.71131
# Poissons Ratio (y) = -0.13976 0.48077
# Poissons Ratio (z) = 0.45774 0.84561
#
# Static dielectric constant tensor:
#      x y z
#    x 1.816300 -0.037890 0.028010 
#    y -0.037890 1.840610 0.016840 
#    z 0.028010 0.016840 1.793040 
# 
# From -- ./inp_files/566721.got.cif
#   From: 2010.05.17/outbox.cif.g08.bks.cpg/sg2_284_cif.got.tgz:566721.got - 2010.06.03 11:33:40.
