data_PCOD9004698
_publ_section_title
;
Structure prediction by ZEFSAII (Michael W. Deem and Ramdas Pophale) SiO2 
 PCOD9004698
Probable space group: P -1
;
_chemical_formula_sum "Si O2"
_cell_formula_units_Z 16
_cell_length_a 5.186766
_cell_length_b 23.721933
_cell_length_c 13.320326
_cell_angle_alpha 24.165286
_cell_angle_beta 95.413348
_cell_angle_gamma 92.693452
_cell_volume 664.860681
_symmetry_space_group_name_H-M "P -1"
_symmetry_group_IT_number 2
_symmetry_cell_setting 'triclinic'
loop_
_space_group_symop_operation_xyz
x,y,z
-x,-y,-z
loop_
_atom_site_type_symbol
_atom_site_label
_atom_site_fract_x
_atom_site_fract_y
_atom_site_fract_z
Si Si1 0.894936 0.201469 0.712072
Si Si2 0.747335 0.659930 0.252554
Si Si3 0.768927 0.617503 0.821424
Si Si4 0.612180 0.471516 0.218573
Si Si5 0.641177 0.872513 0.291949
Si Si6 0.935708 0.137963 0.204630
Si Si7 0.645558 0.125098 0.017621
Si Si8 0.697591 0.428780 0.765470
O O1 0.859393 0.366825 0.426325
O O2 0.624075 0.162319 0.715253
O O3 0.145607 0.126201 0.790693
O O4 0.872967 0.170354 0.879277
O O5 0.861326 0.526536 0.541755
O O6 0.553098 0.597802 0.267443
O O7 0.568293 0.746400 0.187941
O O8 0.879595 0.776669 0.002245
O O9 0.534262 0.589846 0.781969
O O10 0.813257 0.767776 0.542695
O O11 0.699846 0.609984 0.947707
O O12 0.000000 0.500000 0.000000
O O13 0.411661 0.497848 0.257517
O O14 0.558654 0.997217 0.161017
O O15 0.735871 0.092308 0.187162
O O16 0.825807 0.273224 0.044719
O O17 0.000000 0.000000 0.500000
#
# Coordination Sequence:
#
# PCOD9004698 Si02
#       8
#     2   2   2   2   2   2   2   2
#     4  11  23  43  65 106 135 181 236 286 347 425
#     4  10  23  44  70  98 132 170 241 289 352 418
#     4  10  21  38  57  95 135 181 223 280 340 435
#     4  10  21  38  65  92 135 176 232 285 352 409
#     4  11  25  40  68 101 144 181 235 285 355 423
#     4  11  27  45  67 102 138 181 235 291 365 434
#     4  11  25  42  70  95 133 181 228 292 352 416
#     4  10  22  44  69 100 127 181 231 295 350 416
#
# _framework density 24.065194999999999
#
# number of rings (size 3 to 8) (size 9 to 14) (size 15 to 20)
#    0.000    1.500    2.500    1.125    3.500    6.000 
#    0.000    0.000    0.000    0.000    0.000    0.000 
#    0.000    0.000    0.000    0.000    0.000    0.000 
#
# Total GULP energy -89178.612559 kJ/mol
# GULP energy per Si atom -5573.663285 kJ/mol
# Density = 2.401042 g / cm^3
# Si number density = 24.065195 Si / 1000 Ang^3
#
#
#
# Elastic Constant Matrix: (Units=GPa)
#
#
# Indices 1 2 3 4 5 6 
#
# 1 78.3105 17.6624 18.7862 1.1799 -2.7604 0.7950
# 2 17.6624 92.2636 33.9859 9.1372 -1.4229 -8.4294
# 3 18.7862 33.9859 181.7480 22.9189 20.2057 -2.3726
# 4 1.1799 9.1372 22.9189 23.1961 -4.1823 -3.3995
# 5 -2.7604 -1.4229 20.2057 -4.1823 33.5073 11.3181
# 6 0.7950 -8.4294 -2.3726 -3.3995 11.3181 27.3962
#
#
#
# Elastic Compliance Matrix: (Units=1/GPa)
#
#
# Indices 1 2 3 4 5 6 
#
# 1 0.013797 -0.002416 -0.001597 0.002039 0.003020 -0.002277
# 2 -0.002416 0.012504 -0.001690 -0.002648 -0.000165 0.003511
# 3 -0.001597 -0.001690 0.007703 -0.007750 -0.006458 0.001899
# 4 0.002039 -0.002648 -0.007750 0.053811 0.011287 0.000469
# 5 0.003020 -0.000165 -0.006458 0.011287 0.040852 -0.016174
# 6 -0.002277 0.003511 0.001899 0.000469 -0.016174 0.044552
#
#
# Mechanical properties :
#
#
# Convention : Reuss Voigt Hill
#
# Bulk Modulus (GPa) = 44.25369 54.79902 49.52635
# Shear Modulus (GPa) = 26.02009 35.61243 30.81626
#
# Velocity S-wave (km/s) = 3.29178 3.85103 3.58233
# Velocity P-wave (km/s) = 5.73382 6.52644 6.14293
#
# Compressibility (1/GPa) = 0.02259699
#
# Stress axis : x y z
#
# Youngs Moduli (GPa) = 72.48166 79.97355 129.81476
#
# Poissons Ratio (x) = 0.19324 0.20729
# Poissons Ratio (y) = 0.17513 0.21944
# Poissons Ratio (z) = 0.11574 0.13519
#
# Static dielectric constant tensor:
#      x y z
#    x 2.006420 0.022470 -0.158640 
#    y 0.022470 1.891880 -0.043060 
#    z -0.158640 -0.043060 2.258170 
# 
# From -- ./inp_files/370271.got.cif
#   From: 2010.05.17/outbox.cif.g08.bks.cpg/sg2_186_cif.got.tgz:370271.got - 2010.06.03 11:33:40.
