data_PCOD9004414
_publ_section_title
;
Structure prediction by ZEFSAII (Michael W. Deem and Ramdas Pophale) SiO2 
 PCOD9004414
Probable space group: P -1
;
_chemical_formula_sum "Si O2"
_cell_formula_units_Z 16
_cell_length_a 6.118361
_cell_length_b 9.365385
_cell_length_c 16.614925
_cell_angle_alpha 125.786499
_cell_angle_beta 69.700814
_cell_angle_gamma 112.787210
_cell_volume 702.731883
_symmetry_space_group_name_H-M "P -1"
_symmetry_group_IT_number 2
_symmetry_cell_setting 'triclinic'
loop_
_space_group_symop_operation_xyz
x,y,z
-x,-y,-z
loop_
_atom_site_type_symbol
_atom_site_label
_atom_site_fract_x
_atom_site_fract_y
_atom_site_fract_z
Si Si1 0.933205 0.736268 0.089970
Si Si2 0.180975 0.914799 0.832170
Si Si3 0.833013 0.621537 0.243041
Si Si4 0.611722 0.401368 0.340688
Si Si5 0.828981 0.626458 0.890088
Si Si6 0.877199 0.647960 0.528598
Si Si7 0.209949 0.007981 0.546596
Si Si8 0.531000 0.164330 0.987213
O O1 0.825604 0.649494 0.157936
O O2 0.206995 0.736212 0.040713
O O3 0.943866 0.951866 0.156361
O O4 0.812200 0.639236 0.992754
O O5 0.261997 0.763821 0.720423
O O6 0.027451 0.800496 0.886914
O O7 0.400745 0.057973 0.891305
O O8 0.642697 0.471097 0.268199
O O9 0.079772 0.551211 0.203428
O O10 0.804642 0.809704 0.345603
O O11 0.747954 0.567458 0.434714
O O12 0.339002 0.334496 0.380361
O O13 0.591984 0.683143 0.911352
O O14 0.000000 0.500000 0.500000
O O15 0.081937 0.828396 0.551490
O O16 0.500000 0.000000 0.500000
O O17 0.000000 0.000000 0.500000
O O18 0.500000 0.000000 0.000000
#
# Coordination Sequence:
#
# PCOD9004414 Si02
#       8
#     2   2   2   2   2   2   2   2
#     4  11  22  39  65  99 138 192 238 301 367 434
#     4  10  21  37  66  96 137 181 244 297 354 449
#     4  11  25  46  67 106 147 193 241 308 385 446
#     4  10  24  46  67 103 141 187 248 303 371 452
#     4  10  21  43  62  96 144 184 244 302 358 454
#     4  11  25  46  77 101 142 188 250 312 379 445
#     4  12  28  54  80 113 157 195 249 320 391 452
#     4  11  19  37  64  95 134 186 238 301 364 422
#
# _framework density 22.768287000000001
#
# number of rings (size 3 to 8) (size 9 to 14) (size 15 to 20)
#    0.000    1.250    3.750    1.875    5.250    0.500 
#    4.500    0.000    0.000    0.000    0.000    0.000 
#    0.000    0.000    0.000    0.000    0.000    0.000 
#
# Total GULP energy -89251.813316 kJ/mol
# GULP energy per Si atom -5578.238332 kJ/mol
# Density = 2.271646 g / cm^3
# Si number density = 22.768287 Si / 1000 Ang^3
#
#
#
# Elastic Constant Matrix: (Units=GPa)
#
#
# Indices 1 2 3 4 5 6 
#
# 1 86.4481 53.9099 59.3237 -6.9163 -16.9242 1.8213
# 2 53.9099 159.2803 73.5353 4.4041 -24.8239 -14.6652
# 3 59.3237 73.5353 145.1764 4.9073 -37.9353 -7.3655
# 4 -6.9163 4.4041 4.9073 51.1906 -13.7956 -3.3105
# 5 -16.9242 -24.8239 -37.9353 -13.7956 29.2355 6.2637
# 6 1.8213 -14.6652 -7.3655 -3.3105 6.2637 34.6943
#
#
#
# Elastic Compliance Matrix: (Units=1/GPa)
#
#
# Indices 1 2 3 4 5 6 
#
# 1 0.018537 -0.003870 -0.004969 0.004073 0.003768 -0.003955
# 2 -0.003870 0.009317 -0.002599 -0.000496 0.001358 0.003297
# 3 -0.004969 -0.002599 0.013736 0.001911 0.013687 -0.000210
# 4 0.004073 -0.000496 0.001911 0.024209 0.015966 -0.000590
# 5 0.003768 0.001358 0.013687 0.015966 0.064290 -0.006802
# 6 -0.003955 0.003297 -0.000210 -0.000590 -0.006802 0.031551
#
#
# Mechanical properties :
#
#
# Convention : Reuss Voigt Hill
#
# Bulk Modulus (GPa) = 53.43187 84.93807 69.18497
# Shear Modulus (GPa) = 26.21159 36.63315 31.42237
#
# Velocity S-wave (km/s) = 3.39666 4.01553 3.71899
# Velocity P-wave (km/s) = 6.23712 7.67370 6.99240
#
# Compressibility (1/GPa) = 0.01871542
#
# Stress axis : x y z
#
# Youngs Moduli (GPa) = 53.94499 107.33279 72.79987
#
# Poissons Ratio (x) = 0.41537 0.36172
# Poissons Ratio (y) = 0.20876 0.18921
# Poissons Ratio (z) = 0.26803 0.27896
#
# Static dielectric constant tensor:
#      x y z
#    x 1.841260 -0.057410 0.013030 
#    y -0.057410 1.862270 -0.006310 
#    z 0.013030 -0.006310 1.850460 
# 
# From -- ./inp_files/340541.got.cif
#   From: 2010.05.17/outbox.cif.g08.bks.cpg/sg2_171_cif.got.tgz:340541.got - 2010.06.03 11:33:40.
