data_PCOD9004361
_publ_section_title
;
Structure prediction by ZEFSAII (Michael W. Deem and Ramdas Pophale) SiO2 
 PCOD9004361
Probable space group: P -1
;
_chemical_formula_sum "Si O2"
_cell_formula_units_Z 12
_cell_length_a 15.544288
_cell_length_b 11.717487
_cell_length_c 11.154879
_cell_angle_alpha 36.879464
_cell_angle_beta 36.064852
_cell_angle_gamma 26.616886
_cell_volume 512.397343
_symmetry_space_group_name_H-M "P -1"
_symmetry_group_IT_number 2
_symmetry_cell_setting 'triclinic'
loop_
_space_group_symop_operation_xyz
x,y,z
-x,-y,-z
loop_
_atom_site_type_symbol
_atom_site_label
_atom_site_fract_x
_atom_site_fract_y
_atom_site_fract_z
Si Si1 0.693439 0.565276 0.029378
Si Si2 0.265642 0.960861 0.282425
Si Si3 0.358391 0.764958 0.775249
Si Si4 0.085513 0.744378 0.734029
Si Si5 0.811608 0.263815 0.772832
Si Si6 0.183975 0.196767 0.432477
O O1 0.800406 0.594308 0.783689
O O2 0.457371 0.834547 0.090007
O O3 0.696946 0.343495 0.170981
O O4 0.804826 0.484300 0.099589
O O5 0.246730 0.748599 0.495380
O O6 0.286137 0.022621 0.340898
O O7 0.051414 0.220132 0.245867
O O8 0.595204 0.529493 0.741561
O O9 0.301153 0.016158 0.568957
O O10 0.232248 0.819685 0.988842
O O11 0.926102 0.021667 0.754295
O O12 0.961090 0.304547 0.594125
#
# Coordination Sequence:
#
# PCOD9004361 Si02
#       6
#     2   2   2   2   2   2
#     4  12  23  38  64  94 120 159 198 249 302 351
#     4  10  21  39  59  92 123 156 200 242 300 358
#     4  11  23  43  65  84 124 160 202 250 292 362
#     4  10  21  37  66  88 119 162 199 243 299 360
#     4  10  22  44  62  88 120 163 200 246 304 347
#     4  11  25  39  63  94 120 158 201 248 299 357
#
# _framework density 23.419325000000001
#
# number of rings (size 3 to 8) (size 9 to 14) (size 15 to 20)
#    0.000    1.333    5.000    1.500    0.000    2.667 
#    0.000    1.667    0.000    0.000    0.000    0.000 
#    0.000    0.000    0.000    0.000    0.000    0.000 
#
# Total GULP energy -67180.363751 kJ/mol
# GULP energy per Si atom -5598.363646 kJ/mol
# Density = 2.336602 g / cm^3
# Si number density = 23.419325 Si / 1000 Ang^3
#
#
#
# Elastic Constant Matrix: (Units=GPa)
#
#
# Indices 1 2 3 4 5 6 
#
# 1 44.8757 16.7974 27.9853 0.4055 18.7649 -10.3581
# 2 16.7974 50.0933 34.1151 7.1947 -4.1036 -26.2056
# 3 27.9853 34.1151 121.8688 -3.5596 2.0077 -30.5974
# 4 0.4055 7.1947 -3.5596 40.5656 -5.3963 14.4453
# 5 18.7649 -4.1036 2.0077 -5.3963 29.7000 -4.6824
# 6 -10.3581 -26.2056 -30.5974 14.4453 -4.6824 35.5381
#
#
#
# Elastic Compliance Matrix: (Units=1/GPa)
#
#
# Indices 1 2 3 4 5 6 
#
# 1 0.044744 -0.020232 -0.007456 0.003123 -0.032170 -0.013805
# 2 -0.020232 0.059288 -0.000265 -0.025276 0.024454 0.051090
# 3 -0.007456 -0.000265 0.012235 -0.001493 0.005064 0.009439
# 4 0.003123 -0.025276 -0.001493 0.041433 -0.003563 -0.036324
# 5 -0.032170 0.024454 0.005064 -0.003563 0.059910 0.022358
# 6 -0.013805 0.051090 0.009439 -0.036324 0.022358 0.087626
#
#
# Mechanical properties :
#
#
# Convention : Reuss Voigt Hill
#
# Bulk Modulus (GPa) = 16.56689 41.62592 29.09640
# Shear Modulus (GPa) = 13.11439 30.35672 21.73556
#
# Velocity S-wave (km/s) = 2.36896 3.60422 3.04978
# Velocity P-wave (km/s) = 3.81733 5.92733 4.98524
#
# Compressibility (1/GPa) = 0.06036137
#
# Stress axis : x y z
#
# Youngs Moduli (GPa) = 22.34953 16.86688 81.73465
#
# Poissons Ratio (x) = 0.34124 0.60941
# Poissons Ratio (y) = 0.45217 0.02165
# Poissons Ratio (z) = 0.16664 0.00447
#
# Static dielectric constant tensor:
#      x y z
#    x 1.905550 0.010500 -0.011900 
#    y 0.010500 1.854850 -0.019350 
#    z -0.011900 -0.019350 1.875300 
# 
# From -- ./inp_files/221944.got.cif
#   From: 2010.05.17/outbox.cif.g08.bks.cpg/sg2_111_cif.got.tgz:221944.got - 2010.06.03 11:33:40.
