data_PCOD9004019
_publ_section_title
;
Structure prediction by ZEFSAII (Michael W. Deem and Ramdas Pophale) SiO2 
 PCOD9004019
Probable space group: P -1
;
_chemical_formula_sum "Si O2"
_cell_formula_units_Z 16
_cell_length_a 14.089722
_cell_length_b 7.543516
_cell_length_c 9.711831
_cell_angle_alpha 93.901646
_cell_angle_beta 102.411800
_cell_angle_gamma 41.662738
_cell_volume 663.292278
_symmetry_space_group_name_H-M "P -1"
_symmetry_group_IT_number 2
_symmetry_cell_setting 'triclinic'
loop_
_space_group_symop_operation_xyz
x,y,z
-x,-y,-z
loop_
_atom_site_type_symbol
_atom_site_label
_atom_site_fract_x
_atom_site_fract_y
_atom_site_fract_z
Si Si1 0.650665 0.437796 0.375962
Si Si2 0.165281 0.086318 0.106815
Si Si3 0.427663 0.914842 0.514343
Si Si4 0.906564 0.395870 0.842334
Si Si5 0.914460 0.303236 0.518748
Si Si6 0.420379 0.251583 0.169332
Si Si7 0.840523 0.905654 0.583984
Si Si8 0.483233 0.752381 0.093479
O O1 0.495923 0.680348 0.416829
O O2 0.749387 0.477372 0.435521
O O3 0.740509 0.159523 0.462601
O O4 0.610363 0.482534 0.206730
O O5 0.121300 0.354384 0.132696
O O6 0.161658 0.016127 0.257690
O O7 0.327122 0.872287 0.078899
O O8 0.044990 0.165656 0.972407
O O9 0.490050 0.792222 0.677805
O O10 0.252658 0.148335 0.452199
O O11 0.500000 0.000000 0.500000
O O12 0.936443 0.314142 0.687203
O O13 0.754727 0.508504 0.845497
O O14 0.000000 0.000000 0.500000
O O15 0.996905 0.319729 0.438842
O O16 0.464560 0.981931 0.155097
O O17 0.468803 0.286282 0.049689
#
# Coordination Sequence:
#
# PCOD9004019 Si02
#       8
#     2   2   2   2   2   2   2   2
#     4  11  22  43  65  87 134 172 213 273 320 387
#     4  10  22  39  63  97 132 166 213 272 322 397
#     4  12  21  40  67  97 123 166 221 274 322 381
#     4  10  21  42  63  93 133 168 213 272 329 380
#     4  10  24  43  64  91 130 173 222 265 318 394
#     4  10  21  37  63  95 124 168 210 266 325 378
#     4  11  25  41  64  96 129 173 216 268 333 382
#     4  10  21  38  62  93 130 164 213 260 325 392
#
# _framework density 24.122095999999999
#
# number of rings (size 3 to 8) (size 9 to 14) (size 15 to 20)
#    0.000    1.500    3.750    1.125    3.500    0.500 
#    0.000    5.625    0.000    0.000    0.000    0.000 
#    0.000    0.000    0.000    0.000    0.000    0.000 
#
# Total GULP energy -89558.804233 kJ/mol
# GULP energy per Si atom -5597.425265 kJ/mol
# Density = 2.406719 g / cm^3
# Si number density = 24.122096 Si / 1000 Ang^3
#
#
#
# Elastic Constant Matrix: (Units=GPa)
#
#
# Indices 1 2 3 4 5 6 
#
# 1 115.6757 28.3705 64.1330 3.5323 5.1583 -38.4481
# 2 28.3705 61.0234 37.6423 -1.4193 -1.5908 -12.9068
# 3 64.1330 37.6423 225.2620 -12.7173 -6.5093 -36.0652
# 4 3.5323 -1.4193 -12.7173 43.0861 -4.3408 -1.1958
# 5 5.1583 -1.5908 -6.5093 -4.3408 43.6646 -1.7045
# 6 -38.4481 -12.9068 -36.0652 -1.1958 -1.7045 50.1375
#
#
#
# Elastic Compliance Matrix: (Units=1/GPa)
#
#
# Indices 1 2 3 4 5 6 
#
# 1 0.013377 -0.003337 -0.002171 -0.001825 -0.001905 0.007729
# 2 -0.003337 0.019473 -0.002098 0.000411 0.000870 0.000984
# 3 -0.002171 -0.002098 0.005905 0.002047 0.001347 0.002137
# 4 -0.001825 0.000411 0.002047 0.024301 0.002985 0.000860
# 5 -0.001905 0.000870 0.001347 0.002985 0.023680 0.000608
# 6 0.007729 0.000984 0.002137 0.000860 0.000608 0.027703
#
#
# Mechanical properties :
#
#
# Convention : Reuss Voigt Hill
#
# Bulk Modulus (GPa) = 42.47832 73.58362 58.03097
# Shear Modulus (GPa) = 36.36380 45.49866 40.93123
#
# Velocity S-wave (km/s) = 3.88685 4.34773 4.12374
# Velocity P-wave (km/s) = 6.14747 7.46824 6.83981
#
# Compressibility (1/GPa) = 0.02354142
#
# Stress axis : x y z
#
# Youngs Moduli (GPa) = 74.75673 51.35279 169.35714
#
# Poissons Ratio (x) = 0.17136 0.36776
# Poissons Ratio (y) = 0.24946 0.35533
# Poissons Ratio (z) = 0.16233 0.10774
#
# Static dielectric constant tensor:
#      x y z
#    x 2.055280 0.072160 -0.044490 
#    y 0.072160 2.005460 -0.008580 
#    z -0.044490 -0.008580 1.865270 
# 
# From -- ./inp_files/271220.got.cif
#   From: 2010.05.17/outbox.cif.g08.bks.cpg/sg2_136_cif.got.tgz:271220.got - 2010.06.03 11:33:40.
