data_PCOD9004245
_publ_section_title
;
Structure prediction by ZEFSAII (Michael W. Deem and Ramdas Pophale) SiO2 
 PCOD9004245
Probable space group: P -1
;
_chemical_formula_sum "Si O2"
_cell_formula_units_Z 16
_cell_length_a 21.671933
_cell_length_b 8.555359
_cell_length_c 4.969911
_cell_angle_alpha 79.226180
_cell_angle_beta 119.701461
_cell_angle_gamma 118.227318
_cell_volume 703.870938
_symmetry_space_group_name_H-M "P -1"
_symmetry_group_IT_number 2
_symmetry_cell_setting 'triclinic'
loop_
_space_group_symop_operation_xyz
x,y,z
-x,-y,-z
loop_
_atom_site_type_symbol
_atom_site_label
_atom_site_fract_x
_atom_site_fract_y
_atom_site_fract_z
Si Si1 0.946989 0.805458 0.557251
Si Si2 0.835896 0.966335 0.362018
Si Si3 0.742649 0.408304 0.030014
Si Si4 0.546755 0.384042 0.120142
Si Si5 0.272363 0.388207 0.584135
Si Si6 0.095736 0.792805 0.083349
Si Si7 0.088120 0.516137 0.779157
Si Si8 0.443060 0.815402 0.289419
O O1 0.880880 0.842256 0.549187
O O2 0.921532 0.672293 0.293958
O O3 0.005204 0.762710 0.883253
O O4 0.000000 0.000000 0.500000
O O5 0.752237 0.816977 0.328110
O O6 0.854062 0.051941 0.076776
O O7 0.871872 0.132930 0.581913
O O8 0.741723 0.552719 0.762318
O O9 0.653039 0.242823 0.901469
O O10 0.759918 0.507776 0.319314
O O11 0.817764 0.370219 0.143181
O O12 0.635153 0.514201 0.184176
O O13 0.550613 0.324553 0.448810
O O14 0.500000 0.500000 0.000000
O O15 0.525479 0.219409 0.918941
O O16 0.095881 0.609985 0.055253
O O17 0.000000 0.500000 0.500000
O O18 0.500000 0.000000 0.500000
#
# Coordination Sequence:
#
# PCOD9004245 Si02
#       8
#     2   2   2   2   2   2   2   2
#     4   9  19  37  61  82 107 154 204 243 294 355
#     4  11  20  39  58  83 115 149 205 242 299 358
#     4  10  21  40  62  91 121 164 211 243 307 372
#     4  10  21  40  63  95 127 158 208 252 322 369
#     4  10  21  37  65  88 117 163 204 254 296 373
#     4  10  23  37  54  86 117 149 193 255 304 351
#     4  10  21  42  60  88 126 163 201 261 311 352
#     4  10  21  40  66  95 127 168 206 253 310 387
#
# _framework density 22.731439999999999
#
# number of rings (size 3 to 8) (size 9 to 14) (size 15 to 20)
#    0.000    2.000    1.250    1.875    1.750    1.000 
#    6.750    6.875    0.000    0.000    0.000    0.000 
#    0.000    0.000    0.000    0.000    0.000    0.000 
#
# Total GULP energy -89075.227481 kJ/mol
# GULP energy per Si atom -5567.201718 kJ/mol
# Density = 2.267970 g / cm^3
# Si number density = 22.731440 Si / 1000 Ang^3
#
#
#
# Elastic Constant Matrix: (Units=GPa)
#
#
# Indices 1 2 3 4 5 6 
#
# 1 79.0285 16.1555 13.8221 -4.0176 5.7088 -27.8128
# 2 16.1555 79.9271 21.7046 12.8691 17.3461 -7.6471
# 3 13.8221 21.7046 60.1234 9.4203 0.6414 -12.1379
# 4 -4.0176 12.8691 9.4203 33.0014 7.5823 -6.9242
# 5 5.7088 17.3461 0.6414 7.5823 32.1725 0.7289
# 6 -27.8128 -7.6471 -12.1379 -6.9242 0.7289 38.2472
#
#
#
# Elastic Compliance Matrix: (Units=1/GPa)
#
#
# Indices 1 2 3 4 5 6 
#
# 1 0.019236 -0.002332 -0.001842 0.007788 -0.004281 0.014429
# 2 -0.002332 0.016476 -0.004846 -0.003703 -0.007489 -0.000467
# 3 -0.001842 -0.004846 0.020078 -0.004179 0.003451 0.003241
# 4 0.007788 -0.003703 -0.004179 0.038079 -0.008518 0.010653
# 5 -0.004281 -0.007489 0.003451 -0.008518 0.037950 -0.005781
# 6 0.014429 -0.000467 0.003241 0.010653 -0.005781 0.039612
#
#
# Mechanical properties :
#
#
# Convention : Reuss Voigt Hill
#
# Bulk Modulus (GPa) = 26.49093 35.82706 31.15899
# Shear Modulus (GPa) = 24.74610 31.84400 28.29505
#
# Velocity S-wave (km/s) = 3.30302 3.74689 3.53193
# Velocity P-wave (km/s) = 5.12111 5.87488 5.51089
#
# Compressibility (1/GPa) = 0.03774878
#
# Stress axis : x y z
#
# Youngs Moduli (GPa) = 51.98666 60.69604 49.80697
#
# Poissons Ratio (x) = 0.14155 0.09174
# Poissons Ratio (y) = 0.12124 0.24136
# Poissons Ratio (z) = 0.09576 0.29412
#
# Static dielectric constant tensor:
#      x y z
#    x 2.767280 0.749800 -0.382240 
#    y 0.749800 2.645970 -0.426260 
#    z -0.382240 -0.426260 2.144030 
# 
# From -- ./inp_files/117201.got.cif
#   From: 2010.05.17/outbox.cif.g08.bks.cpg/sg2_59_cif.got.tgz:117201.got - 2010.06.03 11:33:40.
