data_PCOD9004165
_publ_section_title
;
Structure prediction by ZEFSAII (Michael W. Deem and Ramdas Pophale) SiO2 
 PCOD9004165
Probable space group: P -1
;
_chemical_formula_sum "Si O2"
_cell_formula_units_Z 14
_cell_length_a 8.468617
_cell_length_b 19.508315
_cell_length_c 23.257765
_cell_angle_alpha 163.290525
_cell_angle_beta 144.653022
_cell_angle_gamma 30.719205
_cell_volume 563.564468
_symmetry_space_group_name_H-M "P -1"
_symmetry_group_IT_number 2
_symmetry_cell_setting 'triclinic'
loop_
_space_group_symop_operation_xyz
x,y,z
-x,-y,-z
loop_
_atom_site_type_symbol
_atom_site_label
_atom_site_fract_x
_atom_site_fract_y
_atom_site_fract_z
Si Si1 0.263486 0.319425 0.749649
Si Si2 0.313269 0.528499 0.523693
Si Si3 0.549265 0.041063 0.886648
Si Si4 0.118529 0.860839 0.279335
Si Si5 0.853945 0.847020 0.299318
Si Si6 0.372528 0.264743 0.134738
Si Si7 0.805508 0.817298 0.675105
O O1 0.595046 0.264757 0.780533
O O2 0.229386 0.304768 0.797004
O O3 0.992765 0.602494 0.874572
O O4 0.173050 0.100901 0.517311
O O5 0.500000 0.500000 0.500000
O O6 0.251905 0.275562 0.294774
O O7 0.532617 0.529789 0.641096
O O8 0.003607 0.800539 0.664503
O O9 0.734691 0.039909 0.883128
O O10 0.207023 0.072777 0.795406
O O11 0.515589 0.208607 0.067954
O O12 0.093634 0.701421 0.200968
O O13 0.539874 0.081150 0.367191
O O14 0.000000 0.000000 0.500000
O O15 0.500000 0.000000 0.000000
O O16 0.000000 0.500000 0.500000
#
# Coordination Sequence:
#
# PCOD9004165 Si02
#       7
#     2   2   2   2   2   2   2
#     4  10  21  37  64  94 126 175 220 265 332 391
#     4  11  22  39  66  88 129 173 212 270 326 384
#     4  10  21  42  62  91 131 165 218 273 324 394
#     4   9  19  39  65  92 126 168 219 270 329 392
#     4   9  19  36  63  96 126 164 220 269 320 393
#     4  12  25  40  62  99 132 172 223 271 326 394
#     4   9  21  39  64  96 128 173 217 267 333 390
#
# _framework density 24.84188
#
# number of rings (size 3 to 8) (size 9 to 14) (size 15 to 20)
#    0.000    2.000    2.857    0.000    4.000    2.286 
#    0.000    4.286    0.000    0.000    0.000    0.000 
#    0.000    0.000    0.000    0.000    0.000    0.000 
#
# Total GULP energy -77990.205187 kJ/mol
# GULP energy per Si atom -5570.728942 kJ/mol
# Density = 2.478534 g / cm^3
# Si number density = 24.841880 Si / 1000 Ang^3
#
#
#
# Elastic Constant Matrix: (Units=GPa)
#
#
# Indices 1 2 3 4 5 6 
#
# 1 193.5756 53.0153 48.5904 9.5384 -54.7487 -13.6437
# 2 53.0153 102.4658 14.5490 9.8090 -5.0197 -4.8392
# 3 48.5904 14.5490 90.3650 -14.3365 -15.1941 10.1051
# 4 9.5384 9.8090 -14.3365 41.6852 3.2436 -6.5909
# 5 -54.7487 -5.0197 -15.1941 3.2436 52.0708 0.7117
# 6 -13.6437 -4.8392 10.1051 -6.5909 0.7117 39.4470
#
#
#
# Elastic Compliance Matrix: (Units=1/GPa)
#
#
# Indices 1 2 3 4 5 6 
#
# 1 0.010341 -0.003823 -0.004247 -0.003105 0.009410 0.003507
# 2 -0.003823 0.011871 -0.000658 -0.001910 -0.002949 0.000037
# 3 -0.004247 -0.000658 0.014740 0.005542 -0.000513 -0.004391
# 4 -0.003105 -0.001910 0.005542 0.027643 -0.003580 0.001955
# 5 0.009410 -0.002949 -0.000513 -0.003580 0.028862 0.001906
# 6 0.003507 0.000037 -0.004391 0.001955 0.001906 0.027985
#
#
# Mechanical properties :
#
#
# Convention : Reuss Voigt Hill
#
# Bulk Modulus (GPa) = 51.29864 68.74620 60.02242
# Shear Modulus (GPa) = 34.38842 44.65738 39.52290
#
# Velocity S-wave (km/s) = 3.72464 4.24449 3.99303
# Velocity P-wave (km/s) = 6.26037 7.19406 6.74339
#
# Compressibility (1/GPa) = 0.01949369
#
# Stress axis : x y z
#
# Youngs Moduli (GPa) = 96.70343 84.23830 67.84262
#
# Poissons Ratio (x) = 0.32207 0.28816
# Poissons Ratio (y) = 0.36973 0.04466
# Poissons Ratio (z) = 0.41074 0.05546
#
# Static dielectric constant tensor:
#      x y z
#    x 2.297760 0.075660 -0.008640 
#    y 0.075660 2.237990 -0.127860 
#    z -0.008640 -0.127860 2.061470 
# 
# From -- ./inp_files/353197.got.cif
#   From: 2010.05.17/outbox.cif.g08.bks.cpg/sg2_177_cif.got.tgz:353197.got - 2010.06.03 11:33:40.
