data_PCOD9004934
_publ_section_title
;
Structure prediction by ZEFSAII (Michael W. Deem and Ramdas Pophale) SiO2 
 PCOD9004934
Probable space group: P -1
;
_chemical_formula_sum "Si O2"
_cell_formula_units_Z 16
_cell_length_a 13.520219
_cell_length_b 13.352292
_cell_length_c 5.197665
_cell_angle_alpha 99.617082
_cell_angle_beta 120.341416
_cell_angle_gamma 105.695914
_cell_volume 725.640166
_symmetry_space_group_name_H-M "P -1"
_symmetry_group_IT_number 2
_symmetry_cell_setting 'triclinic'
loop_
_space_group_symop_operation_xyz
x,y,z
-x,-y,-z
loop_
_atom_site_type_symbol
_atom_site_label
_atom_site_fract_x
_atom_site_fract_y
_atom_site_fract_z
Si Si1 0.248494 0.285150 0.806652
Si Si2 0.510528 0.893956 0.699376
Si Si3 0.382370 0.250641 0.456180
Si Si4 0.329501 0.697158 0.676528
Si Si5 0.301326 0.881172 0.051221
Si Si6 0.932081 0.369772 0.916458
Si Si7 0.028409 0.748447 0.590612
Si Si8 0.600352 0.465537 0.976140
O O1 0.317043 0.261898 0.638621
O O2 0.099252 0.235279 0.554194
O O3 0.290600 0.241720 0.096924
O O4 0.298566 0.420467 0.960392
O O5 0.577261 0.851520 0.546265
O O6 0.460199 0.790835 0.784053
O O7 0.386783 0.903124 0.426826
O O8 0.614451 0.013729 0.970336
O O9 0.511877 0.363713 0.636176
O O10 0.217847 0.663298 0.308254
O O11 0.294092 0.765510 0.877495
O O12 0.339999 0.590517 0.766525
O O13 0.156211 0.858669 0.866725
O O14 0.962356 0.300248 0.699408
O O15 0.973217 0.338887 0.228868
O O16 0.000000 0.500000 0.000000
O O17 0.500000 0.500000 0.000000
#
# Coordination Sequence:
#
# PCOD9004934 Si02
#       8
#     2   2   2   2   2   2   2   2
#     4  11  24  42  64  91 131 175 207 256 314 380
#     4  11  21  40  66  90 126 159 220 269 328 365
#     4  11  23  41  63  94 125 169 215 262 309 375
#     4  11  21  39  61  94 130 162 210 261 320 381
#     4  10  23  40  63  95 120 170 206 277 322 370
#     4  11  23  38  61  94 128 171 208 255 315 378
#     4  11  23  44  61  92 130 168 215 258 316 381
#     4  10  21  38  59  93 125 167 207 251 309 374
#
# _framework density 22.049496000000001
#
# number of rings (size 3 to 8) (size 9 to 14) (size 15 to 20)
#    0.000    1.250    2.500    4.125    0.000    4.000 
#    0.000    1.250    0.000    0.000    0.000    0.000 
#    0.000    0.000    0.000    0.000    0.000    0.000 
#
# Total GULP energy -89447.697033 kJ/mol
# GULP energy per Si atom -5590.481065 kJ/mol
# Density = 2.199931 g / cm^3
# Si number density = 22.049496 Si / 1000 Ang^3
#
#
#
# Elastic Constant Matrix: (Units=GPa)
#
#
# Indices 1 2 3 4 5 6 
#
# 1 79.2448 17.5635 40.3136 -1.7388 14.3417 0.6908
# 2 17.5635 61.5377 18.9895 3.3901 6.8583 0.6712
# 3 40.3136 18.9895 101.7168 -12.6983 21.0444 -2.2719
# 4 -1.7388 3.3901 -12.6983 29.2277 3.2228 5.6314
# 5 14.3417 6.8583 21.0444 3.2228 43.6496 2.5918
# 6 0.6908 0.6712 -2.2719 5.6314 2.5918 31.0266
#
#
#
# Elastic Compliance Matrix: (Units=1/GPa)
#
#
# Indices 1 2 3 4 5 6 
#
# 1 0.016487 -0.002650 -0.005711 -0.000880 -0.002159 -0.000388
# 2 -0.002650 0.018058 -0.002647 -0.003377 -0.000449 0.000125
# 3 -0.005711 -0.002647 0.014528 0.006769 -0.005239 0.000457
# 4 -0.000880 -0.003377 0.006769 0.039221 -0.004976 -0.006115
# 5 -0.002159 -0.000449 -0.005239 -0.004976 0.026681 -0.001651
# 6 -0.000388 0.000125 0.000457 -0.006115 -0.001651 0.033518
#
#
# Mechanical properties :
#
#
# Convention : Reuss Voigt Hill
#
# Bulk Modulus (GPa) = 36.95980 44.02584 40.49282
# Shear Modulus (GPa) = 27.85092 31.82295 29.83694
#
# Velocity S-wave (km/s) = 3.55788 3.80314 3.68255
# Velocity P-wave (km/s) = 5.80315 6.26860 6.04036
#
# Compressibility (1/GPa) = 0.02705642
#
# Stress axis : x y z
#
# Youngs Moduli (GPa) = 60.65485 55.37729 68.83224
#
# Poissons Ratio (x) = 0.14673 0.39313
# Poissons Ratio (y) = 0.16072 0.18220
# Poissons Ratio (z) = 0.34643 0.14659
#
# Static dielectric constant tensor:
#      x y z
#    x 1.863710 0.013970 -0.018190 
#    y 0.013970 1.829330 0.020720 
#    z -0.018190 0.020720 1.838570 
# 
# From -- ./inp_files/82751.got.cif
#   From: 2010.05.17/outbox.cif.g08.bks.cpg/sg2_42_cif.got.tgz:82751.got - 2010.06.03 11:33:40.
