data_PCOD9004291
_publ_section_title
;
Structure prediction by ZEFSAII (Michael W. Deem and Ramdas Pophale) SiO2 
 PCOD9004291
Probable space group: P -1
;
_chemical_formula_sum "Si O2"
_cell_formula_units_Z 12
_cell_length_a 7.378327
_cell_length_b 4.979982
_cell_length_c 14.553184
_cell_angle_alpha 118.536394
_cell_angle_beta 105.500580
_cell_angle_gamma 65.952829
_cell_volume 427.246326
_symmetry_space_group_name_H-M "P -1"
_symmetry_group_IT_number 2
_symmetry_cell_setting 'triclinic'
loop_
_space_group_symop_operation_xyz
x,y,z
-x,-y,-z
loop_
_atom_site_type_symbol
_atom_site_label
_atom_site_fract_x
_atom_site_fract_y
_atom_site_fract_z
Si Si1 0.680490 0.487818 0.421305
Si Si2 0.565614 0.309342 0.741546
Si Si3 0.775299 0.845131 0.852971
Si Si4 0.056764 0.634906 0.410823
Si Si5 0.132472 0.114592 0.937672
Si Si6 0.786706 0.787680 0.243749
O O1 0.495431 0.723207 0.378136
O O2 0.726714 0.531045 0.541416
O O3 0.887072 0.501519 0.405872
O O4 0.684331 0.127650 0.339300
O O5 0.682402 0.560234 0.803374
O O6 0.352566 0.420212 0.782751
O O7 0.688706 0.015536 0.773408
O O8 0.720422 0.997129 0.973870
O O9 0.994606 0.885502 0.884681
O O10 0.004934 0.657249 0.299738
O O11 0.000000 0.000000 0.500000
O O12 0.209552 0.136253 0.849465
O O13 0.000000 0.500000 0.000000
#
# Coordination Sequence:
#
# PCOD9004291 Si02
#       6
#     2   2   2   2   2   2
#     4   9  17  34  59  95 124 151 195 254 305 353
#     4  11  21  40  63  93 119 157 203 259 303 353
#     4  11  24  42  60  86 123 166 200 252 310 360
#     4   8  16  31  57  93 124 153 190 251 302 358
#     4  11  25  44  60  85 123 170 206 246 304 368
#     4  10  21  37  65  94 119 159 209 251 296 358
#
# _framework density 28.086842999999998
#
# number of rings (size 3 to 8) (size 9 to 14) (size 15 to 20)
#    0.000    2.000    3.333    0.000    0.000    6.667 
#    0.000    0.000    0.000    2.000    0.000    0.000 
#    0.000    0.000    0.000    0.000    0.000    0.000 
#
# Total GULP energy -67079.966894 kJ/mol
# GULP energy per Si atom -5589.997241 kJ/mol
# Density = 2.802292 g / cm^3
# Si number density = 28.086843 Si / 1000 Ang^3
#
#
#
# Elastic Constant Matrix: (Units=GPa)
#
#
# Indices 1 2 3 4 5 6 
#
# 1 108.5987 49.4033 73.7651 5.8517 7.0428 33.3861
# 2 49.4033 171.1985 61.7476 -4.9578 4.7823 37.0165
# 3 73.7651 61.7476 194.7468 -21.4628 10.6673 29.4495
# 4 5.8517 -4.9578 -21.4628 58.4999 8.1416 7.4712
# 5 7.0428 4.7823 10.6673 8.1416 38.7357 -6.2162
# 6 33.3861 37.0165 29.4495 7.4712 -6.2162 58.6564
#
#
#
# Elastic Compliance Matrix: (Units=1/GPa)
#
#
# Indices 1 2 3 4 5 6 
#
# 1 0.014759 -0.001577 -0.004517 -0.002416 -0.001538 -0.004992
# 2 -0.001577 0.007513 -0.001074 0.001011 -0.001127 -0.003552
# 3 -0.004517 -0.001074 0.007948 0.003779 -0.002264 -0.001463
# 4 -0.002416 0.001011 0.003779 0.020147 -0.005655 -0.004326
# 5 -0.001538 -0.001127 -0.002264 -0.005655 0.029094 0.006527
# 6 -0.004992 -0.003552 -0.001463 -0.004326 0.006527 0.024109
#
#
# Mechanical properties :
#
#
# Convention : Reuss Voigt Hill
#
# Bulk Modulus (GPa) = 62.96397 93.81956 78.39176
# Shear Modulus (GPa) = 40.58411 50.48694 45.53553
#
# Velocity S-wave (km/s) = 3.80538 4.24433 4.03083
# Velocity P-wave (km/s) = 6.46329 7.58255 7.04518
#
# Compressibility (1/GPa) = 0.01588210
#
# Stress axis : x y z
#
# Youngs Moduli (GPa) = 67.75674 133.10982 125.81628
#
# Poissons Ratio (x) = 0.20995 0.56833
# Poissons Ratio (y) = 0.10687 0.13516
# Poissons Ratio (z) = 0.30607 0.14299
#
# Static dielectric constant tensor:
#      x y z
#    x 2.364750 -0.207230 -0.033990 
#    y -0.207230 2.314620 -0.026550 
#    z -0.033990 -0.026550 2.233050 
# 
# From -- ./inp_files/93490.got.cif
#   From: 2010.05.17/outbox.cif.g08.bks.cpg/sg2_47_cif.got.tgz:93490.got - 2010.06.03 11:33:40.
