data_PCOD9004657
_publ_section_title
;
Structure prediction by ZEFSAII (Michael W. Deem and Ramdas Pophale) SiO2 
 PCOD9004657
Probable space group: P -1
;
_chemical_formula_sum "Si O2"
_cell_formula_units_Z 14
_cell_length_a 9.934725
_cell_length_b 14.684519
_cell_length_c 7.525348
_cell_angle_alpha 146.125826
_cell_angle_beta 93.578479
_cell_angle_gamma 102.075753
_cell_volume 539.307554
_symmetry_space_group_name_H-M "P -1"
_symmetry_group_IT_number 2
_symmetry_cell_setting 'triclinic'
loop_
_space_group_symop_operation_xyz
x,y,z
-x,-y,-z
loop_
_atom_site_type_symbol
_atom_site_label
_atom_site_fract_x
_atom_site_fract_y
_atom_site_fract_z
Si Si1 0.658501 0.122840 0.404311
Si Si2 0.289612 0.196056 0.231145
Si Si3 0.484475 0.755122 0.968540
Si Si4 0.973701 0.054171 0.837840
Si Si5 0.958986 0.263103 0.852058
Si Si6 0.732724 0.435207 0.649301
Si Si7 0.640676 0.726407 0.268976
O O1 0.644797 0.263493 0.496549
O O2 0.793392 0.229472 0.728205
O O3 0.709349 0.000651 0.083024
O O4 0.523094 0.960993 0.240796
O O5 0.384523 0.272450 0.178663
O O6 0.383883 0.326657 0.611823
O O7 0.114039 0.156119 0.152956
O O8 0.325048 0.624267 0.651751
O O9 0.515450 0.735105 0.143669
O O10 0.985165 0.219803 0.983989
O O11 0.022572 0.905294 0.515604
O O12 0.791374 0.926957 0.629416
O O13 0.086074 0.469919 0.154802
O O14 0.697128 0.598275 0.967301
#
# Coordination Sequence:
#
# PCOD9004657 Si02
#       7
#     2   2   2   2   2   2   2
#     4   9  19  38  57  78 113 145 178 224 273 322
#     4   9  20  34  59  79 109 146 183 219 268 331
#     4  10  21  38  57  78 115 147 178 218 275 330
#     4   9  15  32  53  82 107 140 182 227 263 319
#     4   9  16  31  58  80 106 142 184 219 270 319
#     4  11  21  32  59  85 110 142 181 228 273 314
#     4  11  20  35  60  82 106 145 188 223 265 322
#
# _framework density 25.959212999999998
#
# number of rings (size 3 to 8) (size 9 to 14) (size 15 to 20)
#    0.857    1.429    1.429    3.429    0.000    0.571 
#    0.000    0.714    6.286    1.714    0.000    0.000 
#    0.000    0.000    0.000    0.000    0.000    0.000 
#
# Total GULP energy -78151.162904 kJ/mol
# GULP energy per Si atom -5582.225922 kJ/mol
# Density = 2.590013 g / cm^3
# Si number density = 25.959213 Si / 1000 Ang^3
#
#
#
# Elastic Constant Matrix: (Units=GPa)
#
#
# Indices 1 2 3 4 5 6 
#
# 1 37.1432 -2.4286 26.2339 -10.4252 12.1476 -12.2913
# 2 -2.4286 112.2186 52.9972 -21.2591 -3.5605 -18.2704
# 3 26.2339 52.9972 139.0857 -29.5028 31.4488 -13.8308
# 4 -10.4252 -21.2591 -29.5028 43.8312 0.9461 11.8432
# 5 12.1476 -3.5605 31.4488 0.9461 40.1572 -2.8206
# 6 -12.2913 -18.2704 -13.8308 11.8432 -2.8206 31.3254
#
#
#
# Elastic Compliance Matrix: (Units=1/GPa)
#
#
# Indices 1 2 3 4 5 6 
#
# 1 0.039935 0.007055 -0.006552 0.004672 -0.005406 0.014639
# 2 0.007055 0.013907 -0.006541 0.001832 0.004720 0.007724
# 3 -0.006552 -0.006541 0.014098 0.005860 -0.010007 -0.003278
# 4 0.004672 0.001832 0.005860 0.030739 -0.007039 -0.006767
# 5 -0.005406 0.004720 -0.010007 -0.007039 0.035101 0.002036
# 6 0.014639 0.007724 -0.003278 -0.006767 0.002036 0.043466
#
#
# Mechanical properties :
#
#
# Convention : Reuss Voigt Hill
#
# Bulk Modulus (GPa) = 17.90012 49.11694 33.50853
# Shear Modulus (GPa) = 24.04509 37.17244 30.60877
#
# Velocity S-wave (km/s) = 3.04676 3.78822 3.43754
# Velocity P-wave (km/s) = 4.39175 6.17220 5.35647
#
# Compressibility (1/GPa) = 0.05586555
#
# Stress axis : x y z
#
# Youngs Moduli (GPa) = 25.04068 71.90511 70.93445
#
# Poissons Ratio (x) = -0.50732 0.46475
# Poissons Ratio (y) = -0.17667 0.46395
# Poissons Ratio (z) = 0.16406 0.47030
#
# Static dielectric constant tensor:
#      x y z
#    x 2.103260 0.099850 0.004260 
#    y 0.099850 2.101430 -0.005520 
#    z 0.004260 -0.005520 2.012580 
# 
# From -- ./inp_files/237260.got.cif
#   From: 2010.05.17/outbox.cif.g08.bks.cpg/sg2_119_cif.got.tgz:237260.got - 2010.06.03 11:33:40.
