data_PCOD9004378
_publ_section_title
;
Structure prediction by ZEFSAII (Michael W. Deem and Ramdas Pophale) SiO2 
 PCOD9004378
Probable space group: P -1
;
_chemical_formula_sum "Si O2"
_cell_formula_units_Z 14
_cell_length_a 14.668816
_cell_length_b 20.135800
_cell_length_c 12.366789
_cell_angle_alpha 30.708567
_cell_angle_beta 29.647457
_cell_angle_gamma 22.242964
_cell_volume 653.389011
_symmetry_space_group_name_H-M "P -1"
_symmetry_group_IT_number 2
_symmetry_cell_setting 'triclinic'
loop_
_space_group_symop_operation_xyz
x,y,z
-x,-y,-z
loop_
_atom_site_type_symbol
_atom_site_label
_atom_site_fract_x
_atom_site_fract_y
_atom_site_fract_z
Si Si1 0.191868 0.202360 0.669923
Si Si2 0.377578 0.423854 0.771504
Si Si3 0.762155 0.744145 0.997035
Si Si4 0.428073 0.152182 0.708734
Si Si5 0.261981 0.972599 0.733472
Si Si6 0.387503 0.457737 0.266034
Si Si7 0.276245 0.710500 0.198005
O O1 0.227062 0.186167 0.784382
O O2 0.451423 0.140884 0.443840
O O3 0.920223 0.403723 0.636926
O O4 0.212724 0.058826 0.782322
O O5 0.500000 0.500000 0.500000
O O6 0.542487 0.319092 0.856711
O O7 0.071371 0.587814 0.881597
O O8 0.381529 0.301973 0.854048
O O9 0.654835 0.934864 0.797042
O O10 0.699075 0.762857 0.162376
O O11 0.506200 0.254712 0.437382
O O12 0.253812 0.823461 0.964848
O O13 0.030023 0.149283 0.652338
O O14 0.394338 0.523003 0.285468
O O15 0.500000 0.500000 0.000000
#
# Coordination Sequence:
#
# PCOD9004378 Si02
#       7
#     2   2   2   2   2   2   2
#     4  10  21  37  66  91 129 173 211 274 338 393
#     4  11  24  45  72  97 129 176 231 286 329 389
#     4  10  26  46  68 100 130 182 234 269 338 399
#     4  11  23  45  65  93 139 176 220 279 330 405
#     4   9  20  38  62  99 122 165 223 267 339 398
#     4  11  24  39  63 101 133 176 221 268 346 411
#     4  10  21  38  63  91 129 164 218 282 324 396
#
# _framework density 21.426746000000001
#
# number of rings (size 3 to 8) (size 9 to 14) (size 15 to 20)
#    0.000    1.714    0.000    3.000    6.000    0.000 
#    2.571    2.143    0.000    0.000    0.000    0.000 
#    0.000    0.000    0.000    0.000    0.000    0.000 
#
# Total GULP energy -78118.762017 kJ/mol
# GULP energy per Si atom -5579.911573 kJ/mol
# Density = 2.137798 g / cm^3
# Si number density = 21.426746 Si / 1000 Ang^3
#
#
#
# Elastic Constant Matrix: (Units=GPa)
#
#
# Indices 1 2 3 4 5 6 
#
# 1 177.6613 54.4460 41.2885 8.5637 1.2656 0.0636
# 2 54.4460 82.5524 54.3731 -1.2175 -3.3955 2.1646
# 3 41.2885 54.3731 107.4214 -6.2745 -13.8477 3.0641
# 4 8.5637 -1.2175 -6.2745 30.0047 -5.4996 -8.5029
# 5 1.2656 -3.3955 -13.8477 -5.4996 29.0003 1.0299
# 6 0.0636 2.1646 3.0641 -8.5029 1.0299 32.7060
#
#
#
# Elastic Compliance Matrix: (Units=1/GPa)
#
#
# Indices 1 2 3 4 5 6 
#
# 1 0.007332 -0.004239 -0.001076 -0.002928 -0.001873 -0.000335
# 2 -0.004239 0.020892 -0.009183 -0.000348 -0.001800 -0.000548
# 3 -0.001076 -0.009183 0.015570 0.004552 0.007266 0.000106
# 4 -0.002928 -0.000348 0.004552 0.039545 0.009419 0.009586
# 5 -0.001873 -0.001800 0.007266 0.009419 0.039586 0.000644
# 6 -0.000335 -0.000548 0.000106 0.009586 0.000644 0.033074
#
#
# Mechanical properties :
#
#
# Convention : Reuss Voigt Hill
#
# Bulk Modulus (GPa) = 67.56440 74.20558 70.88499
# Shear Modulus (GPa) = 26.32576 32.84402 29.58489
#
# Velocity S-wave (km/s) = 3.50900 3.91941 3.71987
# Velocity P-wave (km/s) = 6.92955 7.42898 7.18361
#
# Compressibility (1/GPa) = 0.01480069
#
# Stress axis : x y z
#
# Youngs Moduli (GPa) = 136.38272 47.86415 64.22609
#
# Poissons Ratio (x) = 0.20289 0.06908
# Poissons Ratio (y) = 0.57811 0.58976
# Poissons Ratio (z) = 0.14670 0.43951
#
# Static dielectric constant tensor:
#      x y z
#    x 1.814790 -0.003350 0.012620 
#    y -0.003350 1.835280 -0.000150 
#    z 0.012620 -0.000150 1.822920 
# 
# From -- ./inp_files/457596.got.cif
#   From: 2010.05.17/outbox.cif.g08.bks.cpg/sg2_229_cif.got.tgz:457596.got - 2010.06.03 11:33:40.
