data_PCOD9004652
_publ_section_title
;
Structure prediction by ZEFSAII (Michael W. Deem and Ramdas Pophale) SiO2 
 PCOD9004652
Probable space group: P -1
;
_chemical_formula_sum "Si O2"
_cell_formula_units_Z 16
_cell_length_a 11.747094
_cell_length_b 14.577957
_cell_length_c 11.989103
_cell_angle_alpha 141.395755
_cell_angle_beta 133.962438
_cell_angle_gamma 29.534308
_cell_volume 630.791690
_symmetry_space_group_name_H-M "P -1"
_symmetry_group_IT_number 2
_symmetry_cell_setting 'triclinic'
loop_
_space_group_symop_operation_xyz
x,y,z
-x,-y,-z
loop_
_atom_site_type_symbol
_atom_site_label
_atom_site_fract_x
_atom_site_fract_y
_atom_site_fract_z
Si Si1 0.403464 0.883286 0.444557
Si Si2 0.785607 0.423514 0.189310
Si Si3 0.243628 0.674460 0.537058
Si Si4 0.672597 0.789648 0.755506
Si Si5 0.939734 0.369194 0.835666
Si Si6 0.315373 0.953667 0.844296
Si Si7 0.345488 0.589955 0.143214
Si Si8 0.009122 0.326537 0.470791
O O1 0.232373 0.101761 0.465510
O O2 0.624284 0.679460 0.328598
O O3 0.509785 0.881741 0.625512
O O4 0.299803 0.794788 0.327429
O O5 0.609738 0.416247 0.112768
O O6 0.989344 0.312994 0.312048
O O7 0.811330 0.357852 0.017401
O O8 0.500000 0.500000 0.500000
O O9 0.085871 0.693287 0.359781
O O10 0.206657 0.622468 0.579659
O O11 0.203927 0.873024 0.710639
O O12 0.918811 0.546767 0.662364
O O13 0.558541 0.785469 0.782229
O O14 0.667640 0.960989 0.952877
O O15 0.714394 0.472893 0.853091
O O16 0.148913 0.152936 0.837367
O O17 0.000000 0.500000 0.000000
#
# Coordination Sequence:
#
# PCOD9004652 Si02
#       8
#     2   2   2   2   2   2   2   2
#     4   9  18  35  64  94 130 173 218 278 331 388
#     4   8  19  37  65  98 132 175 226 272 326 391
#     4  12  23  39  63  96 131 175 221 262 332 402
#     4  10  21  38  56  89 134 178 212 272 330 388
#     4  12  25  39  67 101 135 174 217 271 334 400
#     4  11  23  40  58  88 136 177 219 267 328 394
#     4   9  18  41  61  98 138 175 219 277 331 387
#     4  11  19  36  63  97 129 168 219 272 329 394
#
# _framework density 25.36495
#
# number of rings (size 3 to 8) (size 9 to 14) (size 15 to 20)
#    0.750    1.000    1.250    4.125    1.750    0.500 
#    0.000    0.625    0.000    6.750    0.000   15.750 
#    0.000    0.000    0.000    0.000    0.000    0.000 
#
# Total GULP energy -89515.304038 kJ/mol
# GULP energy per Si atom -5594.706502 kJ/mol
# Density = 2.530722 g / cm^3
# Si number density = 25.364950 Si / 1000 Ang^3
#
#
#
# Elastic Constant Matrix: (Units=GPa)
#
#
# Indices 1 2 3 4 5 6 
#
# 1 107.3621 2.7761 35.0410 6.3547 6.4288 15.3278
# 2 2.7761 113.3792 72.6981 -6.1999 3.2182 -1.7065
# 3 35.0410 72.6981 213.9808 -31.9422 23.6966 20.1949
# 4 6.3547 -6.1999 -31.9422 40.9772 8.2645 2.5107
# 5 6.4288 3.2182 23.6966 8.2645 39.9868 7.0624
# 6 15.3278 -1.7065 20.1949 2.5107 7.0624 43.4323
#
#
#
# Elastic Compliance Matrix: (Units=1/GPa)
#
#
# Indices 1 2 3 4 5 6 
#
# 1 0.010600 0.001075 -0.002467 -0.003416 0.000816 -0.002487
# 2 0.001075 0.011873 -0.005088 -0.002896 0.002082 0.002282
# 3 -0.002467 -0.005088 0.008872 0.007830 -0.005539 -0.003007
# 4 -0.003416 -0.002896 0.007830 0.032816 -0.010146 -0.002796
# 5 0.000816 0.002082 -0.005539 -0.010146 0.030441 -0.001994
# 6 -0.002487 0.002282 -0.003007 -0.002796 -0.001994 0.025876
#
#
# Mechanical properties :
#
#
# Convention : Reuss Voigt Hill
#
# Bulk Modulus (GPa) = 54.39332 72.86137 63.62735
# Shear Modulus (GPa) = 35.82552 46.49308 41.15930
#
# Velocity S-wave (km/s) = 3.76227 4.28596 4.03263
# Velocity P-wave (km/s) = 6.35325 7.29933 6.84266
#
# Compressibility (1/GPa) = 0.01838461
#
# Stress axis : x y z
#
# Youngs Moduli (GPa) = 94.34050 84.22546 112.71794
#
# Poissons Ratio (x) = -0.09051 0.27802
# Poissons Ratio (y) = -0.10138 0.57351
# Poissons Ratio (z) = 0.23269 0.42854
#
# Static dielectric constant tensor:
#      x y z
#    x 2.128650 -0.089080 0.024200 
#    y -0.089080 1.997820 0.028020 
#    z 0.024200 0.028020 1.995330 
# 
# From -- ./inp_files/455086.got.cif
#   From: 2010.05.17/outbox.cif.g08.bks.cpg/sg2_228_cif.got.tgz:455086.got - 2010.06.03 11:33:40.
