data_PCOD9004383
_publ_section_title
;
Structure prediction by ZEFSAII (Michael W. Deem and Ramdas Pophale) SiO2 
 PCOD9004383
Probable space group: P -1
;
_chemical_formula_sum "Si O2"
_cell_formula_units_Z 16
_cell_length_a 5.974553
_cell_length_b 11.864561
_cell_length_c 11.635024
_cell_angle_alpha 126.950170
_cell_angle_beta 91.270723
_cell_angle_gamma 87.331762
_cell_volume 658.377167
_symmetry_space_group_name_H-M "P -1"
_symmetry_group_IT_number 2
_symmetry_cell_setting 'triclinic'
loop_
_space_group_symop_operation_xyz
x,y,z
-x,-y,-z
loop_
_atom_site_type_symbol
_atom_site_label
_atom_site_fract_x
_atom_site_fract_y
_atom_site_fract_z
Si Si1 0.816807 0.902741 0.381769
Si Si2 0.072589 0.820359 0.789745
Si Si3 0.723711 0.652234 0.579670
Si Si4 0.396252 0.586541 0.728432
Si Si5 0.710131 0.689414 0.073179
Si Si6 0.305685 0.080562 0.975324
Si Si7 0.634809 0.410658 0.809717
Si Si8 0.451274 0.818834 0.500688
O O1 0.870676 0.780591 0.212992
O O2 0.680217 0.828603 0.435804
O O3 0.647875 0.022618 0.398235
O O4 0.000000 0.000000 0.500000
O O5 0.252912 0.730833 0.811641
O O6 0.953623 0.730043 0.637148
O O7 0.180117 0.959964 0.831065
O O8 0.870863 0.864170 0.898501
O O9 0.628197 0.606041 0.673560
O O10 0.741900 0.518226 0.416201
O O11 0.525875 0.751071 0.580677
O O12 0.448087 0.507800 0.798367
O O13 0.643126 0.791774 0.029247
O O14 0.490652 0.661750 0.130928
O O15 0.791675 0.534323 0.932279
O O16 0.500000 0.000000 0.000000
O O17 0.697775 0.288569 0.641985
#
# Coordination Sequence:
#
# PCOD9004383 Si02
#       8
#     2   2   2   2   2   2   2   2
#     4  10  22  39  60  91 126 164 209 262 312 380
#     4  11  23  38  61  95 127 164 215 269 313 389
#     4  10  21  37  66  93 124 171 210 261 330 378
#     4  10  21  40  63  93 129 165 210 271 320 376
#     4  10  21  39  67  89 120 172 211 257 320 381
#     4  11  25  42  61  92 132 168 212 267 324 382
#     4   9  19  42  64  88 125 166 215 261 319 381
#     4   9  21  39  60  90 125 163 208 262 316 376
#
# _framework density 24.302178000000001
#
# number of rings (size 3 to 8) (size 9 to 14) (size 15 to 20)
#    0.000    2.000    0.000    2.625    5.250    0.000 
#    0.000   15.000    0.000    0.000    0.000    0.000 
#    0.000    0.000    0.000    0.000    0.000    0.000 
#
# Total GULP energy -89428.447007 kJ/mol
# GULP energy per Si atom -5589.277938 kJ/mol
# Density = 2.424687 g / cm^3
# Si number density = 24.302178 Si / 1000 Ang^3
#
#
#
# Elastic Constant Matrix: (Units=GPa)
#
#
# Indices 1 2 3 4 5 6 
#
# 1 35.1426 24.2618 32.8876 5.2350 17.9919 7.9093
# 2 24.2618 151.1019 28.5312 -2.5080 0.5694 21.5360
# 3 32.8876 28.5312 94.2148 17.5041 25.7818 21.8308
# 4 5.2350 -2.5080 17.5041 55.9977 15.2379 7.4679
# 5 17.9919 0.5694 25.7818 15.2379 44.1027 15.9624
# 6 7.9093 21.5360 21.8308 7.4679 15.9624 27.0051
#
#
#
# Elastic Compliance Matrix: (Units=1/GPa)
#
#
# Indices 1 2 3 4 5 6 
#
# 1 0.053836 -0.007513 -0.014800 0.002668 -0.018651 0.012474
# 2 -0.007513 0.009019 0.000224 0.000635 0.005768 -0.008759
# 3 -0.014800 0.000224 0.018641 -0.003050 -0.000208 -0.009947
# 4 0.002668 0.000635 -0.003050 0.020348 -0.006022 -0.000889
# 5 -0.018651 0.005768 -0.000208 -0.006022 0.039991 -0.020942
# 6 0.012474 -0.008759 -0.009947 -0.000889 -0.020942 0.061026
#
#
# Mechanical properties :
#
#
# Convention : Reuss Voigt Hill
#
# Bulk Modulus (GPa) = 26.79595 50.20228 38.49911
# Shear Modulus (GPa) = 19.26949 38.40635 28.83792
#
# Velocity S-wave (km/s) = 2.81892 3.97970 3.44850
# Velocity P-wave (km/s) = 4.65244 6.46681 5.63315
#
# Compressibility (1/GPa) = 0.03731907
#
# Stress axis : x y z
#
# Youngs Moduli (GPa) = 18.57484 110.87540 53.64580
#
# Poissons Ratio (x) = 0.83302 0.79395
# Poissons Ratio (y) = 0.13955 -0.01204
# Poissons Ratio (z) = 0.27491 -0.02488
#
# Static dielectric constant tensor:
#      x y z
#    x 1.934310 0.011460 0.067370 
#    y 0.011460 1.889620 0.049710 
#    z 0.067370 0.049710 2.059920 
# 
# From -- ./inp_files/365252.got.cif
#   From: 2010.05.17/outbox.cif.g08.bks.cpg/sg2_183_cif.got.tgz:365252.got - 2010.06.03 11:33:40.
