data_PCOD9004847
_publ_section_title
;
Structure prediction by ZEFSAII (Michael W. Deem and Ramdas Pophale) SiO2 
 PCOD9004847
Probable space group: P -1
;
_chemical_formula_sum "Si O2"
_cell_formula_units_Z 14
_cell_length_a 28.240186
_cell_length_b 8.344231
_cell_length_c 22.437478
_cell_angle_alpha 139.579988
_cell_angle_beta 167.793132
_cell_angle_gamma 41.128485
_cell_volume 723.245677
_symmetry_space_group_name_H-M "P -1"
_symmetry_group_IT_number 2
_symmetry_cell_setting 'triclinic'
loop_
_space_group_symop_operation_xyz
x,y,z
-x,-y,-z
loop_
_atom_site_type_symbol
_atom_site_label
_atom_site_fract_x
_atom_site_fract_y
_atom_site_fract_z
Si Si1 0.689065 0.822586 0.212702
Si Si2 0.122426 0.276847 0.458285
Si Si3 0.543027 0.316722 0.587646
Si Si4 0.480503 0.706996 0.134565
Si Si5 0.123102 0.010356 0.018120
Si Si6 0.354964 0.844953 0.468040
Si Si7 0.940687 0.184535 0.425798
O O1 0.734351 0.841887 0.344207
O O2 0.915284 0.877411 0.472987
O O3 0.623826 0.541304 0.042482
O O4 0.500000 0.000000 0.000000
O O5 0.285653 0.356271 0.628898
O O6 0.009518 0.535108 0.415923
O O7 0.965513 0.085238 0.181092
O O8 0.746351 0.222268 0.853958
O O9 0.482355 0.609309 0.590620
O O10 0.615960 0.211867 0.582279
O O11 0.314402 0.200840 0.296152
O O12 0.525739 0.908591 0.296833
O O13 0.314803 0.814912 0.909526
O O14 0.904420 0.116235 0.816849
O O15 0.000000 0.000000 0.500000
#
# Coordination Sequence:
#
# PCOD9004847 Si02
#       7
#     2   2   2   2   2   2   2
#     4  11  22  39  58  88 122 157 200 241 304 363
#     4  10  21  38  59  86 121 154 196 247 298 361
#     4  10  22  40  64  88 124 162 206 256 306 364
#     4  10  21  38  59  86 121 154 196 247 298 361
#     4  10  22  40  63  90 124 159 207 252 308 359
#     4  10  22  40  63  90 124 159 207 252 308 359
#     4  11  22  35  60  84 118 155 192 245 296 366
#
# _framework density 19.357184
#
# number of rings (size 3 to 8) (size 9 to 14) (size 15 to 20)
#    0.000    1.714    0.000    6.000    6.000    0.000 
#    0.000    1.429    0.000    0.000    0.000    0.000 
#    0.000    0.000    0.000    0.000    0.000    0.000 
#
# Total GULP energy -78126.794623 kJ/mol
# GULP energy per Si atom -5580.485330 kJ/mol
# Density = 1.931313 g / cm^3
# Si number density = 19.357184 Si / 1000 Ang^3
#
#
#
# Elastic Constant Matrix: (Units=GPa)
#
#
# Indices 1 2 3 4 5 6 
#
# 1 71.7063 34.8577 26.8819 -3.0233 -2.7146 1.1827
# 2 34.8577 73.5213 44.0153 -17.1620 -19.4712 10.5390
# 3 26.8819 44.0153 69.4354 -4.9976 -7.5353 -4.2600
# 4 -3.0233 -17.1620 -4.9976 27.0492 0.7047 -3.1230
# 5 -2.7146 -19.4712 -7.5353 0.7047 30.1671 -3.8548
# 6 1.1827 10.5390 -4.2600 -3.1230 -3.8548 31.8308
#
#
#
# Elastic Compliance Matrix: (Units=1/GPa)
#
#
# Indices 1 2 3 4 5 6 
#
# 1 0.019485 -0.011426 -0.001154 -0.004938 -0.005571 0.001746
# 2 -0.011426 0.042195 -0.019511 0.020018 0.019352 -0.011850
# 3 -0.001154 -0.019511 0.026788 -0.006409 -0.004720 0.008887
# 4 -0.004938 0.020018 -0.006409 0.047514 0.009576 -0.001481
# 5 -0.005571 0.019352 -0.004720 0.009576 0.043658 -0.000605
# 6 0.001746 -0.011850 0.008887 -0.001481 -0.000605 0.036245
#
#
# Mechanical properties :
#
#
# Convention : Reuss Voigt Hill
#
# Bulk Modulus (GPa) = 41.17189 47.35253 44.26221
# Shear Modulus (GPa) = 17.35143 25.06995 21.21069
#
# Velocity S-wave (km/s) = 2.99721 3.60269 3.31381
# Velocity P-wave (km/s) = 5.77005 6.46695 6.12841
#
# Compressibility (1/GPa) = 0.02428842
#
# Stress axis : x y z
#
# Youngs Moduli (GPa) = 51.32265 23.69925 37.33018
#
# Poissons Ratio (x) = 0.27078 0.04306
# Poissons Ratio (y) = 0.58639 0.72833
# Poissons Ratio (z) = 0.05921 0.46238
#
# Static dielectric constant tensor:
#      x y z
#    x 1.657710 -0.019670 0.019060 
#    y -0.019670 1.686710 -0.061820 
#    z 0.019060 -0.061820 1.813600 
# 
# From -- ./inp_files/214666.got.cif
#   From: 2010.05.17/outbox.cif.g08.bks.cpg/sg2_108_cif.got.tgz:214666.got - 2010.06.03 11:33:40.
