data_PCOD9004529
_publ_section_title
;
Structure prediction by ZEFSAII (Michael W. Deem and Ramdas Pophale) SiO2 
 PCOD9004529
Probable space group: P -1
;
_chemical_formula_sum "Si O2"
_cell_formula_units_Z 14
_cell_length_a 8.206333
_cell_length_b 7.975529
_cell_length_c 15.295110
_cell_angle_alpha 137.975194
_cell_angle_beta 116.095868
_cell_angle_gamma 74.594030
_cell_volume 598.729924
_symmetry_space_group_name_H-M "P -1"
_symmetry_group_IT_number 2
_symmetry_cell_setting 'triclinic'
loop_
_space_group_symop_operation_xyz
x,y,z
-x,-y,-z
loop_
_atom_site_type_symbol
_atom_site_label
_atom_site_fract_x
_atom_site_fract_y
_atom_site_fract_z
Si Si1 0.321475 0.657806 0.530979
Si Si2 0.367521 0.896944 0.822398
Si Si3 0.375588 0.369336 0.112829
Si Si4 0.488133 0.073213 0.626195
Si Si5 0.145105 0.893340 0.173061
Si Si6 0.021337 0.647379 0.746601
Si Si7 0.016061 0.451663 0.861407
O O1 0.500000 0.500000 0.500000
O O2 0.336170 0.799990 0.680800
O O3 0.127746 0.497481 0.409174
O O4 0.326143 0.882750 0.549310
O O5 0.557968 0.809628 0.865851
O O6 0.213016 0.741095 0.784346
O O7 0.373237 0.192713 0.958889
O O8 0.507937 0.628713 0.243666
O O9 0.179825 0.446341 0.124622
O O10 0.665100 0.013180 0.700771
O O11 0.500000 0.000000 0.500000
O O12 0.012114 0.812251 0.193857
O O13 0.069235 0.089170 0.164886
O O14 0.158958 0.642545 0.022045
O O15 0.042129 0.490035 0.779263
#
# Coordination Sequence:
#
# PCOD9004529 Si02
#       7
#     2   2   2   2   2   2   2
#     4  12  24  43  68  92 128 182 226 270 336 403
#     4  11  25  42  64 100 136 174 221 277 345 392
#     4  10  23  43  66  96 138 173 222 279 326 404
#     4  11  23  43  69 100 130 175 232 275 327 402
#     4  10  21  37  69 102 130 174 227 276 322 401
#     4  12  23  42  68 101 138 175 220 281 334 396
#     4  10  21  41  68 102 131 177 225 269 335 401
#
# _framework density 23.382829000000001
#
# number of rings (size 3 to 8) (size 9 to 14) (size 15 to 20)
#    0.000    1.143    2.857    4.286    0.000    1.714 
#    2.571    0.714    0.000    0.000    0.000    0.000 
#    0.000    0.000    0.000    0.000    0.000    0.000 
#
# Total GULP energy -78186.200905 kJ/mol
# GULP energy per Si atom -5584.728636 kJ/mol
# Density = 2.332961 g / cm^3
# Si number density = 23.382829 Si / 1000 Ang^3
#
#
#
# Elastic Constant Matrix: (Units=GPa)
#
#
# Indices 1 2 3 4 5 6 
#
# 1 35.4749 9.6861 20.5505 9.3254 0.5082 -5.8040
# 2 9.6861 73.9018 24.6704 9.5367 -9.1460 5.9616
# 3 20.5505 24.6704 138.3334 11.8360 0.4398 11.2371
# 4 9.3254 9.5367 11.8360 45.9600 6.5956 8.8611
# 5 0.5082 -9.1460 0.4398 6.5956 31.8191 -8.6258
# 6 -5.8040 5.9616 11.2371 8.8611 -8.6258 29.6370
#
#
#
# Elastic Compliance Matrix: (Units=1/GPa)
#
#
# Indices 1 2 3 4 5 6 
#
# 1 0.036375 -0.002423 -0.005335 -0.008713 0.004256 0.013478
# 2 -0.002423 0.015590 -0.002155 -0.002809 0.004996 -0.000499
# 3 -0.005335 -0.002155 0.008751 0.000462 -0.002012 -0.004653
# 4 -0.008713 -0.002809 0.000462 0.027808 -0.009825 -0.012490
# 5 0.004256 0.004996 -0.002012 -0.009825 0.038885 0.014846
# 6 0.013478 -0.000499 -0.004653 -0.012490 0.014846 0.046301
#
#
# Mechanical properties :
#
#
# Convention : Reuss Voigt Hill
#
# Bulk Modulus (GPa) = 24.45576 39.72490 32.09033
# Shear Modulus (GPa) = 24.13535 34.33675 29.23605
#
# Velocity S-wave (km/s) = 3.21625 3.83621 3.53982
# Velocity P-wave (km/s) = 4.92685 6.05374 5.51913
#
# Compressibility (1/GPa) = 0.04089017
#
# Stress axis : x y z
#
# Youngs Moduli (GPa) = 27.49109 64.14519 114.27764
#
# Poissons Ratio (x) = 0.15541 0.60962
# Poissons Ratio (y) = 0.06661 0.24631
# Poissons Ratio (z) = 0.14665 0.13825
#
# Static dielectric constant tensor:
#      x y z
#    x 1.942820 -0.005920 -0.008990 
#    y -0.005920 1.976500 0.027980 
#    z -0.008990 0.027980 1.902030 
# 
# From -- ./inp_files/157201.got.cif
#   From: 2010.05.17/outbox.cif.g08.bks.cpg/sg2_79_cif.got.tgz:157201.got - 2010.06.03 11:33:40.
