data_PCOD9004812
_publ_section_title
;
Structure prediction by ZEFSAII (Michael W. Deem and Ramdas Pophale) SiO2 
 PCOD9004812
Probable space group: P -1
;
_chemical_formula_sum "Si O2"
_cell_formula_units_Z 12
_cell_length_a 5.245952
_cell_length_b 19.441492
_cell_length_c 5.182727
_cell_angle_alpha 79.813699
_cell_angle_beta 116.907992
_cell_angle_gamma 79.426682
_cell_volume 442.518946
_symmetry_space_group_name_H-M "P -1"
_symmetry_group_IT_number 2
_symmetry_cell_setting 'triclinic'
loop_
_space_group_symop_operation_xyz
x,y,z
-x,-y,-z
loop_
_atom_site_type_symbol
_atom_site_label
_atom_site_fract_x
_atom_site_fract_y
_atom_site_fract_z
Si Si1 0.557464 0.773243 0.290567
Si Si2 0.107352 0.798883 0.448557
Si Si3 0.136751 0.103043 0.231625
Si Si4 0.631832 0.061432 0.136581
Si Si5 0.409771 0.637802 0.156332
Si Si6 0.822927 0.585565 0.887263
O O1 0.913360 0.742404 0.418085
O O2 0.390121 0.723885 0.094062
O O3 0.455424 0.770129 0.544380
O O4 0.475483 0.857409 0.100038
O O5 0.985122 0.850458 0.600828
O O6 0.990832 0.848534 0.108850
O O7 0.486875 0.076992 0.345326
O O8 0.981307 0.039845 0.241973
O O9 0.500000 0.000000 0.000000
O O10 0.610504 0.608951 0.522978
O O11 0.604346 0.601341 0.023206
O O12 0.087227 0.624021 0.017009
O O13 0.000000 0.500000 0.000000
#
# Coordination Sequence:
#
# PCOD9004812 Si02
#       6
#     2   2   2   2   2   2
#     4  10  23  41  63  98 135 178 233 287 348 418
#     4  10  21  39  61  86 125 167 214 280 337 404
#     4  10  21  38  59  84 115 163 218 276 340 401
#     4  10  21  40  62  89 126 173 224 284 344 408
#     4  12  26  45  76 110 149 195 240 299 361 428
#     4  12  26  49  76 111 149 192 240 294 361 439
#
# _framework density 27.117481999999999
#
# number of rings (size 3 to 8) (size 9 to 14) (size 15 to 20)
#    0.000    1.333    0.000    5.000    0.000    8.000 
#    0.000   20.000    0.000    0.000    0.000    0.000 
#    0.000    0.000    0.000    0.000    0.000    0.000 
#
# Total GULP energy -67132.581701 kJ/mol
# GULP energy per Si atom -5594.381808 kJ/mol
# Density = 2.705576 g / cm^3
# Si number density = 27.117482 Si / 1000 Ang^3
#
#
#
# Elastic Constant Matrix: (Units=GPa)
#
#
# Indices 1 2 3 4 5 6 
#
# 1 270.3163 13.2797 60.7089 18.8481 -29.5301 19.1988
# 2 13.2797 113.9152 22.1125 5.6546 0.4041 -0.0009
# 3 60.7089 22.1125 156.5326 3.6810 -22.0281 -9.7250
# 4 18.8481 5.6546 3.6810 45.6739 -11.2591 7.3332
# 5 -29.5301 0.4041 -22.0281 -11.2591 63.6802 16.5540
# 6 19.1988 -0.0009 -9.7250 7.3332 16.5540 57.9966
#
#
#
# Elastic Compliance Matrix: (Units=1/GPa)
#
#
# Indices 1 2 3 4 5 6 
#
# 1 0.004489 -0.000185 -0.001555 -0.000867 0.001963 -0.002197
# 2 -0.000185 0.009114 -0.001294 -0.001200 -0.000867 0.000244
# 3 -0.001555 -0.001294 0.007470 0.000396 0.001615 0.001256
# 4 -0.000867 -0.001200 0.000396 0.024304 0.005127 -0.004183
# 5 0.001963 -0.000867 0.001615 0.005127 0.019822 -0.006685
# 6 -0.002197 0.000244 0.001256 -0.004183 -0.006685 0.020617
#
#
# Mechanical properties :
#
#
# Convention : Reuss Voigt Hill
#
# Bulk Modulus (GPa) = 66.64741 81.44069 74.04405
# Shear Modulus (GPa) = 51.60691 63.11431 57.36061
#
# Velocity S-wave (km/s) = 4.36717 4.82959 4.60419
# Velocity P-wave (km/s) = 7.07532 7.82289 7.45848
#
# Compressibility (1/GPa) = 0.01500433
#
# Stress axis : x y z
#
# Youngs Moduli (GPa) = 222.78992 109.72168 133.86599
#
# Poissons Ratio (x) = 0.02034 0.20810
# Poissons Ratio (y) = 0.04131 0.17325
# Poissons Ratio (z) = 0.34633 0.14200
#
# Static dielectric constant tensor:
#      x y z
#    x 2.487390 0.003640 0.454790 
#    y 0.003640 2.169040 0.009120 
#    z 0.454790 0.009120 2.689400 
# 
# From -- ./inp_files/5338.got.cif
#   From: 2010.05.17/outbox.cif.g08.bks.cpg/sg2_3_cif.got.tgz:5338.got - 2010.06.03 11:33:40.
