data_PCOD9004335
_publ_section_title
;
Structure prediction by ZEFSAII (Michael W. Deem and Ramdas Pophale) SiO2 
 PCOD9004335
Probable space group: P -1
;
_chemical_formula_sum "Si O2"
_cell_formula_units_Z 16
_cell_length_a 5.462910
_cell_length_b 24.034034
_cell_length_c 11.919816
_cell_angle_alpha 31.371826
_cell_angle_beta 116.690430
_cell_angle_gamma 110.958400
_cell_volume 726.799428
_symmetry_space_group_name_H-M "P -1"
_symmetry_group_IT_number 2
_symmetry_cell_setting 'triclinic'
loop_
_space_group_symop_operation_xyz
x,y,z
-x,-y,-z
loop_
_atom_site_type_symbol
_atom_site_label
_atom_site_fract_x
_atom_site_fract_y
_atom_site_fract_z
Si Si1 0.269295 0.878226 0.938741
Si Si2 0.714979 0.363799 0.701477
Si Si3 0.675841 0.995595 0.655743
Si Si4 0.666646 0.406506 0.353709
Si Si5 0.181811 0.487608 0.352482
Si Si6 0.774010 0.425029 0.029314
Si Si7 0.500440 0.822571 0.327883
Si Si8 0.859133 0.176259 0.532052
O O1 0.496410 0.936476 0.813536
O O2 0.235784 0.762676 0.072759
O O3 0.380959 0.860304 0.118886
O O4 0.972036 0.938330 0.787000
O O5 0.702642 0.398905 0.508724
O O6 0.406508 0.406512 0.597662
O O7 0.906032 0.428966 0.710297
O O8 0.729648 0.111916 0.515436
O O9 0.500000 0.000000 0.500000
O O10 0.507252 0.306780 0.453041
O O11 0.983105 0.407511 0.386618
O O12 0.518229 0.517566 0.096286
O O13 0.241000 0.563938 0.128159
O O14 0.815597 0.303543 0.285470
O O15 0.000000 0.500000 0.000000
O O16 0.298326 0.856066 0.330967
O O17 0.814243 0.852605 0.349836
#
# Coordination Sequence:
#
# PCOD9004335 Si02
#       8
#     2   2   2   2   2   2   2   2
#     4  11  26  48  78 101 138 187 232 297 354 402
#     4   9  22  39  65 102 132 178 233 283 343 411
#     4  12  29  51  73 104 141 181 240 290 349 420
#     4  10  21  37  65  98 139 178 224 281 338 424
#     4  10  21  38  64  97 142 175 236 275 343 420
#     4  11  23  39  60  98 137 187 219 275 352 410
#     4  11  25  44  75 106 137 178 238 290 351 414
#     4  12  27  45  71 103 145 185 236 293 342 415
#
# _framework density 22.014327999999999
#
# number of rings (size 3 to 8) (size 9 to 14) (size 15 to 20)
#    0.000    1.250    1.250    3.000   10.500    5.000 
#    0.000    0.000    0.000    0.000    0.000    0.000 
#    0.000    0.000    0.000    0.000    0.000    0.000 
#
# Total GULP energy -89299.876041 kJ/mol
# GULP energy per Si atom -5581.242253 kJ/mol
# Density = 2.196422 g / cm^3
# Si number density = 22.014328 Si / 1000 Ang^3
#
#
#
# Elastic Constant Matrix: (Units=GPa)
#
#
# Indices 1 2 3 4 5 6 
#
# 1 81.7425 35.4264 9.2956 -5.7427 5.4756 3.9366
# 2 35.4264 154.8205 33.3319 -11.2783 -4.7037 -0.2210
# 3 9.2956 33.3319 63.6227 -14.9820 6.2621 0.6403
# 4 -5.7427 -11.2783 -14.9820 28.9943 -1.2581 -5.3572
# 5 5.4756 -4.7037 6.2621 -1.2581 26.8611 11.8665
# 6 3.9366 -0.2210 0.6403 -5.3572 11.8665 33.5074
#
#
#
# Elastic Compliance Matrix: (Units=1/GPa)
#
#
# Indices 1 2 3 4 5 6 
#
# 1 0.013945 -0.003259 0.000347 0.001483 -0.003311 -0.000257
# 2 -0.003259 0.008208 -0.004027 0.000503 0.003321 -0.000582
# 3 0.000347 -0.004027 0.020635 0.009507 -0.006649 0.003413
# 4 0.001483 0.000503 0.009507 0.041127 -0.003857 0.007589
# 5 -0.003311 0.003321 -0.006649 -0.003857 0.047288 -0.016825
# 6 -0.000257 -0.000582 0.003413 0.007589 -0.016825 0.036977
#
#
# Mechanical properties :
#
#
# Convention : Reuss Voigt Hill
#
# Bulk Modulus (GPa) = 34.58683 50.69926 42.64305
# Shear Modulus (GPa) = 26.08337 32.68134 29.38236
#
# Velocity S-wave (km/s) = 3.44588 3.85716 3.65731
# Velocity P-wave (km/s) = 5.61937 6.55111 6.10305
#
# Compressibility (1/GPa) = 0.02891274
#
# Stress axis : x y z
#
# Youngs Moduli (GPa) = 71.71225 121.82632 48.46037
#
# Poissons Ratio (x) = 0.39698 -0.01684
# Poissons Ratio (y) = 0.23368 0.19514
# Poissons Ratio (z) = -0.02492 0.49056
#
# Static dielectric constant tensor:
#      x y z
#    x 2.041800 -0.005170 -0.005270 
#    y -0.005170 1.813180 -0.002420 
#    z -0.005270 -0.002420 1.774280 
# 
# From -- ./inp_files/371020.got.cif
#   From: 2010.05.17/outbox.cif.g08.bks.cpg/sg2_186_cif.got.tgz:371020.got - 2010.06.03 11:33:40.
