data_PCOD9004439
_publ_section_title
;
Structure prediction by ZEFSAII (Michael W. Deem and Ramdas Pophale) SiO2 
 PCOD9004439
Probable space group: P -1
;
_chemical_formula_sum "Si O2"
_cell_formula_units_Z 15
_cell_length_a 15.677141
_cell_length_b 8.629589
_cell_length_c 18.504810
_cell_angle_alpha 136.297655
_cell_angle_beta 22.643154
_cell_angle_gamma 140.726000
_cell_volume 609.751153
_symmetry_space_group_name_H-M "P -1"
_symmetry_group_IT_number 2
_symmetry_cell_setting 'triclinic'
loop_
_space_group_symop_operation_xyz
x,y,z
-x,-y,-z
loop_
_atom_site_type_symbol
_atom_site_label
_atom_site_fract_x
_atom_site_fract_y
_atom_site_fract_z
Si Si1 0.800635 0.007825 0.715617
Si Si2 0.000000 0.500000 0.000000
Si Si3 0.005639 0.745409 0.933073
Si Si4 0.864550 0.459877 0.359582
Si Si5 0.627369 0.034357 0.067908
Si Si6 0.300141 0.813630 0.367117
Si Si7 0.465315 0.519725 0.247243
Si Si8 0.111018 0.320573 0.253859
O O1 0.956010 0.269522 0.715463
O O2 0.556976 0.002057 0.866445
O O3 0.705252 0.745968 0.741127
O O4 0.000000 0.000000 0.500000
O O5 0.862287 0.283857 0.973893
O O6 0.964402 0.288000 0.017620
O O7 0.202665 0.702533 0.714126
O O8 0.737642 0.558747 0.055924
O O9 0.000000 0.000000 0.000000
O O10 0.647291 0.466467 0.581270
O O11 0.008369 0.355981 0.268355
O O12 0.461914 0.037635 0.267341
O O13 0.697033 0.800620 0.942045
O O14 0.448945 0.724775 0.277198
O O15 0.188282 0.586287 0.321459
O O16 0.101695 0.850521 0.584313
#
# Coordination Sequence:
#
# PCOD9004439 Si02
#       8
#     2   1   2   2   2   2   2   2
#     4  10  22  41  68  99 138 170 217 287 345 406
#     4  12  28  48  66 104 136 188 244 274 334 424
#     4  12  26  47  70  95 139 187 232 282 339 409
#     4  10  22  42  68 103 133 175 226 282 352 408
#     4  12  23  45  68  94 142 177 226 285 335 409
#     4  10  21  38  69 100 139 173 218 288 347 407
#     4  10  22  42  65  99 137 174 222 281 343 409
#     4  10  21  37  67 109 133 173 228 277 354 415
#
# _framework density 24.600200000000001
#
# number of rings (size 3 to 8) (size 9 to 14) (size 15 to 20)
#    0.000    1.333    2.667    2.800    3.733    2.133 
#    2.400    2.667    0.000    0.000    0.000    0.000 
#    0.000    0.000    0.000    0.000    0.000    0.000 
#
# Total GULP energy -83644.691230 kJ/mol
# GULP energy per Si atom -5576.312749 kJ/mol
# Density = 2.454421 g / cm^3
# Si number density = 24.600200 Si / 1000 Ang^3
#
#
#
# Elastic Constant Matrix: (Units=GPa)
#
#
# Indices 1 2 3 4 5 6 
#
# 1 85.3314 0.5936 20.0117 -0.3622 14.7955 -21.7982
# 2 0.5936 72.6927 1.0971 11.5552 10.7127 -7.2638
# 3 20.0117 1.0971 93.7589 8.8453 11.6024 -3.4467
# 4 -0.3622 11.5552 8.8453 23.7792 -0.1902 -1.5997
# 5 14.7955 10.7127 11.6024 -0.1902 24.7293 -0.3048
# 6 -21.7982 -7.2638 -3.4467 -1.5997 -0.3048 29.9714
#
#
#
# Elastic Compliance Matrix: (Units=1/GPa)
#
#
# Indices 1 2 3 4 5 6 
#
# 1 0.017260 0.002620 -0.002009 0.000521 -0.010356 0.012879
# 2 0.002620 0.017043 0.001439 -0.008474 -0.009621 0.005651
# 3 -0.002009 0.001439 0.012221 -0.005320 -0.005197 -0.000044
# 4 0.000521 -0.008474 -0.005320 0.048232 0.006231 0.000351
# 5 -0.010356 -0.009621 -0.005197 0.006231 0.053170 -0.009588
# 6 0.012879 0.005651 -0.000044 0.000351 -0.009588 0.044018
#
#
# Mechanical properties :
#
#
# Convention : Reuss Voigt Hill
#
# Bulk Modulus (GPa) = 19.75328 32.79863 26.27595
# Shear Modulus (GPa) = 24.42386 31.03469 27.72927
#
# Velocity S-wave (km/s) = 3.15434 3.55570 3.36102
# Velocity P-wave (km/s) = 4.61667 5.49718 5.07605
#
# Compressibility (1/GPa) = 0.05062451
#
# Stress axis : x y z
#
# Youngs Moduli (GPa) = 57.93800 58.67501 81.82653
#
# Poissons Ratio (x) = -0.15372 0.16436
# Poissons Ratio (y) = -0.15179 -0.11777
# Poissons Ratio (z) = 0.11638 -0.08445
#
# Static dielectric constant tensor:
#      x y z
#    x 1.824050 -0.314480 0.059440 
#    y -0.314480 1.481570 0.025010 
#    z 0.059440 0.025010 1.936740 
# 
# From -- ./inp_files/599768.got.cif
#   From: 2010.05.17/outbox.cif.g08.bks.cpg/sg2_300_cif.got.tgz:599768.got - 2010.06.03 11:33:40.
