data_PCOD9004790
_publ_section_title
;
Structure prediction by ZEFSAII (Michael W. Deem and Ramdas Pophale) SiO2 
 PCOD9004790
Probable space group: P -1
;
_chemical_formula_sum "Si O2"
_cell_formula_units_Z 14
_cell_length_a 8.819350
_cell_length_b 13.115060
_cell_length_c 10.103409
_cell_angle_alpha 73.842089
_cell_angle_beta 98.548570
_cell_angle_gamma 150.836994
_cell_volume 535.739678
_symmetry_space_group_name_H-M "P -1"
_symmetry_group_IT_number 2
_symmetry_cell_setting 'triclinic'
loop_
_space_group_symop_operation_xyz
x,y,z
-x,-y,-z
loop_
_atom_site_type_symbol
_atom_site_label
_atom_site_fract_x
_atom_site_fract_y
_atom_site_fract_z
Si Si1 0.693373 0.983437 0.634570
Si Si2 0.516922 0.166920 0.080207
Si Si3 0.772738 0.686569 0.720676
Si Si4 0.283637 0.955632 0.870481
Si Si5 0.237393 0.478236 0.873838
Si Si6 0.980378 0.629985 0.618079
Si Si7 0.579282 0.359695 0.433151
O O1 0.768917 0.995703 0.790051
O O2 0.313843 0.783245 0.651512
O O3 0.684839 0.878273 0.575582
O O4 0.897662 0.200793 0.523582
O O5 0.724937 0.393672 0.076502
O O6 0.487406 0.152929 0.922715
O O7 0.579102 0.076813 0.137264
O O8 0.556120 0.604799 0.838263
O O9 0.612204 0.645893 0.588286
O O10 0.786928 0.570379 0.731089
O O11 0.129310 0.918305 0.738076
O O12 0.005425 0.747634 0.008753
O O13 0.165185 0.471831 0.715895
O O14 0.749292 0.426970 0.563702
#
# Coordination Sequence:
#
# PCOD9004790 Si02
#       7
#     2   2   2   2   2   2   2
#     4  10  21  38  59  82 107 144 186 228 268 317
#     4  10  21  38  59  82 107 144 186 228 268 317
#     4  10  22  36  56  84 114 142 184 218 272 336
#     4  11  20  38  60  79 111 146 181 227 271 318
#     4   9  21  38  55  83 112 140 182 225 271 325
#     4  11  20  38  60  79 111 146 181 227 271 318
#     4   9  21  38  55  83 112 140 182 225 271 325
#
# _framework density 26.132096000000001
#
# number of rings (size 3 to 8) (size 9 to 14) (size 15 to 20)
#    0.857    1.143    1.429    2.571    0.000    1.143 
#    0.000    1.429    0.000    0.000    0.000    0.000 
#    0.000    0.000    0.000    0.000    0.000    0.000 
#
# Total GULP energy -77960.605970 kJ/mol
# GULP energy per Si atom -5568.614712 kJ/mol
# Density = 2.607262 g / cm^3
# Si number density = 26.132096 Si / 1000 Ang^3
#
#
#
# Elastic Constant Matrix: (Units=GPa)
#
#
# Indices 1 2 3 4 5 6 
#
# 1 107.6438 19.8928 19.6220 16.3916 -24.8983 1.4749
# 2 19.8928 79.1603 26.7576 26.7669 -13.4312 -8.4934
# 3 19.6220 26.7576 92.3481 33.3307 -0.3868 -1.3192
# 4 16.3916 26.7669 33.3307 57.8176 -6.2892 1.1422
# 5 -24.8983 -13.4312 -0.3868 -6.2892 34.3260 10.1600
# 6 1.4749 -8.4934 -1.3192 1.1422 10.1600 20.9507
#
#
#
# Elastic Compliance Matrix: (Units=1/GPa)
#
#
# Indices 1 2 3 4 5 6 
#
# 1 0.012473 -0.001167 -0.002191 -0.000472 0.010406 -0.006510
# 2 -0.001167 0.016833 -0.002424 -0.005852 0.002974 0.005630
# 3 -0.002191 -0.002424 0.014624 -0.007228 -0.004485 0.002661
# 4 -0.000472 -0.005852 -0.007228 0.024810 0.003572 -0.005879
# 5 0.010406 0.002974 -0.004485 0.003572 0.044893 -0.021775
# 6 -0.006510 0.005630 0.002661 -0.005879 -0.021775 0.061520
#
#
# Mechanical properties :
#
#
# Convention : Reuss Voigt Hill
#
# Bulk Modulus (GPa) = 30.89684 45.74410 38.32047
# Shear Modulus (GPa) = 25.31557 36.81085 31.06321
#
# Velocity S-wave (km/s) = 3.11586 3.75726 3.45149
# Velocity P-wave (km/s) = 4.97933 6.03039 5.52989
#
# Compressibility (1/GPa) = 0.03236577
#
# Stress axis : x y z
#
# Youngs Moduli (GPa) = 80.17263 59.40777 68.37865
#
# Poissons Ratio (x) = 0.06933 0.14982
# Poissons Ratio (y) = 0.09356 0.16577
# Poissons Ratio (z) = 0.17567 0.14402
#
# Static dielectric constant tensor:
#      x y z
#    x 2.079370 0.021520 -0.011370 
#    y 0.021520 2.092920 0.039520 
#    z -0.011370 0.039520 2.110730 
# 
# From -- ./inp_files/192601.got.cif
#   From: 2010.05.17/outbox.cif.g08.bks.cpg/sg2_97_cif.got.tgz:192601.got - 2010.06.03 11:33:40.
