data_PCOD9004912
_publ_section_title
;
Structure prediction by ZEFSAII (Michael W. Deem and Ramdas Pophale) SiO2 
 PCOD9004912
Probable space group: P -1
;
_chemical_formula_sum "Si O2"
_cell_formula_units_Z 16
_cell_length_a 8.848603
_cell_length_b 14.669546
_cell_length_c 7.892816
_cell_angle_alpha 57.963188
_cell_angle_beta 71.218337
_cell_angle_gamma 54.686181
_cell_volume 708.519724
_symmetry_space_group_name_H-M "P -1"
_symmetry_group_IT_number 2
_symmetry_cell_setting 'triclinic'
loop_
_space_group_symop_operation_xyz
x,y,z
-x,-y,-z
loop_
_atom_site_type_symbol
_atom_site_label
_atom_site_fract_x
_atom_site_fract_y
_atom_site_fract_z
Si Si1 0.318814 0.997409 0.630104
Si Si2 0.517687 0.418982 0.411186
Si Si3 0.078225 0.220007 0.293392
Si Si4 0.062496 0.431519 0.274594
Si Si5 0.567199 0.611072 0.997649
Si Si6 0.254798 0.794981 0.674406
Si Si7 0.440177 0.176382 0.005514
Si Si8 0.772276 0.659772 0.351291
O O1 0.145841 0.133465 0.522326
O O2 0.276192 0.912110 0.601685
O O3 0.500000 0.000000 0.500000
O O4 0.378477 0.937000 0.857084
O O5 0.500000 0.500000 0.500000
O O6 0.672038 0.273783 0.466645
O O7 0.332017 0.413213 0.482564
O O8 0.551063 0.496368 0.179565
O O9 0.988612 0.363798 0.242921
O O10 0.264446 0.185752 0.157704
O O11 0.946870 0.188636 0.261622
O O12 0.244757 0.420045 0.135445
O O13 0.119639 0.350182 0.507073
O O14 0.918188 0.572395 0.241627
O O15 0.395935 0.696797 0.855006
O O16 0.550370 0.700743 0.070461
O O17 0.374209 0.204485 0.805681
#
# Coordination Sequence:
#
# PCOD9004912 Si02
#       8
#     2   2   2   2   2   2   2   2
#     4   9  20  41  65  89 117 160 216 263 298 364
#     4  12  23  36  58  94 133 163 194 253 310 368
#     4  10  21  38  65  88 120 160 216 255 306 356
#     4  10  23  39  60  90 128 169 205 249 299 384
#     4  10  21  38  59  90 126 166 207 240 306 375
#     4  11  22  36  63  93 121 162 207 255 305 366
#     4   9  20  37  61  88 119 163 206 253 302 370
#     4  11  22  37  59  90 134 161 205 248 315 360
#
# _framework density 22.582294000000001
#
# number of rings (size 3 to 8) (size 9 to 14) (size 15 to 20)
#    0.000    1.750    2.500    2.250    1.750    2.000 
#    0.000    0.625    0.000    0.750    0.000    0.000 
#    0.000    0.000    0.000    0.000    0.000    0.000 
#
# Total GULP energy -89211.026670 kJ/mol
# GULP energy per Si atom -5575.689167 kJ/mol
# Density = 2.253090 g / cm^3
# Si number density = 22.582294 Si / 1000 Ang^3
#
#
#
# Elastic Constant Matrix: (Units=GPa)
#
#
# Indices 1 2 3 4 5 6 
#
# 1 131.1110 23.1557 17.1198 -12.2177 0.6400 6.2616
# 2 23.1557 47.7695 19.2308 -7.8331 0.1785 7.3213
# 3 17.1198 19.2308 97.2819 -22.3226 11.6010 -4.1361
# 4 -12.2177 -7.8331 -22.3226 24.1035 -5.5056 6.3532
# 5 0.6400 0.1785 11.6010 -5.5056 33.2210 -3.3880
# 6 6.2616 7.3213 -4.1361 6.3532 -3.3880 33.7803
#
#
#
# Elastic Compliance Matrix: (Units=1/GPa)
#
#
# Indices 1 2 3 4 5 6 
#
# 1 0.008642 -0.003294 -0.000134 0.003677 0.000348 -0.001561
# 2 -0.003294 0.025868 -0.003776 0.005235 0.001468 -0.006295
# 3 -0.000134 -0.003776 0.013905 0.010840 -0.003015 0.000204
# 4 0.003677 0.005235 0.010840 0.059116 0.004778 -0.011128
# 5 0.000348 0.001468 -0.003015 0.004778 0.032092 0.001568
# 6 -0.001561 -0.006295 0.000204 -0.011128 0.001568 0.033532
#
#
# Mechanical properties :
#
#
# Convention : Reuss Voigt Hill
#
# Bulk Modulus (GPa) = 29.40470 43.90834 36.65652
# Shear Modulus (GPa) = 25.13843 32.66470 28.90157
#
# Velocity S-wave (km/s) = 3.34007 3.80738 3.58136
# Velocity P-wave (km/s) = 5.28433 6.23010 5.77660
#
# Compressibility (1/GPa) = 0.03400817
#
# Stress axis : x y z
#
# Youngs Moduli (GPa) = 115.71543 38.65707 71.91651
#
# Poissons Ratio (x) = 0.12735 0.00962
# Poissons Ratio (y) = 0.38121 0.27152
# Poissons Ratio (z) = 0.01548 0.14595
#
# Static dielectric constant tensor:
#      x y z
#    x 1.869330 0.022630 0.067760 
#    y 0.022630 1.892820 0.026210 
#    z 0.067760 0.026210 1.922050 
# 
# From -- ./inp_files/220494.got.cif
#   From: 2010.05.17/outbox.cif.g08.bks.cpg/sg2_111_cif.got.tgz:220494.got - 2010.06.03 11:33:40.
