data_PCOD9004085
_publ_section_title
;
Structure prediction by ZEFSAII (Michael W. Deem and Ramdas Pophale) SiO2 
 PCOD9004085
Probable space group: P -1
;
_chemical_formula_sum "Si O2"
_cell_formula_units_Z 16
_cell_length_a 14.296792
_cell_length_b 14.275613
_cell_length_c 12.852899
_cell_angle_alpha 30.212635
_cell_angle_beta 37.714764
_cell_angle_gamma 29.475006
_cell_volume 641.509539
_symmetry_space_group_name_H-M "P -1"
_symmetry_group_IT_number 2
_symmetry_cell_setting 'triclinic'
loop_
_space_group_symop_operation_xyz
x,y,z
-x,-y,-z
loop_
_atom_site_type_symbol
_atom_site_label
_atom_site_fract_x
_atom_site_fract_y
_atom_site_fract_z
Si Si1 0.485875 0.098680 0.245613
Si Si2 0.081541 0.106476 0.399741
Si Si3 0.594287 0.125320 0.889677
Si Si4 0.462824 0.742509 0.512260
Si Si5 0.228127 0.823335 0.990709
Si Si6 0.892867 0.115703 0.744625
Si Si7 0.243310 0.615756 0.965106
Si Si8 0.742536 0.616578 0.209337
O O1 0.650283 0.077350 0.191458
O O2 0.470568 0.888350 0.459390
O O3 0.539158 0.101582 0.076440
O O4 0.291988 0.362767 0.176223
O O5 0.045699 0.122970 0.541906
O O6 0.951296 0.381476 0.226860
O O7 0.000000 0.000000 0.500000
O O8 0.311495 0.920338 0.383943
O O9 0.745346 0.173738 0.728955
O O10 0.409970 0.333623 0.791262
O O11 0.711638 0.861667 0.995576
O O12 0.374073 0.619023 0.757931
O O13 0.662357 0.609970 0.399379
O O14 0.301308 0.663074 0.979059
O O15 0.218186 0.736129 0.197535
O O16 0.000000 0.000000 0.000000
O O17 0.021490 0.836052 0.927803
#
# Coordination Sequence:
#
# PCOD9004085 Si02
#       8
#     2   2   2   2   2   2   2   2
#     4  10  21  38  62  88 121 159 201 252 310 360
#     4  11  24  38  61  93 123 163 206 255 307 363
#     4   9  20  38  57  85 116 166 202 245 310 363
#     4  10  24  41  58  97 125 159 211 251 305 368
#     4   9  19  39  63  88 119 157 202 250 307 372
#     4   9  20  36  59  85 118 158 201 246 311 360
#     4  10  21  37  64  87 120 160 200 257 306 362
#     4  10  22  39  59  85 127 159 202 255 303 364
#
# _framework density 24.941172999999999
#
# number of rings (size 3 to 8) (size 9 to 14) (size 15 to 20)
#    0.000    2.250    0.000    1.125    8.750    1.500 
#    0.000    2.500    0.000    3.750    0.000    0.000 
#    0.000    0.000    0.000    0.000    0.000    0.000 
#
# Total GULP energy -89246.641350 kJ/mol
# GULP energy per Si atom -5577.915084 kJ/mol
# Density = 2.488441 g / cm^3
# Si number density = 24.941173 Si / 1000 Ang^3
#
#
#
# Elastic Constant Matrix: (Units=GPa)
#
#
# Indices 1 2 3 4 5 6 
#
# 1 105.8850 11.1658 3.7998 -10.9581 -5.7609 5.4632
# 2 11.1658 85.2305 10.3861 -20.5523 7.4460 5.3164
# 3 3.7998 10.3861 62.0410 -10.0356 -5.9025 16.1877
# 4 -10.9581 -20.5523 -10.0356 38.6697 8.6158 12.7162
# 5 -5.7609 7.4460 -5.9025 8.6158 31.5411 0.2198
# 6 5.4632 5.3164 16.1877 12.7162 0.2198 43.4568
#
#
#
# Elastic Compliance Matrix: (Units=1/GPa)
#
#
# Indices 1 2 3 4 5 6 
#
# 1 0.010006 -0.000576 0.000760 0.003250 0.001235 -0.002428
# 2 -0.000576 0.015416 -0.000073 0.011172 -0.006775 -0.005021
# 3 0.000760 -0.000073 0.020229 0.008354 0.001730 -0.010075
# 4 0.003250 0.011172 0.008354 0.043366 -0.012204 -0.017515
# 5 0.001235 -0.006775 0.001730 -0.012204 0.037163 0.003413
# 6 -0.002428 -0.005021 -0.010075 -0.017515 0.003413 0.032792
#
#
# Mechanical properties :
#
#
# Convention : Reuss Voigt Hill
#
# Bulk Modulus (GPa) = 21.79888 33.76223 27.78056
# Shear Modulus (GPa) = 28.72875 37.92051 33.32463
#
# Velocity S-wave (km/s) = 3.39759 3.90346 3.65928
# Velocity P-wave (km/s) = 4.91432 5.82083 5.38668
#
# Compressibility (1/GPa) = 0.04587391
#
# Stress axis : x y z
#
# Youngs Moduli (GPa) = 99.93507 64.86613 49.43453
#
# Poissons Ratio (x) = 0.03739 -0.03758
# Poissons Ratio (y) = 0.05760 0.00360
# Poissons Ratio (z) = -0.07598 0.00472
#
# Static dielectric constant tensor:
#      x y z
#    x 2.006820 0.016050 0.025600 
#    y 0.016050 2.099990 -0.001910 
#    z 0.025600 -0.001910 2.091660 
# 
# From -- ./inp_files/528786.got.cif
#   From: 2010.05.17/outbox.cif.g08.bks.cpg/sg2_265_cif.got.tgz:528786.got - 2010.06.03 11:33:40.
