data_PCOD9004462
_publ_section_title
;
Structure prediction by ZEFSAII (Michael W. Deem and Ramdas Pophale) SiO2 
 PCOD9004462
Probable space group: P -1
;
_chemical_formula_sum "Si O2"
_cell_formula_units_Z 16
_cell_length_a 9.365355
_cell_length_b 11.044458
_cell_length_c 15.118786
_cell_angle_alpha 132.167327
_cell_angle_beta 141.688518
_cell_angle_gamma 62.582920
_cell_volume 711.043345
_symmetry_space_group_name_H-M "P -1"
_symmetry_group_IT_number 2
_symmetry_cell_setting 'triclinic'
loop_
_space_group_symop_operation_xyz
x,y,z
-x,-y,-z
loop_
_atom_site_type_symbol
_atom_site_label
_atom_site_fract_x
_atom_site_fract_y
_atom_site_fract_z
Si Si1 0.754076 0.888321 0.718784
Si Si2 0.280233 0.995908 0.528143
Si Si3 0.177512 0.203303 0.751785
Si Si4 0.005607 0.445145 0.648164
Si Si5 0.557606 0.379438 0.284717
Si Si6 0.293293 0.292952 0.561104
Si Si7 0.829337 0.878815 0.953852
Si Si8 0.675049 0.234833 0.092079
O O1 0.829519 0.777454 0.622748
O O2 0.809919 0.842610 0.822626
O O3 0.479086 0.882439 0.575796
O O4 0.900641 0.069915 0.865849
O O5 0.250333 0.083306 0.650734
O O6 0.368532 0.136517 0.569359
O O7 0.024606 0.898874 0.337362
O O8 0.062856 0.345149 0.714077
O O9 0.414520 0.258291 0.945779
O O10 0.126920 0.362243 0.584624
O O11 0.147570 0.628952 0.807660
O O12 0.735598 0.420653 0.474471
O O13 0.528167 0.551439 0.307693
O O14 0.319572 0.271339 0.143415
O O15 0.676674 0.276455 0.217627
O O16 0.718673 0.048241 0.001394
#
# Coordination Sequence:
#
# PCOD9004462 Si02
#       8
#     2   2   2   2   2   2   2   2
#     4  11  22  41  59  86 122 163 205 243 301 365
#     4  10  21  39  63  90 122 159 202 248 307 361
#     4  10  21  37  67  95 119 154 205 256 303 360
#     4  10  21  39  63  93 127 157 198 253 312 356
#     4  11  23  40  62  92 124 160 206 252 303 358
#     4  10  22  38  62  85 121 165 196 245 301 363
#     4  11  24  37  63  90 120 160 205 252 298 361
#     4  11  21  39  64  97 123 153 201 261 308 349
#
# _framework density 22.502144999999999
#
# number of rings (size 3 to 8) (size 9 to 14) (size 15 to 20)
#    0.000    1.500    1.250    4.875    5.250    0.500 
#    0.000    3.125    0.000    0.000    0.000    0.000 
#    0.000    0.000    0.000    0.000    0.000    0.000 
#
# Total GULP energy -89388.772582 kJ/mol
# GULP energy per Si atom -5586.798286 kJ/mol
# Density = 2.245093 g / cm^3
# Si number density = 22.502145 Si / 1000 Ang^3
#
#
#
# Elastic Constant Matrix: (Units=GPa)
#
#
# Indices 1 2 3 4 5 6 
#
# 1 64.2984 30.1139 30.2824 13.0508 13.1567 15.2147
# 2 30.1139 65.1942 28.5500 3.1726 6.5498 11.6641
# 3 30.2824 28.5500 96.6607 4.8206 6.3760 4.9177
# 4 13.0508 3.1726 4.8206 30.6543 2.3749 13.2907
# 5 13.1567 6.5498 6.3760 2.3749 32.5780 3.1362
# 6 15.2147 11.6641 4.9177 13.2907 3.1362 22.7417
#
#
#
# Elastic Compliance Matrix: (Units=1/GPa)
#
#
# Indices 1 2 3 4 5 6 
#
# 1 0.025654 -0.007345 -0.004733 -0.005269 -0.006769 -0.008360
# 2 -0.007345 0.021717 -0.003931 0.005132 -0.000201 -0.008346
# 3 -0.004733 -0.003931 0.012887 -0.000861 -0.000037 0.002905
# 4 -0.005269 0.005132 -0.000861 0.045531 0.000409 -0.025587
# 5 -0.006769 -0.000201 -0.000037 0.000409 0.033468 -0.000215
# 6 -0.008360 -0.008346 0.002905 -0.025587 -0.000215 0.068200
#
#
# Mechanical properties :
#
#
# Convention : Reuss Voigt Hill
#
# Bulk Modulus (GPa) = 35.41193 44.89402 40.15297
# Shear Modulus (GPa) = 20.08925 26.34194 23.21559
#
# Velocity S-wave (km/s) = 2.99117 3.42518 3.21550
# Velocity P-wave (km/s) = 5.26315 5.96965 5.62750
#
# Compressibility (1/GPa) = 0.02823907
#
# Stress axis : x y z
#
# Youngs Moduli (GPa) = 38.97999 46.04725 77.59725
#
# Poissons Ratio (x) = 0.33822 0.36727
# Poissons Ratio (y) = 0.28631 0.30506
# Poissons Ratio (z) = 0.18449 0.18103
#
# Static dielectric constant tensor:
#      x y z
#    x 1.817680 -0.002230 -0.005320 
#    y -0.002230 1.863800 0.007740 
#    z -0.005320 0.007740 1.845470 
# 
# From -- ./inp_files/279435.got.cif
#   From: 2010.05.17/outbox.cif.g08.bks.cpg/sg2_140_cif.got.tgz:279435.got - 2010.06.03 11:33:40.
