data_PCOD9004268
_publ_section_title
;
Structure prediction by ZEFSAII (Michael W. Deem and Ramdas Pophale) SiO2 
 PCOD9004268
Probable space group: P -1
;
_chemical_formula_sum "Si O2"
_cell_formula_units_Z 16
_cell_length_a 15.129015
_cell_length_b 5.819048
_cell_length_c 9.413821
_cell_angle_alpha 94.905923
_cell_angle_beta 77.474949
_cell_angle_gamma 96.241086
_cell_volume 802.601021
_symmetry_space_group_name_H-M "P -1"
_symmetry_group_IT_number 2
_symmetry_cell_setting 'triclinic'
loop_
_space_group_symop_operation_xyz
x,y,z
-x,-y,-z
loop_
_atom_site_type_symbol
_atom_site_label
_atom_site_fract_x
_atom_site_fract_y
_atom_site_fract_z
Si Si1 0.814144 0.447134 0.275516
Si Si2 0.473605 0.210756 0.616505
Si Si3 0.093568 0.049559 0.786659
Si Si4 0.282882 0.342509 0.190368
Si Si5 0.415683 0.064930 0.941088
Si Si6 0.888227 0.951117 0.885365
Si Si7 0.653259 0.549415 0.520334
Si Si8 0.745160 0.305871 0.997651
O O1 0.866490 0.708462 0.291098
O O2 0.732089 0.418150 0.414736
O O3 0.862766 0.202176 0.255264
O O4 0.774468 0.464241 0.130156
O O5 0.452462 0.162657 0.784691
O O6 0.561367 0.395721 0.587716
O O7 0.382977 0.288982 0.579696
O O8 0.500000 0.000000 0.500000
O O9 0.098602 0.110984 0.956878
O O10 0.987037 0.996339 0.785269
O O11 0.182058 0.230866 0.180425
O O12 0.306818 0.328518 0.345131
O O13 0.285897 0.596089 0.135535
O O14 0.357236 0.226847 0.064407
O O15 0.500000 0.000000 0.000000
O O16 0.341181 0.853246 0.923209
O O17 0.833172 0.175970 0.924387
#
# Coordination Sequence:
#
# PCOD9004268 Si02
#       8
#     2   2   2   2   2   2   2   2
#     4  11  23  41  66  98 127 175 219 273 327 394
#     4  11  24  42  64  88 129 171 221 267 323 395
#     4  10  22  40  70  97 131 168 223 273 330 395
#     4  11  22  41  61  91 131 164 215 270 332 387
#     4  11  23  39  63  95 126 167 215 274 328 388
#     4   9  21  38  64  99 124 165 213 274 328 388
#     4  11  26  40  61  92 126 176 215 269 327 395
#     4  10  21  37  65  91 125 165 215 272 326 385
#
# _framework density 19.935186000000002
#
# number of rings (size 3 to 8) (size 9 to 14) (size 15 to 20)
#    0.000    1.500    1.250    3.000    7.000    6.500 
#    0.000    1.250    0.000    0.000    0.000    0.000 
#    0.000    0.000    0.000    0.000    0.000    0.000 
#
# Total GULP energy -89174.675452 kJ/mol
# GULP energy per Si atom -5573.417216 kJ/mol
# Density = 1.988981 g / cm^3
# Si number density = 19.935186 Si / 1000 Ang^3
#
#
#
# Elastic Constant Matrix: (Units=GPa)
#
#
# Indices 1 2 3 4 5 6 
#
# 1 125.4263 21.6395 70.4393 4.5084 -8.2277 -22.8303
# 2 21.6395 64.5624 -0.7835 -18.9081 -3.4185 27.4531
# 3 70.4393 -0.7835 195.8035 33.3097 1.3256 -92.1397
# 4 4.5084 -18.9081 33.3097 43.6071 -4.4792 -38.4277
# 5 -8.2277 -3.4185 1.3256 -4.4792 29.8126 2.2194
# 6 -22.8303 27.4531 -92.1397 -38.4277 2.2194 99.6275
#
#
#
# Elastic Compliance Matrix: (Units=1/GPa)
#
#
# Indices 1 2 3 4 5 6 
#
# 1 0.011052 -0.003243 -0.004284 0.000759 0.003006 -0.000310
# 2 -0.003243 0.021672 -0.003354 0.005921 0.003195 -0.007604
# 3 -0.004284 -0.003354 0.011771 -0.001079 -0.003033 0.010480
# 4 0.000759 0.005921 -0.001079 0.037192 0.005649 0.011764
# 5 0.003006 0.003195 -0.003033 0.005649 0.035843 -0.001616
# 6 -0.000310 -0.007604 0.010480 0.011764 -0.001616 0.026327
#
#
# Mechanical properties :
#
#
# Convention : Reuss Voigt Hill
#
# Bulk Modulus (GPa) = 43.99059 63.15362 53.57211
# Shear Modulus (GPa) = 28.86908 54.24256 41.55582
#
# Velocity S-wave (km/s) = 3.80958 5.22193 4.57064
# Velocity P-wave (km/s) = 6.43935 8.25265 7.40174
#
# Compressibility (1/GPa) = 0.02273213
#
# Stress axis : x y z
#
# Youngs Moduli (GPa) = 90.48333 46.14302 84.95804
#
# Poissons Ratio (x) = 0.14963 0.36399
# Poissons Ratio (y) = 0.29342 0.28494
# Poissons Ratio (z) = 0.38766 0.15476
#
# Static dielectric constant tensor:
#      x y z
#    x 1.699290 -0.032670 -0.007830 
#    y -0.032670 1.860690 0.015940 
#    z -0.007830 0.015940 1.663020 
# 
# From -- ./inp_files/37310.got.cif
#   From: 2010.05.17/outbox.cif.g08.bks.cpg/sg2_19_cif.got.tgz:37310.got - 2010.06.03 11:33:40.
