data_PCOD9004153
_publ_section_title
;
Structure prediction by ZEFSAII (Michael W. Deem and Ramdas Pophale) SiO2 
 PCOD9004153
Probable space group: P -1
;
_chemical_formula_sum "Si O2"
_cell_formula_units_Z 14
_cell_length_a 15.597082
_cell_length_b 7.952970
_cell_length_c 8.787616
_cell_angle_alpha 68.042544
_cell_angle_beta 98.123659
_cell_angle_gamma 50.636566
_cell_volume 663.885449
_symmetry_space_group_name_H-M "P -1"
_symmetry_group_IT_number 2
_symmetry_cell_setting 'triclinic'
loop_
_space_group_symop_operation_xyz
x,y,z
-x,-y,-z
loop_
_atom_site_type_symbol
_atom_site_label
_atom_site_fract_x
_atom_site_fract_y
_atom_site_fract_z
Si Si1 0.970873 0.306355 0.057085
Si Si2 0.296198 0.467417 0.591748
Si Si3 0.861487 0.809099 0.331201
Si Si4 0.219741 0.013149 0.409476
Si Si5 0.955242 0.227514 0.748625
Si Si6 0.545703 0.217847 0.623939
Si Si7 0.728707 0.760925 0.070709
O O1 0.846620 0.516903 0.067757
O O2 0.937429 0.375489 0.845910
O O3 0.092768 0.222840 0.193556
O O4 0.029310 0.011804 0.155640
O O5 0.260089 0.736198 0.510048
O O6 0.173283 0.554231 0.460548
O O7 0.418734 0.287871 0.566996
O O8 0.319287 0.332239 0.805222
O O9 0.784979 0.820719 0.181137
O O10 0.000000 0.500000 0.500000
O O11 0.907720 0.929003 0.237703
O O12 0.800273 0.919900 0.441970
O O13 0.334136 0.967661 0.399315
O O14 0.500000 0.500000 0.500000
O O15 0.615596 0.041703 0.855702
#
# Coordination Sequence:
#
# PCOD9004153 Si02
#       7
#     2   2   2   2   2   2   2
#     4  10  21  37  64  94 119 161 196 255 308 365
#     4  10  21  42  62  86 122 165 206 245 295 363
#     4  12  22  35  61  97 127 150 195 253 310 362
#     4  10  21  41  63  88 127 162 196 249 309 361
#     4  10  21  38  60  91 130 154 198 247 315 361
#     4  10  24  43  62  85 122 167 208 251 297 355
#     4  12  23  38  66  91 123 157 209 251 305 356
#
# _framework density 21.087976999999999
#
# number of rings (size 3 to 8) (size 9 to 14) (size 15 to 20)
#    0.000    1.429    2.857    2.143    2.000    4.571 
#    0.000    7.143    0.000    0.000    0.000    0.000 
#    0.000    0.000    0.000    0.000    0.000    0.000 
#
# Total GULP energy -78010.669828 kJ/mol
# GULP energy per Si atom -5572.190702 kJ/mol
# Density = 2.103998 g / cm^3
# Si number density = 21.087977 Si / 1000 Ang^3
#
#
#
# Elastic Constant Matrix: (Units=GPa)
#
#
# Indices 1 2 3 4 5 6 
#
# 1 105.7033 41.5959 27.3194 13.9638 -6.6749 -25.7947
# 2 41.5959 92.2151 40.4741 24.8578 7.0350 -14.0899
# 3 27.3194 40.4741 101.1347 9.2381 -8.0730 -2.1075
# 4 13.9638 24.8578 9.2381 38.0874 -2.1440 -6.4359
# 5 -6.6749 7.0350 -8.0730 -2.1440 26.0346 5.9279
# 6 -25.7947 -14.0899 -2.1075 -6.4359 5.9279 40.5514
#
#
#
# Elastic Compliance Matrix: (Units=1/GPa)
#
#
# Indices 1 2 3 4 5 6 
#
# 1 0.013405 -0.004560 -0.001411 -0.000358 0.002742 0.006411
# 2 -0.004560 0.019626 -0.006482 -0.009533 -0.010074 0.003541
# 3 -0.001411 -0.006482 0.013175 0.001372 0.006310 -0.003169
# 4 -0.000358 -0.009533 0.001372 0.032738 0.005392 0.000939
# 5 0.002742 -0.010074 0.006310 0.005392 0.045894 -0.007281
# 6 0.006411 0.003541 -0.003169 0.000939 -0.007281 0.031017
#
#
# Mechanical properties :
#
#
# Convention : Reuss Voigt Hill
#
# Bulk Modulus (GPa) = 46.94898 57.53687 52.24292
# Shear Modulus (GPa) = 26.61552 33.57891 30.09722
#
# Velocity S-wave (km/s) = 3.55648 3.99472 3.78196
# Velocity P-wave (km/s) = 6.25911 6.97284 6.62560
#
# Compressibility (1/GPa) = 0.02129972
#
# Stress axis : x y z
#
# Youngs Moduli (GPa) = 74.60116 50.95397 75.90003
#
# Poissons Ratio (x) = 0.23237 0.10707
# Poissons Ratio (y) = 0.34021 0.49197
# Poissons Ratio (z) = 0.10524 0.33027
#
# Static dielectric constant tensor:
#      x y z
#    x 1.891750 -0.004700 -0.113220 
#    y -0.004700 1.736520 -0.053400 
#    z -0.113220 -0.053400 1.854920 
# 
# From -- ./inp_files/181072.got.cif
#   From: 2010.05.17/outbox.cif.g08.bks.cpg/sg2_91_cif.got.tgz:181072.got - 2010.06.03 11:33:40.
