data_PCOD9004315
_publ_section_title
;
Structure prediction by ZEFSAII (Michael W. Deem and Ramdas Pophale) SiO2 
 PCOD9004315
Probable space group: P -1
;
_chemical_formula_sum "Si O2"
_cell_formula_units_Z 16
_cell_length_a 23.838570
_cell_length_b 20.915080
_cell_length_c 9.108744
_cell_angle_alpha 150.621945
_cell_angle_beta 30.412281
_cell_angle_gamma 156.418414
_cell_volume 842.919513
_symmetry_space_group_name_H-M "P -1"
_symmetry_group_IT_number 2
_symmetry_cell_setting 'triclinic'
loop_
_space_group_symop_operation_xyz
x,y,z
-x,-y,-z
loop_
_atom_site_type_symbol
_atom_site_label
_atom_site_fract_x
_atom_site_fract_y
_atom_site_fract_z
Si Si1 0.451922 0.973299 0.720547
Si Si2 0.128787 0.827000 0.205359
Si Si3 0.610458 0.329682 0.232864
Si Si4 0.552819 0.545533 0.144499
Si Si5 0.544749 0.804336 0.367430
Si Si6 0.883481 0.150079 0.370461
Si Si7 0.069954 0.529178 0.239616
Si Si8 0.109765 0.111445 0.838210
O O1 0.491315 0.877238 0.530855
O O2 0.500000 0.000000 0.500000
O O3 0.285380 0.887646 0.938344
O O4 0.537899 0.155883 0.966087
O O5 0.108882 0.815954 0.404253
O O6 0.122725 0.975754 0.467748
O O7 0.025197 0.640474 0.988386
O O8 0.543267 0.411686 0.490668
O O9 0.555413 0.272760 0.412393
O O10 0.780359 0.438345 0.034487
O O11 0.727310 0.712054 0.117505
O O12 0.500000 0.500000 0.000000
O O13 0.495763 0.361111 0.954862
O O14 0.719473 0.960666 0.326674
O O15 0.901447 0.303690 0.557481
O O16 0.017881 0.151967 0.039139
O O17 0.000000 0.500000 0.500000
O O18 0.000000 0.000000 0.000000
#
# Coordination Sequence:
#
# PCOD9004315 Si02
#       8
#     2   2   2   2   2   2   2   2
#     4  12  23  41  64  88 127 166 208 260 306 366
#     4  11  23  40  65  93 121 167 210 249 315 365
#     4  11  21  43  66  88 126 162 210 257 303 371
#     4  10  21  37  65  96 121 158 209 260 310 360
#     4  11  23  40  68  97 120 162 211 259 312 363
#     4  11  23  42  65  95 127 159 208 262 308 372
#     4  12  27  42  61  92 131 168 206 254 313 370
#     4  10  21  38  62  96 127 156 204 262 309 366
#
# _framework density 18.981645
#
# number of rings (size 3 to 8) (size 9 to 14) (size 15 to 20)
#    0.000    1.000    3.750    4.500   10.500    0.000 
#    0.000    2.500    0.000    0.000    0.000    0.000 
#    0.000    0.000    0.000    0.000    0.000    0.000 
#
# Total GULP energy -89135.860223 kJ/mol
# GULP energy per Si atom -5570.991264 kJ/mol
# Density = 1.893844 g / cm^3
# Si number density = 18.981645 Si / 1000 Ang^3
#
#
#
# Elastic Constant Matrix: (Units=GPa)
#
#
# Indices 1 2 3 4 5 6 
#
# 1 3.6604 20.5187 92.1287 -26.6612 14.6287 11.2315
# 2 20.5187 137.5358 84.8363 -1.3357 -4.8536 33.7765
# 3 92.1287 84.8363 146.9101 20.8442 -35.4602 2.2105
# 4 -26.6612 -1.3357 20.8442 39.7660 18.4826 2.0100
# 5 14.6287 -4.8536 -35.4602 18.4826 42.6599 10.9839
# 6 11.2315 33.7765 2.2105 2.0100 10.9839 57.2314
#
#
#
# Elastic Compliance Matrix: (Units=1/GPa)
#
#
# Indices 1 2 3 4 5 6 
#
# 1 -0.001631 -0.004217 0.007290 -0.009824 0.010158 0.000923
# 2 -0.004217 0.011137 -0.002663 -0.002146 0.003012 -0.006145
# 3 0.007290 -0.002663 0.002246 0.005122 -0.003285 0.000505
# 4 -0.009824 -0.002146 0.005122 0.015704 -0.000054 0.002456
# 5 0.010158 0.003012 -0.003285 -0.000054 0.019494 -0.007383
# 6 0.000923 -0.006145 0.000505 0.002456 -0.007383 0.022230
#
#
# Mechanical properties :
#
#
# Convention : Reuss Voigt Hill
#
# Bulk Modulus (GPa) = 79.54256 75.89707 77.71981
# Shear Modulus (GPa) = 68.91723 33.97297 51.44510
#
# Velocity S-wave (km/s) = 6.03209 4.23517 5.21166
# Velocity P-wave (km/s) = 9.51372 7.99917 8.78913
#
# Compressibility (1/GPa) = 0.01257189
#
# Stress axis : x y z
#
# Youngs Moduli (GPa) = -613.07286 89.78949 445.26004
#
# Poissons Ratio (x) = 0.37862 -3.24589
# Poissons Ratio (y) = -2.58521 1.18576
# Poissons Ratio (z) = 4.46922 0.23912
#
# Static dielectric constant tensor:
#      x y z
#    x 1.670590 0.006030 0.015080 
#    y 0.006030 1.608840 0.099420 
#    z 0.015080 0.099420 1.748870 
# 
# From -- ./inp_files/298023.got.cif
#   From: 2010.05.17/outbox.cif.g08.bks.cpg/sg2_150_cif.got.tgz:298023.got - 2010.06.03 11:33:40.
