data_PCOD9004817
_publ_section_title
;
Structure prediction by ZEFSAII (Michael W. Deem and Ramdas Pophale) SiO2 
 PCOD9004817
Probable space group: P -1
;
_chemical_formula_sum "Si O2"
_cell_formula_units_Z 14
_cell_length_a 11.835403
_cell_length_b 12.497986
_cell_length_c 9.411706
_cell_angle_alpha 65.941519
_cell_angle_beta 102.435403
_cell_angle_gamma 150.410327
_cell_volume 597.068171
_symmetry_space_group_name_H-M "P -1"
_symmetry_group_IT_number 2
_symmetry_cell_setting 'triclinic'
loop_
_space_group_symop_operation_xyz
x,y,z
-x,-y,-z
loop_
_atom_site_type_symbol
_atom_site_label
_atom_site_fract_x
_atom_site_fract_y
_atom_site_fract_z
Si Si1 0.730950 0.748497 0.123330
Si Si2 0.076022 0.121072 0.605989
Si Si3 0.698475 0.098132 0.656535
Si Si4 0.440477 0.283802 0.172329
Si Si5 0.730420 0.159840 0.231520
Si Si6 0.910365 0.616023 0.619044
Si Si7 0.190120 0.705696 0.129041
O O1 0.634797 0.533089 0.174451
O O2 0.754059 0.787340 0.278105
O O3 0.564863 0.684058 0.013561
O O4 0.000000 0.000000 0.000000
O O5 0.184345 0.345685 0.479794
O O6 0.820250 0.913784 0.727338
O O7 0.000000 0.000000 0.500000
O O8 0.925294 0.297376 0.506501
O O9 0.791287 0.188984 0.793927
O O10 0.552576 0.848493 0.735115
O O11 0.509115 0.036751 0.635461
O O12 0.889800 0.191093 0.305620
O O13 0.910639 0.428560 0.169395
O O14 0.694273 0.143769 0.064127
O O15 0.735141 0.360424 0.767035
#
# Coordination Sequence:
#
# PCOD9004817 Si02
#       7
#     2   2   2   2   2   2   2
#     4   9  19  41  59  78 116 148 190 245 286 333
#     4  10  21  38  59  84 118 153 189 241 296 335
#     4  11  19  34  61  84 112 149 190 235 284 338
#     4   9  21  38  59  90 111 146 204 236 280 356
#     4   9  20  36  53  80 119 151 186 231 284 338
#     4   9  20  38  52  85 117 146 192 232 275 350
#     4   9  20  37  52  81 122 147 192 227 277 350
#
# _framework density 23.447911000000001
#
# number of rings (size 3 to 8) (size 9 to 14) (size 15 to 20)
#    0.857    1.714    0.000    1.286    0.000    5.143 
#   12.857    0.000    0.000    0.000    0.000    0.000 
#    0.000    0.000    0.000    0.000    0.000    0.000 
#
# Total GULP energy -78012.768891 kJ/mol
# GULP energy per Si atom -5572.340635 kJ/mol
# Density = 2.339454 g / cm^3
# Si number density = 23.447911 Si / 1000 Ang^3
#
#
#
# Elastic Constant Matrix: (Units=GPa)
#
#
# Indices 1 2 3 4 5 6 
#
# 1 21.4953 1.6176 21.1856 -2.4038 2.0375 0.8508
# 2 1.6176 101.6177 28.3549 1.2685 -2.7684 -7.3714
# 3 21.1856 28.3549 154.9985 19.6480 2.0393 -13.4679
# 4 -2.4038 1.2685 19.6480 36.5091 -0.8121 -3.8791
# 5 2.0375 -2.7684 2.0393 -0.8121 14.0511 -0.0581
# 6 0.8508 -7.3714 -13.4679 -3.8791 -0.0581 18.0175
#
#
#
# Elastic Compliance Matrix: (Units=1/GPa)
#
#
# Indices 1 2 3 4 5 6 
#
# 1 0.057813 0.000938 -0.009690 0.008010 -0.006362 -0.007886
# 2 0.000938 0.010652 -0.001984 0.001139 0.002329 0.003083
# 3 -0.009690 -0.001984 0.009255 -0.004980 -0.000594 0.005490
# 4 0.008010 0.001139 -0.004980 0.030915 0.001585 0.003026
# 5 -0.006362 0.002329 -0.000594 0.001585 0.072734 0.001385
# 6 -0.007886 0.003083 0.005490 0.003026 0.001385 0.061895
#
#
# Mechanical properties :
#
#
# Convention : Reuss Voigt Hill
#
# Bulk Modulus (GPa) = 17.77832 42.26973 30.02402
# Shear Modulus (GPa) = 17.63753 28.84577 23.24165
#
# Velocity S-wave (km/s) = 2.74560 3.51124 3.15175
# Velocity P-wave (km/s) = 4.20114 5.87406 5.10657
#
# Compressibility (1/GPa) = 0.05624830
#
# Stress axis : x y z
#
# Youngs Moduli (GPa) = 17.29716 93.87554 108.04661
#
# Poissons Ratio (x) = -0.08809 1.04702
# Poissons Ratio (y) = -0.01623 0.21437
# Poissons Ratio (z) = 0.16762 0.18625
#
# Static dielectric constant tensor:
#      x y z
#    x 1.891170 0.056560 0.029740 
#    y 0.056560 1.940590 0.056980 
#    z 0.029740 0.056980 1.948110 
# 
# From -- ./inp_files/247822.got.cif
#   From: 2010.05.17/outbox.cif.g08.bks.cpg/sg2_124_cif.got.tgz:247822.got - 2010.06.03 11:33:40.
