data_PCOD9004499
_publ_section_title
;
Structure prediction by ZEFSAII (Michael W. Deem and Ramdas Pophale) SiO2 
 PCOD9004499
Probable space group: P -1
;
_chemical_formula_sum "Si O2"
_cell_formula_units_Z 16
_cell_length_a 8.143933
_cell_length_b 7.375399
_cell_length_c 20.711670
_cell_angle_alpha 71.424282
_cell_angle_beta 110.591773
_cell_angle_gamma 55.321497
_cell_volume 707.684765
_symmetry_space_group_name_H-M "P -1"
_symmetry_group_IT_number 2
_symmetry_cell_setting 'triclinic'
loop_
_space_group_symop_operation_xyz
x,y,z
-x,-y,-z
loop_
_atom_site_type_symbol
_atom_site_label
_atom_site_fract_x
_atom_site_fract_y
_atom_site_fract_z
Si Si1 0.226987 0.328375 0.451261
Si Si2 0.834220 0.894800 0.150743
Si Si3 0.718166 0.221656 0.973995
Si Si4 0.121932 0.757297 0.799305
Si Si5 0.298302 0.381261 0.605502
Si Si6 0.683078 0.338034 0.608751
Si Si7 0.714552 0.644364 0.927289
Si Si8 0.762219 0.708056 0.784262
O O1 0.244034 0.383615 0.522046
O O2 0.194871 0.551546 0.381429
O O3 0.968925 0.401985 0.411394
O O4 0.500000 0.000000 0.500000
O O5 0.100493 0.542090 0.221284
O O6 0.890066 0.041426 0.181571
O O7 0.565657 0.018836 0.129084
O O8 0.747765 0.029317 0.051272
O O9 0.439906 0.441808 0.869317
O O10 0.697947 0.448048 0.978438
O O11 0.000000 0.000000 0.000000
O O12 0.980402 0.698291 0.822358
O O13 0.932019 0.976098 0.687214
O O14 0.475411 0.428327 0.624060
O O15 0.485506 0.046405 0.689861
O O16 0.500000 0.500000 0.500000
O O17 0.713391 0.632696 0.851238
O O18 0.000000 0.500000 0.000000
#
# Coordination Sequence:
#
# PCOD9004499 Si02
#       8
#     2   2   2   2   2   2   2   2
#     4  10  21  37  68  89 124 164 206 260 326 382
#     4  11  24  40  63  92 126 172 215 261 324 383
#     4  11  22  39  60  91 128 169 215 259 324 378
#     4  10  23  41  63  93 131 167 215 271 317 390
#     4   9  22  40  58  96 124 161 211 259 318 392
#     4   9  20  41  65  91 132 167 207 273 328 376
#     4  11  23  38  61  88 123 167 214 265 313 381
#     4  11  23  41  64  89 131 164 214 267 319 377
#
# _framework density 22.608936
#
# number of rings (size 3 to 8) (size 9 to 14) (size 15 to 20)
#    0.000    1.750    1.250    3.000    7.000    1.500 
#    0.000    0.000    5.500    0.000    0.000    0.000 
#    0.000    0.000    0.000    0.000    0.000    0.000 
#
# Total GULP energy -89274.510432 kJ/mol
# GULP energy per Si atom -5579.656902 kJ/mol
# Density = 2.255748 g / cm^3
# Si number density = 22.608936 Si / 1000 Ang^3
#
#
#
# Elastic Constant Matrix: (Units=GPa)
#
#
# Indices 1 2 3 4 5 6 
#
# 1 126.3816 28.0853 23.3069 -14.6016 3.7513 -24.9346
# 2 28.0853 76.8935 15.3821 -18.8468 4.8330 -29.0557
# 3 23.3069 15.3821 92.3733 -8.9441 1.1424 -18.9905
# 4 -14.6016 -18.8468 -8.9441 28.5996 -3.1897 12.2978
# 5 3.7513 4.8330 1.1424 -3.1897 33.1262 -12.0733
# 6 -24.9346 -29.0557 -18.9905 12.2978 -12.0733 35.8950
#
#
#
# Elastic Compliance Matrix: (Units=1/GPa)
#
#
# Indices 1 2 3 4 5 6 
#
# 1 0.009487 -0.000995 -0.001041 0.001848 0.001096 0.004970
# 2 -0.000995 0.020360 0.000532 0.007107 0.003166 0.014701
# 3 -0.001041 0.000532 0.012443 0.001096 0.002134 0.006633
# 4 0.001848 0.007107 0.001096 0.044157 0.000262 -0.007424
# 5 0.001096 0.003166 0.002134 0.000262 0.035495 0.016302
# 6 0.004970 0.014701 0.006633 -0.007424 0.016302 0.054747
#
#
# Mechanical properties :
#
#
# Convention : Reuss Voigt Hill
#
# Bulk Modulus (GPa) = 25.45690 47.68855 36.57272
# Shear Modulus (GPa) = 25.93488 34.78243 30.35866
#
# Velocity S-wave (km/s) = 3.39057 3.92655 3.66836
# Velocity P-wave (km/s) = 5.15869 6.45721 5.84413
#
# Compressibility (1/GPa) = 0.03928208
#
# Stress axis : x y z
#
# Youngs Moduli (GPa) = 105.40661 49.11586 80.36599
#
# Poissons Ratio (x) = 0.04887 0.08366
# Poissons Ratio (y) = 0.10488 -0.04275
# Poissons Ratio (z) = 0.10973 -0.02613
#
# Static dielectric constant tensor:
#      x y z
#    x 1.876090 0.038770 0.049530 
#    y 0.038770 1.856940 -0.007110 
#    z 0.049530 -0.007110 1.913480 
# 
# From -- ./inp_files/217976.got.cif
#   From: 2010.05.17/outbox.cif.g08.bks.cpg/sg2_109_cif.got.tgz:217976.got - 2010.06.03 11:33:40.
