data_PCOD9004891
_publ_section_title
;
Structure prediction by ZEFSAII (Michael W. Deem and Ramdas Pophale) SiO2 
 PCOD9004891
Probable space group: P -1
;
_chemical_formula_sum "Si O2"
_cell_formula_units_Z 16
_cell_length_a 10.248254
_cell_length_b 14.830844
_cell_length_c 10.935415
_cell_angle_alpha 28.400812
_cell_angle_beta 124.607728
_cell_angle_gamma 117.659020
_cell_volume 648.001514
_symmetry_space_group_name_H-M "P -1"
_symmetry_group_IT_number 2
_symmetry_cell_setting 'triclinic'
loop_
_space_group_symop_operation_xyz
x,y,z
-x,-y,-z
loop_
_atom_site_type_symbol
_atom_site_label
_atom_site_fract_x
_atom_site_fract_y
_atom_site_fract_z
Si Si1 0.298926 0.077604 0.396360
Si Si2 0.330599 0.248852 0.827552
Si Si3 0.773860 0.561111 0.926735
Si Si4 0.153337 0.860935 0.781996
Si Si5 0.409275 0.816911 0.145137
Si Si6 0.587223 0.460572 0.290861
Si Si7 0.110295 0.413000 0.300806
Si Si8 0.333309 0.879896 0.412286
O O1 0.212680 0.278680 0.153872
O O2 0.482405 0.123633 0.443076
O O3 0.278811 0.923791 0.674648
O O4 0.243811 0.981780 0.357814
O O5 0.491838 0.278659 0.802826
O O6 0.339132 0.356731 0.833278
O O7 0.192800 0.330247 0.565267
O O8 0.314755 0.029797 0.112349
O O9 0.595596 0.497694 0.900449
O O10 0.805081 0.660085 0.692985
O O11 0.920903 0.401998 0.209866
O O12 0.231346 0.884053 0.928183
O O13 0.129259 0.638894 0.031817
O O14 0.000000 0.000000 0.500000
O O15 0.417245 0.676258 0.430335
O O16 0.500000 0.000000 0.000000
O O17 0.685265 0.331050 0.396252
#
# Coordination Sequence:
#
# PCOD9004891 Si02
#       8
#     2   2   2   2   2   2   2   2
#     4  10  21  42  61  88 123 170 209 250 309 370
#     4  12  22  38  64  95 126 160 207 264 307 368
#     4  10  21  38  59  88 130 156 199 256 314 375
#     4  12  23  38  64  92 126 159 204 266 315 368
#     4  12  21  35  62  94 126 160 202 262 320 358
#     4  11  21  39  63  95 125 157 215 257 309 368
#     4  11  23  36  60  98 125 158 201 258 330 366
#     4  10  23  41  64  87 127 172 209 254 303 369
#
# _framework density 24.691299999999998
#
# number of rings (size 3 to 8) (size 9 to 14) (size 15 to 20)
#    0.000    1.000    6.250    1.875    0.000    0.000 
#    2.250    2.500    0.000    3.000    0.000    0.000 
#    0.000    0.000    0.000    0.000    0.000    0.000 
#
# Total GULP energy -89560.953572 kJ/mol
# GULP energy per Si atom -5597.559598 kJ/mol
# Density = 2.463510 g / cm^3
# Si number density = 24.691300 Si / 1000 Ang^3
#
#
#
# Elastic Constant Matrix: (Units=GPa)
#
#
# Indices 1 2 3 4 5 6 
#
# 1 41.2684 29.8487 21.5836 3.8714 2.4710 -17.4111
# 2 29.8487 132.2319 40.9382 -2.9001 17.9231 -17.1385
# 3 21.5836 40.9382 110.4614 16.7488 7.3291 -0.6995
# 4 3.8714 -2.9001 16.7488 52.8393 4.8850 2.8473
# 5 2.4710 17.9231 7.3291 4.8850 35.1349 -1.4735
# 6 -17.4111 -17.1385 -0.6995 2.8473 -1.4735 39.6388
#
#
#
# Elastic Compliance Matrix: (Units=1/GPa)
#
#
# Indices 1 2 3 4 5 6 
#
# 1 0.036580 -0.005266 -0.004885 -0.002361 0.002046 0.013950
# 2 -0.005266 0.010572 -0.002905 0.002215 -0.004646 0.001875
# 3 -0.004885 -0.002905 0.011581 -0.003288 -0.000258 -0.002971
# 4 -0.002361 0.002215 -0.003288 0.020654 -0.003223 -0.001741
# 5 0.002046 -0.004646 -0.000258 -0.003223 0.031201 0.000277
# 6 0.013950 0.001875 -0.002971 -0.001741 0.000277 0.032249
#
#
# Mechanical properties :
#
#
# Convention : Reuss Voigt Hill
#
# Bulk Modulus (GPa) = 30.65530 52.07808 41.36669
# Shear Modulus (GPa) = 27.80520 38.29535 33.05028
#
# Velocity S-wave (km/s) = 3.35940 3.94250 3.66257
# Velocity P-wave (km/s) = 5.24307 6.47008 5.88862
#
# Compressibility (1/GPa) = 0.03262079
#
# Stress axis : x y z
#
# Youngs Moduli (GPa) = 27.33737 94.59173 86.34848
#
# Poissons Ratio (x) = 0.49810 0.42184
# Poissons Ratio (y) = 0.14395 0.25083
# Poissons Ratio (z) = 0.13355 0.27478
#
# Static dielectric constant tensor:
#      x y z
#    x 2.056590 -0.065750 0.048130 
#    y -0.065750 2.012260 -0.039730 
#    z 0.048130 -0.039730 1.939450 
# 
# From -- ./inp_files/423233.got.cif
#   From: 2010.05.17/outbox.cif.g08.bks.cpg/sg2_212_cif.got.tgz:423233.got - 2010.06.03 11:33:40.
