data_PCOD9004373
_publ_section_title
;
Structure prediction by ZEFSAII (Michael W. Deem and Ramdas Pophale) SiO2 
 PCOD9004373
Probable space group: P -1
;
_chemical_formula_sum "Si O2"
_cell_formula_units_Z 16
_cell_length_a 10.103270
_cell_length_b 9.523377
_cell_length_c 22.298178
_cell_angle_alpha 60.068855
_cell_angle_beta 155.150029
_cell_angle_gamma 121.130742
_cell_volume 769.118591
_symmetry_space_group_name_H-M "P -1"
_symmetry_group_IT_number 2
_symmetry_cell_setting 'triclinic'
loop_
_space_group_symop_operation_xyz
x,y,z
-x,-y,-z
loop_
_atom_site_type_symbol
_atom_site_label
_atom_site_fract_x
_atom_site_fract_y
_atom_site_fract_z
Si Si1 0.287473 0.899892 0.751490
Si Si2 0.682885 0.366735 0.403636
Si Si3 0.037113 0.497125 0.087358
Si Si4 0.487419 0.564996 0.558378
Si Si5 0.393005 0.227971 0.548885
Si Si6 0.243035 0.614583 0.886733
Si Si7 0.128558 0.864520 0.041017
Si Si8 0.568089 0.902810 0.735470
O O1 0.344490 0.780435 0.854645
O O2 0.417013 0.854661 0.749054
O O3 0.912770 0.875049 0.588931
O O4 0.490592 0.076752 0.814930
O O5 0.385467 0.456212 0.248236
O O6 0.628363 0.328250 0.459354
O O7 0.632691 0.210336 0.372880
O O8 0.000000 0.500000 0.500000
O O9 0.793406 0.382817 0.056224
O O10 0.000000 0.500000 0.000000
O O11 0.035201 0.683700 0.067527
O O12 0.314355 0.373636 0.528725
O O13 0.419667 0.656926 0.450112
O O14 0.868317 0.560052 0.723631
O O15 0.558375 0.093964 0.678513
O O16 0.500000 0.500000 0.000000
O O17 0.932554 0.871666 0.897156
O O18 0.000000 0.000000 0.000000
#
# Coordination Sequence:
#
# PCOD9004373 Si02
#       8
#     2   2   2   2   2   2   2   2
#     4  10  22  37  60  92 120 155 216 260 303 365
#     4  11  24  39  63  89 126 170 208 250 320 380
#     4  11  23  44  64  91 131 168 204 264 316 372
#     4   9  22  41  61  90 127 164 207 263 318 370
#     4  10  21  39  62  88 120 161 211 265 305 364
#     4  10  21  37  66  90 125 163 209 258 313 371
#     4  10  22  38  62  92 123 162 211 255 312 372
#     4  11  22  36  62  90 122 161 209 258 312 374
#
# _framework density 20.803032999999999
#
# number of rings (size 3 to 8) (size 9 to 14) (size 15 to 20)
#    0.000    1.750    1.250    2.625   10.500    0.500 
#    0.000    0.625    0.000    0.000    0.000    0.000 
#    0.000    0.000    0.000    0.000    0.000    0.000 
#
# Total GULP energy -89112.168208 kJ/mol
# GULP energy per Si atom -5569.510513 kJ/mol
# Density = 2.075568 g / cm^3
# Si number density = 20.803033 Si / 1000 Ang^3
#
#
#
# Elastic Constant Matrix: (Units=GPa)
#
#
# Indices 1 2 3 4 5 6 
#
# 1 122.3703 30.7600 19.6590 -2.6228 -20.6611 3.9452
# 2 30.7600 95.7439 11.7045 -3.7142 -9.9342 2.3651
# 3 19.6590 11.7045 31.8951 0.5844 -2.5050 13.6463
# 4 -2.6228 -3.7142 0.5844 39.2426 0.1843 -7.5801
# 5 -20.6611 -9.9342 -2.5050 0.1843 28.3772 0.6628
# 6 3.9452 2.3651 13.6463 -7.5801 0.6628 20.4201
#
#
#
# Elastic Compliance Matrix: (Units=1/GPa)
#
#
# Indices 1 2 3 4 5 6 
#
# 1 0.010765 -0.002004 -0.006597 0.001133 0.006482 0.002771
# 2 -0.002004 0.011795 -0.003802 0.001417 0.002278 0.002014
# 3 -0.006597 -0.003802 0.052600 -0.008657 -0.000579 -0.036631
# 4 0.001133 0.001417 -0.008657 0.028940 -0.000008 0.016145
# 5 0.006482 0.002278 -0.000579 -0.000008 0.040763 -0.002455
# 6 0.002771 0.002014 -0.036631 0.016145 -0.002455 0.078756
#
#
# Mechanical properties :
#
#
# Convention : Reuss Voigt Hill
#
# Bulk Modulus (GPa) = 19.85936 41.58402 30.72169
# Shear Modulus (GPa) = 18.85313 30.13370 24.49342
#
# Velocity S-wave (km/s) = 3.01370 3.81008 3.43504
# Velocity P-wave (km/s) = 4.65585 6.27602 5.52564
#
# Compressibility (1/GPa) = 0.05035409
#
# Stress axis : x y z
#
# Youngs Moduli (GPa) = 92.89558 84.78371 19.01139
#
# Poissons Ratio (x) = 0.16990 0.12542
# Poissons Ratio (y) = 0.18616 0.07228
# Poissons Ratio (z) = 0.61283 0.32233
#
# Static dielectric constant tensor:
#      x y z
#    x 1.914000 -0.052880 -0.031830 
#    y -0.052880 1.790560 0.061600 
#    z -0.031830 0.061600 1.827310 
# 
# From -- ./inp_files/338119.got.cif
#   From: 2010.05.17/outbox.cif.g08.bks.cpg/sg2_170_cif.got.tgz:338119.got - 2010.06.03 11:33:40.
