data_PCOD9004015
_publ_section_title
;
Structure prediction by ZEFSAII (Michael W. Deem and Ramdas Pophale) SiO2 
 PCOD9004015
Probable space group: P -1
;
_chemical_formula_sum "Si O2"
_cell_formula_units_Z 16
_cell_length_a 13.117663
_cell_length_b 15.239963
_cell_length_c 7.713430
_cell_angle_alpha 81.834574
_cell_angle_beta 72.999643
_cell_angle_gamma 29.918497
_cell_volume 715.163232
_symmetry_space_group_name_H-M "P -1"
_symmetry_group_IT_number 2
_symmetry_cell_setting 'triclinic'
loop_
_space_group_symop_operation_xyz
x,y,z
-x,-y,-z
loop_
_atom_site_type_symbol
_atom_site_label
_atom_site_fract_x
_atom_site_fract_y
_atom_site_fract_z
Si Si1 0.894638 0.272105 0.267290
Si Si2 0.078475 0.947010 0.173716
Si Si3 0.670128 0.946338 0.851247
Si Si4 0.695183 0.659547 0.022114
Si Si5 0.131653 0.259205 0.536891
Si Si6 0.592585 0.543533 0.031276
Si Si7 0.884772 0.267732 0.674279
Si Si8 0.903117 0.544997 0.306294
O O1 0.828844 0.326965 0.485837
O O2 0.991441 0.102911 0.245272
O O3 0.085892 0.207424 0.160233
O O4 0.700240 0.425978 0.184922
O O5 0.338803 0.748982 0.110958
O O6 0.005070 0.908427 0.312478
O O7 0.000000 0.000000 0.000000
O O8 0.702168 0.892405 0.652056
O O9 0.544041 0.128316 0.900797
O O10 0.500000 0.000000 0.000000
O O11 0.698551 0.563895 0.954909
O O12 0.860816 0.602635 0.851641
O O13 0.773093 0.597611 0.198846
O O14 0.046632 0.228842 0.664620
O O15 0.200706 0.286364 0.627171
O O16 0.941493 0.449986 0.471460
O O17 0.675911 0.427393 0.857899
#
# Coordination Sequence:
#
# PCOD9004015 Si02
#       8
#     2   2   2   2   2   2   2   2
#     4  11  26  48  71 103 146 182 234 290 347 420
#     4  12  26  50  75 106 136 180 237 293 356 420
#     4  11  22  39  65  98 137 184 225 279 339 405
#     4  11  21  38  64  96 131 181 226 272 344 407
#     4  10  21  40  62  95 137 177 230 282 337 408
#     4  12  25  48  73 103 140 185 232 289 353 414
#     4  11  24  44  72 102 140 187 233 289 351 411
#     4  10  21  37  63  94 134 178 225 276 337 414
#
# _framework density 22.372516000000001
#
# number of rings (size 3 to 8) (size 9 to 14) (size 15 to 20)
#    0.000    1.000    5.000    2.250    1.750    1.000 
#    2.250    2.500    0.000    0.000    0.000    0.000 
#    0.000    0.000    0.000    0.000    0.000    0.000 
#
# Total GULP energy -89357.470188 kJ/mol
# GULP energy per Si atom -5584.841887 kJ/mol
# Density = 2.232159 g / cm^3
# Si number density = 22.372516 Si / 1000 Ang^3
#
#
#
# Elastic Constant Matrix: (Units=GPa)
#
#
# Indices 1 2 3 4 5 6 
#
# 1 89.3611 40.5171 17.5944 -3.1635 3.4622 15.7390
# 2 40.5171 112.7638 29.8926 -0.8351 7.4487 -1.4411
# 3 17.5944 29.8926 87.9482 11.6198 14.2972 -5.4057
# 4 -3.1635 -0.8351 11.6198 39.4033 13.1074 11.8958
# 5 3.4622 7.4487 14.2972 13.1074 34.4152 -3.8001
# 6 15.7390 -1.4411 -5.4057 11.8958 -3.8001 38.2776
#
#
#
# Elastic Compliance Matrix: (Units=1/GPa)
#
#
# Indices 1 2 3 4 5 6 
#
# 1 0.015754 -0.004951 -0.002309 0.005399 -0.002596 -0.008926
# 2 -0.004951 0.011440 -0.002698 0.000319 -0.000768 0.001910
# 3 -0.002309 -0.002698 0.014068 -0.004666 -0.002809 0.004006
# 4 0.005399 0.000319 -0.004666 0.036726 -0.014396 -0.015710
# 5 -0.002596 -0.000768 -0.002809 -0.014396 0.037106 0.008800
# 6 -0.008926 0.001910 0.004006 -0.015710 0.008800 0.036188
#
#
# Mechanical properties :
#
#
# Convention : Reuss Voigt Hill
#
# Bulk Modulus (GPa) = 46.84508 51.78680 49.31594
# Shear Modulus (GPa) = 28.04056 35.89047 31.96551
#
# Velocity S-wave (km/s) = 3.54411 4.00962 3.78403
# Velocity P-wave (km/s) = 6.14262 6.68085 6.41738
#
# Compressibility (1/GPa) = 0.02134696
#
# Stress axis : x y z
#
# Youngs Moduli (GPa) = 63.47704 87.41504 71.08100
#
# Poissons Ratio (x) = 0.43280 0.16411
# Poissons Ratio (y) = 0.31428 0.19175
# Poissons Ratio (z) = 0.14655 0.23582
#
# Static dielectric constant tensor:
#      x y z
#    x 1.885920 0.038310 -0.025910 
#    y 0.038310 1.836350 0.000080 
#    z -0.025910 0.000080 1.815840 
# 
# From -- ./inp_files/313327.got.cif
#   From: 2010.05.17/outbox.cif.g08.bks.cpg/sg2_157_cif.got.tgz:313327.got - 2010.06.03 11:33:40.
