data_PCOD9004576
_publ_section_title
;
Structure prediction by ZEFSAII (Michael W. Deem and Ramdas Pophale) SiO2 
 PCOD9004576
Probable space group: P -1
;
_chemical_formula_sum "Si O2"
_cell_formula_units_Z 14
_cell_length_a 11.454110
_cell_length_b 15.428812
_cell_length_c 9.748415
_cell_angle_alpha 132.380871
_cell_angle_beta 50.535503
_cell_angle_gamma 150.137526
_cell_volume 627.510424
_symmetry_space_group_name_H-M "P -1"
_symmetry_group_IT_number 2
_symmetry_cell_setting 'triclinic'
loop_
_space_group_symop_operation_xyz
x,y,z
-x,-y,-z
loop_
_atom_site_type_symbol
_atom_site_label
_atom_site_fract_x
_atom_site_fract_y
_atom_site_fract_z
Si Si1 0.485536 0.331982 0.231970
Si Si2 0.980173 0.328303 0.706798
Si Si3 0.633407 0.523897 0.054868
Si Si4 0.520967 0.085615 0.938146
Si Si5 0.258316 0.201235 0.544586
Si Si6 0.151920 0.577771 0.330668
Si Si7 0.575215 0.915123 0.534030
O O1 0.761301 0.516554 0.259001
O O2 0.756002 0.703577 0.234089
O O3 0.355591 0.300462 0.431000
O O4 0.418864 0.154055 0.088247
O O5 0.843429 0.126408 0.545678
O O6 0.966725 0.408617 0.676257
O O7 0.799201 0.266341 0.891055
O O8 0.190186 0.471306 0.126274
O O9 0.500000 0.500000 0.000000
O O10 0.458687 0.367844 0.137598
O O11 0.439529 0.946884 0.732882
O O12 0.500000 0.000000 0.000000
O O13 0.413153 0.187331 0.478788
O O14 0.000000 0.000000 0.500000
O O15 0.421774 0.782463 0.378639
O O16 0.000000 0.500000 0.500000
#
# Coordination Sequence:
#
# PCOD9004576 Si02
#       7
#     2   2   2   2   2   2   2
#     4  12  23  46  73 105 141 187 240 295 353 428
#     4  10  23  39  73 101 136 175 241 296 351 412
#     4  12  27  47  70 101 150 193 236 287 357 433
#     4  10  21  37  71  99 134 169 232 298 353 404
#     4  12  26  45  71 101 145 190 239 286 357 433
#     4  12  25  43  71 102 141 187 237 300 358 416
#     4  10  22  41  62 100 141 175 232 296 351 411
#
# _framework density 22.310386000000001
#
# number of rings (size 3 to 8) (size 9 to 14) (size 15 to 20)
#    0.857    0.000    4.286    3.000    0.000    1.143 
#    0.000    0.714    0.000    0.000    0.000    0.000 
#    0.000    0.000    0.000    0.000    0.000    0.000 
#
# Total GULP energy -78197.717972 kJ/mol
# GULP energy per Si atom -5585.551284 kJ/mol
# Density = 2.225961 g / cm^3
# Si number density = 22.310386 Si / 1000 Ang^3
#
#
#
# Elastic Constant Matrix: (Units=GPa)
#
#
# Indices 1 2 3 4 5 6 
#
# 1 119.3029 30.9659 35.9740 2.3088 13.9143 -38.8134
# 2 30.9659 73.2150 47.3525 -4.0363 13.2650 -24.0329
# 3 35.9740 47.3525 162.0302 23.2451 5.6796 -10.8764
# 4 2.3088 -4.0363 23.2451 48.9977 -11.9036 4.3346
# 5 13.9143 13.2650 5.6796 -11.9036 28.7394 1.3728
# 6 -38.8134 -24.0329 -10.8764 4.3346 1.3728 40.7590
#
#
#
# Elastic Compliance Matrix: (Units=1/GPa)
#
#
# Indices 1 2 3 4 5 6 
#
# 1 0.014584 0.001463 -0.001859 -0.003300 -0.009448 0.014923
# 2 0.001463 0.023458 -0.006004 0.000899 -0.010640 0.013885
# 3 -0.001859 -0.006004 0.008773 -0.004276 0.000287 -0.002524
# 4 -0.003300 0.000899 -0.004276 0.026533 0.013353 -0.007025
# 5 -0.009448 -0.010640 0.000287 0.013353 0.050630 -0.018320
# 6 0.014923 0.013885 -0.002524 -0.007025 -0.018320 0.047623
#
#
# Mechanical properties :
#
#
# Convention : Reuss Voigt Hill
#
# Bulk Modulus (GPa) = 29.39976 64.79255 47.09616
# Shear Modulus (GPa) = 25.54413 39.71627 32.63020
#
# Velocity S-wave (km/s) = 3.38737 4.22378 3.82849
# Velocity P-wave (km/s) = 5.33903 7.27266 6.37953
#
# Compressibility (1/GPa) = 0.03401388
#
# Stress axis : x y z
#
# Youngs Moduli (GPa) = 68.56931 42.62913 113.98571
#
# Poissons Ratio (x) = -0.06235 0.21189
# Poissons Ratio (y) = -0.10029 0.68439
# Poissons Ratio (z) = 0.12747 0.25595
#
# Static dielectric constant tensor:
#      x y z
#    x 1.798200 -0.024550 -0.003530 
#    y -0.024550 1.834800 0.008870 
#    z -0.003530 0.008870 1.848520 
# 
# From -- ./inp_files/390952.got.cif
#   From: 2010.05.17/outbox.cif.g08.bks.cpg/sg2_196_cif.got.tgz:390952.got - 2010.06.03 11:33:40.
