data_PCOD9004562
_publ_section_title
;
Structure prediction by ZEFSAII (Michael W. Deem and Ramdas Pophale) SiO2 
 PCOD9004562
Probable space group: P -1
;
_chemical_formula_sum "Si O2"
_cell_formula_units_Z 16
_cell_length_a 14.507073
_cell_length_b 7.647402
_cell_length_c 9.070850
_cell_angle_alpha 127.935696
_cell_angle_beta 100.960753
_cell_angle_gamma 112.930985
_cell_volume 589.375584
_symmetry_space_group_name_H-M "P -1"
_symmetry_group_IT_number 2
_symmetry_cell_setting 'triclinic'
loop_
_space_group_symop_operation_xyz
x,y,z
-x,-y,-z
loop_
_atom_site_type_symbol
_atom_site_label
_atom_site_fract_x
_atom_site_fract_y
_atom_site_fract_z
Si Si1 0.918213 0.677332 0.382249
Si Si2 0.829080 0.989974 0.248395
Si Si3 0.843594 0.828036 0.705780
Si Si4 0.349371 0.898952 0.430993
Si Si5 0.604710 0.585048 0.189752
Si Si6 0.277915 0.982097 0.063471
Si Si7 0.526097 0.024193 0.782634
Si Si8 0.899704 0.653462 0.919222
O O1 0.823499 0.368335 0.109379
O O2 0.034407 0.718916 0.508103
O O3 0.832201 0.673860 0.473353
O O4 0.000000 0.000000 0.500000
O O5 0.758448 0.024155 0.120470
O O6 0.735606 0.807898 0.260400
O O7 0.856113 0.798797 0.075889
O O8 0.890712 0.720150 0.782533
O O9 0.742235 0.825157 0.749190
O O10 0.961154 0.174369 0.903190
O O11 0.397095 0.827066 0.272102
O O12 0.202483 0.688769 0.272216
O O13 0.399654 0.224972 0.596024
O O14 0.391604 0.858104 0.580788
O O15 0.500000 0.500000 0.000000
O O16 0.566027 0.273850 0.039850
O O17 0.415714 0.106414 0.199989
#
# Coordination Sequence:
#
# PCOD9004562 Si02
#       8
#     2   2   2   2   2   2   2   2
#     4  11  24  39  63  91 124 162 205 253 299 366
#     4  10  21  40  62  90 125 162 202 249 310 360
#     4   9  22  39  58  95 123 155 202 245 304 367
#     4  10  21  37  70  84 115 169 201 255 306 352
#     4  10  21  38  64  90 118 161 211 253 299 358
#     4  11  24  40  63  89 129 162 195 256 309 365
#     4  10  22  42  58  93 123 151 215 252 299 365
#     4   9  18  39  66  86 122 161 201 251 297 363
#
# _framework density 27.147372000000001
#
# number of rings (size 3 to 8) (size 9 to 14) (size 15 to 20)
#    0.000    2.000    1.250    1.875    5.250    2.500 
#    0.000    5.000    2.750    0.000    0.000    0.000 
#    0.000    0.000    0.000    0.000    0.000    0.000 
#
# Total GULP energy -89463.070158 kJ/mol
# GULP energy per Si atom -5591.441885 kJ/mol
# Density = 2.708558 g / cm^3
# Si number density = 27.147372 Si / 1000 Ang^3
#
#
#
# Elastic Constant Matrix: (Units=GPa)
#
#
# Indices 1 2 3 4 5 6 
#
# 1 110.3564 16.3680 32.2516 -13.1207 -7.8167 -9.4374
# 2 16.3680 53.9899 22.9136 -4.9270 3.0988 -8.6768
# 3 32.2516 22.9136 105.3046 -4.2388 7.9554 -5.6144
# 4 -13.1207 -4.9270 -4.2388 38.4087 -12.9827 6.3356
# 5 -7.8167 3.0988 7.9554 -12.9827 56.0494 -5.8859
# 6 -9.4374 -8.6768 -5.6144 6.3356 -5.8859 36.1553
#
#
#
# Elastic Compliance Matrix: (Units=1/GPa)
#
#
# Indices 1 2 3 4 5 6 
#
# 1 0.011037 -0.001586 -0.003015 0.004003 0.003176 0.001848
# 2 -0.001586 0.021394 -0.003904 0.001063 -0.000195 0.003896
# 3 -0.003015 -0.003904 0.011380 -0.000948 -0.002053 -0.000125
# 4 0.004003 0.001063 -0.000948 0.030416 0.007367 -0.002978
# 5 0.003176 -0.000195 -0.002053 0.007367 0.020557 0.002519
# 6 0.001848 0.003896 -0.000125 -0.002978 0.002519 0.029988
#
#
# Mechanical properties :
#
#
# Convention : Reuss Voigt Hill
#
# Bulk Modulus (GPa) = 37.31511 45.85748 41.58629
# Shear Modulus (GPa) = 33.17468 39.33054 36.25261
#
# Velocity S-wave (km/s) = 3.49954 3.81041 3.65828
# Velocity P-wave (km/s) = 5.48673 6.02393 5.76159
#
# Compressibility (1/GPa) = 0.02679879
#
# Stress axis : x y z
#
# Youngs Moduli (GPa) = 90.60445 46.74167 87.87693
#
# Poissons Ratio (x) = 0.07415 0.26499
# Poissons Ratio (y) = 0.14373 0.34309
# Poissons Ratio (z) = 0.27321 0.18249
#
# Static dielectric constant tensor:
#      x y z
#    x 2.166570 -0.025960 0.035390 
#    y -0.025960 2.187850 -0.029630 
#    z 0.035390 -0.029630 2.127800 
# 
# From -- ./inp_files/255829.got.cif
#   From: 2010.05.17/outbox.cif.g08.bks.cpg/sg2_128_cif.got.tgz:255829.got - 2010.06.03 11:33:40.
