data_PCOD9004394
_publ_section_title
;
Structure prediction by ZEFSAII (Michael W. Deem and Ramdas Pophale) SiO2 
 PCOD9004394
Probable space group: P -1
;
_chemical_formula_sum "Si O2"
_cell_formula_units_Z 16
_cell_length_a 12.932415
_cell_length_b 8.509482
_cell_length_c 10.140549
_cell_angle_alpha 108.248049
_cell_angle_beta 88.981689
_cell_angle_gamma 50.629764
_cell_volume 782.915372
_symmetry_space_group_name_H-M "P -1"
_symmetry_group_IT_number 2
_symmetry_cell_setting 'triclinic'
loop_
_space_group_symop_operation_xyz
x,y,z
-x,-y,-z
loop_
_atom_site_type_symbol
_atom_site_label
_atom_site_fract_x
_atom_site_fract_y
_atom_site_fract_z
Si Si1 0.903076 0.670004 0.798560
Si Si2 0.736867 0.381419 0.805789
Si Si3 0.404110 0.172648 0.163268
Si Si4 0.539557 0.063544 0.641127
Si Si5 0.879805 0.009085 0.069493
Si Si6 0.040654 0.184284 0.694468
Si Si7 0.388856 0.522681 0.910351
Si Si8 0.176735 0.065958 0.382867
O O1 0.748961 0.750230 0.821470
O O2 0.920287 0.741813 0.674433
O O3 0.017797 0.407140 0.757190
O O4 0.903322 0.809213 0.945392
O O5 0.619616 0.604735 0.785375
O O6 0.885111 0.279644 0.723746
O O7 0.748547 0.172093 0.748707
O O8 0.706251 0.472321 0.979109
O O9 0.472701 0.043130 0.262217
O O10 0.500000 0.000000 0.000000
O O11 0.458281 0.319127 0.753634
O O12 0.500000 0.000000 0.500000
O O13 0.700873 0.939537 0.587697
O O14 0.892523 0.967030 0.215543
O O15 0.723958 0.239468 0.096399
O O16 0.000000 0.000000 0.000000
O O17 0.109312 0.078257 0.523439
O O18 0.500000 0.500000 0.000000
#
# Coordination Sequence:
#
# PCOD9004394 Si02
#       8
#     2   2   2   2   2   2   2   2
#     4  10  22  40  64  92 130 175 222 262 329 404
#     4  11  21  40  70  96 121 171 231 262 320 402
#     4  10  21  37  66  94 125 170 224 271 322 400
#     4  11  25  42  62  98 135 172 215 280 342 380
#     4  12  24  41  66  99 132 171 221 279 329 384
#     4  11  24  40  63 100 134 162 215 281 338 380
#     4  12  22  44  73  93 130 181 225 266 326 406
#     4  11  22  43  64  93 134 177 216 269 328 404
#
# _framework density 20.436434999999999
#
# number of rings (size 3 to 8) (size 9 to 14) (size 15 to 20)
#    0.000    1.000    5.000    1.875    0.000    3.000 
#    0.000    2.500    0.000    0.000    0.000    0.000 
#    0.000    0.000    0.000    0.000    0.000    0.000 
#
# Total GULP energy -89259.182855 kJ/mol
# GULP energy per Si atom -5578.698928 kJ/mol
# Density = 2.038992 g / cm^3
# Si number density = 20.436435 Si / 1000 Ang^3
#
#
#
# Elastic Constant Matrix: (Units=GPa)
#
#
# Indices 1 2 3 4 5 6 
#
# 1 32.5599 18.9429 27.3303 -6.3015 -1.9500 1.5792
# 2 18.9429 138.3983 35.5048 -9.2464 1.7241 0.7343
# 3 27.3303 35.5048 127.0149 -15.6896 -17.8920 -7.8018
# 4 -6.3015 -9.2464 -15.6896 35.5962 11.4944 -2.1912
# 5 -1.9500 1.7241 -17.8920 11.4944 34.6125 3.7486
# 6 1.5792 0.7343 -7.8018 -2.1912 3.7486 25.2528
#
#
#
# Elastic Compliance Matrix: (Units=1/GPa)
#
#
# Indices 1 2 3 4 5 6 
#
# 1 0.039858 -0.003169 -0.007871 0.003243 -0.002286 -0.004211
# 2 -0.003169 0.008222 -0.001722 0.001431 -0.001936 -0.000161
# 3 -0.007871 -0.001722 0.011110 0.001852 0.004393 0.003483
# 4 0.003243 0.001431 0.001852 0.033575 -0.010603 0.004815
# 5 -0.002286 -0.001936 0.004393 -0.010603 0.035147 -0.004581
# 6 -0.004211 -0.000161 0.003483 0.004815 -0.004581 0.042041
#
#
# Mechanical properties :
#
#
# Convention : Reuss Voigt Hill
#
# Bulk Modulus (GPa) = 29.70414 51.28103 40.49259
# Shear Modulus (GPa) = 24.18994 33.50530 28.84762
#
# Velocity S-wave (km/s) = 3.44418 4.05345 3.76117
# Velocity P-wave (km/s) = 5.51207 6.85964 6.22245
#
# Compressibility (1/GPa) = 0.03366534
#
# Stress axis : x y z
#
# Youngs Moduli (GPa) = 25.08929 121.63018 90.01204
#
# Poissons Ratio (x) = 0.38542 0.70846
# Poissons Ratio (y) = 0.07950 0.15503
# Poissons Ratio (z) = 0.19747 0.20948
#
# Static dielectric constant tensor:
#      x y z
#    x 1.788850 0.031960 -0.006580 
#    y 0.031960 1.774830 0.002430 
#    z -0.006580 0.002430 1.738920 
# 
# From -- ./inp_files/296101.got.cif
#   From: 2010.05.17/outbox.cif.g08.bks.cpg/sg2_149_cif.got.tgz:296101.got - 2010.06.03 11:33:40.
