data_PCOD9004260
_publ_section_title
;
Structure prediction by ZEFSAII (Michael W. Deem and Ramdas Pophale) SiO2 
 PCOD9004260
Probable space group: P -1
;
_chemical_formula_sum "Si O2"
_cell_formula_units_Z 16
_cell_length_a 19.197373
_cell_length_b 20.939027
_cell_length_c 8.430289
_cell_angle_alpha 49.940796
_cell_angle_beta 143.189666
_cell_angle_gamma 157.516231
_cell_volume 704.754099
_symmetry_space_group_name_H-M "P -1"
_symmetry_group_IT_number 2
_symmetry_cell_setting 'triclinic'
loop_
_space_group_symop_operation_xyz
x,y,z
-x,-y,-z
loop_
_atom_site_type_symbol
_atom_site_label
_atom_site_fract_x
_atom_site_fract_y
_atom_site_fract_z
Si Si1 0.818224 0.290410 0.414069
Si Si2 0.287102 0.873808 0.035758
Si Si3 0.939647 0.142022 0.105457
Si Si4 0.180732 0.185803 0.706609
Si Si5 0.264406 0.443024 0.999380
Si Si6 0.004912 0.808285 0.390873
Si Si7 0.688165 0.894328 0.761102
Si Si8 0.813750 0.367302 0.625478
O O1 0.743963 0.291729 0.438594
O O2 0.070755 0.396931 0.741032
O O3 0.910602 0.414540 0.249809
O O4 0.588964 0.085615 0.263235
O O5 0.162194 0.834020 0.716301
O O6 0.172687 0.856399 0.997256
O O7 0.207780 0.728422 0.153226
O O8 0.965965 0.075095 0.364388
O O9 0.208821 0.346563 0.199782
O O10 0.768839 0.015279 0.844092
O O11 0.167343 0.256134 0.688587
O O12 0.444544 0.346534 0.834573
O O13 0.165408 0.094944 0.933945
O O14 0.169181 0.335512 0.838935
O O15 0.209990 0.006016 0.378464
O O16 0.384532 0.694439 0.557117
#
# Coordination Sequence:
#
# PCOD9004260 Si02
#       8
#     2   2   2   2   2   2   2   2
#     4  11  22  38  65  97 126 154 204 258 307 369
#     4  11  21  42  63  92 127 164 195 259 307 355
#     4  10  21  37  65  90 118 158 207 251 309 360
#     4  11  22  40  61  90 123 156 209 256 297 366
#     4  11  21  40  61  90 120 165 199 251 310 361
#     4  10  25  40  62  85 125 165 205 242 309 369
#     4  11  21  40  61  90 120 165 199 251 310 361
#     4  11  22  38  65  97 126 154 204 258 307 369
#
# _framework density 22.702952
#
# number of rings (size 3 to 8) (size 9 to 14) (size 15 to 20)
#    0.000    1.250    3.750    3.375    0.000    2.000 
#    2.250    1.250    5.500    0.000    0.000    0.000 
#    0.000    0.000    0.000    0.000    0.000    0.000 
#
# Total GULP energy -89425.813280 kJ/mol
# GULP energy per Si atom -5589.113330 kJ/mol
# Density = 2.265128 g / cm^3
# Si number density = 22.702952 Si / 1000 Ang^3
#
#
#
# Elastic Constant Matrix: (Units=GPa)
#
#
# Indices 1 2 3 4 5 6 
#
# 1 55.0162 -4.8996 7.5191 6.2810 12.8666 11.4773
# 2 -4.8996 107.3688 35.3736 -23.9509 0.8704 22.4901
# 3 7.5191 35.3736 86.1274 -27.6398 13.2516 8.4992
# 4 6.2810 -23.9509 -27.6398 41.3137 3.7852 7.2469
# 5 12.8666 0.8704 13.2516 3.7852 24.6681 0.1082
# 6 11.4773 22.4901 8.4992 7.2469 0.1082 26.1861
#
#
#
# Elastic Compliance Matrix: (Units=1/GPa)
#
#
# Indices 1 2 3 4 5 6 
#
# 1 0.024949 0.005498 0.000772 0.004195 -0.014191 -0.017010
# 2 0.005498 0.016788 -0.000652 0.012427 -0.004929 -0.020035
# 3 0.000772 -0.000652 0.020129 0.016098 -0.013616 -0.010711
# 4 0.004195 0.012427 0.016098 0.048709 -0.018612 -0.031139
# 5 -0.014191 -0.004929 -0.013616 -0.018612 0.058197 0.019783
# 6 -0.017010 -0.020035 -0.010711 -0.031139 0.019783 0.074863
#
#
# Mechanical properties :
#
#
# Convention : Reuss Voigt Hill
#
# Bulk Modulus (GPa) = 13.67945 36.05540 24.86742
# Shear Modulus (GPa) = 19.47296 32.46821 25.97058
#
# Velocity S-wave (km/s) = 2.93188 3.78581 3.38587
# Velocity P-wave (km/s) = 4.18326 5.91825 5.12471
#
# Compressibility (1/GPa) = 0.07310237
#
# Stress axis : x y z
#
# Youngs Moduli (GPa) = 40.08176 59.56652 49.67962
#
# Poissons Ratio (x) = -0.32749 -0.03835
# Poissons Ratio (y) = -0.22036 0.03237
# Poissons Ratio (z) = -0.03094 0.03881
#
# Static dielectric constant tensor:
#      x y z
#    x 1.825660 0.009310 0.008960 
#    y 0.009310 1.906690 -0.018240 
#    z 0.008960 -0.018240 1.852190 
# 
# From -- ./inp_files/174973.got.cif
#   From: 2010.05.17/outbox.cif.g08.bks.cpg/sg2_88_cif.got.tgz:174973.got - 2010.06.03 11:33:40.
