data_PCOD9004398
_publ_section_title
;
Structure prediction by ZEFSAII (Michael W. Deem and Ramdas Pophale) SiO2 
 PCOD9004398
Probable space group: P -1
;
_chemical_formula_sum "Si O2"
_cell_formula_units_Z 16
_cell_length_a 12.459075
_cell_length_b 16.207920
_cell_length_c 5.580637
_cell_angle_alpha 118.140180
_cell_angle_beta 82.786910
_cell_angle_gamma 136.424817
_cell_volume 640.216328
_symmetry_space_group_name_H-M "P -1"
_symmetry_group_IT_number 2
_symmetry_cell_setting 'triclinic'
loop_
_space_group_symop_operation_xyz
x,y,z
-x,-y,-z
loop_
_atom_site_type_symbol
_atom_site_label
_atom_site_fract_x
_atom_site_fract_y
_atom_site_fract_z
Si Si1 0.864494 0.220396 0.545348
Si Si2 0.216451 0.460245 0.947619
Si Si3 0.372380 0.895579 0.174287
Si Si4 0.149642 0.074714 0.240449
Si Si5 0.863708 0.788331 0.182706
Si Si6 0.897036 0.430742 0.678479
Si Si7 0.474552 0.426695 0.162592
Si Si8 0.616464 0.928035 0.965927
O O1 0.811807 0.215602 0.820723
O O2 0.804373 0.270003 0.478051
O O3 0.767623 0.064430 0.282428
O O4 0.062257 0.348768 0.652252
O O5 0.171975 0.344570 0.977176
O O6 0.386114 0.559753 0.892431
O O7 0.216751 0.554295 0.230256
O O8 0.500000 0.000000 0.500000
O O9 0.436059 0.833468 0.999584
O O10 0.386329 0.993809 0.131094
O O11 0.176629 0.190296 0.523608
O O12 0.049101 0.937695 0.261215
O O13 0.319223 0.131511 0.207050
O O14 0.000000 0.000000 0.000000
O O15 0.715470 0.733351 0.989217
O O16 0.000000 0.500000 0.500000
O O17 0.000000 0.500000 0.000000
O O18 0.500000 0.500000 0.500000
O O19 0.500000 0.500000 0.000000
#
# Coordination Sequence:
#
# PCOD9004398 Si02
#       8
#     2   2   2   2   2   2   2   2
#     4  10  21  37  66  94 132 168 223 279 344 425
#     4  10  22  45  68  94 133 183 222 289 351 409
#     4   9  20  40  60  96 129 172 222 275 352 414
#     4  11  24  41  67 102 132 181 234 287 349 418
#     4  10  24  42  64  96 136 174 233 284 343 421
#     4  10  24  40  62 100 129 166 227 277 338 410
#     4  10  24  43  69  97 133 178 234 281 346 415
#     4  10  21  38  68  93 133 177 221 284 351 417
#
# _framework density 24.991555000000002
#
# number of rings (size 3 to 8) (size 9 to 14) (size 15 to 20)
#    0.000    2.000    0.000    1.500   10.500    6.000 
#    9.000    0.000    0.000    0.000    0.000    0.000 
#    0.000    0.000    0.000    0.000    0.000    0.000 
#
# Total GULP energy -89263.442073 kJ/mol
# GULP energy per Si atom -5578.965130 kJ/mol
# Density = 2.493467 g / cm^3
# Si number density = 24.991555 Si / 1000 Ang^3
#
#
#
# Elastic Constant Matrix: (Units=GPa)
#
#
# Indices 1 2 3 4 5 6 
#
# 1 132.7211 1.8222 18.7589 -14.9698 -16.7815 18.4205
# 2 1.8222 43.4944 -9.8604 -10.2059 -5.9577 4.6654
# 3 18.7589 -9.8604 84.0147 -17.4579 0.8556 13.6983
# 4 -14.9698 -10.2059 -17.4579 32.3510 11.6985 2.1598
# 5 -16.7815 -5.9577 0.8556 11.6985 39.7355 2.7538
# 6 18.4205 4.6654 13.6983 2.1598 2.7538 38.2591
#
#
#
# Elastic Compliance Matrix: (Units=1/GPa)
#
#
# Indices 1 2 3 4 5 6 
#
# 1 0.009059 0.001336 -0.000380 0.003526 0.003331 -0.004827
# 2 0.001336 0.028709 0.007107 0.013564 0.001245 -0.007544
# 3 -0.000380 0.007107 0.016600 0.012449 -0.002623 -0.007141
# 4 0.003526 0.013564 0.012449 0.047866 -0.010160 -0.009780
# 5 0.003331 0.001245 -0.002623 -0.010160 0.029974 -0.002400
# 6 -0.004827 -0.007544 -0.007141 -0.009780 -0.002400 0.032663
#
#
# Mechanical properties :
#
#
# Convention : Reuss Voigt Hill
#
# Bulk Modulus (GPa) = 14.18591 31.29686 22.74138
# Shear Modulus (GPa) = 29.02876 38.70308 33.86592
#
# Velocity S-wave (km/s) = 3.41184 3.93955 3.68515
# Velocity P-wave (km/s) = 4.60537 5.76573 5.21790
#
# Compressibility (1/GPa) = 0.07049250
#
# Stress axis : x y z
#
# Youngs Moduli (GPa) = 110.39028 34.83209 60.24262
#
# Poissons Ratio (x) = -0.04652 0.02290
# Poissons Ratio (y) = -0.14744 -0.42815
# Poissons Ratio (z) = 0.04196 -0.24755
#
# Static dielectric constant tensor:
#      x y z
#    x 2.118280 -0.002880 0.074020 
#    y -0.002880 2.040230 -0.078900 
#    z 0.074020 -0.078900 2.050720 
# 
# From -- ./inp_files/80936.got.cif
#   From: 2010.05.17/outbox.cif.g08.bks.cpg/sg2_41_cif.got.tgz:80936.got - 2010.06.03 11:33:40.
