data_PCOD9004435
_publ_section_title
;
Structure prediction by ZEFSAII (Michael W. Deem and Ramdas Pophale) SiO2 
 PCOD9004435
Probable space group: P -1
;
_chemical_formula_sum "Si O2"
_cell_formula_units_Z 16
_cell_length_a 9.536975
_cell_length_b 11.821049
_cell_length_c 15.662328
_cell_angle_alpha 132.828491
_cell_angle_beta 65.952677
_cell_angle_gamma 76.004430
_cell_volume 747.747324
_symmetry_space_group_name_H-M "P -1"
_symmetry_group_IT_number 2
_symmetry_cell_setting 'triclinic'
loop_
_space_group_symop_operation_xyz
x,y,z
-x,-y,-z
loop_
_atom_site_type_symbol
_atom_site_label
_atom_site_fract_x
_atom_site_fract_y
_atom_site_fract_z
Si Si1 0.570278 0.373557 0.827775
Si Si2 0.978624 0.355086 0.480283
Si Si3 0.856342 0.847742 0.153618
Si Si4 0.866128 0.413476 0.730686
Si Si5 0.500505 0.126856 0.818975
Si Si6 0.633386 0.513751 0.224668
Si Si7 0.267633 0.075430 0.588752
Si Si8 0.641692 0.358965 0.479670
O O1 0.811188 0.274627 0.687884
O O2 0.549470 0.210777 0.773793
O O3 0.382694 0.571090 0.902036
O O4 0.500000 0.500000 0.000000
O O5 0.853628 0.464419 0.660841
O O6 0.832199 0.341857 0.454378
O O7 0.000000 0.500000 0.500000
O O8 0.248993 0.096956 0.309135
O O9 0.635012 0.916528 0.208365
O O10 0.891915 0.782196 0.212078
O O11 0.777387 0.088661 0.295918
O O12 0.097487 0.626902 0.924220
O O13 0.118161 0.241341 0.628653
O O14 0.675915 0.658388 0.958118
O O15 0.567100 0.488357 0.316803
O O16 0.395236 0.808287 0.421831
O O17 0.500000 0.000000 0.500000
O O18 0.500000 0.500000 0.500000
#
# Coordination Sequence:
#
# PCOD9004435 Si02
#       8
#     2   2   2   2   2   2   2   2
#     4  10  21  37  67 104 138 174 222 270 347 415
#     4  12  27  47  73  97 134 180 240 296 344 409
#     4  11  24  43  68 104 143 184 228 282 351 422
#     4  11  24  42  69 102 144 181 227 285 352 411
#     4  11  25  42  71 105 142 178 229 285 348 419
#     4  11  23  41  67  96 141 182 225 279 342 412
#     4  11  23  38  64 103 143 183 225 273 346 416
#     4  11  27  47  71  97 133 185 242 294 349 410
#
# _framework density 21.397604999999999
#
# number of rings (size 3 to 8) (size 9 to 14) (size 15 to 20)
#    0.000    1.000    1.250    5.250    7.000    6.500 
#    0.000    0.000    0.000    0.000    0.000    0.000 
#    0.000    0.000    0.000    0.000    0.000    0.000 
#
# Total GULP energy -89313.828361 kJ/mol
# GULP energy per Si atom -5582.114273 kJ/mol
# Density = 2.134890 g / cm^3
# Si number density = 21.397605 Si / 1000 Ang^3
#
#
#
# Elastic Constant Matrix: (Units=GPa)
#
#
# Indices 1 2 3 4 5 6 
#
# 1 153.4383 63.1620 27.6343 -13.3490 -0.7391 -3.6712
# 2 63.1620 159.6532 42.0272 -32.2984 5.5286 -13.9403
# 3 27.6343 42.0272 96.4518 -23.7900 -1.5296 3.2107
# 4 -13.3490 -32.2984 -23.7900 26.9126 -0.0571 -1.6361
# 5 -0.7391 5.5286 -1.5296 -0.0571 30.5749 2.0549
# 6 -3.6712 -13.9403 3.2107 -1.6361 2.0549 39.9618
#
#
#
# Elastic Compliance Matrix: (Units=1/GPa)
#
#
# Indices 1 2 3 4 5 6 
#
# 1 0.007896 -0.003029 -0.001094 -0.000704 0.000703 -0.000308
# 2 -0.003029 0.010216 -0.001328 0.009817 -0.002231 0.003909
# 3 -0.001094 -0.001328 0.013778 0.009965 0.001010 -0.001315
# 4 -0.000704 0.009817 0.009965 0.057700 -0.001522 0.005000
# 5 0.000703 -0.002231 0.001010 -0.001522 0.033348 -0.002572
# 6 -0.000308 0.003909 -0.001315 0.005000 -0.002572 0.026802
#
#
# Mechanical properties :
#
#
# Convention : Reuss Voigt Hill
#
# Bulk Modulus (GPa) = 47.64855 75.02114 61.33484
# Shear Modulus (GPa) = 29.82613 37.93783 33.88198
#
# Velocity S-wave (km/s) = 3.73755 4.21526 3.98357
# Velocity P-wave (km/s) = 6.39861 7.66993 7.06293
#
# Compressibility (1/GPa) = 0.02098700
#
# Stress axis : x y z
#
# Youngs Moduli (GPa) = 126.64256 97.88320 72.58147
#
# Poissons Ratio (x) = 0.29654 0.07944
# Poissons Ratio (y) = 0.38366 0.09636
# Poissons Ratio (z) = 0.13861 0.12995
#
# Static dielectric constant tensor:
#      x y z
#    x 1.990210 0.035660 0.118600 
#    y 0.035660 1.785510 0.013990 
#    z 0.118600 0.013990 1.935990 
# 
# From -- ./inp_files/467676.got.cif
#   From: 2010.05.17/outbox.cif.g08.bks.cpg/sg2_234_cif.got.tgz:467676.got - 2010.06.03 11:33:40.
