data_PCOD9004389
_publ_section_title
;
Structure prediction by ZEFSAII (Michael W. Deem and Ramdas Pophale) SiO2 
 PCOD9004389
Probable space group: P -1
;
_chemical_formula_sum "Si O2"
_cell_formula_units_Z 16
_cell_length_a 13.726126
_cell_length_b 12.551527
_cell_length_c 6.603146
_cell_angle_alpha 131.985258
_cell_angle_beta 105.634012
_cell_angle_gamma 56.421303
_cell_volume 695.162955
_symmetry_space_group_name_H-M "P -1"
_symmetry_group_IT_number 2
_symmetry_cell_setting 'triclinic'
loop_
_space_group_symop_operation_xyz
x,y,z
-x,-y,-z
loop_
_atom_site_type_symbol
_atom_site_label
_atom_site_fract_x
_atom_site_fract_y
_atom_site_fract_z
Si Si1 0.341754 0.405495 0.993977
Si Si2 0.073856 0.901707 0.220546
Si Si3 0.330665 0.686566 0.601324
Si Si4 0.137408 0.044509 0.106839
Si Si5 0.554999 0.582102 0.343470
Si Si6 0.859530 0.682956 0.788324
Si Si7 0.880046 0.443730 0.169265
Si Si8 0.602654 0.822914 0.919654
O O1 0.295748 0.561488 0.321519
O O2 0.420264 0.236497 0.953010
O O3 0.419732 0.425076 0.888715
O O4 0.225477 0.416661 0.848805
O O5 0.135268 0.993640 0.271939
O O6 0.150774 0.703101 0.046246
O O7 0.000000 0.000000 0.500000
O O8 0.986059 0.903539 0.003570
O O9 0.230829 0.874175 0.829383
O O10 0.423492 0.684900 0.493027
O O11 0.389463 0.593901 0.728948
O O12 0.153423 0.197382 0.255740
O O13 0.612913 0.685366 0.591336
O O14 0.874794 0.515787 0.482167
O O15 0.734883 0.789856 0.967320
O O16 0.981873 0.631874 0.908482
O O17 0.500000 0.000000 0.000000
#
# Coordination Sequence:
#
# PCOD9004389 Si02
#       8
#     2   2   2   2   2   2   2   2
#     4  11  22  39  67  98 125 176 227 273 335 397
#     4  10  21  39  61  93 124 164 212 269 326 382
#     4  10  21  37  66  93 129 171 218 281 327 392
#     4  10  21  38  61  87 126 167 213 262 326 385
#     4  10  21  40  61  95 129 170 225 273 335 387
#     4  10  22  43  63  94 135 182 216 268 335 389
#     4  10  21  42  67  93 135 171 219 275 320 403
#     4  11  24  42  64  91 135 178 222 275 338 394
#
# _framework density 23.016186999999999
#
# number of rings (size 3 to 8) (size 9 to 14) (size 15 to 20)
#    0.000    1.750    1.250    2.625    1.750    1.000 
#    9.000    2.500    0.000    0.000    0.000    0.000 
#    0.000    0.000    0.000    0.000    0.000    0.000 
#
# Total GULP energy -89267.163508 kJ/mol
# GULP energy per Si atom -5579.197719 kJ/mol
# Density = 2.296380 g / cm^3
# Si number density = 23.016187 Si / 1000 Ang^3
#
#
#
# Elastic Constant Matrix: (Units=GPa)
#
#
# Indices 1 2 3 4 5 6 
#
# 1 82.8227 31.8730 9.5434 -8.4016 -17.1617 2.1397
# 2 31.8730 133.4872 39.4148 -3.7117 -19.1085 4.3969
# 3 9.5434 39.4148 52.1713 -10.0668 -8.4104 19.6128
# 4 -8.4016 -3.7117 -10.0668 33.9372 -0.2938 -2.6238
# 5 -17.1617 -19.1085 -8.4104 -0.2938 32.3774 -2.7850
# 6 2.1397 4.3969 19.6128 -2.6238 -2.7850 39.7236
#
#
#
# Elastic Compliance Matrix: (Units=1/GPa)
#
#
# Indices 1 2 3 4 5 6 
#
# 1 0.014764 -0.002905 0.001452 0.003787 0.006481 -0.000486
# 2 -0.002905 0.011117 -0.009068 -0.001898 0.002948 0.003485
# 3 0.001452 -0.009068 0.033353 0.008142 0.002882 -0.014802
# 4 0.003787 -0.001898 0.008142 0.032511 0.003155 -0.001645
# 5 0.006481 0.002948 0.002882 0.003155 0.036898 0.000697
# 6 -0.000486 0.003485 -0.014802 -0.001645 0.000697 0.032063
#
#
# Mechanical properties :
#
#
# Convention : Reuss Voigt Hill
#
# Bulk Modulus (GPa) = 26.18334 47.79373 36.98854
# Shear Modulus (GPa) = 25.70952 33.71764 29.71358
#
# Velocity S-wave (km/s) = 3.34581 3.83162 3.59693
# Velocity P-wave (km/s) = 5.13095 6.35496 5.77547
#
# Compressibility (1/GPa) = 0.03819222
#
# Stress axis : x y z
#
# Youngs Moduli (GPa) = 67.73123 89.95147 29.98196
#
# Poissons Ratio (x) = 0.26131 -0.04354
# Poissons Ratio (y) = 0.19676 0.27189
# Poissons Ratio (z) = -0.09836 0.81572
#
# Static dielectric constant tensor:
#      x y z
#    x 1.970680 0.010920 -0.006060 
#    y 0.010920 1.949300 -0.000560 
#    z -0.006060 -0.000560 1.838430 
# 
# From -- ./inp_files/95501.got.cif
#   From: 2010.05.17/outbox.cif.g08.bks.cpg/sg2_48_cif.got.tgz:95501.got - 2010.06.03 11:33:40.
