data_PCOD9004071
_publ_section_title
;
Structure prediction by ZEFSAII (Michael W. Deem and Ramdas Pophale) SiO2 
 PCOD9004071
Probable space group: P -1
;
_chemical_formula_sum "Si O2"
_cell_formula_units_Z 16
_cell_length_a 18.127670
_cell_length_b 13.484503
_cell_length_c 11.713385
_cell_angle_alpha 148.997843
_cell_angle_beta 149.740211
_cell_angle_gamma 30.274629
_cell_volume 654.027613
_symmetry_space_group_name_H-M "P -1"
_symmetry_group_IT_number 2
_symmetry_cell_setting 'triclinic'
loop_
_space_group_symop_operation_xyz
x,y,z
-x,-y,-z
loop_
_atom_site_type_symbol
_atom_site_label
_atom_site_fract_x
_atom_site_fract_y
_atom_site_fract_z
Si Si1 0.321963 0.559146 0.767633
Si Si2 0.394028 0.078779 0.695663
Si Si3 0.830106 0.820964 0.168166
Si Si4 0.757141 0.992790 0.003871
Si Si5 0.846447 0.541073 0.101897
Si Si6 0.386810 0.371933 0.429564
Si Si7 0.838995 0.687145 0.589139
Si Si8 0.682768 0.306565 0.520549
O O1 0.235578 0.802106 0.841075
O O2 0.357468 0.398909 0.550020
O O3 0.221624 0.494934 0.659648
O O4 0.500000 0.500000 0.000000
O O5 0.321293 0.252817 0.872491
O O6 0.261760 0.156868 0.494315
O O7 0.431640 0.835785 0.545512
O O8 0.567456 0.063433 0.864583
O O9 0.931121 0.640846 0.223240
O O10 0.876412 0.880245 0.163553
O O11 0.735114 0.053579 0.333546
O O12 0.718040 0.712812 0.868750
O O13 0.797818 0.828599 0.790445
O O14 0.962693 0.438235 0.264963
O O15 0.805601 0.363013 0.813979
O O16 0.325513 0.614745 0.543370
O O17 0.500000 0.500000 0.500000
#
# Coordination Sequence:
#
# PCOD9004071 Si02
#       8
#     2   2   2   2   2   2   2   2
#     4  12  22  38  67  98 125 168 219 263 319 387
#     4  11  21  44  67  94 132 172 220 270 319 391
#     4  10  21  42  65  92 134 167 213 272 323 387
#     4  11  22  40  71  99 123 171 229 267 322 384
#     4  11  27  42  64 100 135 176 212 267 340 385
#     4  10  21  37  64 102 122 161 221 273 314 374
#     4  12  25  45  63  96 142 171 212 275 328 387
#     4  11  21  39  68  95 129 170 221 268 319 390
#
# _framework density 24.463798000000001
#
# number of rings (size 3 to 8) (size 9 to 14) (size 15 to 20)
#    0.000    1.000    5.000    3.750    0.000    5.000 
#    0.000    1.250    0.000    4.500    0.000    0.000 
#    0.000    0.000    0.000    0.000    0.000    0.000 
#
# Total GULP energy -89304.364009 kJ/mol
# GULP energy per Si atom -5581.522751 kJ/mol
# Density = 2.440812 g / cm^3
# Si number density = 24.463798 Si / 1000 Ang^3
#
#
#
# Elastic Constant Matrix: (Units=GPa)
#
#
# Indices 1 2 3 4 5 6 
#
# 1 35.2426 3.8092 15.9533 7.4369 -12.7370 -2.4069
# 2 3.8092 83.9125 39.4738 8.8085 1.7105 11.1552
# 3 15.9533 39.4738 96.8610 11.6835 -5.1617 2.7618
# 4 7.4369 8.8085 11.6835 51.1564 2.6893 -7.5788
# 5 -12.7370 1.7105 -5.1617 2.6893 30.9158 -0.0249
# 6 -2.4069 11.1552 2.7618 -7.5788 -0.0249 40.1193
#
#
#
# Elastic Compliance Matrix: (Units=1/GPa)
#
#
# Indices 1 2 3 4 5 6 
#
# 1 0.037082 0.000717 -0.005057 -0.004923 0.014823 0.001453
# 2 0.000717 0.015593 -0.006197 -0.001925 -0.001438 -0.004231
# 3 -0.005057 -0.006197 0.013879 -0.001374 0.000696 0.000205
# 4 -0.004923 -0.001925 -0.001374 0.021780 -0.004042 0.004446
# 5 0.014823 -0.001438 0.000696 -0.004042 0.039000 0.000502
# 6 0.001453 -0.004231 0.000205 0.004446 0.000502 0.027015
#
#
# Mechanical properties :
#
#
# Convention : Reuss Voigt Hill
#
# Bulk Modulus (GPa) = 21.98727 37.16540 29.57634
# Shear Modulus (GPa) = 26.23509 34.89028 30.56269
#
# Velocity S-wave (km/s) = 3.27831 3.78060 3.53838
# Velocity P-wave (km/s) = 4.83083 5.85511 5.36746
#
# Compressibility (1/GPa) = 0.04548086
#
# Stress axis : x y z
#
# Youngs Moduli (GPa) = 26.96750 64.12936 72.04937
#
# Poissons Ratio (x) = -0.04600 0.36439
# Poissons Ratio (y) = -0.01935 0.44647
# Poissons Ratio (z) = 0.13639 0.39739
#
# Static dielectric constant tensor:
#      x y z
#    x 2.217200 0.087500 -0.049340 
#    y 0.087500 2.048660 -0.087580 
#    z -0.049340 -0.087580 1.955400 
# 
# From -- ./inp_files/472028.got.cif
#   From: 2010.05.17/outbox.cif.g08.bks.cpg/sg2_237_cif.got.tgz:472028.got - 2010.06.03 11:33:40.
