data_PCOD9004297
_publ_section_title
;
Structure prediction by ZEFSAII (Michael W. Deem and Ramdas Pophale) SiO2 
 PCOD9004297
Probable space group: P -1
;
_chemical_formula_sum "Si O2"
_cell_formula_units_Z 16
_cell_length_a 15.092745
_cell_length_b 9.489871
_cell_length_c 11.768522
_cell_angle_alpha 127.930679
_cell_angle_beta 70.601151
_cell_angle_gamma 67.098810
_cell_volume 756.601714
_symmetry_space_group_name_H-M "P -1"
_symmetry_group_IT_number 2
_symmetry_cell_setting 'triclinic'
loop_
_space_group_symop_operation_xyz
x,y,z
-x,-y,-z
loop_
_atom_site_type_symbol
_atom_site_label
_atom_site_fract_x
_atom_site_fract_y
_atom_site_fract_z
Si Si1 0.169871 0.330580 0.905517
Si Si2 0.389428 0.837047 0.193209
Si Si3 0.915640 0.907115 0.160823
Si Si4 0.458409 0.266141 0.132556
Si Si5 0.043441 0.243335 0.600632
Si Si6 0.628747 0.455580 0.444019
Si Si7 0.499597 0.980766 0.626594
Si Si8 0.115931 0.782743 0.485530
O O1 0.189637 0.095614 0.739190
O O2 0.320000 0.196386 0.826747
O O3 0.086145 0.571153 0.960026
O O4 0.056971 0.478623 0.136801
O O5 0.449032 0.917123 0.280389
O O6 0.212395 0.061911 0.412202
O O7 0.500000 0.500000 0.000000
O O8 0.408922 0.846970 0.055961
O O9 0.807028 0.111902 0.198797
O O10 0.914030 0.103558 0.318365
O O11 0.416669 0.411921 0.343640
O O12 0.299174 0.508827 0.248892
O O13 0.500000 0.000000 0.000000
O O14 0.956321 0.297699 0.554372
O O15 0.051737 0.049167 0.575175
O O16 0.500000 0.500000 0.500000
O O17 0.602519 0.660931 0.471954
O O18 0.500000 0.000000 0.500000
#
# Coordination Sequence:
#
# PCOD9004297 Si02
#       8
#     2   2   2   2   2   2   2   2
#     4  10  21  40  67  97 129 182 221 268 343 409
#     4  12  26  42  67 104 135 174 230 288 331 399
#     4   9  20  36  68  90 124 175 225 261 326 412
#     4  11  22  42  68  93 135 178 219 272 342 406
#     4  10  21  37  65  94 128 169 226 276 325 396
#     4  11  23  43  68 100 134 183 223 275 345 413
#     4  12  28  43  70 105 138 170 234 291 338 405
#     4   9  19  36  62  91 124 170 220 265 332 396
#
# _framework density 21.147189000000001
#
# number of rings (size 3 to 8) (size 9 to 14) (size 15 to 20)
#    0.000    1.500    3.750    0.750   10.500    0.000 
#    0.000    1.250    0.000    0.000    0.000    0.000 
#    0.000    0.000    0.000    0.000    0.000    0.000 
#
# Total GULP energy -89081.339160 kJ/mol
# GULP energy per Si atom -5567.583698 kJ/mol
# Density = 2.109906 g / cm^3
# Si number density = 21.147189 Si / 1000 Ang^3
#
#
#
# Elastic Constant Matrix: (Units=GPa)
#
#
# Indices 1 2 3 4 5 6 
#
# 1 130.4548 8.3298 20.7839 4.2051 6.3002 -9.5416
# 2 8.3298 99.4213 23.1756 14.5558 6.0692 0.9823
# 3 20.7839 23.1756 62.5699 4.3510 -1.3240 2.6856
# 4 4.2051 14.5558 4.3510 39.0326 3.0858 -3.8865
# 5 6.3002 6.0692 -1.3240 3.0858 36.2691 2.1111
# 6 -9.5416 0.9823 2.6856 -3.8865 2.1111 27.3996
#
#
#
# Elastic Compliance Matrix: (Units=1/GPa)
#
#
# Indices 1 2 3 4 5 6 
#
# 1 0.008478 0.000089 -0.003022 -0.000134 -0.001782 0.003364
# 2 0.000089 0.011678 -0.004112 -0.003805 -0.001774 -0.000388
# 3 -0.003022 -0.004112 0.018731 -0.000697 0.002131 -0.003004
# 4 -0.000134 -0.003805 -0.000697 0.027708 -0.001970 0.004240
# 5 -0.001782 -0.001774 0.002131 -0.001970 0.028613 -0.003250
# 6 0.003364 -0.000388 -0.003004 0.004240 -0.003250 0.038828
#
#
# Mechanical properties :
#
#
# Convention : Reuss Voigt Hill
#
# Bulk Modulus (GPa) = 40.32429 44.11383 42.21906
# Shear Modulus (GPa) = 31.97114 36.55071 34.26093
#
# Velocity S-wave (km/s) = 3.89246 4.16191 4.02943
# Velocity P-wave (km/s) = 6.26988 6.63332 6.45416
#
# Compressibility (1/GPa) = 0.02479895
#
# Stress axis : x y z
#
# Youngs Moduli (GPa) = 117.95747 85.62915 53.38661
#
# Poissons Ratio (x) = -0.00765 0.16133
# Poissons Ratio (y) = -0.01053 0.21950
# Poissons Ratio (z) = 0.35645 0.35207
#
# Static dielectric constant tensor:
#      x y z
#    x 1.848650 -0.074420 0.046290 
#    y -0.074420 1.771170 -0.009790 
#    z 0.046290 -0.009790 1.840220 
# 
# From -- ./inp_files/399255.got.cif
#   From: 2010.05.17/outbox.cif.g08.bks.cpg/sg2_200_cif.got.tgz:399255.got - 2010.06.03 11:33:40.
