data_PCOD9004350
_publ_section_title
;
Structure prediction by ZEFSAII (Michael W. Deem and Ramdas Pophale) SiO2 
 PCOD9004350
Probable space group: P -1
;
_chemical_formula_sum "Si O2"
_cell_formula_units_Z 14
_cell_length_a 16.786910
_cell_length_b 9.342151
_cell_length_c 8.568949
_cell_angle_alpha 68.346882
_cell_angle_beta 70.939580
_cell_angle_gamma 128.030606
_cell_volume 643.320449
_symmetry_space_group_name_H-M "P -1"
_symmetry_group_IT_number 2
_symmetry_cell_setting 'triclinic'
loop_
_space_group_symop_operation_xyz
x,y,z
-x,-y,-z
loop_
_atom_site_type_symbol
_atom_site_label
_atom_site_fract_x
_atom_site_fract_y
_atom_site_fract_z
Si Si1 0.125377 0.137425 0.496622
Si Si2 0.564459 0.259578 0.431317
Si Si3 0.999241 0.629581 0.816630
Si Si4 0.130179 0.318762 0.731317
Si Si5 0.567555 0.329479 0.062508
Si Si6 0.786774 0.220248 0.593102
Si Si7 0.689681 0.169939 0.017219
O O1 0.149069 0.303113 0.544376
O O2 0.062396 0.890676 0.724122
O O3 0.296072 0.366501 0.228024
O O4 0.000000 0.000000 0.500000
O O5 0.722322 0.481473 0.333214
O O6 0.585712 0.389737 0.210284
O O7 0.500000 0.000000 0.500000
O O8 0.441467 0.128526 0.690019
O O9 0.104370 0.748108 0.551303
O O10 0.827591 0.394603 0.960874
O O11 0.000000 0.500000 0.000000
O O12 0.125754 0.497098 0.650952
O O13 0.000000 0.000000 0.000000
O O14 0.387537 0.070173 0.242479
O O15 0.612152 0.220416 0.030014
O O16 0.756731 0.202584 0.802543
#
# Coordination Sequence:
#
# PCOD9004350 Si02
#       7
#     2   2   2   2   2   2   2
#     4  12  24  43  68 101 138 182 232 288 336 413
#     4  10  21  37  66 101 131 174 228 282 332 402
#     4  12  27  43  66  99 147 183 220 282 362 406
#     4  12  23  37  67 102 135 174 238 284 334 406
#     4  11  21  40  73  95 133 174 240 275 343 403
#     4  12  23  42  67 103 132 181 230 288 345 411
#     4  11  21  41  68  95 130 182 231 273 332 422
#
# _framework density 21.762093
#
# number of rings (size 3 to 8) (size 9 to 14) (size 15 to 20)
#    0.000    0.571    5.714    4.286    4.000    0.571 
#    0.000    1.429    0.000    6.000    0.000    0.000 
#    0.000    0.000    0.000    0.000    0.000    0.000 
#
# Total GULP energy -78135.748555 kJ/mol
# GULP energy per Si atom -5581.124897 kJ/mol
# Density = 2.171256 g / cm^3
# Si number density = 21.762093 Si / 1000 Ang^3
#
#
#
# Elastic Constant Matrix: (Units=GPa)
#
#
# Indices 1 2 3 4 5 6 
#
# 1 23.0815 12.5277 4.6563 -13.5372 -4.0155 0.3562
# 2 12.5277 97.3635 23.9001 -8.3670 -0.1257 13.4920
# 3 4.6563 23.9001 104.6667 3.8633 -4.5316 0.4624
# 4 -13.5372 -8.3670 3.8633 40.4404 7.6339 -3.8680
# 5 -4.0155 -0.1257 -4.5316 7.6339 33.2572 1.2458
# 6 0.3562 13.4920 0.4624 -3.8680 1.2458 26.7001
#
#
#
# Elastic Compliance Matrix: (Units=1/GPa)
#
#
# Indices 1 2 3 4 5 6 
#
# 1 0.058133 -0.006140 -0.001783 0.018386 0.002349 0.004912
# 2 -0.006140 0.012588 -0.002628 0.000385 -0.000910 -0.006135
# 3 -0.001783 -0.002628 0.010392 -0.002385 0.001710 0.000746
# 4 0.018386 0.000385 -0.002385 0.032724 -0.005788 0.004612
# 5 0.002349 -0.000910 0.001710 -0.005788 0.031983 -0.001932
# 6 0.004912 -0.006135 0.000746 0.004612 -0.001932 0.041233
#
#
# Mechanical properties :
#
#
# Convention : Reuss Voigt Hill
#
# Bulk Modulus (GPa) = 16.66327 34.14221 25.40274
# Shear Modulus (GPa) = 21.91466 32.34803 27.13135
#
# Velocity S-wave (km/s) = 3.17679 3.85962 3.53473
# Velocity P-wave (km/s) = 4.59669 5.96533 5.32516
#
# Compressibility (1/GPa) = 0.06001224
#
# Stress axis : x y z
#
# Youngs Moduli (GPa) = 17.20193 79.44100 96.22549
#
# Poissons Ratio (x) = 0.48776 0.17155
# Poissons Ratio (y) = 0.10562 0.25286
# Poissons Ratio (z) = 0.03067 0.20875
#
# Static dielectric constant tensor:
#      x y z
#    x 1.728910 0.048210 -0.067460 
#    y 0.048210 1.715410 0.107950 
#    z -0.067460 0.107950 1.707740 
# 
# From -- ./inp_files/242847.got.cif
#   From: 2010.05.17/outbox.cif.g08.bks.cpg/sg2_122_cif.got.tgz:242847.got - 2010.06.03 11:33:40.
