data_PCOD9004534
_publ_section_title
;
Structure prediction by ZEFSAII (Michael W. Deem and Ramdas Pophale) SiO2 
 PCOD9004534
Probable space group: P -1
;
_chemical_formula_sum "Si O2"
_cell_formula_units_Z 11
_cell_length_a 12.945499
_cell_length_b 7.427538
_cell_length_c 8.670746
_cell_angle_alpha 67.462735
_cell_angle_beta 147.892594
_cell_angle_gamma 101.831987
_cell_volume 396.951064
_symmetry_space_group_name_H-M "P -1"
_symmetry_group_IT_number 2
_symmetry_cell_setting 'triclinic'
loop_
_space_group_symop_operation_xyz
x,y,z
-x,-y,-z
loop_
_atom_site_type_symbol
_atom_site_label
_atom_site_fract_x
_atom_site_fract_y
_atom_site_fract_z
Si Si1 0.762412 0.033144 0.701415
Si Si2 0.396568 0.324374 0.251497
Si Si3 0.914900 0.374166 0.072011
Si Si4 0.249180 0.447829 0.681668
Si Si5 0.000000 0.000000 0.500000
Si Si6 0.653157 0.174078 0.213311
O O1 0.634615 0.236913 0.556234
O O2 0.656667 0.017279 0.405287
O O3 0.705744 0.854574 0.779541
O O4 0.000000 0.000000 0.000000
O O5 0.311785 0.385472 0.954014
O O6 0.303487 0.498820 0.195995
O O7 0.051603 0.399764 0.386592
O O8 0.948388 0.133344 0.220393
O O9 0.000000 0.500000 0.000000
O O10 0.229984 0.683338 0.591734
O O11 0.434917 0.318020 0.860861
O O12 0.773332 0.089554 0.243485
#
# Coordination Sequence:
#
# PCOD9004534 Si02
#       6
#     2   2   2   2   1   2
#     4  10  21  37  69 106 131 177 245 296 342 436
#     4  10  21  42  68 100 138 186 238 293 361 422
#     4  12  26  46  69 106 150 187 235 306 364 430
#     4  10  22  45  75  93 138 193 240 291 360 430
#     4  12  26  42  68 106 150 180 236 296 368 424
#     4  10  22  43  69 104 133 186 247 293 355 439
#
# _framework density 27.711226
#
# number of rings (size 3 to 8) (size 9 to 14) (size 15 to 20)
#    0.000    1.455    1.818    2.727    2.545    0.727 
#    3.273    0.909    0.000    0.000    0.000    0.000 
#    0.000    0.000    0.000    0.000    0.000    0.000 
#
# Total GULP energy -61268.235597 kJ/mol
# GULP energy per Si atom -5569.839600 kJ/mol
# Density = 2.764815 g / cm^3
# Si number density = 27.711226 Si / 1000 Ang^3
#
#
#
# Elastic Constant Matrix: (Units=GPa)
#
#
# Indices 1 2 3 4 5 6 
#
# 1 191.5848 30.5575 68.4336 -39.5392 19.8551 -1.0827
# 2 30.5575 40.3424 22.9175 -9.0387 -3.1561 -10.8070
# 3 68.4336 22.9175 159.6109 -19.7806 26.8291 0.0225
# 4 -39.5392 -9.0387 -19.7806 46.8631 6.5344 -0.8851
# 5 19.8551 -3.1561 26.8291 6.5344 59.6338 -15.7369
# 6 -1.0827 -10.8070 0.0225 -0.8851 -15.7369 33.4504
#
#
#
# Elastic Compliance Matrix: (Units=1/GPa)
#
#
# Indices 1 2 3 4 5 6 
#
# 1 0.008092 -0.005169 -0.001385 0.005714 -0.003770 -0.003029
# 2 -0.005169 0.036525 -0.004801 -0.000454 0.010197 0.016422
# 3 -0.001385 -0.004801 0.008649 0.002173 -0.004944 -0.003870
# 4 0.005714 -0.000454 0.002173 0.027861 -0.006568 -0.002316
# 5 -0.003770 0.010197 -0.004944 -0.006568 0.025461 0.014980
# 6 -0.003029 0.016422 -0.003870 -0.002316 0.014980 0.042091
#
#
# Mechanical properties :
#
#
# Convention : Reuss Voigt Hill
#
# Bulk Modulus (GPa) = 32.72583 70.59505 51.66044
# Shear Modulus (GPa) = 27.53704 45.96476 36.75090
#
# Velocity S-wave (km/s) = 3.15574 4.07714 3.64567
# Velocity P-wave (km/s) = 5.01134 6.90613 6.03358
#
# Compressibility (1/GPa) = 0.03055690
#
# Stress axis : x y z
#
# Youngs Moduli (GPa) = 123.58617 27.37838 115.61896
#
# Poissons Ratio (x) = 0.14151 0.16012
# Poissons Ratio (y) = 0.63876 0.55510
# Poissons Ratio (z) = 0.17115 0.13145
#
# Static dielectric constant tensor:
#      x y z
#    x 2.334310 0.069410 0.018930 
#    y 0.069410 2.445990 -0.111460 
#    z 0.018930 -0.111460 2.272710 
# 
# From -- ./inp_files/233684.got.cif
#   From: 2010.05.17/outbox.cif.g08.bks.cpg/sg2_117_cif.got.tgz:233684.got - 2010.06.03 11:33:40.
