data_PCOD9004549
_publ_section_title
;
Structure prediction by ZEFSAII (Michael W. Deem and Ramdas Pophale) SiO2 
 PCOD9004549
Probable space group: P -1
;
_chemical_formula_sum "Si O2"
_cell_formula_units_Z 16
_cell_length_a 11.642121
_cell_length_b 7.938718
_cell_length_c 7.169654
_cell_angle_alpha 112.267223
_cell_angle_beta 87.908908
_cell_angle_gamma 91.430412
_cell_volume 612.776197
_symmetry_space_group_name_H-M "P -1"
_symmetry_group_IT_number 2
_symmetry_cell_setting 'triclinic'
loop_
_space_group_symop_operation_xyz
x,y,z
-x,-y,-z
loop_
_atom_site_type_symbol
_atom_site_label
_atom_site_fract_x
_atom_site_fract_y
_atom_site_fract_z
Si Si1 0.781936 0.521467 0.347439
Si Si2 0.005360 0.274380 0.559593
Si Si3 0.194088 0.694977 0.125387
Si Si4 0.434790 0.320870 0.702916
Si Si5 0.661969 0.261956 0.542172
Si Si6 0.294355 0.018864 0.055071
Si Si7 0.507757 0.743737 0.903447
Si Si8 0.155843 0.009860 0.695715
O O1 0.899644 0.586198 0.462087
O O2 0.695441 0.678250 0.354034
O O3 0.712584 0.394394 0.439760
O O4 0.812971 0.416701 0.110762
O O5 0.910394 0.339269 0.741729
O O6 0.936500 0.159253 0.360099
O O7 0.085735 0.148415 0.633385
O O8 0.307334 0.650922 0.221279
O O9 0.213998 0.905975 0.154500
O O10 0.527478 0.227707 0.526082
O O11 0.472000 0.535578 0.784024
O O12 0.453640 0.245076 0.876777
O O13 0.734499 0.080346 0.446999
O O14 0.395846 0.871782 0.934428
O O15 0.207897 0.070277 0.915049
O O16 0.375877 0.187562 0.177812
#
# Coordination Sequence:
#
# PCOD9004549 Si02
#       8
#     2   2   2   2   2   2   2   2
#     4  12  23  44  68  99 134 173 222 270 326 392
#     4  10  25  44  67  95 129 179 223 275 322 382
#     4  11  22  43  70  94 135 172 223 271 327 385
#     4  11  20  41  65 101 135 171 211 273 328 395
#     4  11  23  41  67  95 135 175 212 274 329 385
#     4  11  20  41  66  99 128 177 209 273 331 389
#     4  10  21  37  69  98 137 167 219 266 331 399
#     4  10  22  45  64  89 139 164 220 278 317 383
#
# _framework density 26.110672000000001
#
# number of rings (size 3 to 8) (size 9 to 14) (size 15 to 20)
#    0.000    1.250    3.750    2.250    0.000    2.500 
#    9.000    2.500    0.000    0.000    0.000    0.000 
#    0.000    0.000    0.000    0.000    0.000    0.000 
#
# Total GULP energy -89594.604011 kJ/mol
# GULP energy per Si atom -5599.662751 kJ/mol
# Density = 2.605124 g / cm^3
# Si number density = 26.110672 Si / 1000 Ang^3
#
#
#
# Elastic Constant Matrix: (Units=GPa)
#
#
# Indices 1 2 3 4 5 6 
#
# 1 171.5824 23.7714 29.6037 -3.1975 18.2637 4.8472
# 2 23.7714 65.8319 3.9494 -8.1398 4.1801 1.1845
# 3 29.6037 3.9494 71.3152 -12.6813 18.3212 5.3048
# 4 -3.1975 -8.1398 -12.6813 22.6875 -0.6861 7.7148
# 5 18.2637 4.1801 18.3212 -0.6861 48.6851 -6.7400
# 6 4.8472 1.1845 5.3048 7.7148 -6.7400 55.7276
#
#
#
# Elastic Compliance Matrix: (Units=1/GPa)
#
#
# Indices 1 2 3 4 5 6 
#
# 1 0.006719 -0.002330 -0.002482 -0.001217 -0.001446 -0.000305
# 2 -0.002330 0.016928 0.001766 0.007196 -0.001348 -0.001484
# 3 -0.002482 0.001766 0.019199 0.012226 -0.006850 -0.004170
# 4 -0.001217 0.007196 0.012226 0.056448 -0.005305 -0.009667
# 5 -0.001446 -0.001348 -0.006850 -0.005305 0.024322 0.004483
# 6 -0.000305 -0.001484 -0.004170 -0.009667 0.004483 0.020280
#
#
# Mechanical properties :
#
#
# Convention : Reuss Voigt Hill
#
# Bulk Modulus (GPa) = 27.20870 47.04207 37.12539
# Shear Modulus (GPa) = 30.81851 42.18038 36.49945
#
# Velocity S-wave (km/s) = 3.43928 4.02362 3.74287
# Velocity P-wave (km/s) = 5.12003 6.29616 5.73830
#
# Compressibility (1/GPa) = 0.03675295
#
# Stress axis : x y z
#
# Youngs Moduli (GPa) = 148.82973 59.07437 52.08582
#
# Poissons Ratio (x) = 0.13767 0.12930
# Poissons Ratio (y) = 0.34684 -0.09200
# Poissons Ratio (z) = 0.36945 -0.10434
#
# Static dielectric constant tensor:
#      x y z
#    x 2.023530 0.026770 0.004410 
#    y 0.026770 2.157810 0.018200 
#    z 0.004410 0.018200 2.063140 
# 
# From -- ./inp_files/239757.got.cif
#   From: 2010.05.17/outbox.cif.g08.bks.cpg/sg2_120_cif.got.tgz:239757.got - 2010.06.03 11:33:40.
