data_PCOD9004637
_publ_section_title
;
Structure prediction by ZEFSAII (Michael W. Deem and Ramdas Pophale) SiO2 
 PCOD9004637
Probable space group: P -1
;
_chemical_formula_sum "Si O2"
_cell_formula_units_Z 16
_cell_length_a 8.819608
_cell_length_b 10.126831
_cell_length_c 20.491053
_cell_angle_alpha 35.754770
_cell_angle_beta 119.190822
_cell_angle_gamma 130.307622
_cell_volume 812.642944
_symmetry_space_group_name_H-M "P -1"
_symmetry_group_IT_number 2
_symmetry_cell_setting 'triclinic'
loop_
_space_group_symop_operation_xyz
x,y,z
-x,-y,-z
loop_
_atom_site_type_symbol
_atom_site_label
_atom_site_fract_x
_atom_site_fract_y
_atom_site_fract_z
Si Si1 0.472885 0.490192 0.575465
Si Si2 0.712229 0.011285 0.041912
Si Si3 0.535051 0.466475 0.235111
Si Si4 0.123196 0.437188 0.191595
Si Si5 0.080228 0.303266 0.379562
Si Si6 0.116682 0.039952 0.762573
Si Si7 0.088706 0.483093 0.630007
Si Si8 0.624475 0.090639 0.557877
O O1 0.500000 0.500000 0.500000
O O2 0.681274 0.547221 0.626652
O O3 0.290233 0.234852 0.671099
O O4 0.438867 0.729165 0.489616
O O5 0.657407 0.729490 0.113303
O O6 0.789697 0.011604 0.131543
O O7 0.859981 0.284459 0.930091
O O8 0.500000 0.000000 0.000000
O O9 0.348417 0.478095 0.223118
O O10 0.703546 0.491104 0.310755
O O11 0.434704 0.169725 0.310122
O O12 0.022313 0.326913 0.284166
O O13 0.013789 0.228237 0.195338
O O14 0.008970 0.444017 0.360464
O O15 0.000000 0.000000 0.500000
O O16 0.997519 0.193666 0.697838
O O17 0.150910 0.714389 0.497836
O O18 0.500000 0.000000 0.500000
#
# Coordination Sequence:
#
# PCOD9004637 Si02
#       8
#     2   2   2   2   2   2   2   2
#     4  11  23  37  55  83 118 148 182 229 278 328
#     4   9  18  35  59  83 106 143 189 232 271 320
#     4   9  17  33  55  79 105 140 182 223 268 322
#     4  11  21  35  60  85 108 144 189 232 273 324
#     4  12  22  36  56  84 114 148 185 228 279 329
#     4  10  21  38  56  83 115 146 184 227 274 331
#     4   9  19  34  54  80 113 147 180 221 276 335
#     4   9  16  32  55  77 106 146 181 218 268 329
#
# _framework density 19.688845000000001
#
# number of rings (size 3 to 8) (size 9 to 14) (size 15 to 20)
#    0.000    2.000    0.000    7.875    0.000    1.000 
#    0.000    5.625    0.000    1.500    0.000   16.625 
#    0.000    0.000    0.000    0.000    0.000    0.000 
#
# Total GULP energy -89091.423759 kJ/mol
# GULP energy per Si atom -5568.213985 kJ/mol
# Density = 1.964403 g / cm^3
# Si number density = 19.688845 Si / 1000 Ang^3
#
#
#
# Elastic Constant Matrix: (Units=GPa)
#
#
# Indices 1 2 3 4 5 6 
#
# 1 59.8804 27.4911 33.2306 -3.9177 -6.4278 -17.2649
# 2 27.4911 82.4528 59.3021 -12.9988 -8.2095 -11.2671
# 3 33.2306 59.3021 159.5490 -23.4302 5.8883 -15.2719
# 4 -3.9177 -12.9988 -23.4302 39.3828 -4.5317 0.5846
# 5 -6.4278 -8.2095 5.8883 -4.5317 17.0665 3.0670
# 6 -17.2649 -11.2671 -15.2719 0.5846 3.0670 33.1769
#
#
#
# Elastic Compliance Matrix: (Units=1/GPa)
#
#
# Indices 1 2 3 4 5 6 
#
# 1 0.023283 -0.003943 -0.002765 -0.000049 0.006208 0.008931
# 2 -0.003943 0.019762 -0.006337 0.003622 0.011051 0.000657
# 3 -0.002765 -0.006337 0.010022 0.002753 -0.007109 0.001631
# 4 -0.000049 0.003622 0.002753 0.029158 0.008303 0.001191
# 5 0.006208 0.011051 -0.007109 0.008303 0.071452 -0.003041
# 6 0.008931 0.000657 0.001631 0.001191 -0.003041 0.036023
#
#
# Mechanical properties :
#
#
# Convention : Reuss Voigt Hill
#
# Bulk Modulus (GPa) = 37.07007 60.21442 48.64224
# Shear Modulus (GPa) = 22.24370 30.04913 26.14641
#
# Velocity S-wave (km/s) = 3.36484 3.91090 3.64810
# Velocity P-wave (km/s) = 5.82795 7.14443 6.51951
#
# Compressibility (1/GPa) = 0.02697594
#
# Stress axis : x y z
#
# Youngs Moduli (GPa) = 42.94952 50.60309 99.78326
#
# Poissons Ratio (x) = 0.19955 0.27591
# Poissons Ratio (y) = 0.16937 0.63231
# Poissons Ratio (z) = 0.11876 0.32067
#
# Static dielectric constant tensor:
#      x y z
#    x 1.703190 0.025050 0.009380 
#    y 0.025050 1.779430 -0.030130 
#    z 0.009380 -0.030130 1.758940 
# 
# From -- ./inp_files/224195.got.cif
#   From: 2010.05.17/outbox.cif.g08.bks.cpg/sg2_113_cif.got.tgz:224195.got - 2010.06.03 11:33:40.
