data_PCOD9004312
_publ_section_title
;
Structure prediction by ZEFSAII (Michael W. Deem and Ramdas Pophale) SiO2 
 PCOD9004312
Probable space group: P -1
;
_chemical_formula_sum "Si O2"
_cell_formula_units_Z 16
_cell_length_a 9.682910
_cell_length_b 7.462351
_cell_length_c 15.809068
_cell_angle_alpha 74.818862
_cell_angle_beta 41.647547
_cell_angle_gamma 93.537873
_cell_volume 671.045795
_symmetry_space_group_name_H-M "P -1"
_symmetry_group_IT_number 2
_symmetry_cell_setting 'triclinic'
loop_
_space_group_symop_operation_xyz
x,y,z
-x,-y,-z
loop_
_atom_site_type_symbol
_atom_site_label
_atom_site_fract_x
_atom_site_fract_y
_atom_site_fract_z
Si Si1 0.682894 0.927537 0.463357
Si Si2 0.835751 0.009449 0.812225
Si Si3 0.376067 0.296137 0.926379
Si Si4 0.417193 0.566519 0.737067
Si Si5 0.877534 0.459593 0.722849
Si Si6 0.484016 0.158780 0.173247
Si Si7 0.061542 0.505280 0.116256
Si Si8 0.854653 0.137499 0.533109
O O1 0.578992 0.692749 0.571603
O O2 0.909331 0.976395 0.300513
O O3 0.500000 0.000000 0.500000
O O4 0.757242 0.061902 0.495833
O O5 0.870548 0.235704 0.743166
O O6 0.682751 0.856100 0.827895
O O7 0.701972 0.926779 0.970945
O O8 0.402581 0.353955 0.808046
O O9 0.615182 0.424300 0.845163
O O10 0.184455 0.367545 0.040200
O O11 0.504126 0.710154 0.762831
O O12 0.166209 0.534491 0.825828
O O13 0.979352 0.530252 0.760766
O O14 0.000701 0.624511 0.574010
O O15 0.353274 0.932332 0.297681
O O16 0.743962 0.268084 0.012354
O O17 0.000000 0.000000 0.500000
#
# Coordination Sequence:
#
# PCOD9004312 Si02
#       8
#     2   2   2   2   2   2   2   2
#     4  11  23  43  69  93 129 174 223 271 322 391
#     4  12  25  41  63 100 137 171 213 270 341 391
#     4  11  22  39  66  96 125 172 223 267 315 387
#     4  10  23  41  68 101 122 165 232 277 315 374
#     4  12  25  40  65  98 138 172 211 270 336 397
#     4  10  21  37  65  95 131 160 218 269 323 373
#     4  11  22  42  70  97 127 169 226 272 320 384
#     4  11  21  40  65  98 122 168 225 268 312 383
#
# _framework density 23.843378000000001
#
# number of rings (size 3 to 8) (size 9 to 14) (size 15 to 20)
#    0.000    1.000    2.500    6.750    1.750    1.500 
#    0.000    3.125    5.500    0.000    0.000    0.000 
#    0.000    0.000    0.000    0.000    0.000    0.000 
#
# Total GULP energy -89318.081553 kJ/mol
# GULP energy per Si atom -5582.380097 kJ/mol
# Density = 2.378911 g / cm^3
# Si number density = 23.843378 Si / 1000 Ang^3
#
#
#
# Elastic Constant Matrix: (Units=GPa)
#
#
# Indices 1 2 3 4 5 6 
#
# 1 144.9135 36.6371 34.5525 -6.6021 -21.2082 -28.8621
# 2 36.6371 84.5477 40.2918 -27.3224 -5.3165 -19.4600
# 3 34.5525 40.2918 178.0047 -64.7386 4.7714 -20.1711
# 4 -6.6021 -27.3224 -64.7386 36.9636 -14.1701 9.8119
# 5 -21.2082 -5.3165 4.7714 -14.1701 42.9764 -5.0112
# 6 -28.8621 -19.4600 -20.1711 9.8119 -5.0112 16.9383
#
#
#
# Elastic Compliance Matrix: (Units=1/GPa)
#
#
# Indices 1 2 3 4 5 6 
#
# 1 0.013518 0.000662 -0.000571 -0.001611 0.009414 0.026832
# 2 0.000662 0.025430 0.009198 0.034522 0.016900 0.026299
# 3 -0.000571 0.009198 0.022250 0.048338 0.015812 0.012767
# 4 -0.001611 0.034522 0.048338 0.150296 0.050263 0.022289
# 5 0.009414 0.016900 0.015812 0.050263 0.049464 0.039805
# 6 0.026832 0.026299 0.012767 0.022289 0.039805 0.149042
#
#
# Mechanical properties :
#
#
# Convention : Reuss Voigt Hill
#
# Bulk Modulus (GPa) = 12.53538 70.04763 41.29150
# Shear Modulus (GPa) = 11.96135 39.10796 25.53465
#
# Velocity S-wave (km/s) = 2.24221 4.05433 3.27606
# Velocity P-wave (km/s) = 3.46008 7.16651 5.62721
#
# Compressibility (1/GPa) = 0.07977422
#
# Stress axis : x y z
#
# Youngs Moduli (GPa) = 73.97491 39.32440 44.94450
#
# Poissons Ratio (x) = -0.02603 0.02568
# Poissons Ratio (y) = -0.04896 -0.41340
# Poissons Ratio (z) = 0.04227 -0.36171
#
# Static dielectric constant tensor:
#      x y z
#    x 1.839260 -0.021550 0.067920 
#    y -0.021550 2.006560 -0.081200 
#    z 0.067920 -0.081200 1.966440 
# 
# From -- ./inp_files/556952.got.cif
#   From: 2010.05.17/outbox.cif.g08.bks.cpg/sg2_279_cif.got.tgz:556952.got - 2010.06.03 11:33:40.
