data_PCOD9004411
_publ_section_title
;
Structure prediction by ZEFSAII (Michael W. Deem and Ramdas Pophale) SiO2 
 PCOD9004411
Probable space group: P -1
;
_chemical_formula_sum "Si O2"
_cell_formula_units_Z 16
_cell_length_a 5.366490
_cell_length_b 25.564522
_cell_length_c 11.937949
_cell_angle_alpha 29.502211
_cell_angle_beta 103.059167
_cell_angle_gamma 117.523658
_cell_volume 654.429435
_symmetry_space_group_name_H-M "P -1"
_symmetry_group_IT_number 2
_symmetry_cell_setting 'triclinic'
loop_
_space_group_symop_operation_xyz
x,y,z
-x,-y,-z
loop_
_atom_site_type_symbol
_atom_site_label
_atom_site_fract_x
_atom_site_fract_y
_atom_site_fract_z
Si Si1 0.316482 0.566679 0.336929
Si Si2 0.802969 0.014954 0.048083
Si Si3 0.450313 0.789015 0.066950
Si Si4 0.566718 0.389350 0.209681
Si Si5 0.053396 0.046090 0.608573
Si Si6 0.833523 0.106105 0.283686
Si Si7 0.784450 0.486784 0.827309
Si Si8 0.314626 0.288252 0.587409
O O1 0.500000 0.500000 0.500000
O O2 0.524877 0.710758 0.135359
O O3 0.232491 0.562283 0.206781
O O4 0.000000 0.500000 0.500000
O O5 0.009893 0.162222 0.836342
O O6 0.738267 0.925161 0.315915
O O7 0.500000 0.000000 0.000000
O O8 0.000000 0.000000 0.000000
O O9 0.422100 0.721734 0.307126
O O10 0.175174 0.785184 0.984462
O O11 0.714068 0.939088 0.823023
O O12 0.318719 0.279446 0.469994
O O13 0.882182 0.437520 0.219091
O O14 0.500000 0.500000 0.000000
O O15 0.593135 0.375279 0.107327
O O16 0.109678 0.968524 0.666048
O O17 0.044512 0.146605 0.340414
O O18 0.500000 0.000000 0.500000
O O19 0.672401 0.583841 0.625566
#
# Coordination Sequence:
#
# PCOD9004411 Si02
#       8
#     2   2   2   2   2   2   2   2
#     4  12  26  41  64 103 140 170 220 277 328 388
#     4  11  27  43  66 101 134 170 223 282 331 395
#     4  10  21  37  66  96 129 173 217 271 334 396
#     4   9  20  39  66  91 123 177 222 264 329 391
#     4   9  21  41  67  92 132 171 218 271 340 398
#     4   9  19  38  67  93 122 171 217 267 328 404
#     4  10  21  40  66  94 135 175 220 275 325 405
#     4  10  21  40  68  93 126 176 222 270 339 400
#
# _framework density 24.448779999999999
#
# number of rings (size 3 to 8) (size 9 to 14) (size 15 to 20)
#    0.000    2.000    1.250    0.750   10.500    1.000 
#    0.000    7.500    0.000    0.000    0.000    0.000 
#    0.000    0.000    0.000    0.000    0.000    0.000 
#
# Total GULP energy -89307.586975 kJ/mol
# GULP energy per Si atom -5581.724186 kJ/mol
# Density = 2.439313 g / cm^3
# Si number density = 24.448780 Si / 1000 Ang^3
#
#
#
# Elastic Constant Matrix: (Units=GPa)
#
#
# Indices 1 2 3 4 5 6 
#
# 1 87.1040 21.1639 38.3562 29.6997 16.5426 5.7609
# 2 21.1639 113.5202 48.5005 51.0883 5.5067 -3.6509
# 3 38.3562 48.5005 131.3020 52.6276 26.8761 9.4190
# 4 29.6997 51.0883 52.6276 64.6860 9.5636 0.4274
# 5 16.5426 5.5067 26.8761 9.5636 45.9481 15.1121
# 6 5.7609 -3.6509 9.4190 0.4274 15.1121 33.7732
#
#
#
# Elastic Compliance Matrix: (Units=1/GPa)
#
#
# Indices 1 2 3 4 5 6 
#
# 1 0.014490 0.000497 -0.001652 -0.005247 -0.003044 -0.000529
# 2 0.000497 0.013930 -0.001467 -0.010130 0.000556 0.001710
# 3 -0.001652 -0.001467 0.012822 -0.007813 -0.004690 -0.001255
# 4 -0.005247 -0.010130 -0.007813 0.032136 0.000548 0.001327
# 5 -0.003044 0.000556 -0.004690 0.000548 0.029084 -0.011133
# 6 -0.000529 0.001710 -0.001255 0.001327 -0.011133 0.035199
#
#
# Mechanical properties :
#
#
# Convention : Reuss Voigt Hill
#
# Bulk Modulus (GPa) = 27.77972 60.88526 44.33249
# Shear Modulus (GPa) = 32.27797 43.80850 38.04323
#
# Velocity S-wave (km/s) = 3.63744 4.23761 3.94894
# Velocity P-wave (km/s) = 5.38780 6.99288 6.24215
#
# Compressibility (1/GPa) = 0.03599748
#
# Stress axis : x y z
#
# Youngs Moduli (GPa) = 69.01522 71.78789 77.98991
#
# Poissons Ratio (x) = -0.03565 0.12884
# Poissons Ratio (y) = -0.03427 0.11439
# Poissons Ratio (z) = 0.11401 0.10529
#
# Static dielectric constant tensor:
#      x y z
#    x 2.217250 0.235820 -0.110060 
#    y 0.235820 2.164740 -0.067550 
#    z -0.110060 -0.067550 2.054690 
# 
# From -- ./inp_files/371320.got.cif
#   From: 2010.05.17/outbox.cif.g08.bks.cpg/sg2_186_cif.got.tgz:371320.got - 2010.06.03 11:33:40.
