data_PCOD9004825
_publ_section_title
;
Structure prediction by ZEFSAII (Michael W. Deem and Ramdas Pophale) SiO2 
 PCOD9004825
Probable space group: P -1
;
_chemical_formula_sum "Si O2"
_cell_formula_units_Z 16
_cell_length_a 23.893537
_cell_length_b 11.909354
_cell_length_c 26.351075
_cell_angle_alpha 141.337888
_cell_angle_beta 169.710278
_cell_angle_gamma 39.347862
_cell_volume 835.910995
_symmetry_space_group_name_H-M "P -1"
_symmetry_group_IT_number 2
_symmetry_cell_setting 'triclinic'
loop_
_space_group_symop_operation_xyz
x,y,z
-x,-y,-z
loop_
_atom_site_type_symbol
_atom_site_label
_atom_site_fract_x
_atom_site_fract_y
_atom_site_fract_z
Si Si1 0.687411 0.881904 0.459833
Si Si2 0.734197 0.480278 0.382372
Si Si3 0.749609 0.606381 0.553952
Si Si4 0.354481 0.788673 0.648015
Si Si5 0.228809 0.849121 0.126691
Si Si6 0.581645 0.037836 0.856357
Si Si7 0.371362 0.153230 0.977061
Si Si8 0.797324 0.613390 0.317514
O O1 0.645130 0.666502 0.339952
O O2 0.483478 0.930641 0.344697
O O3 0.543150 0.987342 0.320525
O O4 0.058359 0.905816 0.804015
O O5 0.844799 0.543312 0.559127
O O6 0.994891 0.376268 0.544273
O O7 0.458389 0.345813 0.099114
O O8 0.655023 0.426937 0.434893
O O9 0.441904 0.736825 0.317414
O O10 0.017735 0.712419 0.858552
O O11 0.996068 0.857347 0.347492
O O12 0.551600 0.869063 0.806945
O O13 0.474316 0.855199 0.832809
O O14 0.000000 0.000000 0.000000
O O15 0.346136 0.196005 0.724187
O O16 0.500000 0.000000 0.000000
O O17 0.000000 0.500000 0.500000
O O18 0.500000 0.500000 0.000000
#
# Coordination Sequence:
#
# PCOD9004825 Si02
#       8
#     2   2   2   2   2   2   2   2
#     4  11  22  38  60  88 119 156 195 244 317 357
#     4  10  21  38  59  84 122 156 210 255 299 342
#     4  10  22  40  66  92 120 160 196 254 310 363
#     4  11  23  40  59  85 119 166 210 241 302 360
#     4  11  23  42  71  98 120 144 193 258 318 379
#     4  12  23  39  57  86 126 167 202 244 289 364
#     4  11  23  38  58  82 116 164 218 269 291 332
#     4  12  23  35  52  82 122 163 206 247 288 341
#
# _framework density 19.140795000000001
#
# number of rings (size 3 to 8) (size 9 to 14) (size 15 to 20)
#    0.000    1.000    2.500    6.000    0.000    5.000 
#    0.000    0.000    0.000    4.500    0.000    0.000 
#    0.000    0.000    0.000    0.000    0.000    0.000 
#
# Total GULP energy -89441.315380 kJ/mol
# GULP energy per Si atom -5590.082211 kJ/mol
# Density = 1.909723 g / cm^3
# Si number density = 19.140795 Si / 1000 Ang^3
#
#
#
# Elastic Constant Matrix: (Units=GPa)
#
#
# Indices 1 2 3 4 5 6 
#
# 1 71.5524 55.5645 38.0413 -11.0896 18.3411 15.8004
# 2 55.5645 87.1530 44.5415 -23.3578 12.3581 14.7395
# 3 38.0413 44.5415 132.2652 -12.8658 -0.7807 7.5704
# 4 -11.0896 -23.3578 -12.8658 58.4153 1.8242 -5.8400
# 5 18.3411 12.3581 -0.7807 1.8242 40.7433 -6.6659
# 6 15.8004 14.7395 7.5704 -5.8400 -6.6659 37.0867
#
#
#
# Elastic Compliance Matrix: (Units=1/GPa)
#
#
# Indices 1 2 3 4 5 6 
#
# 1 0.033882 -0.016924 -0.003750 -0.001728 -0.011636 -0.009307
# 2 -0.016924 0.025988 -0.003179 0.006343 -0.000875 -0.001628
# 3 -0.003750 -0.003179 0.009663 0.000196 0.003069 0.001471
# 4 -0.001728 0.006343 0.000196 0.019520 -0.001867 0.000913
# 5 -0.011636 -0.000875 0.003069 -0.001867 0.031844 0.010108
# 6 -0.009307 -0.001628 0.001471 0.000913 0.010108 0.033236
#
#
# Mechanical properties :
#
#
# Convention : Reuss Voigt Hill
#
# Bulk Modulus (GPa) = 45.81507 63.02946 54.42226
# Shear Modulus (GPa) = 23.91028 37.43728 30.67378
#
# Velocity S-wave (km/s) = 3.53821 4.42734 4.00751
# Velocity P-wave (km/s) = 6.37806 7.68999 7.06455
#
# Compressibility (1/GPa) = 0.02182688
#
# Stress axis : x y z
#
# Youngs Moduli (GPa) = 29.51409 38.47862 103.49158
#
# Poissons Ratio (x) = 0.65123 0.38805
# Poissons Ratio (y) = 0.49951 0.32901
# Poissons Ratio (z) = 0.11067 0.12233
#
# Static dielectric constant tensor:
#      x y z
#    x 1.684050 0.011660 0.006720 
#    y 0.011660 1.667960 -0.009970 
#    z 0.006720 -0.009970 1.657220 
# 
# From -- ./inp_files/475743.got.cif
#   From: 2010.05.17/outbox.cif.g08.bks.cpg/sg2_238_cif.got.tgz:475743.got - 2010.06.03 11:33:40.
