data_PCOD9004011
_publ_section_title
;
Structure prediction by ZEFSAII (Michael W. Deem and Ramdas Pophale) SiO2 
 PCOD9004011
Probable space group: P -1
;
_chemical_formula_sum "Si O2"
_cell_formula_units_Z 16
_cell_length_a 12.117122
_cell_length_b 8.700085
_cell_length_c 21.459878
_cell_angle_alpha 134.656903
_cell_angle_beta 35.447113
_cell_angle_gamma 147.330320
_cell_volume 707.167763
_symmetry_space_group_name_H-M "P -1"
_symmetry_group_IT_number 2
_symmetry_cell_setting 'triclinic'
loop_
_space_group_symop_operation_xyz
x,y,z
-x,-y,-z
loop_
_atom_site_type_symbol
_atom_site_label
_atom_site_fract_x
_atom_site_fract_y
_atom_site_fract_z
Si Si1 0.444930 0.256966 0.410964
Si Si2 0.239659 0.049525 0.670552
Si Si3 0.718732 0.203232 0.544059
Si Si4 0.148262 0.676916 0.921899
Si Si5 0.239306 0.211779 0.991387
Si Si6 0.301738 0.038886 0.287422
Si Si7 0.772042 0.510123 0.807504
Si Si8 0.051862 0.326107 0.764201
O O1 0.500000 0.500000 0.500000
O O2 0.721562 0.400456 0.301213
O O3 0.329047 0.979867 0.425763
O O4 0.298449 0.189687 0.393418
O O5 0.294134 0.961214 0.556772
O O6 0.005971 0.770737 0.735375
O O7 0.494995 0.213172 0.640430
O O8 0.151725 0.216537 0.734209
O O9 0.000000 0.500000 0.500000
O O10 0.972050 0.463683 0.884928
O O11 0.417910 0.763489 0.812473
O O12 0.000000 0.500000 0.000000
O O13 0.226115 0.985047 0.974924
O O14 0.214964 0.395529 0.100552
O O15 0.494083 0.393377 0.885362
O O16 0.000000 0.000000 0.000000
O O17 0.239043 0.755890 0.263696
O O18 0.120733 0.922028 0.277953
#
# Coordination Sequence:
#
# PCOD9004011 Si02
#       8
#     2   2   2   2   2   2   2   2
#     4  11  23  45  66  94 129 173 223 279 330 395
#     4  11  24  42  63  95 131 170 220 281 333 397
#     4  11  25  44  67  94 130 173 226 280 335 397
#     4  10  22  39  60  95 134 169 217 272 330 395
#     4  10  21  37  63  94 126 173 218 270 331 398
#     4  10  23  40  65  94 128 178 224 269 334 404
#     4  10  21  40  63  94 131 170 223 272 331 403
#     4  11  23  42  65  96 133 175 221 272 338 402
#
# _framework density 22.625467
#
# number of rings (size 3 to 8) (size 9 to 14) (size 15 to 20)
#    0.000    1.500    1.250    3.000    0.000    8.000 
#    0.000    0.000    0.000    0.000    0.000    0.000 
#    0.000    0.000    0.000    0.000    0.000    0.000 
#
# Total GULP energy -89307.793092 kJ/mol
# GULP energy per Si atom -5581.737068 kJ/mol
# Density = 2.257397 g / cm^3
# Si number density = 22.625467 Si / 1000 Ang^3
#
#
#
# Elastic Constant Matrix: (Units=GPa)
#
#
# Indices 1 2 3 4 5 6 
#
# 1 93.7942 57.7792 33.9444 -19.7079 13.3542 12.1435
# 2 57.7792 123.4923 32.2583 -19.5526 9.9651 5.5017
# 3 33.9444 32.2583 79.1588 -13.0159 25.2971 -3.3341
# 4 -19.7079 -19.5526 -13.0159 59.7259 4.9026 11.2479
# 5 13.3542 9.9651 25.2971 4.9026 25.1508 -3.3985
# 6 12.1435 5.5017 -3.3341 11.2479 -3.3985 42.1785
#
#
#
# Elastic Compliance Matrix: (Units=1/GPa)
#
#
# Indices 1 2 3 4 5 6 
#
# 1 0.018344 -0.006245 -0.002673 0.005198 -0.006480 -0.006586
# 2 -0.006245 0.011739 -0.002023 0.001349 0.000407 -0.000220
# 3 -0.002673 -0.002023 0.022169 0.005069 -0.021102 -0.000266
# 4 0.005198 0.001349 0.005069 0.022746 -0.013971 -0.008463
# 5 -0.006480 0.000407 -0.021102 -0.013971 0.068254 0.009370
# 6 -0.006586 -0.000220 -0.000266 -0.008463 0.009370 0.028625
#
#
# Mechanical properties :
#
#
# Convention : Reuss Voigt Hill
#
# Bulk Modulus (GPa) = 32.92756 60.48989 46.70873
# Shear Modulus (GPa) = 24.52416 36.90859 30.71638
#
# Velocity S-wave (km/s) = 3.29586 4.04330 3.68856
# Velocity P-wave (km/s) = 5.39152 6.97073 6.23136
#
# Compressibility (1/GPa) = 0.03036969
#
# Stress axis : x y z
#
# Youngs Moduli (GPa) = 54.51484 85.18857 45.10741
#
# Poissons Ratio (x) = 0.53200 0.12056
# Poissons Ratio (y) = 0.34044 0.09126
# Poissons Ratio (z) = 0.14570 0.17236
#
# Static dielectric constant tensor:
#      x y z
#    x 1.940690 0.015430 -0.067460 
#    y 0.015430 1.917550 0.085520 
#    z -0.067460 0.085520 1.882140 
# 
# From -- ./inp_files/308945.got.cif
#   From: 2010.05.17/outbox.cif.g08.bks.cpg/sg2_155_cif.got.tgz:308945.got - 2010.06.03 11:33:40.
