data_PCOD9004292
_publ_section_title
;
Structure prediction by ZEFSAII (Michael W. Deem and Ramdas Pophale) SiO2 
 PCOD9004292
Probable space group: P -1
;
_chemical_formula_sum "Si O2"
_cell_formula_units_Z 16
_cell_length_a 16.776206
_cell_length_b 9.149907
_cell_length_c 9.089978
_cell_angle_alpha 79.188821
_cell_angle_beta 65.751985
_cell_angle_gamma 126.815822
_cell_volume 819.247781
_symmetry_space_group_name_H-M "P -1"
_symmetry_group_IT_number 2
_symmetry_cell_setting 'triclinic'
loop_
_space_group_symop_operation_xyz
x,y,z
-x,-y,-z
loop_
_atom_site_type_symbol
_atom_site_label
_atom_site_fract_x
_atom_site_fract_y
_atom_site_fract_z
Si Si1 0.324922 0.377120 0.391839
Si Si2 0.127000 0.257045 0.797729
Si Si3 0.028816 0.378184 0.623923
Si Si4 0.449406 0.098868 0.977699
Si Si5 0.248217 0.449503 0.974944
Si Si6 0.179603 0.649072 0.180447
Si Si7 0.122102 0.059895 0.338661
Si Si8 0.523425 0.667083 0.833303
O O1 0.226212 0.287910 0.615267
O O2 0.428982 0.645880 0.229131
O O3 0.234098 0.226385 0.345425
O O4 0.406414 0.328388 0.353903
O O5 0.213117 0.429331 0.836486
O O6 0.074111 0.321544 0.723010
O O7 0.000000 0.000000 0.000000
O O8 0.947646 0.411512 0.747059
O O9 0.152620 0.575954 0.386601
O O10 0.927220 0.165482 0.626885
O O11 0.402773 0.121672 0.157955
O O12 0.500000 0.000000 0.000000
O O13 0.319451 0.915337 0.009833
O O14 0.397812 0.597548 0.880132
O O15 0.195182 0.518234 0.100549
O O16 0.170831 0.201227 0.127591
O O17 0.000000 0.000000 0.500000
O O18 0.500000 0.500000 0.000000
#
# Coordination Sequence:
#
# PCOD9004292 Si02
#       8
#     2   2   2   2   2   2   2   2
#     4  11  23  39  64  97 122 162 213 266 309 371
#     4  12  25  41  65  91 133 170 206 263 323 375
#     4  11  24  41  65  98 126 167 219 263 313 374
#     4  11  19  37  67  93 126 157 205 269 315 363
#     4  12  22  40  61  93 126 168 209 257 325 371
#     4  11  24  41  67  95 126 168 215 265 313 375
#     4  12  18  37  68  90 121 158 220 269 300 356
#     4  10  21  37  65  94 120 157 214 270 304 362
#
# _framework density 19.530111000000002
#
# number of rings (size 3 to 8) (size 9 to 14) (size 15 to 20)
#    0.000    0.750    7.500    1.500    1.750    1.000 
#    0.000    0.625    2.750    0.000    0.000    0.000 
#    0.000    0.000    0.000    0.000    0.000    0.000 
#
# Total GULP energy -89218.580221 kJ/mol
# GULP energy per Si atom -5576.161264 kJ/mol
# Density = 1.948566 g / cm^3
# Si number density = 19.530111 Si / 1000 Ang^3
#
#
#
# Elastic Constant Matrix: (Units=GPa)
#
#
# Indices 1 2 3 4 5 6 
#
# 1 89.1994 31.5602 44.0130 27.7120 -20.7254 -11.3139
# 2 31.5602 93.1906 30.5624 2.6674 -8.6460 -5.0812
# 3 44.0130 30.5624 98.2211 9.9355 -18.9774 -6.7847
# 4 27.7120 2.6674 9.9355 31.4497 -5.9570 -5.9264
# 5 -20.7254 -8.6460 -18.9774 -5.9570 32.7359 11.2281
# 6 -11.3139 -5.0812 -6.7847 -5.9264 11.2281 38.2107
#
#
#
# Elastic Compliance Matrix: (Units=1/GPa)
#
#
# Indices 1 2 3 4 5 6 
#
# 1 0.022138 -0.004576 -0.005589 -0.016022 0.006455 0.000572
# 2 -0.004576 0.012956 -0.002392 0.003733 -0.000402 0.000640
# 3 -0.005589 -0.002392 0.014110 0.001409 0.004458 -0.000559
# 4 -0.016022 0.003733 0.001409 0.045568 -0.001226 0.003430
# 5 0.006455 -0.000402 0.004458 -0.001226 0.040086 -0.009320
# 6 0.000572 0.000640 -0.000559 0.003430 -0.009320 0.029597
#
#
# Mechanical properties :
#
#
# Convention : Reuss Voigt Hill
#
# Bulk Modulus (GPa) = 41.51020 54.76470 48.13745
# Shear Modulus (GPa) = 25.30419 32.11095 28.70757
#
# Velocity S-wave (km/s) = 3.60342 4.05924 3.83810
# Velocity P-wave (km/s) = 6.21397 7.07616 6.65903
#
# Compressibility (1/GPa) = 0.02409047
#
# Stress axis : x y z
#
# Youngs Moduli (GPa) = 45.17214 77.18727 70.87250
#
# Poissons Ratio (x) = 0.35318 0.39608
# Poissons Ratio (y) = 0.20669 0.16952
# Poissons Ratio (z) = 0.25245 0.18463
#
# Static dielectric constant tensor:
#      x y z
#    x 1.705130 -0.012780 -0.036580 
#    y -0.012780 1.628240 -0.012420 
#    z -0.036580 -0.012420 1.720500 
# 
# From -- ./inp_files/327570.got.cif
#   From: 2010.05.17/outbox.cif.g08.bks.cpg/sg2_164_cif.got.tgz:327570.got - 2010.06.03 11:33:40.
