data_PCOD9004860
_publ_section_title
;
Structure prediction by ZEFSAII (Michael W. Deem and Ramdas Pophale) SiO2 
 PCOD9004860
Probable space group: P -1
;
_chemical_formula_sum "Si O2"
_cell_formula_units_Z 16
_cell_length_a 6.185149
_cell_length_b 8.719710
_cell_length_c 17.882204
_cell_angle_alpha 125.823324
_cell_angle_beta 82.413462
_cell_angle_gamma 89.645137
_cell_volume 770.953030
_symmetry_space_group_name_H-M "P -1"
_symmetry_group_IT_number 2
_symmetry_cell_setting 'triclinic'
loop_
_space_group_symop_operation_xyz
x,y,z
-x,-y,-z
loop_
_atom_site_type_symbol
_atom_site_label
_atom_site_fract_x
_atom_site_fract_y
_atom_site_fract_z
Si Si1 0.212154 0.468502 0.560627
Si Si2 0.780166 0.590593 0.079028
Si Si3 0.118842 0.792161 0.545130
Si Si4 0.814338 0.794643 0.291298
Si Si5 0.439862 0.675457 0.371285
Si Si6 0.163987 0.095572 0.074390
Si Si7 0.475663 0.763018 0.011047
Si Si8 0.089632 0.458276 0.272197
O O1 0.249206 0.627150 0.543225
O O2 0.397369 0.409440 0.595544
O O3 0.118921 0.283051 0.476530
O O4 0.007978 0.557904 0.645676
O O5 0.824576 0.718751 0.184519
O O6 0.617358 0.708329 0.062332
O O7 0.648055 0.415337 0.059819
O O8 0.000000 0.500000 0.000000
O O9 0.242019 0.794092 0.459599
O O10 0.115645 0.995750 0.641291
O O11 0.574704 0.788776 0.338758
O O12 0.969155 0.640986 0.288012
O O13 0.338434 0.504438 0.284316
O O14 0.050939 0.272165 0.175314
O O15 0.287725 0.937334 0.077389
O O16 0.351651 0.179451 0.040943
O O17 0.000000 0.000000 0.000000
#
# Coordination Sequence:
#
# PCOD9004860 Si02
#       8
#     2   2   2   2   2   2   2   2
#     4   9  21  39  59  85 119 152 191 242 295 356
#     4  11  23  42  61  88 127 160 198 255 304 350
#     4  10  21  38  59  87 117 150 193 243 297 352
#     4  11  23  37  60  87 116 155 199 241 296 358
#     4  10  21  39  60  83 116 154 193 245 294 348
#     4  11  22  40  63  88 121 161 203 252 301 353
#     4  10  23  39  62  89 118 160 208 246 299 365
#     4  10  22  38  58  85 117 155 197 240 294 355
#
# _framework density 20.753533999999998
#
# number of rings (size 3 to 8) (size 9 to 14) (size 15 to 20)
#    0.000    1.750    0.000    3.750    0.000   12.500 
#    0.000    0.000    0.000    0.000    0.000    0.000 
#    0.000    0.000    0.000    0.000    0.000    0.000 
#
# Total GULP energy -89372.557389 kJ/mol
# GULP energy per Si atom -5585.784837 kJ/mol
# Density = 2.070630 g / cm^3
# Si number density = 20.753534 Si / 1000 Ang^3
#
#
#
# Elastic Constant Matrix: (Units=GPa)
#
#
# Indices 1 2 3 4 5 6 
#
# 1 76.1193 33.4375 45.3878 9.7969 14.9527 1.4334
# 2 33.4375 87.7480 61.3695 19.8164 2.4751 5.1509
# 3 45.3878 61.3695 161.8974 18.4664 22.9823 14.8373
# 4 9.7969 19.8164 18.4664 24.8988 4.4123 1.2832
# 5 14.9527 2.4751 22.9823 4.4123 26.8868 -2.6796
# 6 1.4334 5.1509 14.8373 1.2832 -2.6796 27.1009
#
#
#
# Elastic Compliance Matrix: (Units=1/GPa)
#
#
# Indices 1 2 3 4 5 6 
#
# 1 0.018220 -0.005334 -0.001991 -0.000067 -0.007892 0.000363
# 2 -0.005334 0.019768 -0.006049 -0.010657 0.008181 0.001150
# 3 -0.001991 -0.006049 0.010722 -0.000673 -0.007925 -0.005367
# 4 -0.000067 -0.010657 -0.000673 0.050398 -0.006742 -0.000655
# 5 -0.007892 0.008181 -0.007925 -0.006742 0.049549 0.008420
# 6 0.000363 0.001150 -0.005367 -0.000655 0.008420 0.040463
#
#
# Mechanical properties :
#
#
# Convention : Reuss Voigt Hill
#
# Bulk Modulus (GPa) = 45.53573 67.35045 56.44309
# Shear Modulus (GPa) = 22.40268 28.14861 25.27565
#
# Velocity S-wave (km/s) = 3.28908 3.68683 3.49362
# Velocity P-wave (km/s) = 6.03431 7.11664 6.59771
#
# Compressibility (1/GPa) = 0.02196078
#
# Stress axis : x y z
#
# Youngs Moduli (GPa) = 54.88538 50.58739 93.26984
#
# Poissons Ratio (x) = 0.26982 0.18573
# Poissons Ratio (y) = 0.29274 0.56420
# Poissons Ratio (z) = 0.10930 0.30601
#
# Static dielectric constant tensor:
#      x y z
#    x 1.784690 0.009650 -0.009210 
#    y 0.009650 1.745440 0.000200 
#    z -0.009210 0.000200 1.730470 
# 
# From -- ./inp_files/37282.got.cif
#   From: 2010.05.17/outbox.cif.g08.bks.cpg/sg2_19_cif.got.tgz:37282.got - 2010.06.03 11:33:40.
