data_PCOD9004257
_publ_section_title
;
Structure prediction by ZEFSAII (Michael W. Deem and Ramdas Pophale) SiO2 
 PCOD9004257
Probable space group: P -1
;
_chemical_formula_sum "Si O2"
_cell_formula_units_Z 16
_cell_length_a 14.901482
_cell_length_b 15.933468
_cell_length_c 7.654890
_cell_angle_alpha 66.600908
_cell_angle_beta 98.854752
_cell_angle_gamma 153.159630
_cell_volume 659.182165
_symmetry_space_group_name_H-M "P -1"
_symmetry_group_IT_number 2
_symmetry_cell_setting 'triclinic'
loop_
_space_group_symop_operation_xyz
x,y,z
-x,-y,-z
loop_
_atom_site_type_symbol
_atom_site_label
_atom_site_fract_x
_atom_site_fract_y
_atom_site_fract_z
Si Si1 0.251475 0.265132 0.792729
Si Si2 0.200155 0.550955 0.334650
Si Si3 0.358035 0.084206 0.985988
Si Si4 0.881967 0.657020 0.220814
Si Si5 0.269528 0.232685 0.427444
Si Si6 0.780270 0.186534 0.332817
Si Si7 0.578401 0.807142 0.692676
Si Si8 0.615223 0.097967 0.728895
O O1 0.206542 0.332838 0.722979
O O2 0.283470 0.248103 0.628760
O O3 0.503269 0.493204 0.775875
O O4 0.000000 0.000000 0.000000
O O5 0.069151 0.372403 0.590040
O O6 0.260549 0.705415 0.299822
O O7 0.049119 0.422145 0.222898
O O8 0.424970 0.699387 0.245575
O O9 0.372429 0.147283 0.124620
O O10 0.373181 0.989378 0.105914
O O11 0.116350 0.887080 0.999040
O O12 0.689251 0.442068 0.215120
O O13 0.318237 0.183775 0.382159
O O14 0.000000 0.000000 0.500000
O O15 0.722290 0.187175 0.494170
O O16 0.671255 0.986258 0.489706
O O17 0.647097 0.114599 0.200882
#
# Coordination Sequence:
#
# PCOD9004257 Si02
#       8
#     2   2   2   2   2   2   2   2
#     4  10  24  46  67 100 130 167 214 269 326 391
#     4  12  23  39  65  92 124 171 213 263 312 368
#     4  11  25  39  62  97 127 166 219 259 305 381
#     4  11  23  43  66  88 131 165 206 262 320 378
#     4  10  22  42  72  94 129 170 212 265 327 395
#     4  10  21  37  65  89 125 168 211 257 311 372
#     4  10  21  43  60  93 128 167 207 259 319 369
#     4  10  21  39  60  92 127 170 212 257 315 366
#
# _framework density 24.272500999999998
#
# number of rings (size 3 to 8) (size 9 to 14) (size 15 to 20)
#    0.000    1.500    3.750    1.500    0.000    5.000 
#    4.500    0.000    0.000    0.000    0.000    0.000 
#    0.000    0.000    0.000    0.000    0.000    0.000 
#
# Total GULP energy -89423.832038 kJ/mol
# GULP energy per Si atom -5588.989502 kJ/mol
# Density = 2.421726 g / cm^3
# Si number density = 24.272501 Si / 1000 Ang^3
#
#
#
# Elastic Constant Matrix: (Units=GPa)
#
#
# Indices 1 2 3 4 5 6 
#
# 1 68.7187 69.4757 20.2013 -23.5481 -17.3242 -9.8990
# 2 69.4757 166.5615 37.3665 -35.8138 -19.7330 -2.5746
# 3 20.2013 37.3665 83.5702 -25.1262 -19.5420 -10.1663
# 4 -23.5481 -35.8138 -25.1262 36.5708 3.4406 -17.8131
# 5 -17.3242 -19.7330 -19.5420 3.4406 34.7844 -6.8153
# 6 -9.8990 -2.5746 -10.1663 -17.8131 -6.8153 49.4918
#
#
#
# Elastic Compliance Matrix: (Units=1/GPa)
#
#
# Indices 1 2 3 4 5 6 
#
# 1 0.048300 -0.009715 0.018717 0.048429 0.031070 0.034709
# 2 -0.009715 0.011126 -0.001721 0.003175 0.000082 -0.000564
# 3 0.018717 -0.001721 0.031416 0.043813 0.027473 0.029660
# 4 0.048429 0.003175 0.043813 0.120666 0.052212 0.069471
# 5 0.031070 0.000082 0.027473 0.052212 0.062224 0.039222
# 6 0.034709 -0.000564 0.029660 0.069471 0.039222 0.063616
#
#
# Mechanical properties :
#
#
# Convention : Reuss Voigt Hill
#
# Bulk Modulus (GPa) = 9.48738 63.65973 36.57355
# Shear Modulus (GPa) = 13.96955 36.95654 25.46304
#
# Velocity S-wave (km/s) = 2.40162 3.90624 3.24242
# Velocity P-wave (km/s) = 3.40699 6.82854 5.39614
#
# Compressibility (1/GPa) = 0.10540321
#
# Stress axis : x y z
#
# Youngs Moduli (GPa) = 20.70394 89.88004 31.83049
#
# Poissons Ratio (x) = 0.87320 -0.59576
# Poissons Ratio (y) = 0.20114 0.05479
# Poissons Ratio (z) = -0.38751 0.15470
#
# Static dielectric constant tensor:
#      x y z
#    x 1.913630 0.067540 -0.012950 
#    y 0.067540 1.976980 -0.064710 
#    z -0.012950 -0.064710 1.964530 
# 
# From -- ./inp_files/315083.got.cif
#   From: 2010.05.17/outbox.cif.g08.bks.cpg/sg2_158_cif.got.tgz:315083.got - 2010.06.03 11:33:40.
