data_PCOD9004136
_publ_section_title
;
Structure prediction by ZEFSAII (Michael W. Deem and Ramdas Pophale) SiO2 
 PCOD9004136
Probable space group: P -1
;
_chemical_formula_sum "Si O2"
_cell_formula_units_Z 14
_cell_length_a 12.545848
_cell_length_b 9.413819
_cell_length_c 10.717695
_cell_angle_alpha 59.126582
_cell_angle_beta 35.758223
_cell_angle_gamma 48.805585
_cell_volume 555.950089
_symmetry_space_group_name_H-M "P -1"
_symmetry_group_IT_number 2
_symmetry_cell_setting 'triclinic'
loop_
_space_group_symop_operation_xyz
x,y,z
-x,-y,-z
loop_
_atom_site_type_symbol
_atom_site_label
_atom_site_fract_x
_atom_site_fract_y
_atom_site_fract_z
Si Si1 0.011387 0.351108 0.454721
Si Si2 0.150094 0.416216 0.726307
Si Si3 0.590333 0.339560 0.815847
Si Si4 0.397638 0.743731 0.721994
Si Si5 0.306796 0.964377 0.950617
Si Si6 0.597443 0.046154 0.764149
Si Si7 0.104176 0.732810 0.805420
O O1 0.195239 0.139324 0.388698
O O2 0.000000 0.500000 0.500000
O O3 0.020770 0.436922 0.273473
O O4 0.795919 0.347391 0.655791
O O5 0.368905 0.290287 0.506609
O O6 0.198168 0.547664 0.714696
O O7 0.040021 0.310012 0.942716
O O8 0.420756 0.551685 0.849492
O O9 0.627242 0.217602 0.709213
O O10 0.557752 0.229090 0.012076
O O11 0.291785 0.906317 0.851167
O O12 0.267040 0.772871 0.707137
O O13 0.427343 0.084266 0.802560
O O14 0.075948 0.081670 0.174925
O O15 0.500000 0.000000 0.000000
#
# Coordination Sequence:
#
# PCOD9004136 Si02
#       7
#     2   2   2   2   2   2   2
#     4  11  23  42  68 102 133 170 222 284 331 390
#     4  10  24  43  67  99 131 180 228 262 338 407
#     4  10  23  40  69  97 132 174 225 272 332 399
#     4  11  24  44  69  97 133 176 228 277 335 393
#     4  11  24  43  64 104 131 173 221 279 340 389
#     4  10  21  37  64  92 132 168 215 271 323 392
#     4  11  25  43  70  93 141 179 220 273 334 407
#
# _framework density 25.182117000000002
#
# number of rings (size 3 to 8) (size 9 to 14) (size 15 to 20)
#    0.000    1.429    0.000    5.143   10.000    1.714 
#    2.571    0.000    0.000    0.000    0.000    0.000 
#    0.000    0.000    0.000    0.000    0.000    0.000 
#
# Total GULP energy -78403.155618 kJ/mol
# GULP energy per Si atom -5600.225401 kJ/mol
# Density = 2.512480 g / cm^3
# Si number density = 25.182117 Si / 1000 Ang^3
#
#
#
# Elastic Constant Matrix: (Units=GPa)
#
#
# Indices 1 2 3 4 5 6 
#
# 1 128.0973 40.4069 -8.3577 8.3416 -24.7875 33.9303
# 2 40.4069 103.3917 9.8497 13.1426 -3.7124 32.3968
# 3 -8.3577 9.8497 50.1260 -9.3464 -13.0866 9.6873
# 4 8.3416 13.1426 -9.3464 42.2862 -2.2811 5.6785
# 5 -24.7875 -3.7124 -13.0866 -2.2811 38.2575 -0.6004
# 6 33.9303 32.3968 9.6873 5.6785 -0.6004 57.4108
#
#
#
# Elastic Compliance Matrix: (Units=1/GPa)
#
#
# Indices 1 2 3 4 5 6 
#
# 1 0.013260 -0.003458 0.007396 0.001639 0.010771 -0.007183
# 2 -0.003458 0.013141 -0.003662 -0.003755 -0.002511 -0.004409
# 3 0.007396 -0.003662 0.028676 0.007848 0.014592 -0.007767
# 4 0.001639 -0.003755 0.007848 0.026866 0.004940 -0.002780
# 5 0.010771 -0.002511 0.014592 0.004940 0.038042 -0.007502
# 6 -0.007183 -0.004409 -0.007767 -0.002780 -0.007502 0.025658
#
#
# Mechanical properties :
#
#
# Convention : Reuss Voigt Hill
#
# Bulk Modulus (GPa) = 17.97616 40.60143 29.28880
# Shear Modulus (GPa) = 30.55593 43.57196 37.06395
#
# Velocity S-wave (km/s) = 3.48717 4.16417 3.84061
# Velocity P-wave (km/s) = 4.83402 6.26726 5.59671
#
# Compressibility (1/GPa) = 0.05562923
#
# Stress axis : x y z
#
# Youngs Moduli (GPa) = 75.41553 76.09937 34.87186
#
# Poissons Ratio (x) = 0.26312 -0.25792
# Poissons Ratio (y) = 0.26076 0.12771
# Poissons Ratio (z) = -0.55778 0.27870
#
# Static dielectric constant tensor:
#      x y z
#    x 1.990970 -0.057240 0.049390 
#    y -0.057240 2.048760 -0.098130 
#    z 0.049390 -0.098130 2.018500 
# 
# From -- ./inp_files/218586.got.cif
#   From: 2010.05.17/outbox.cif.g08.bks.cpg/sg2_110_cif.got.tgz:218586.got - 2010.06.03 11:33:40.
