data_PCOD9004036
_publ_section_title
;
Structure prediction by ZEFSAII (Michael W. Deem and Ramdas Pophale) SiO2 
 PCOD9004036
Probable space group: P -1
;
_chemical_formula_sum "Si O2"
_cell_formula_units_Z 13
_cell_length_a 14.064976
_cell_length_b 13.115814
_cell_length_c 9.750084
_cell_angle_alpha 109.073560
_cell_angle_beta 132.485411
_cell_angle_gamma 32.114812
_cell_volume 550.090749
_symmetry_space_group_name_H-M "P -1"
_symmetry_group_IT_number 2
_symmetry_cell_setting 'triclinic'
loop_
_space_group_symop_operation_xyz
x,y,z
-x,-y,-z
loop_
_atom_site_type_symbol
_atom_site_label
_atom_site_fract_x
_atom_site_fract_y
_atom_site_fract_z
Si Si1 0.450738 0.677815 0.409015
Si Si2 0.034976 0.332951 0.942501
Si Si3 0.723555 0.242472 0.431746
Si Si4 0.500000 0.000000 0.000000
Si Si5 0.204489 0.285358 0.367382
Si Si6 0.371806 0.870605 0.165026
Si Si7 0.371904 0.350729 0.959764
O O1 0.618757 0.445321 0.413272
O O2 0.250365 0.800483 0.398933
O O3 0.290330 0.858569 0.208489
O O4 0.710568 0.559559 0.666862
O O5 0.271993 0.174536 0.984779
O O6 0.063440 0.391475 0.125526
O O7 0.136117 0.139797 0.019586
O O8 0.464120 0.363056 0.172788
O O9 0.000000 0.000000 0.500000
O O10 0.549073 0.831532 0.003217
O O11 0.318296 0.304656 0.565539
O O12 0.978473 0.389592 0.287030
O O13 0.500000 0.000000 0.500000
O O14 0.454222 0.749215 0.051925
#
# Coordination Sequence:
#
# PCOD9004036 Si02
#       7
#     2   2   2   1   2   2   2
#     4  11  24  46  71  95 137 181 230 283 340 399
#     4  10  21  42  64 101 139 173 218 279 340 403
#     4  11  25  46  70  99 131 182 236 283 339 406
#     4  10  22  34  68  96 132 178 210 268 346 402
#     4  10  21  37  63  96 137 171 212 271 341 408
#     4  10  23  40  67 101 131 173 226 275 337 417
#     4  11  22  43  65  98 139 173 224 280 339 406
#
# _framework density 23.632463999999999
#
# number of rings (size 3 to 8) (size 9 to 14) (size 15 to 20)
#    0.000    1.538    1.538    3.231    2.154    4.308 
#    5.538    6.923    0.000    0.000    0.000    0.000 
#    0.000    0.000    0.000    0.000    0.000    0.000 
#
# Total GULP energy -72431.914909 kJ/mol
# GULP energy per Si atom -5571.685762 kJ/mol
# Density = 2.357868 g / cm^3
# Si number density = 23.632464 Si / 1000 Ang^3
#
#
#
# Elastic Constant Matrix: (Units=GPa)
#
#
# Indices 1 2 3 4 5 6 
#
# 1 112.1062 34.7463 19.2384 -3.7660 -24.2027 -14.0042
# 2 34.7463 137.6791 15.2240 11.2839 -1.5837 -25.8279
# 3 19.2384 15.2240 73.6731 8.5667 0.2225 4.3336
# 4 -3.7660 11.2839 8.5667 29.6241 1.1591 0.4779
# 5 -24.2027 -1.5837 0.2225 1.1591 48.8372 6.9745
# 6 -14.0042 -25.8279 4.3336 0.4779 6.9745 36.4286
#
#
#
# Elastic Compliance Matrix: (Units=1/GPa)
#
#
# Indices 1 2 3 4 5 6 
#
# 1 0.011715 -0.002416 -0.003053 0.003049 0.005371 0.002086
# 2 -0.002416 0.009472 -0.001276 -0.003581 -0.001701 0.006311
# 3 -0.003053 -0.001276 0.015346 -0.004242 -0.001002 -0.003657
# 4 0.003049 -0.003581 -0.004242 0.036729 0.000755 -0.001489
# 5 0.005371 -0.001701 -0.001002 0.000755 0.023576 -0.003545
# 6 0.002086 0.006311 -0.003657 -0.001489 -0.003545 0.033861
#
#
# Mechanical properties :
#
#
# Convention : Reuss Voigt Hill
#
# Bulk Modulus (GPa) = 43.39817 51.31952 47.35885
# Shear Modulus (GPa) = 32.92269 39.92795 36.42532
#
# Velocity S-wave (km/s) = 3.73649 4.11486 3.93023
# Velocity P-wave (km/s) = 6.08431 6.65875 6.37800
#
# Compressibility (1/GPa) = 0.02304244
#
# Stress axis : x y z
#
# Youngs Moduli (GPa) = 85.35732 105.57448 65.16400
#
# Poissons Ratio (x) = 0.25505 0.19898
# Poissons Ratio (y) = 0.20621 0.08316
# Poissons Ratio (z) = 0.26064 0.13473
#
# Static dielectric constant tensor:
#      x y z
#    x 1.985930 0.024690 -0.003030 
#    y 0.024690 1.878020 -0.033010 
#    z -0.003030 -0.033010 1.971240 
# 
# From -- ./inp_files/315691.got.cif
#   From: 2010.05.17/outbox.cif.g08.bks.cpg/sg2_158_cif.got.tgz:315691.got - 2010.06.03 11:33:40.
