data_PCOD9004647
_publ_section_title
;
Structure prediction by ZEFSAII (Michael W. Deem and Ramdas Pophale) SiO2 
 PCOD9004647
Probable space group: P -1
;
_chemical_formula_sum "Si O2"
_cell_formula_units_Z 16
_cell_length_a 5.319206
_cell_length_b 13.760000
_cell_length_c 9.624456
_cell_angle_alpha 101.835628
_cell_angle_beta 96.440924
_cell_angle_gamma 101.674423
_cell_volume 666.461415
_symmetry_space_group_name_H-M "P -1"
_symmetry_group_IT_number 2
_symmetry_cell_setting 'triclinic'
loop_
_space_group_symop_operation_xyz
x,y,z
-x,-y,-z
loop_
_atom_site_type_symbol
_atom_site_label
_atom_site_fract_x
_atom_site_fract_y
_atom_site_fract_z
Si Si1 0.350006 0.568713 0.098833
Si Si2 0.544029 0.699958 0.546762
Si Si3 0.317723 0.044049 0.693557
Si Si4 0.772645 0.758671 0.130048
Si Si5 0.012908 0.326163 0.641360
Si Si6 0.935872 0.624639 0.878826
Si Si7 0.262318 0.077594 0.371559
Si Si8 0.805557 0.452964 0.350201
O O1 0.541434 0.676133 0.164112
O O2 0.253225 0.487401 0.188963
O O3 0.500000 0.500000 0.000000
O O4 0.122046 0.598710 0.004547
O O5 0.796798 0.700077 0.471304
O O6 0.614703 0.811607 0.650798
O O7 0.469104 0.604369 0.618603
O O8 0.277970 0.687751 0.438392
O O9 0.298083 0.133636 0.825812
O O10 0.310264 0.082393 0.543919
O O11 0.574735 0.999943 0.702895
O O12 0.047702 0.959735 0.674198
O O13 0.000379 0.747684 0.248123
O O14 0.817616 0.712425 0.967853
O O15 0.157800 0.445679 0.712942
O O16 0.103243 0.637263 0.753796
O O17 0.000000 0.500000 0.500000
#
# Coordination Sequence:
#
# PCOD9004647 Si02
#       8
#     2   2   2   2   2   2   2   2
#     4   9  19  35  56  85 120 157 195 251 293 362
#     4  11  23  41  61  88 126 166 200 253 296 364
#     4  10  22  35  61  89 118 155 194 261 305 360
#     4  11  23  35  63  89 125 158 197 258 308 360
#     4  11  23  37  62  93 125 159 207 239 307 361
#     4  10  21  38  56  87 122 160 205 241 303 359
#     4  10  21  38  58  88 121 152 204 248 311 355
#     4  10  23  40  60  88 125 167 204 243 289 366
#
# _framework density 24.007393
#
# number of rings (size 3 to 8) (size 9 to 14) (size 15 to 20)
#    0.000    1.750    1.250    3.375   10.500    0.000 
#    9.000    0.000    0.000    1.500    0.000    0.000 
#    0.000    0.000    0.000    0.000    0.000    0.000 
#
# Total GULP energy -89324.861645 kJ/mol
# GULP energy per Si atom -5582.803853 kJ/mol
# Density = 2.395275 g / cm^3
# Si number density = 24.007393 Si / 1000 Ang^3
#
#
#
# Elastic Constant Matrix: (Units=GPa)
#
#
# Indices 1 2 3 4 5 6 
#
# 1 102.7047 17.6939 25.4977 2.2429 -18.5188 -1.7772
# 2 17.6939 82.4910 23.9674 21.5652 -4.6959 4.7839
# 3 25.4977 23.9674 96.4401 16.5384 -34.5072 -13.1564
# 4 2.2429 21.5652 16.5384 33.1455 -9.1672 -1.2151
# 5 -18.5188 -4.6959 -34.5072 -9.1672 48.0466 6.2112
# 6 -1.7772 4.7839 -13.1564 -1.2151 6.2112 25.8591
#
#
#
# Elastic Compliance Matrix: (Units=1/GPa)
#
#
# Indices 1 2 3 4 5 6 
#
# 1 0.011096 -0.002361 -0.001598 0.002517 0.003419 -0.000317
# 2 -0.002361 0.016278 -0.003494 -0.009710 -0.003078 -0.004669
# 3 -0.001598 -0.003494 0.016432 -0.002969 0.009438 0.006490
# 4 0.002517 -0.009710 -0.002969 0.039289 0.005250 0.001044
# 5 0.003419 -0.003078 0.009438 0.005250 0.029778 -0.001300
# 6 -0.000317 -0.004669 0.006490 0.001044 -0.001300 0.043176
#
#
# Mechanical properties :
#
#
# Convention : Reuss Voigt Hill
#
# Bulk Modulus (GPa) = 34.60253 46.21708 40.40981
# Shear Modulus (GPa) = 27.68713 35.70870 31.69791
#
# Velocity S-wave (km/s) = 3.39967 3.86087 3.63759
# Velocity P-wave (km/s) = 5.46397 6.25844 5.87465
#
# Compressibility (1/GPa) = 0.02889962
#
# Stress axis : x y z
#
# Youngs Moduli (GPa) = 90.12059 61.43226 60.85779
#
# Poissons Ratio (x) = 0.14501 0.09728
# Poissons Ratio (y) = 0.21273 0.21265
# Poissons Ratio (z) = 0.14405 0.21466
#
# Static dielectric constant tensor:
#      x y z
#    x 2.145990 -0.015470 -0.011720 
#    y -0.015470 1.957010 -0.049360 
#    z -0.011720 -0.049360 2.000330 
# 
# From -- ./inp_files/367931.got.cif
#   From: 2010.05.17/outbox.cif.g08.bks.cpg/sg2_184_cif.got.tgz:367931.got - 2010.06.03 11:33:40.
