data_PCOD9004670
_publ_section_title
;
Structure prediction by ZEFSAII (Michael W. Deem and Ramdas Pophale) SiO2 
 PCOD9004670
Probable space group: P -1
;
_chemical_formula_sum "Si O2"
_cell_formula_units_Z 16
_cell_length_a 20.348159
_cell_length_b 14.527415
_cell_length_c 8.681961
_cell_angle_alpha 150.038676
_cell_angle_beta 36.463984
_cell_angle_gamma 150.372378
_cell_volume 619.890811
_symmetry_space_group_name_H-M "P -1"
_symmetry_group_IT_number 2
_symmetry_cell_setting 'triclinic'
loop_
_space_group_symop_operation_xyz
x,y,z
-x,-y,-z
loop_
_atom_site_type_symbol
_atom_site_label
_atom_site_fract_x
_atom_site_fract_y
_atom_site_fract_z
Si Si1 0.457225 0.703792 0.252096
Si Si2 0.327968 0.565007 0.948292
Si Si3 0.174838 0.059762 0.513053
Si Si4 0.623401 0.539912 0.612890
Si Si5 0.132062 0.366513 0.573905
Si Si6 0.143505 0.079255 0.918870
Si Si7 0.265127 0.826621 0.843944
Si Si8 0.851766 0.277476 0.422003
O O1 0.438604 0.622323 0.352876
O O2 0.408481 0.866970 0.605461
O O3 0.389206 0.602193 0.059594
O O4 0.593325 0.721798 0.981209
O O5 0.415776 0.579285 0.655136
O O6 0.199183 0.299651 0.808438
O O7 0.265404 0.709707 0.260059
O O8 0.214129 0.052515 0.604066
O O9 0.024647 0.841979 0.435376
O O10 0.275942 0.042311 0.194654
O O11 0.783463 0.644002 0.466027
O O12 0.176204 0.618769 0.832249
O O13 0.196167 0.321552 0.238678
O O14 0.141321 0.925968 0.831460
O O15 0.000000 0.000000 0.000000
O O16 0.179305 0.736942 0.720147
O O17 0.000000 0.500000 0.500000
#
# Coordination Sequence:
#
# PCOD9004670 Si02
#       8
#     2   2   2   2   2   2   2   2
#     4   9  21  45  64  91 125 167 220 269 314 364
#     4  11  24  40  65  97 126 170 212 262 317 379
#     4  11  22  37  60  95 131 158 205 264 315 388
#     4  10  21  38  73  88 121 172 220 259 318 375
#     4  10  21  38  62  90 128 165 208 254 327 377
#     4  10  21  38  57  84 128 168 199 251 313 378
#     4  10  22  38  61  90 125 166 207 265 311 375
#     4  11  22  36  59  87 128 166 205 254 317 379
#
# _framework density 25.810998000000001
#
# number of rings (size 3 to 8) (size 9 to 14) (size 15 to 20)
#    0.000    1.750    0.000    6.000    7.000    0.500 
#    0.000    0.625    2.750    4.500    0.000    0.000 
#    0.000    0.000    0.000    0.000    0.000    0.000 
#
# Total GULP energy -89172.150673 kJ/mol
# GULP energy per Si atom -5573.259417 kJ/mol
# Density = 2.575225 g / cm^3
# Si number density = 25.810998 Si / 1000 Ang^3
#
#
#
# Elastic Constant Matrix: (Units=GPa)
#
#
# Indices 1 2 3 4 5 6 
#
# 1 93.9500 27.9124 12.9094 -7.9154 -5.3554 -5.2032
# 2 27.9124 73.0624 7.5054 -14.2577 3.6386 -11.6053
# 3 12.9094 7.5054 114.5455 -16.3249 -4.0194 0.8945
# 4 -7.9154 -14.2577 -16.3249 32.2241 -12.2451 11.2479
# 5 -5.3554 3.6386 -4.0194 -12.2451 48.6617 -4.2506
# 6 -5.2032 -11.6053 0.8945 11.2479 -4.2506 13.1756
#
#
#
# Elastic Compliance Matrix: (Units=1/GPa)
#
#
# Indices 1 2 3 4 5 6 
#
# 1 0.012311 -0.004373 -0.000876 0.001133 0.001959 0.000734
# 2 -0.004373 0.017756 -0.000440 0.002327 -0.000222 0.011885
# 3 -0.000876 -0.000440 0.010178 0.008302 0.002184 -0.007807
# 4 0.001133 0.002327 0.008302 0.055247 0.010895 -0.041716
# 5 0.001959 -0.000222 0.002184 0.010895 0.023594 -0.001259
# 6 0.000734 0.011885 -0.007807 -0.041716 -0.001259 0.122393
#
#
# Mechanical properties :
#
#
# Convention : Reuss Voigt Hill
#
# Bulk Modulus (GPa) = 34.64138 42.02358 38.33248
# Shear Modulus (GPa) = 19.04903 34.36098 26.70500
#
# Velocity S-wave (km/s) = 2.71960 3.65259 3.22007
# Velocity P-wave (km/s) = 4.82824 5.83997 5.35804
#
# Compressibility (1/GPa) = 0.02886721
#
# Stress axis : x y z
#
# Youngs Moduli (GPa) = 81.22529 56.32030 98.24640
#
# Poissons Ratio (x) = 0.24630 0.08611
# Poissons Ratio (y) = 0.35521 0.04318
# Poissons Ratio (z) = 0.07119 0.02476
#
# Static dielectric constant tensor:
#      x y z
#    x 2.030180 0.034460 0.023580 
#    y 0.034460 2.208310 -0.051180 
#    z 0.023580 -0.051180 2.012990 
# 
# From -- ./inp_files/347429.got.cif
#   From: 2010.05.17/outbox.cif.g08.bks.cpg/sg2_174_cif.got.tgz:347429.got - 2010.06.03 11:33:40.
