data_PCOD9004930
_publ_section_title
;
Structure prediction by ZEFSAII (Michael W. Deem and Ramdas Pophale) SiO2 
 PCOD9004930
Probable space group: P -1
;
_chemical_formula_sum "Si O2"
_cell_formula_units_Z 13
_cell_length_a 16.246413
_cell_length_b 11.491883
_cell_length_c 12.105331
_cell_angle_alpha 37.027461
_cell_angle_beta 27.916336
_cell_angle_gamma 38.253958
_cell_volume 611.128608
_symmetry_space_group_name_H-M "P -1"
_symmetry_group_IT_number 2
_symmetry_cell_setting 'triclinic'
loop_
_space_group_symop_operation_xyz
x,y,z
-x,-y,-z
loop_
_atom_site_type_symbol
_atom_site_label
_atom_site_fract_x
_atom_site_fract_y
_atom_site_fract_z
Si Si1 0.903924 0.536238 0.415029
Si Si2 0.554190 0.053632 0.016420
Si Si3 0.829746 0.816133 0.502439
Si Si4 0.500000 0.500000 0.500000
Si Si5 0.887168 0.222488 0.161194
Si Si6 0.060805 0.165347 0.227890
Si Si7 0.291736 0.561188 0.477580
O O1 0.836186 0.673450 0.498446
O O2 0.735860 0.535276 0.533722
O O3 0.022885 0.316045 0.483960
O O4 0.043322 0.631489 0.111499
O O5 0.635877 0.243470 0.776912
O O6 0.725573 0.864175 0.986169
O O7 0.371862 0.112904 0.259153
O O8 0.500000 0.000000 0.000000
O O9 0.873522 0.023705 0.265294
O O10 0.699562 0.339752 0.356282
O O11 0.424281 0.456673 0.497724
O O12 0.026831 0.142631 0.156994
O O13 0.918846 0.370322 0.281452
O O14 0.000000 0.000000 0.500000
#
# Coordination Sequence:
#
# PCOD9004930 Si02
#       7
#     2   2   2   1   2   2   2
#     4  11  25  43  64  92 129 177 217 260 321 390
#     4  11  20  36  64  94 124 164 214 270 325 379
#     4  11  24  43  66  92 129 172 218 265 320 386
#     4  10  22  38  64  98 126 158 214 272 320 378
#     4  11  23  43  66  93 129 168 214 269 325 384
#     4   9  19  36  62  92 123 160 206 263 327 377
#     4  10  21  38  59  92 130 162 208 267 323 382
#
# _framework density 21.272120000000001
#
# number of rings (size 3 to 8) (size 9 to 14) (size 15 to 20)
#    0.000    1.538    0.000    6.923    0.000    6.769 
#    0.000    4.615    0.000    0.000    0.000    0.000 
#    0.000    0.000    0.000    0.000    0.000    0.000 
#
# Total GULP energy -72373.327030 kJ/mol
# GULP energy per Si atom -5567.179002 kJ/mol
# Density = 2.122370 g / cm^3
# Si number density = 21.272120 Si / 1000 Ang^3
#
#
#
# Elastic Constant Matrix: (Units=GPa)
#
#
# Indices 1 2 3 4 5 6 
#
# 1 164.1411 40.1091 14.4771 13.0786 -20.5968 -10.7318
# 2 40.1091 53.9115 13.9777 5.5012 -12.3640 -2.1543
# 3 14.4771 13.9777 40.1354 -15.8285 0.2593 4.9904
# 4 13.0786 5.5012 -15.8285 43.3132 -1.8267 -8.2610
# 5 -20.5968 -12.3640 0.2593 -1.8267 28.1997 5.8567
# 6 -10.7318 -2.1543 4.9904 -8.2610 5.8567 38.8588
#
#
#
# Elastic Compliance Matrix: (Units=1/GPa)
#
#
# Indices 1 2 3 4 5 6 
#
# 1 0.008087 -0.004197 -0.002609 -0.002468 0.003670 0.001258
# 2 -0.004197 0.026750 -0.009945 -0.005570 0.008576 -0.000875
# 3 -0.002609 -0.009945 0.035253 0.014339 -0.005254 -0.001959
# 4 -0.002468 -0.005570 0.014339 0.030430 -0.003263 0.004129
# 5 0.003670 0.008576 -0.005254 -0.003263 0.042772 -0.004976
# 6 0.001258 -0.000875 -0.001959 0.004129 -0.004976 0.027913
#
#
# Mechanical properties :
#
#
# Convention : Reuss Voigt Hill
#
# Bulk Modulus (GPa) = 27.33164 43.92398 35.62781
# Shear Modulus (GPa) = 23.05184 34.71595 28.88389
#
# Velocity S-wave (km/s) = 3.29548 4.04418 3.68887
# Velocity P-wave (km/s) = 5.23036 6.51925 5.91005
#
# Compressibility (1/GPa) = 0.03658764
#
# Stress axis : x y z
#
# Youngs Moduli (GPa) = 123.65116 37.38345 28.36668
#
# Poissons Ratio (x) = 0.15689 0.07401
# Poissons Ratio (y) = 0.51892 0.28212
# Poissons Ratio (z) = 0.32259 0.37180
#
# Static dielectric constant tensor:
#      x y z
#    x 1.782570 -0.009660 -0.004160 
#    y -0.009660 1.777380 -0.045030 
#    z -0.004160 -0.045030 1.796210 
# 
# From -- ./inp_files/449585.got.cif
#   From: 2010.05.17/outbox.cif.g08.bks.cpg/sg2_225_cif.got.tgz:449585.got - 2010.06.03 11:33:40.
