data_PCOD9004857
_publ_section_title
;
Structure prediction by ZEFSAII (Michael W. Deem and Ramdas Pophale) SiO2 
 PCOD9004857
Probable space group: P -1
;
_chemical_formula_sum "Si O2"
_cell_formula_units_Z 16
_cell_length_a 8.458883
_cell_length_b 9.958201
_cell_length_c 13.873056
_cell_angle_alpha 87.713935
_cell_angle_beta 94.108261
_cell_angle_gamma 137.381333
_cell_volume 789.102120
_symmetry_space_group_name_H-M "P -1"
_symmetry_group_IT_number 2
_symmetry_cell_setting 'triclinic'
loop_
_space_group_symop_operation_xyz
x,y,z
-x,-y,-z
loop_
_atom_site_type_symbol
_atom_site_label
_atom_site_fract_x
_atom_site_fract_y
_atom_site_fract_z
Si Si1 0.504283 0.157145 0.959854
Si Si2 0.507526 0.777476 0.338023
Si Si3 0.884330 0.104049 0.211205
Si Si4 0.270381 0.371461 0.709065
Si Si5 0.493966 0.646408 0.541351
Si Si6 0.410834 0.662684 0.844240
Si Si7 0.900607 0.471290 0.819052
Si Si8 0.201362 0.059528 0.288962
O O1 0.743514 0.338261 0.908587
O O2 0.292736 0.040842 0.878948
O O3 0.491654 0.246074 0.048914
O O4 0.500000 0.000000 0.000000
O O5 0.604080 0.689987 0.311814
O O6 0.459941 0.729095 0.450566
O O7 0.271137 0.663649 0.274432
O O8 0.717549 0.003730 0.302428
O O9 0.019507 0.324647 0.189894
O O10 0.073235 0.105610 0.232600
O O11 0.312220 0.508937 0.624187
O O12 0.391210 0.499506 0.807886
O O13 0.996457 0.175471 0.709840
O O14 0.500000 0.500000 0.500000
O O15 0.719638 0.838054 0.605555
O O16 0.578871 0.842709 0.769906
O O17 0.144567 0.545946 0.830281
#
# Coordination Sequence:
#
# PCOD9004857 Si02
#       8
#     2   2   2   2   2   2   2   2
#     4  11  24  40  60  87 108 149 204 234 286 344
#     4   9  20  37  60  88 115 150 194 235 276 339
#     4  10  21  38  59  87 116 147 195 239 281 340
#     4   9  20  37  58  86 119 152 188 234 290 334
#     4   9  17  34  60  88 117 151 194 230 278 341
#     4  11  23  37  60  83 116 154 188 241 287 340
#     4  11  22  38  62  83 114 150 195 240 281 340
#     4  10  22  38  58  90 121 152 186 234 293 337
#
# _framework density 20.276209999999999
#
# number of rings (size 3 to 8) (size 9 to 14) (size 15 to 20)
#    0.000    2.000    1.250    2.625    1.750    6.000 
#    0.000   11.250    0.000    4.500    0.000    0.000 
#    0.000    0.000    0.000    0.000    0.000    0.000 
#
# Total GULP energy -89238.589460 kJ/mol
# GULP energy per Si atom -5577.411841 kJ/mol
# Density = 2.023006 g / cm^3
# Si number density = 20.276210 Si / 1000 Ang^3
#
#
#
# Elastic Constant Matrix: (Units=GPa)
#
#
# Indices 1 2 3 4 5 6 
#
# 1 11.5539 -15.2586 -28.0669 -1.8652 11.5283 1.9677
# 2 -15.2586 30.0754 -137.5661 2.8617 33.7275 -14.2557
# 3 -28.0669 -137.5661 -195.7051 31.0130 68.2636 -23.0305
# 4 -1.8652 2.8617 31.0130 25.6868 -7.7450 8.2233
# 5 11.5283 33.7275 68.2636 -7.7450 6.6814 4.0830
# 6 1.9677 -14.2557 -23.0305 8.2233 4.0830 24.6039
#
#
#
# Elastic Compliance Matrix: (Units=1/GPa)
#
#
# Indices 1 2 3 4 5 6 
#
# 1 0.080461 -0.000578 -0.008866 0.020223 -0.009518 -0.020248
# 2 -0.000578 0.009123 -0.004113 0.005294 0.003649 -0.000893
# 3 -0.008866 -0.004113 0.002603 -0.000063 0.009916 -0.000862
# 4 0.020223 0.005294 -0.000063 0.042376 -0.004506 -0.012024
# 5 -0.009518 0.003649 0.009916 -0.004506 0.036484 0.007609
# 6 -0.020248 -0.000893 -0.000862 -0.012024 0.007609 0.043695
#
#
# Mechanical properties :
#
#
# Convention : Reuss Voigt Hill
#
# Bulk Modulus (GPa) = 15.36702 -57.31767 -20.97533
# Shear Modulus (GPa) = 18.97192 13.18212 16.07702
#
# Velocity S-wave (km/s) = 3.06220 2.55253 2.81890
# Velocity P-wave (km/s) = 4.48308 4.43200 0.47718
#
# Compressibility (1/GPa) = 0.06507441
#
# Stress axis : x y z
#
# Youngs Moduli (GPa) = 12.42837 109.60980 384.12552
#
# Poissons Ratio (x) = 0.06334 3.40550
# Poissons Ratio (y) = 0.00718 1.57997
# Poissons Ratio (z) = 0.11018 0.45084
#
# Static dielectric constant tensor:
#      x y z
#    x 1.744530 -0.021650 -0.028090 
#    y -0.021650 1.732840 -0.009530 
#    z -0.028090 -0.009530 1.752080 
# 
# From -- ./inp_files/390224.got.cif
#   From: 2010.05.17/outbox.cif.g08.bks.cpg/sg2_196_cif.got.tgz:390224.got - 2010.06.03 11:33:40.
