data_PCOD9004150
_publ_section_title
;
Structure prediction by ZEFSAII (Michael W. Deem and Ramdas Pophale) SiO2 
 PCOD9004150
Probable space group: P -1
;
_chemical_formula_sum "Si O2"
_cell_formula_units_Z 16
_cell_length_a 13.912256
_cell_length_b 6.331492
_cell_length_c 10.825660
_cell_angle_alpha 93.889060
_cell_angle_beta 101.690189
_cell_angle_gamma 130.596425
_cell_volume 683.003183
_symmetry_space_group_name_H-M "P -1"
_symmetry_group_IT_number 2
_symmetry_cell_setting 'triclinic'
loop_
_space_group_symop_operation_xyz
x,y,z
-x,-y,-z
loop_
_atom_site_type_symbol
_atom_site_label
_atom_site_fract_x
_atom_site_fract_y
_atom_site_fract_z
Si Si1 0.899088 0.254574 0.368292
Si Si2 0.485978 0.287185 0.895047
Si Si3 0.020886 0.729223 0.106545
Si Si4 0.250245 0.629442 0.836851
Si Si5 0.365188 0.669457 0.459683
Si Si6 0.333562 0.364074 0.681878
Si Si7 0.867295 0.433517 0.707118
Si Si8 0.748382 0.602885 0.835329
O O1 0.818269 0.322287 0.283717
O O2 0.000000 0.500000 0.500000
O O3 0.989860 0.270467 0.289403
O O4 0.805631 0.951103 0.397261
O O5 0.424786 0.311597 0.758285
O O6 0.632680 0.422058 0.899735
O O7 0.382174 0.965622 0.912226
O O8 0.500000 0.500000 0.000000
O O9 0.098078 0.751506 0.249883
O O10 0.872826 0.583801 0.107789
O O11 0.129071 0.056198 0.096414
O O12 0.000000 0.500000 0.000000
O O13 0.303477 0.491825 0.785606
O O14 0.380004 0.552811 0.580706
O O15 0.243456 0.663777 0.426572
O O16 0.327232 0.474372 0.320941
O O17 0.500000 0.000000 0.500000
O O18 0.813640 0.473368 0.815625
#
# Coordination Sequence:
#
# PCOD9004150 Si02
#       8
#     2   2   2   2   2   2   2   2
#     4  10  21  37  64  93 130 164 209 261 320 395
#     4  11  25  44  65  95 127 173 229 271 319 392
#     4  11  23  41  66  95 126 170 219 268 327 384
#     4  10  23  41  61  95 128 165 222 263 328 385
#     4  10  23  42  62  93 134 167 215 263 325 393
#     4  11  24  40  67  94 130 175 210 268 336 381
#     4   9  23  40  60  92 131 161 212 265 319 382
#     4  10  24  41  64  94 128 173 216 263 336 378
#
# _framework density 23.425951000000001
#
# number of rings (size 3 to 8) (size 9 to 14) (size 15 to 20)
#    0.750    1.000    0.000    3.000    5.250    4.500 
#    0.000    0.000    0.000    0.000    0.000    0.000 
#    0.000    0.000    0.000    0.000    0.000    0.000 
#
# Total GULP energy -89310.910699 kJ/mol
# GULP energy per Si atom -5581.931919 kJ/mol
# Density = 2.337263 g / cm^3
# Si number density = 23.425951 Si / 1000 Ang^3
#
#
#
# Elastic Constant Matrix: (Units=GPa)
#
#
# Indices 1 2 3 4 5 6 
#
# 1 123.1153 41.3790 10.1306 4.1757 1.9762 21.6808
# 2 41.3790 164.1926 31.3195 13.9590 8.0316 37.3174
# 3 10.1306 31.3195 74.3606 7.8081 1.3989 11.9366
# 4 4.1757 13.9590 7.8081 48.0899 -4.5980 2.1648
# 5 1.9762 8.0316 1.3989 -4.5980 43.7081 -7.4474
# 6 21.6808 37.3174 11.9366 2.1648 -7.4474 27.0256
#
#
#
# Elastic Compliance Matrix: (Units=1/GPa)
#
#
# Indices 1 2 3 4 5 6 
#
# 1 0.009666 -0.000702 0.000232 -0.000499 -0.001610 -0.007292
# 2 -0.000702 0.010105 -0.001630 -0.002408 -0.004357 -0.013677
# 3 0.000232 -0.001630 0.015093 -0.001898 -0.001209 -0.004782
# 4 -0.000499 -0.002408 -0.001898 0.022009 0.003482 0.003760
# 5 -0.001610 -0.004357 -0.001209 0.003482 0.026700 0.014920
# 6 -0.007292 -0.013677 -0.004782 0.003760 0.014920 0.067660
#
#
# Mechanical properties :
#
#
# Convention : Reuss Voigt Hill
#
# Bulk Modulus (GPa) = 32.61199 58.59187 45.60193
# Shear Modulus (GPa) = 30.18371 42.35402 36.26886
#
# Velocity S-wave (km/s) = 3.59343 4.25667 3.93903
# Velocity P-wave (km/s) = 5.58287 7.01604 6.34008
#
# Compressibility (1/GPa) = 0.03066357
#
# Stress axis : x y z
#
# Youngs Moduli (GPa) = 103.45438 98.96499 66.25765
#
# Poissons Ratio (x) = 0.06946 -0.01536
# Poissons Ratio (y) = 0.07261 0.10799
# Poissons Ratio (z) = -0.02399 0.16130
#
# Static dielectric constant tensor:
#      x y z
#    x 2.013800 -0.125150 0.027390 
#    y -0.125150 2.068250 -0.067780 
#    z 0.027390 -0.067780 1.965550 
# 
# From -- ./inp_files/442076.got.cif
#   From: 2010.05.17/outbox.cif.g08.bks.cpg/sg2_222_cif.got.tgz:442076.got - 2010.06.03 11:33:40.
