data_PCOD9004675
_publ_section_title
;
Structure prediction by ZEFSAII (Michael W. Deem and Ramdas Pophale) SiO2 
 PCOD9004675
Probable space group: P -1
;
_chemical_formula_sum "Si O2"
_cell_formula_units_Z 14
_cell_length_a 11.216194
_cell_length_b 14.395619
_cell_length_c 14.528582
_cell_angle_alpha 152.005901
_cell_angle_beta 116.747737
_cell_angle_gamma 43.800497
_cell_volume 622.812089
_symmetry_space_group_name_H-M "P -1"
_symmetry_group_IT_number 2
_symmetry_cell_setting 'triclinic'
loop_
_space_group_symop_operation_xyz
x,y,z
-x,-y,-z
loop_
_atom_site_type_symbol
_atom_site_label
_atom_site_fract_x
_atom_site_fract_y
_atom_site_fract_z
Si Si1 0.280092 0.078411 0.296349
Si Si2 0.237988 0.422153 0.967356
Si Si3 0.807254 0.998052 0.425960
Si Si4 0.322099 0.719152 0.552449
Si Si5 0.932494 0.867543 0.555419
Si Si6 0.967159 0.692641 0.947907
Si Si7 0.997763 0.775105 0.831557
O O1 0.204213 0.393473 0.566055
O O2 0.198392 0.028021 0.306188
O O3 0.165401 0.146822 0.223241
O O4 0.527959 0.778531 0.109056
O O5 0.245336 0.174082 0.750585
O O6 0.166150 0.547573 0.946634
O O7 0.052181 0.715218 0.226370
O O8 0.803309 0.067831 0.592606
O O9 0.659917 0.293253 0.563137
O O10 0.500000 0.500000 0.500000
O O11 0.134462 0.777522 0.558484
O O12 0.225669 0.046907 0.824188
O O13 0.016811 0.553404 0.284131
O O14 0.929304 0.848930 0.977731
O O15 0.000000 0.000000 0.000000
#
# Coordination Sequence:
#
# PCOD9004675 Si02
#       7
#     2   2   2   2   2   2   2
#     4  10  22  39  64  88 117 158 199 242 294 351
#     4   9  19  40  63  87 116 157 202 242 290 347
#     4   9  20  38  61  87 121 153 195 249 290 345
#     4  11  23  38  60  89 120 157 198 241 295 357
#     4  10  21  40  61  87 119 154 198 246 292 346
#     4   9  21  39  57  83 121 153 193 248 289 341
#     4  10  21  38  57  86 124 154 189 242 296 350
#
# _framework density 22.478691000000001
#
# number of rings (size 3 to 8) (size 9 to 14) (size 15 to 20)
#    0.000    2.286    0.000    2.143    0.000   11.429 
#    0.000   12.143    0.000    0.000    0.000    0.000 
#    0.000    0.000    0.000    0.000    0.000    0.000 
#
# Total GULP energy -78092.076406 kJ/mol
# GULP energy per Si atom -5578.005458 kJ/mol
# Density = 2.242753 g / cm^3
# Si number density = 22.478691 Si / 1000 Ang^3
#
#
#
# Elastic Constant Matrix: (Units=GPa)
#
#
# Indices 1 2 3 4 5 6 
#
# 1 81.8645 56.7322 8.3651 9.2591 1.6309 20.7153
# 2 56.7322 189.7649 30.2663 6.1159 -18.3324 25.7540
# 3 8.3651 30.2663 44.0515 -2.3157 -2.1663 -4.7494
# 4 9.2591 6.1159 -2.3157 32.0545 5.1349 -5.2285
# 5 1.6309 -18.3324 -2.1663 5.1349 26.7471 1.9433
# 6 20.7153 25.7540 -4.7494 -5.2285 1.9433 39.5021
#
#
#
# Elastic Compliance Matrix: (Units=1/GPa)
#
#
# Indices 1 2 3 4 5 6 
#
# 1 0.017758 -0.004085 -0.001768 -0.005296 -0.002468 -0.007441
# 2 -0.004085 0.008803 -0.005625 -0.002795 0.006725 -0.004974
# 3 -0.001768 -0.005625 0.027991 0.005561 -0.003191 0.008853
# 4 -0.005296 -0.002795 0.005561 0.036827 -0.008981 0.010584
# 5 -0.002468 0.006725 -0.003191 -0.008981 0.044109 -0.006832
# 6 -0.007441 -0.004974 0.008853 0.010584 -0.006832 0.035262
#
#
# Mechanical properties :
#
#
# Convention : Reuss Voigt Hill
#
# Bulk Modulus (GPa) = 31.64874 56.26757 43.95816
# Shear Modulus (GPa) = 24.48153 34.34859 29.41506
#
# Velocity S-wave (km/s) = 3.30373 3.91327 3.62135
# Velocity P-wave (km/s) = 5.35377 6.74567 6.08962
#
# Compressibility (1/GPa) = 0.03159684
#
# Stress axis : x y z
#
# Youngs Moduli (GPa) = 56.31298 113.60059 35.72600
#
# Poissons Ratio (x) = 0.46404 0.06315
# Poissons Ratio (y) = 0.23003 0.20095
# Poissons Ratio (z) = 0.09954 0.63899
#
# Static dielectric constant tensor:
#      x y z
#    x 1.878560 0.054010 0.002850 
#    y 0.054010 1.877320 -0.001920 
#    z 0.002850 -0.001920 1.921960 
# 
# From -- ./inp_files/522653.got.cif
#   From: 2010.05.17/outbox.cif.g08.bks.cpg/sg2_262_cif.got.tgz:522653.got - 2010.06.03 11:33:40.
