data_PCOD9004595
_publ_section_title
;
Structure prediction by ZEFSAII (Michael W. Deem and Ramdas Pophale) SiO2 
 PCOD9004595
Probable space group: P -1
;
_chemical_formula_sum "Si O2"
_cell_formula_units_Z 16
_cell_length_a 6.462858
_cell_length_b 14.894056
_cell_length_c 15.718849
_cell_angle_alpha 143.594379
_cell_angle_beta 54.051126
_cell_angle_gamma 125.894035
_cell_volume 706.284278
_symmetry_space_group_name_H-M "P -1"
_symmetry_group_IT_number 2
_symmetry_cell_setting 'triclinic'
loop_
_space_group_symop_operation_xyz
x,y,z
-x,-y,-z
loop_
_atom_site_type_symbol
_atom_site_label
_atom_site_fract_x
_atom_site_fract_y
_atom_site_fract_z
Si Si1 0.251737 0.960935 0.590569
Si Si2 0.242875 0.709776 0.546487
Si Si3 0.146877 0.113673 0.172439
Si Si4 0.639705 0.851443 0.035795
Si Si5 0.493387 0.511339 0.221856
Si Si6 0.688750 0.911863 0.694412
Si Si7 0.065083 0.535233 0.110308
Si Si8 0.408236 0.304157 0.838984
O O1 0.246356 0.130134 0.755057
O O2 0.500000 0.000000 0.500000
O O3 0.291816 0.843410 0.563610
O O4 0.961902 0.901543 0.576816
O O5 0.285026 0.559887 0.372282
O O6 0.464493 0.766728 0.606942
O O7 0.974856 0.734098 0.670933
O O8 0.336236 0.135358 0.062575
O O9 0.269458 0.093371 0.218382
O O10 0.907640 0.964246 0.093514
O O11 0.590957 0.667909 0.924924
O O12 0.408352 0.931673 0.182267
O O13 0.540347 0.629912 0.219994
O O14 0.780230 0.532782 0.214123
O O15 0.301960 0.684155 0.183236
O O16 0.222133 0.406890 0.002733
O O17 0.000000 0.500000 0.000000
#
# Coordination Sequence:
#
# PCOD9004595 Si02
#       8
#     2   2   2   2   2   2   2   2
#     4  11  22  37  57  81 114 159 195 226 277 335
#     4  10  23  38  57  89 120 151 191 239 288 346
#     4   9  21  42  64  86 113 147 194 240 293 345
#     4  10  21  40  65  87 110 150 195 242 288 346
#     4  11  22  36  57  86 117 150 189 235 291 340
#     4  10  22  39  61  85 116 150 196 242 283 341
#     4   9  21  35  53  78 112 150 190 237 279 331
#     4  10  21  38  54  78 115 154 196 233 275 330
#
# _framework density 22.653766999999998
#
# number of rings (size 3 to 8) (size 9 to 14) (size 15 to 20)
#    0.000    2.000    1.250    1.125    1.750   13.000 
#    0.000    0.625    0.000    0.000    0.000    0.000 
#    0.000    0.000    0.000    0.000    0.000    0.000 
#
# Total GULP energy -89280.097968 kJ/mol
# GULP energy per Si atom -5580.006123 kJ/mol
# Density = 2.260221 g / cm^3
# Si number density = 22.653767 Si / 1000 Ang^3
#
#
#
# Elastic Constant Matrix: (Units=GPa)
#
#
# Indices 1 2 3 4 5 6 
#
# 1 101.1229 15.3420 12.2084 1.6470 -3.0539 -2.1752
# 2 15.3420 71.9063 6.8226 -0.3204 -4.2248 -17.0682
# 3 12.2084 6.8226 88.6526 -4.1191 -13.2880 -10.3248
# 4 1.6470 -0.3204 -4.1191 29.1496 9.0734 -2.9604
# 5 -3.0539 -4.2248 -13.2880 9.0734 18.3109 -3.8953
# 6 -2.1752 -17.0682 -10.3248 -2.9604 -3.8953 14.5446
#
#
#
# Elastic Compliance Matrix: (Units=1/GPa)
#
#
# Indices 1 2 3 4 5 6 
#
# 1 0.010470 -0.002892 -0.001711 -0.001103 -0.000330 -0.003356
# 2 -0.002892 0.023200 0.005032 -0.000355 0.016057 0.034592
# 3 -0.001711 0.005032 0.016288 -0.000861 0.017758 0.021792
# 4 -0.001103 -0.000355 -0.000861 0.040880 -0.020817 0.001552
# 5 -0.000330 0.016057 0.017758 -0.020817 0.092513 0.051939
# 6 -0.003356 0.034592 0.021792 0.001552 0.051939 0.138543
#
#
# Mechanical properties :
#
#
# Convention : Reuss Voigt Hill
#
# Bulk Modulus (GPa) = 19.67912 36.71422 28.19667
# Shear Modulus (GPa) = 14.79398 27.55494 21.17446
#
# Velocity S-wave (km/s) = 2.55825 3.49141 3.06060
# Velocity P-wave (km/s) = 4.17516 5.70045 4.99635
#
# Compressibility (1/GPa) = 0.05081527
#
# Stress axis : x y z
#
# Youngs Moduli (GPa) = 95.50959 43.10410 61.39440
#
# Poissons Ratio (x) = 0.12468 0.10503
# Poissons Ratio (y) = 0.27626 -0.30893
# Poissons Ratio (z) = 0.16340 -0.21690
#
# Static dielectric constant tensor:
#      x y z
#    x 1.865210 0.025290 -0.001860 
#    y 0.025290 1.863900 -0.009770 
#    z -0.001860 -0.009770 1.934680 
# 
# From -- ./inp_files/98332.got.cif
#   From: 2010.05.17/outbox.cif.g08.bks.cpg/sg2_50_cif.got.tgz:98332.got - 2010.06.03 11:33:40.
