data_PCOD9004266
_publ_section_title
;
Structure prediction by ZEFSAII (Michael W. Deem and Ramdas Pophale) SiO2 
 PCOD9004266
Probable space group: P -1
;
_chemical_formula_sum "Si O2"
_cell_formula_units_Z 12
_cell_length_a 13.555557
_cell_length_b 9.418547
_cell_length_c 23.328524
_cell_angle_alpha 134.168194
_cell_angle_beta 19.239661
_cell_angle_gamma 123.119953
_cell_volume 620.810458
_symmetry_space_group_name_H-M "P -1"
_symmetry_group_IT_number 2
_symmetry_cell_setting 'triclinic'
loop_
_space_group_symop_operation_xyz
x,y,z
-x,-y,-z
loop_
_atom_site_type_symbol
_atom_site_label
_atom_site_fract_x
_atom_site_fract_y
_atom_site_fract_z
Si Si1 0.222242 0.212439 0.746300
Si Si2 0.380942 0.903890 0.102771
Si Si3 0.361662 0.879322 0.236260
Si Si4 0.711229 0.346885 0.583367
Si Si5 0.604342 0.497824 0.082896
Si Si6 0.348860 0.855134 0.906316
O O1 0.415919 0.322787 0.705208
O O2 0.955069 0.373228 0.890700
O O3 0.500000 0.000000 0.500000
O O4 0.002947 0.150738 0.894601
O O5 0.302288 0.838730 0.190947
O O6 0.480783 0.692529 0.948433
O O7 0.642804 0.994405 0.002269
O O8 0.058139 0.124930 0.318543
O O9 0.553821 0.031519 0.167603
O O10 0.591276 0.654811 0.082237
O O11 0.000000 0.000000 0.500000
O O12 0.645965 0.597845 0.675825
O O13 0.658337 0.352101 0.682201
#
# Coordination Sequence:
#
# PCOD9004266 Si02
#       6
#     2   2   2   2   2   2
#     4  11  23  42  61  88 124 163 205 247 300 360
#     4  10  21  37  65  91 120 152 211 245 306 353
#     4  10  21  40  61  93 124 157 198 252 308 358
#     4  11  21  41  62  90 122 159 205 252 303 356
#     4  11  20  39  66  84 125 164 194 252 304 352
#     4   9  22  38  60  94 122 152 208 249 300 358
#
# _framework density 19.329571999999999
#
# number of rings (size 3 to 8) (size 9 to 14) (size 15 to 20)
#    1.000    0.667    3.333    3.000    0.000    2.667 
#    6.000    4.167    0.000    0.000    0.000    0.000 
#    0.000    0.000    0.000    0.000    0.000    0.000 
#
# Total GULP energy -66870.349568 kJ/mol
# GULP energy per Si atom -5572.529131 kJ/mol
# Density = 1.928558 g / cm^3
# Si number density = 19.329572 Si / 1000 Ang^3
#
#
#
# Elastic Constant Matrix: (Units=GPa)
#
#
# Indices 1 2 3 4 5 6 
#
# 1 87.5231 49.3587 10.6525 6.0977 12.7220 9.4169
# 2 49.3587 117.8650 23.2583 15.9583 -5.2358 -19.1766
# 3 10.6525 23.2583 50.7569 3.2693 7.3588 -9.5588
# 4 6.0977 15.9583 3.2693 29.8112 3.5147 0.7247
# 5 12.7220 -5.2358 7.3588 3.5147 28.4827 -0.4439
# 6 9.4169 -19.1766 -9.5588 0.7247 -0.4439 41.6316
#
#
#
# Elastic Compliance Matrix: (Units=1/GPa)
#
#
# Indices 1 2 3 4 5 6 
#
# 1 0.020140 -0.011098 0.000509 0.003386 -0.011737 -0.009735
# 2 -0.011098 0.017152 -0.004737 -0.007857 0.010453 0.009572
# 3 0.000509 -0.004737 0.023321 0.000646 -0.007157 0.002970
# 4 0.003386 -0.007857 0.000646 0.038039 -0.007895 -0.004983
# 5 -0.011737 0.010453 -0.007157 -0.007895 0.045196 0.006446
# 6 -0.009735 0.009572 0.002970 -0.004983 0.006446 0.031469
#
#
# Mechanical properties :
#
#
# Convention : Reuss Voigt Hill
#
# Bulk Modulus (GPa) = 33.37776 46.96488 40.17132
# Shear Modulus (GPa) = 23.15280 31.51016 27.33148
#
# Velocity S-wave (km/s) = 3.46467 4.04190 3.76436
# Velocity P-wave (km/s) = 5.77152 6.79207 6.30249
#
# Compressibility (1/GPa) = 0.02996007
#
# Stress axis : x y z
#
# Youngs Moduli (GPa) = 49.65255 58.30181 42.87987
#
# Poissons Ratio (x) = 0.64704 -0.02182
# Poissons Ratio (y) = 0.55105 0.20313
# Poissons Ratio (z) = -0.02526 0.27618
#
# Static dielectric constant tensor:
#      x y z
#    x 1.684350 -0.010980 0.010090 
#    y -0.010980 1.688680 -0.014080 
#    z 0.010090 -0.014080 1.697050 
# 
# From -- ./inp_files/411633.got.cif
#   From: 2010.05.17/outbox.cif.g08.bks.cpg/sg2_206_cif.got.tgz:411633.got - 2010.06.03 11:33:40.
