data_PCOD9004118
_publ_section_title
;
Structure prediction by ZEFSAII (Michael W. Deem and Ramdas Pophale) SiO2 
 PCOD9004118
Probable space group: P -1
;
_chemical_formula_sum "Si O2"
_cell_formula_units_Z 16
_cell_length_a 11.100681
_cell_length_b 9.664819
_cell_length_c 11.347074
_cell_angle_alpha 34.014951
_cell_angle_beta 111.900215
_cell_angle_gamma 118.358634
_cell_volume 598.756567
_symmetry_space_group_name_H-M "P -1"
_symmetry_group_IT_number 2
_symmetry_cell_setting 'triclinic'
loop_
_space_group_symop_operation_xyz
x,y,z
-x,-y,-z
loop_
_atom_site_type_symbol
_atom_site_label
_atom_site_fract_x
_atom_site_fract_y
_atom_site_fract_z
Si Si1 0.796560 0.849488 0.824486
Si Si2 0.177288 0.589050 0.476916
Si Si3 0.642209 0.433309 0.231113
Si Si4 0.014530 0.638489 0.164583
Si Si5 0.418790 0.703926 0.312473
Si Si6 0.853393 0.279199 0.078772
Si Si7 0.209866 0.915215 0.577844
Si Si8 0.567404 0.300230 0.957453
O O1 0.779743 0.119357 0.665644
O O2 0.813591 0.882857 0.666647
O O3 0.673291 0.629425 0.994251
O O4 0.928060 0.824839 0.960174
O O5 0.236775 0.462876 0.698381
O O6 0.044764 0.587178 0.348261
O O7 0.276811 0.572553 0.418855
O O8 0.659428 0.168411 0.365879
O O9 0.508156 0.482950 0.201896
O O10 0.140251 0.749220 0.039968
O O11 0.915066 0.352482 0.295908
O O12 0.500000 0.500000 0.500000
O O13 0.416174 0.726002 0.156779
O O14 0.484253 0.000959 0.176990
O O15 0.723961 0.364088 0.010566
O O16 0.816818 0.031945 0.331302
O O17 0.000000 0.500000 0.000000
#
# Coordination Sequence:
#
# PCOD9004118 Si02
#       8
#     2   2   2   2   2   2   2   2
#     4  10  21  38  59  87 131 165 215 256 310 384
#     4  11  20  36  61  94 128 162 207 261 325 381
#     4  10  21  37  64  91 127 166 208 262 317 385
#     4  10  21  38  61  91 125 170 206 262 318 374
#     4  11  22  39  62  99 132 164 205 263 327 386
#     4  10  22  44  67  92 129 167 220 268 310 378
#     4   9  22  41  59  88 127 168 220 258 311 366
#     4  11  22  40  66  96 128 169 209 259 329 381
#
# _framework density 26.722045000000001
#
# number of rings (size 3 to 8) (size 9 to 14) (size 15 to 20)
#    0.000    1.750    3.750    0.375    0.000    6.500 
#    2.250    4.375    0.000    0.000    0.000    0.000 
#    0.000    0.000    0.000    0.000    0.000    0.000 
#
# Total GULP energy -89092.677660 kJ/mol
# GULP energy per Si atom -5568.292354 kJ/mol
# Density = 2.666122 g / cm^3
# Si number density = 26.722045 Si / 1000 Ang^3
#
#
#
# Elastic Constant Matrix: (Units=GPa)
#
#
# Indices 1 2 3 4 5 6 
#
# 1 68.4252 1.3477 23.3432 23.7227 11.7242 0.6007
# 2 1.3477 47.0701 32.5135 17.0097 -3.9922 -4.2540
# 3 23.3432 32.5135 147.8567 33.3352 -7.9893 -13.4615
# 4 23.7227 17.0097 33.3352 46.9320 -17.9296 -0.2437
# 5 11.7242 -3.9922 -7.9893 -17.9296 41.0510 22.4910
# 6 0.6007 -4.2540 -13.4615 -0.2437 22.4910 33.8493
#
#
#
# Elastic Compliance Matrix: (Units=1/GPa)
#
#
# Indices 1 2 3 4 5 6 
#
# 1 0.032305 0.010208 0.000777 -0.034647 -0.037167 0.025464
# 2 0.010208 0.030344 -0.003499 -0.019905 -0.016492 0.013056
# 3 0.000777 -0.003499 0.009668 -0.008479 -0.006618 0.007727
# 4 -0.034647 -0.019905 -0.008479 0.077463 0.067171 -0.049333
# 5 -0.037167 -0.016492 -0.006618 0.067171 0.099647 -0.069772
# 6 0.025464 0.013056 0.007727 -0.049333 -0.069772 0.079809
#
#
# Mechanical properties :
#
#
# Convention : Reuss Voigt Hill
#
# Bulk Modulus (GPa) = 11.45626 41.97343 26.71485
# Shear Modulus (GPa) = 14.56194 38.10964 26.33579
#
# Velocity S-wave (km/s) = 2.33693 3.78054 3.14275
# Velocity P-wave (km/s) = 3.40267 5.89899 4.81541
#
# Compressibility (1/GPa) = 0.08728850
#
# Stress axis : x y z
#
# Youngs Moduli (GPa) = 30.95461 32.95573 103.43646
#
# Poissons Ratio (x) = -0.33642 -0.08032
# Poissons Ratio (y) = -0.31599 0.36192
# Poissons Ratio (z) = -0.02404 0.11531
#
# Static dielectric constant tensor:
#      x y z
#    x 2.196620 0.072350 0.002230 
#    y 0.072350 2.220330 0.113470 
#    z 0.002230 0.113470 2.293100 
# 
# From -- ./inp_files/427304.got.cif
#   From: 2010.05.17/outbox.cif.g08.bks.cpg/sg2_214_cif.got.tgz:427304.got - 2010.06.03 11:33:40.
