data_PCOD9004788
_publ_section_title
;
Structure prediction by ZEFSAII (Michael W. Deem and Ramdas Pophale) SiO2 
 PCOD9004788
Probable space group: P -1
;
_chemical_formula_sum "Si O2"
_cell_formula_units_Z 16
_cell_length_a 13.057551
_cell_length_b 11.232879
_cell_length_c 13.484228
_cell_angle_alpha 110.294744
_cell_angle_beta 132.558245
_cell_angle_gamma 33.378544
_cell_volume 675.732983
_symmetry_space_group_name_H-M "P -1"
_symmetry_group_IT_number 2
_symmetry_cell_setting 'triclinic'
loop_
_space_group_symop_operation_xyz
x,y,z
-x,-y,-z
loop_
_atom_site_type_symbol
_atom_site_label
_atom_site_fract_x
_atom_site_fract_y
_atom_site_fract_z
Si Si1 0.460417 0.742622 0.556357
Si Si2 0.829864 0.920371 0.351193
Si Si3 0.094421 0.809196 0.300069
Si Si4 0.335947 0.947772 0.034338
Si Si5 0.701848 0.659621 0.501803
Si Si6 0.142734 0.023099 0.132448
Si Si7 0.941063 0.414728 0.231067
Si Si8 0.779604 0.684401 0.000114
O O1 0.298242 0.761763 0.396714
O O2 0.731025 0.454509 0.694632
O O3 0.578317 0.746709 0.556919
O O4 0.240936 0.965599 0.556262
O O5 0.014559 0.856064 0.376607
O O6 0.012109 0.649091 0.405246
O O7 0.517685 0.146485 0.169115
O O8 0.807875 0.047487 0.122773
O O9 0.657817 0.659346 0.177631
O O10 0.164189 0.087081 0.063524
O O11 0.301413 0.102459 0.992125
O O12 0.805850 0.722332 0.580199
O O13 0.466163 0.778702 0.313759
O O14 0.982066 0.237912 0.170062
O O15 0.000000 0.000000 0.000000
O O16 0.896789 0.533163 0.135030
O O17 0.000000 0.500000 0.000000
#
# Coordination Sequence:
#
# PCOD9004788 Si02
#       8
#     2   2   2   2   2   2   2   2
#     4  10  22  37  65  95 141 185 220 284 348 405
#     4  11  21  39  68 101 140 176 224 291 348 421
#     4  10  21  38  59 102 139 178 227 276 351 426
#     4  12  24  42  72 101 138 180 229 295 352 411
#     4  11  25  46  67 100 139 180 243 282 337 419
#     4  12  30  50  69  98 140 195 244 282 339 415
#     4  12  25  45  75 103 140 180 231 301 347 417
#     4  12  21  41  71 109 139 170 223 289 366 410
#
# _framework density 23.677992
#
# number of rings (size 3 to 8) (size 9 to 14) (size 15 to 20)
#    0.000    0.750    3.750    4.875    0.000    3.000 
#    0.000    0.000    0.000    0.000    0.000    0.000 
#    0.000    0.000    0.000    0.000    0.000    0.000 
#
# Total GULP energy -89366.340610 kJ/mol
# GULP energy per Si atom -5585.396288 kJ/mol
# Density = 2.362410 g / cm^3
# Si number density = 23.677992 Si / 1000 Ang^3
#
#
#
# Elastic Constant Matrix: (Units=GPa)
#
#
# Indices 1 2 3 4 5 6 
#
# 1 54.5214 30.3388 7.4249 -1.5524 11.8908 -2.4271
# 2 30.3388 124.0026 19.2470 -1.2366 12.3885 -14.4215
# 3 7.4249 19.2470 119.2395 -2.0666 31.9373 20.7467
# 4 -1.5524 -1.2366 -2.0666 32.1488 -3.0527 4.6708
# 5 11.8908 12.3885 31.9373 -3.0527 39.3050 6.1327
# 6 -2.4271 -14.4215 20.7467 4.6708 6.1327 33.9935
#
#
#
# Elastic Compliance Matrix: (Units=1/GPa)
#
#
# Indices 1 2 3 4 5 6 
#
# 1 0.022307 -0.005043 0.001059 0.000411 -0.005960 -0.000174
# 2 -0.005043 0.010364 -0.002085 -0.000888 -0.000991 0.005610
# 3 0.001059 -0.002085 0.012097 0.000945 -0.008356 -0.006814
# 4 0.000411 -0.000888 0.000945 0.032271 0.002809 -0.005865
# 5 -0.005960 -0.000991 -0.008356 0.002809 0.034946 -0.002437
# 6 -0.000174 0.005610 -0.006814 -0.005865 -0.002437 0.037190
#
#
# Mechanical properties :
#
#
# Convention : Reuss Voigt Hill
#
# Bulk Modulus (GPa) = 30.64583 45.75388 38.19985
# Shear Modulus (GPa) = 29.03775 37.13966 33.08871
#
# Velocity S-wave (km/s) = 3.50574 3.96477 3.74230
# Velocity P-wave (km/s) = 5.41829 6.35016 5.90264
#
# Compressibility (1/GPa) = 0.03263087
#
# Stress axis : x y z
#
# Youngs Moduli (GPa) = 44.82867 96.48413 82.66358
#
# Poissons Ratio (x) = 0.48654 -0.08752
# Poissons Ratio (y) = 0.22606 0.17235
# Poissons Ratio (z) = -0.04746 0.20117
#
# Static dielectric constant tensor:
#      x y z
#    x 1.908810 0.023930 0.013840 
#    y 0.023930 1.939340 0.004170 
#    z 0.013840 0.004170 2.021930 
# 
# From -- ./inp_files/532622.got.cif
#   From: 2010.05.17/outbox.cif.g08.bks.cpg/sg2_267_cif.got.tgz:532622.got - 2010.06.03 11:33:40.
