data_PCOD9004929
_publ_section_title
;
Structure prediction by ZEFSAII (Michael W. Deem and Ramdas Pophale) SiO2 
 PCOD9004929
Probable space group: P -1
;
_chemical_formula_sum "Si O2"
_cell_formula_units_Z 16
_cell_length_a 18.329484
_cell_length_b 5.516310
_cell_length_c 15.945938
_cell_angle_alpha 103.550233
_cell_angle_beta 24.549102
_cell_angle_gamma 99.470597
_cell_volume 646.498911
_symmetry_space_group_name_H-M "P -1"
_symmetry_group_IT_number 2
_symmetry_cell_setting 'triclinic'
loop_
_space_group_symop_operation_xyz
x,y,z
-x,-y,-z
loop_
_atom_site_type_symbol
_atom_site_label
_atom_site_fract_x
_atom_site_fract_y
_atom_site_fract_z
Si Si1 0.075774 0.527229 0.309336
Si Si2 0.269054 0.275182 0.951513
Si Si3 0.613480 0.476574 0.586749
Si Si4 0.213254 0.465628 0.763172
Si Si5 0.551490 0.033897 0.104329
Si Si6 0.733088 0.323161 0.621724
Si Si7 0.755623 0.761995 0.737061
Si Si8 0.818201 0.984559 0.137018
O O1 0.202137 0.437203 0.246267
O O2 0.937558 0.316215 0.430945
O O3 0.940712 0.768453 0.495409
O O4 0.165695 0.521180 0.124320
O O5 0.447355 0.334699 0.724238
O O6 0.335143 0.112396 0.950648
O O7 0.157670 0.141231 0.989779
O O8 0.728263 0.546834 0.395207
O O9 0.724285 0.319070 0.529887
O O10 0.525972 0.715069 0.749003
O O11 0.279124 0.208883 0.721271
O O12 0.270196 0.729254 0.757945
O O13 0.000000 0.500000 0.000000
O O14 0.386273 0.882926 0.240866
O O15 0.669645 0.008015 0.894484
O O16 0.653629 0.595631 0.766000
O O17 0.000000 0.000000 0.000000
#
# Coordination Sequence:
#
# PCOD9004929 Si02
#       8
#     2   2   2   2   2   2   2   2
#     4   8  17  35  64  88 122 168 211 268 321 392
#     4  10  23  41  63  89 131 166 216 272 333 396
#     4  11  25  39  60  93 128 170 214 271 337 396
#     4  10  25  44  69  98 132 168 224 276 332 402
#     4  10  21  38  59  92 127 170 210 267 331 397
#     4   9  19  35  63  86 125 165 214 265 322 392
#     4   8  16  35  62  91 122 168 217 261 330 383
#     4  10  24  44  72  97 128 172 218 281 334 398
#
# _framework density 24.74869
#
# number of rings (size 3 to 8) (size 9 to 14) (size 15 to 20)
#    0.750    1.750    0.000    0.375    8.750    2.500 
#    0.000    3.125    0.000    0.000    0.000    0.000 
#    0.000    0.000    0.000    0.000    0.000    0.000 
#
# Total GULP energy -89253.660946 kJ/mol
# GULP energy per Si atom -5578.353809 kJ/mol
# Density = 2.469236 g / cm^3
# Si number density = 24.748690 Si / 1000 Ang^3
#
#
#
# Elastic Constant Matrix: (Units=GPa)
#
#
# Indices 1 2 3 4 5 6 
#
# 1 95.9913 19.8006 49.1099 -11.6492 20.4125 30.8531
# 2 19.8006 93.6665 30.4793 1.1406 11.4212 2.0106
# 3 49.1099 30.4793 120.8034 -0.6921 22.2115 12.5726
# 4 -11.6492 1.1406 -0.6921 21.6902 2.8163 7.9199
# 5 20.4125 11.4212 22.2115 2.8163 32.8677 3.4307
# 6 30.8531 2.0106 12.5726 7.9199 3.4307 32.0240
#
#
#
# Elastic Compliance Matrix: (Units=1/GPa)
#
#
# Indices 1 2 3 4 5 6 
#
# 1 0.031926 -0.002757 -0.005941 0.031531 -0.013949 -0.034556
# 2 -0.002757 0.012048 -0.002112 -0.003380 -0.001142 0.003687
# 3 -0.005941 -0.002112 0.011574 -0.003169 -0.003383 0.002459
# 4 0.031531 -0.003380 -0.003169 0.082825 -0.018412 -0.047432
# 5 -0.013949 -0.001142 -0.003383 -0.018412 0.041792 0.014915
# 6 -0.034556 0.003687 0.002459 -0.047432 0.014915 0.073455
#
#
# Mechanical properties :
#
#
# Convention : Reuss Voigt Hill
#
# Bulk Modulus (GPa) = 29.47512 56.58230 43.02871
# Shear Modulus (GPa) = 17.44910 31.38781 24.41845
#
# Velocity S-wave (km/s) = 2.65816 3.56513 3.14452
# Velocity P-wave (km/s) = 4.62133 6.31342 5.53245
#
# Compressibility (1/GPa) = 0.03392691
#
# Stress axis : x y z
#
# Youngs Moduli (GPa) = 31.32291 83.00474 86.40075
#
# Poissons Ratio (x) = 0.22884 0.51332
# Poissons Ratio (y) = 0.08635 0.18247
# Poissons Ratio (z) = 0.18609 0.17530
#
# Static dielectric constant tensor:
#      x y z
#    x 1.943830 -0.002740 -0.054630 
#    y -0.002740 1.986360 0.016890 
#    z -0.054630 0.016890 1.999390 
# 
# From -- ./inp_files/536399.got.cif
#   From: 2010.05.17/outbox.cif.g08.bks.cpg/sg2_269_cif.got.tgz:536399.got - 2010.06.03 11:33:40.
