data_PCOD9004996
_publ_section_title
;
Structure prediction by ZEFSAII (Michael W. Deem and Ramdas Pophale) SiO2 
 PCOD9004996
Probable space group: P -1
;
_chemical_formula_sum "Si O2"
_cell_formula_units_Z 16
_cell_length_a 16.389026
_cell_length_b 8.976849
_cell_length_c 8.827821
_cell_angle_alpha 135.236431
_cell_angle_beta 113.995132
_cell_angle_gamma 88.953612
_cell_volume 758.098615
_symmetry_space_group_name_H-M "P -1"
_symmetry_group_IT_number 2
_symmetry_cell_setting 'triclinic'
loop_
_space_group_symop_operation_xyz
x,y,z
-x,-y,-z
loop_
_atom_site_type_symbol
_atom_site_label
_atom_site_fract_x
_atom_site_fract_y
_atom_site_fract_z
Si Si1 0.486857 0.181466 0.735354
Si Si2 0.690313 0.206876 0.538613
Si Si3 0.118298 0.499010 0.937250
Si Si4 0.817101 0.033598 0.320053
Si Si5 0.962627 0.135037 0.778073
Si Si6 0.639874 0.619482 0.732725
Si Si7 0.996009 0.720227 0.573139
Si Si8 0.536742 0.457507 0.246371
O O1 0.494246 0.386733 0.777708
O O2 0.500000 0.000000 0.500000
O O3 0.378978 0.042243 0.625616
O O4 0.551986 0.281580 0.010179
O O5 0.752448 0.170963 0.421807
O O6 0.630059 0.357087 0.562075
O O7 0.770567 0.359735 0.830803
O O8 0.058181 0.293603 0.863259
O O9 0.101694 0.394933 0.685017
O O10 0.066681 0.677915 0.027346
O O11 0.873093 0.012988 0.501022
O O12 0.906403 0.184296 0.388048
O O13 0.742764 0.802103 0.011266
O O14 0.987127 0.962439 0.780787
O O15 0.624445 0.620638 0.540784
O O16 0.554264 0.657896 0.787837
O O17 0.000000 0.500000 0.500000
#
# Coordination Sequence:
#
# PCOD9004996 Si02
#       8
#     2   2   2   2   2   2   2   2
#     4  11  22  42  60  86 122 159 198 255 308 364
#     4  11  21  36  64  88 113 158 207 249 304 366
#     4   9  19  36  58  86 113 155 207 246 292 364
#     4  10  21  38  60  86 118 158 210 249 293 371
#     4   9  18  37  60  83 115 158 202 247 296 359
#     4  11  21  39  62  89 121 156 205 258 299 369
#     4  11  22  36  57  87 127 160 196 252 313 359
#     4  10  24  39  59  89 121 158 201 252 318 359
#
# _framework density 21.105432
#
# number of rings (size 3 to 8) (size 9 to 14) (size 15 to 20)
#    0.000    1.750    2.500    3.750    0.000    3.000 
#    0.000    2.500    0.000    0.000    0.000    0.000 
#    0.000    0.000    0.000    0.000    0.000    0.000 
#
# Total GULP energy -89078.293797 kJ/mol
# GULP energy per Si atom -5567.393362 kJ/mol
# Density = 2.105739 g / cm^3
# Si number density = 21.105432 Si / 1000 Ang^3
#
#
#
# Elastic Constant Matrix: (Units=GPa)
#
#
# Indices 1 2 3 4 5 6 
#
# 1 48.3564 5.8371 10.1164 -3.3506 -16.7375 -7.3907
# 2 5.8371 85.3825 24.0949 7.7373 -13.4970 -11.7455
# 3 10.1164 24.0949 119.9966 -13.0436 -2.2152 10.4665
# 4 -3.3506 7.7373 -13.0436 24.0788 -1.5087 -11.6485
# 5 -16.7375 -13.4970 -2.2152 -1.5087 38.6901 6.1509
# 6 -7.3907 -11.7455 10.4665 -11.6485 6.1509 19.5358
#
#
#
# Elastic Compliance Matrix: (Units=1/GPa)
#
#
# Indices 1 2 3 4 5 6 
#
# 1 0.027744 0.001789 -0.002792 0.010073 0.010345 0.015817
# 2 0.001789 0.014861 -0.004085 -0.001973 0.004167 0.009312
# 3 -0.002792 -0.004085 0.010316 0.003110 -0.000820 -0.006926
# 4 0.010073 -0.001973 0.003110 0.064232 0.000117 0.039221
# 5 0.010345 0.004167 -0.000820 0.000117 0.032246 -0.003225
# 6 0.015817 0.009312 -0.006926 0.039221 -0.003225 0.090882
#
#
# Mechanical properties :
#
#
# Convention : Reuss Voigt Hill
#
# Bulk Modulus (GPa) = 23.39365 37.09248 30.24307
# Shear Modulus (GPa) = 18.88905 30.70674 24.79790
#
# Velocity S-wave (km/s) = 2.99488 3.81848 3.43148
# Velocity P-wave (km/s) = 4.80284 6.08721 5.48276
#
# Compressibility (1/GPa) = 0.04274664
#
# Stress axis : x y z
#
# Youngs Moduli (GPa) = 36.04410 67.29104 96.93471
#
# Poissons Ratio (x) = -0.12042 0.27064
# Poissons Ratio (y) = -0.06450 0.39594
# Poissons Ratio (z) = 0.10063 0.27486
#
# Static dielectric constant tensor:
#      x y z
#    x 1.784160 -0.030190 -0.060130 
#    y -0.030190 1.787080 0.001500 
#    z -0.060130 0.001500 1.850180 
# 
# From -- ./inp_files/329624.got.cif
#   From: 2010.05.17/outbox.cif.g08.bks.cpg/sg2_165_cif.got.tgz:329624.got - 2010.06.03 11:33:40.
