data_PCOD9004168
_publ_section_title
;
Structure prediction by ZEFSAII (Michael W. Deem and Ramdas Pophale) SiO2 
 PCOD9004168
Probable space group: P -1
;
_chemical_formula_sum "Si O2"
_cell_formula_units_Z 10
_cell_length_a 9.306714
_cell_length_b 8.868923
_cell_length_c 5.244223
_cell_angle_alpha 89.264086
_cell_angle_beta 78.993186
_cell_angle_gamma 81.732444
_cell_volume 420.434872
_symmetry_space_group_name_H-M "P -1"
_symmetry_group_IT_number 2
_symmetry_cell_setting 'triclinic'
loop_
_space_group_symop_operation_xyz
x,y,z
-x,-y,-z
loop_
_atom_site_type_symbol
_atom_site_label
_atom_site_fract_x
_atom_site_fract_y
_atom_site_fract_z
Si Si1 0.185968 0.521429 0.194791
Si Si2 0.838782 0.647825 0.294507
Si Si3 0.101284 0.011168 0.714708
Si Si4 0.429388 0.850627 0.598639
Si Si5 0.555807 0.325969 0.905515
O O1 0.250245 0.889033 0.659960
O O2 0.221763 0.408276 0.947483
O O3 0.228003 0.429715 0.441214
O O4 0.268002 0.667694 0.147418
O O5 0.479824 0.788205 0.860855
O O6 0.836866 0.827082 0.308870
O O7 0.012191 0.578195 0.245639
O O8 0.000000 0.000000 0.500000
O O9 0.000000 0.000000 0.000000
O O10 0.477780 0.727711 0.363411
O O11 0.500000 0.000000 0.500000
O O12 0.500000 0.500000 0.000000
#
# Coordination Sequence:
#
# PCOD9004168 Si02
#       5
#     2   2   2   2   2
#     4  10  21  38  63  95 131 168 232 278 343 403
#     4  10  21  37  64  94 129 175 219 290 339 415
#     4  12  25  43  72 101 143 187 238 287 368 422
#     4  12  28  48  73 108 148 187 242 299 359 434
#     4  12  27  46  74 100 144 193 241 289 354 429
#
# _framework density 23.784894000000001
#
# number of rings (size 3 to 8) (size 9 to 14) (size 15 to 20)
#    0.000    0.800    0.000    7.200    5.600    3.200 
#    0.000    0.000    0.000    0.000    0.000    0.000 
#    0.000    0.000    0.000    0.000    0.000    0.000 
#
# Total GULP energy -56031.603295 kJ/mol
# GULP energy per Si atom -5603.160329 kJ/mol
# Density = 2.373076 g / cm^3
# Si number density = 23.784894 Si / 1000 Ang^3
#
#
#
# Elastic Constant Matrix: (Units=GPa)
#
#
# Indices 1 2 3 4 5 6 
#
# 1 91.9685 -1.6679 20.4151 -2.5017 -14.8755 -12.6971
# 2 -1.6679 93.5195 34.5219 -2.3170 -16.1345 6.2377
# 3 20.4151 34.5219 161.7551 -4.8174 -18.9682 -1.7722
# 4 -2.5017 -2.3170 -4.8174 50.4548 7.5359 -7.2786
# 5 -14.8755 -16.1345 -18.9682 7.5359 37.2655 0.5554
# 6 -12.6971 6.2377 -1.7722 -7.2786 0.5554 55.5871
#
#
#
# Elastic Compliance Matrix: (Units=1/GPa)
#
#
# Indices 1 2 3 4 5 6 
#
# 1 0.012311 0.001334 -0.001244 0.000215 0.004777 0.002603
# 2 0.001334 0.012478 -0.002287 -0.000494 0.004890 -0.001282
# 3 -0.001244 -0.002287 0.007079 0.000230 0.002067 0.000208
# 4 0.000215 -0.000494 0.000230 0.020885 -0.004277 0.002889
# 5 0.004777 0.004890 0.002067 -0.004277 0.032780 -0.000279
# 6 0.002603 -0.001282 0.000208 0.002889 -0.000279 0.019116
#
#
# Mechanical properties :
#
#
# Convention : Reuss Voigt Hill
#
# Bulk Modulus (GPa) = 36.39507 50.42016 43.40761
# Shear Modulus (GPa) = 42.30133 48.25976 45.28054
#
# Velocity S-wave (km/s) = 4.22180 4.50934 4.36793
# Velocity P-wave (km/s) = 6.25298 6.95389 6.61273
#
# Compressibility (1/GPa) = 0.02747625
#
# Stress axis : x y z
#
# Youngs Moduli (GPa) = 81.22538 80.14209 141.26909
#
# Poissons Ratio (x) = -0.10695 0.17567
# Poissons Ratio (y) = -0.10839 0.32305
# Poissons Ratio (z) = 0.10101 0.18327
#
# Static dielectric constant tensor:
#      x y z
#    x 2.009780 -0.053580 -0.012590 
#    y -0.053580 1.844970 -0.006900 
#    z -0.012590 -0.006900 1.842960 
# 
# From -- ./inp_files/16260.got.cif
#   From: 2010.05.17/outbox.cif.g08.bks.cpg/sg2_9_cif.got.tgz:16260.got - 2010.06.03 11:33:40.
