data_PCOD9004027
_publ_section_title
;
Structure prediction by ZEFSAII (Michael W. Deem and Ramdas Pophale) SiO2 
 PCOD9004027
Probable space group: P -1
;
_chemical_formula_sum "Si O2"
_cell_formula_units_Z 14
_cell_length_a 8.948941
_cell_length_b 9.382903
_cell_length_c 9.359389
_cell_angle_alpha 93.054423
_cell_angle_beta 77.273974
_cell_angle_gamma 134.032841
_cell_volume 545.509455
_symmetry_space_group_name_H-M "P -1"
_symmetry_group_IT_number 2
_symmetry_cell_setting 'triclinic'
loop_
_space_group_symop_operation_xyz
x,y,z
-x,-y,-z
loop_
_atom_site_type_symbol
_atom_site_label
_atom_site_fract_x
_atom_site_fract_y
_atom_site_fract_z
Si Si1 0.453996 0.402777 0.191358
Si Si2 0.594723 0.211788 0.045914
Si Si3 0.952960 0.779279 0.353891
Si Si4 0.736832 0.334101 0.359742
Si Si5 0.310289 0.142488 0.488817
Si Si6 0.893325 0.584277 0.807796
Si Si7 0.952151 0.812757 0.053959
O O1 0.443553 0.256894 0.082399
O O2 0.397987 0.305438 0.354198
O O3 0.284947 0.418994 0.205277
O O4 0.697441 0.615070 0.125510
O O5 0.672543 0.269027 0.200456
O O6 0.780330 0.380317 0.904162
O O7 0.500000 0.000000 0.000000
O O8 0.826890 0.550853 0.384262
O O9 0.800917 0.820954 0.378705
O O10 0.061690 0.844391 0.180591
O O11 0.125181 0.926758 0.446020
O O12 0.516762 0.184264 0.488464
O O13 0.937440 0.360879 0.339866
O O14 0.021681 0.753891 0.910956
O O15 0.000000 0.000000 0.000000
#
# Coordination Sequence:
#
# PCOD9004027 Si02
#       7
#     2   2   2   2   2   2   2
#     4  10  22  43  63  96 135 176 215 268 328 388
#     4  10  21  37  63  95 135 171 218 269 317 391
#     4  11  22  42  70  95 123 176 226 271 315 393
#     4  11  23  38  63  96 129 167 217 271 318 386
#     4  10  23  43  70  92 126 171 233 267 319 381
#     4  11  23  38  58  99 139 166 209 268 342 388
#     4  11  22  39  66  96 132 173 215 266 331 390
#
# _framework density 25.664082000000001
#
# number of rings (size 3 to 8) (size 9 to 14) (size 15 to 20)
#    0.000    1.429    4.286    3.429    4.000    3.429 
#    0.000    0.714    0.000    2.571    0.000    0.000 
#    0.000    0.000    0.000    0.000    0.000    0.000 
#
# Total GULP energy -78306.612074 kJ/mol
# GULP energy per Si atom -5593.329434 kJ/mol
# Density = 2.560567 g / cm^3
# Si number density = 25.664082 Si / 1000 Ang^3
#
#
#
# Elastic Constant Matrix: (Units=GPa)
#
#
# Indices 1 2 3 4 5 6 
#
# 1 122.0206 50.3805 25.5726 12.2882 -50.1398 -6.4845
# 2 50.3805 197.8559 35.2099 33.9074 -19.8719 -16.3157
# 3 25.5726 35.2099 17.8666 15.5561 -10.2834 0.0548
# 4 12.2882 33.9074 15.5561 39.8849 -6.1427 -6.2372
# 5 -50.1398 -19.8719 -10.2834 -6.1427 46.0354 -9.6549
# 6 -6.4845 -16.3157 0.0548 -6.2372 -9.6549 30.6145
#
#
#
# Elastic Compliance Matrix: (Units=1/GPa)
#
#
# Indices 1 2 3 4 5 6 
#
# 1 0.024298 0.001707 -0.032922 0.010175 0.024546 0.015929
# 2 0.001707 0.008520 -0.018264 0.000719 0.002804 0.005966
# 3 -0.032922 -0.018264 0.171007 -0.049120 -0.019021 -0.033019
# 4 0.010175 0.000719 -0.049120 0.044210 0.009379 0.014591
# 5 0.024546 0.002804 -0.019021 0.009379 0.051915 0.025011
# 6 0.015929 0.005966 -0.033019 0.014591 0.025011 0.050137
#
#
# Mechanical properties :
#
#
# Convention : Reuss Voigt Hill
#
# Bulk Modulus (GPa) = 9.53594 62.22990 35.88292
# Shear Modulus (GPa) = 10.33054 38.41229 24.37142
#
# Velocity S-wave (km/s) = 2.00849 3.87296 3.08495
# Velocity P-wave (km/s) = 3.01703 6.65584 5.16734
#
# Compressibility (1/GPa) = 0.10486640
#
# Stress axis : x y z
#
# Youngs Moduli (GPa) = 41.15503 117.36853 5.84773
#
# Poissons Ratio (x) = -0.20031 0.19252
# Poissons Ratio (y) = -0.07024 0.10680
# Poissons Ratio (z) = 1.35490 2.14364
#
# Static dielectric constant tensor:
#      x y z
#    x 2.318800 0.060550 -0.019160 
#    y 0.060550 1.997230 -0.000960 
#    z -0.019160 -0.000960 2.001620 
# 
# From -- ./inp_files/379490.got.cif
#   From: 2010.05.17/outbox.cif.g08.bks.cpg/sg2_190_cif.got.tgz:379490.got - 2010.06.03 11:33:40.
