data_PCOD9004132
_publ_section_title
;
Structure prediction by ZEFSAII (Michael W. Deem and Ramdas Pophale) SiO2 
 PCOD9004132
Probable space group: P -1
;
_chemical_formula_sum "Si O2"
_cell_formula_units_Z 16
_cell_length_a 12.063720
_cell_length_b 11.230407
_cell_length_c 5.526360
_cell_angle_alpha 83.144552
_cell_angle_beta 75.191004
_cell_angle_gamma 96.361855
_cell_volume 710.837679
_symmetry_space_group_name_H-M "P -1"
_symmetry_group_IT_number 2
_symmetry_cell_setting 'triclinic'
loop_
_space_group_symop_operation_xyz
x,y,z
-x,-y,-z
loop_
_atom_site_type_symbol
_atom_site_label
_atom_site_fract_x
_atom_site_fract_y
_atom_site_fract_z
Si Si1 0.931061 0.121695 0.758032
Si Si2 0.599436 0.984751 0.637823
Si Si3 0.058857 0.656447 0.586816
Si Si4 0.848646 0.986664 0.329988
Si Si5 0.245330 0.675309 0.844030
Si Si6 0.400716 0.556329 0.403795
Si Si7 0.573748 0.198663 0.939175
Si Si8 0.177349 0.464272 0.316558
O O1 0.911627 0.258017 0.681907
O O2 0.889801 0.054608 0.544205
O O3 0.872852 0.057634 0.044429
O O4 0.068235 0.116243 0.708992
O O5 0.712410 0.951023 0.453315
O O6 0.622345 0.113658 0.732520
O O7 0.500000 0.000000 0.500000
O O8 0.543080 0.880190 0.878263
O O9 0.135717 0.711059 0.754382
O O10 0.106030 0.529242 0.543942
O O11 0.920626 0.640619 0.700177
O O12 0.329255 0.625585 0.615173
O O13 0.327249 0.778213 0.918153
O O14 0.204511 0.561908 0.066550
O O15 0.500000 0.500000 0.500000
O O16 0.445268 0.667068 0.169187
O O17 0.303941 0.455531 0.356155
#
# Coordination Sequence:
#
# PCOD9004132 Si02
#       8
#     2   2   2   2   2   2   2   2
#     4  10  24  44  67  93 130 180 216 281 342 412
#     4  11  25  41  67  98 134 171 224 291 336 413
#     4  10  21  37  64  92 125 164 221 273 334 390
#     4  10  25  45  64  96 133 171 229 273 347 411
#     4  10  21  39  65  91 128 173 219 280 328 407
#     4  10  22  42  62  92 135 178 221 269 339 411
#     4  10  24  41  63 102 128 178 227 276 353 394
#     4   9  21  38  59  96 124 163 221 271 326 392
#
# _framework density 22.508656999999999
#
# number of rings (size 3 to 8) (size 9 to 14) (size 15 to 20)
#    0.000    2.000    0.000    1.125   12.250    2.000 
#    6.750    0.000    0.000    0.000    0.000    0.000 
#    0.000    0.000    0.000    0.000    0.000    0.000 
#
# Total GULP energy -89339.241696 kJ/mol
# GULP energy per Si atom -5583.702606 kJ/mol
# Density = 2.245743 g / cm^3
# Si number density = 22.508657 Si / 1000 Ang^3
#
#
#
# Elastic Constant Matrix: (Units=GPa)
#
#
# Indices 1 2 3 4 5 6 
#
# 1 187.5263 42.2095 52.1621 -16.7384 18.3182 13.5346
# 2 42.2095 43.5153 13.3618 -3.9178 13.1032 12.6588
# 3 52.1621 13.3618 91.7380 -2.4622 8.0125 11.1709
# 4 -16.7384 -3.9178 -2.4622 29.1467 4.7845 4.1223
# 5 18.3182 13.1032 8.0125 4.7845 44.9526 -1.4147
# 6 13.5346 12.6588 11.1709 4.1223 -1.4147 20.2416
#
#
#
# Elastic Compliance Matrix: (Units=1/GPa)
#
#
# Indices 1 2 3 4 5 6 
#
# 1 0.008160 -0.005818 -0.003459 0.003968 -0.001461 -0.000819
# 2 -0.005818 0.038825 0.001642 0.007101 -0.010734 -0.023493
# 3 -0.003459 0.001642 0.013583 0.000582 -0.001755 -0.006451
# 4 0.003968 0.007101 0.000582 0.041347 -0.008709 -0.016445
# 5 -0.001461 -0.010734 -0.001755 -0.008709 0.027599 0.012361
# 6 -0.000819 -0.023493 -0.006451 -0.016445 0.012361 0.072417
#
#
# Mechanical properties :
#
#
# Convention : Reuss Voigt Hill
#
# Bulk Modulus (GPa) = 22.07546 59.80516 40.94031
# Shear Modulus (GPa) = 21.52397 33.20460 27.36429
#
# Velocity S-wave (km/s) = 3.09569 3.84499 3.49050
# Velocity P-wave (km/s) = 4.75463 6.80731 5.87137
#
# Compressibility (1/GPa) = 0.04529917
#
# Stress axis : x y z
#
# Youngs Moduli (GPa) = 122.54706 25.75637 73.62391
#
# Poissons Ratio (x) = 0.14984 0.25464
# Poissons Ratio (y) = 0.71294 -0.12088
# Poissons Ratio (z) = 0.42384 -0.04229
#
# Static dielectric constant tensor:
#      x y z
#    x 1.844120 0.024250 0.006900 
#    y 0.024250 1.884650 0.036840 
#    z 0.006900 0.036840 1.904650 
# 
# From -- ./inp_files/66263.got.cif
#   From: 2010.05.17/outbox.cif.g08.bks.cpg/sg2_34_cif.got.tgz:66263.got - 2010.06.03 11:33:40.
