data_PCOD9004278
_publ_section_title
;
Structure prediction by ZEFSAII (Michael W. Deem and Ramdas Pophale) SiO2 
 PCOD9004278
Probable space group: P -1
;
_chemical_formula_sum "Si O2"
_cell_formula_units_Z 14
_cell_length_a 16.568360
_cell_length_b 19.948639
_cell_length_c 9.779603
_cell_angle_alpha 150.265758
_cell_angle_beta 29.855566
_cell_angle_gamma 159.011839
_cell_volume 544.332162
_symmetry_space_group_name_H-M "P -1"
_symmetry_group_IT_number 2
_symmetry_cell_setting 'triclinic'
loop_
_space_group_symop_operation_xyz
x,y,z
-x,-y,-z
loop_
_atom_site_type_symbol
_atom_site_label
_atom_site_fract_x
_atom_site_fract_y
_atom_site_fract_z
Si Si1 0.054254 0.520437 0.616573
Si Si2 0.285115 0.387631 0.011919
Si Si3 0.630864 0.705981 0.605064
Si Si4 0.069974 0.959930 0.551844
Si Si5 0.245541 0.647384 0.986560
Si Si6 0.635364 0.760866 0.980700
Si Si7 0.569396 0.947474 0.634098
O O1 0.291511 0.748223 0.704531
O O2 0.000000 0.500000 0.500000
O O3 0.850131 0.440873 0.877124
O O4 0.110607 0.396556 0.339488
O O5 0.160332 0.169035 0.787615
O O6 0.500000 0.500000 0.000000
O O7 0.414270 0.532066 0.945532
O O8 0.500000 0.500000 0.500000
O O9 0.911628 0.837809 0.432178
O O10 0.457284 0.668430 0.683435
O O11 0.628119 0.810655 0.923933
O O12 0.289227 0.000607 0.342658
O O13 0.880827 0.827536 0.721152
O O14 0.362838 0.864589 0.183650
O O15 0.000000 0.500000 0.000000
O O16 0.646738 0.883339 0.293354
#
# Coordination Sequence:
#
# PCOD9004278 Si02
#       7
#     2   2   2   2   2   2   2
#     4  11  26  42  67 102 142 168 221 285 326 398
#     4  11  20  36  63 102 127 170 219 267 335 384
#     4  10  24  45  63  91 128 174 225 270 327 394
#     4  10  21  37  65  92 133 165 218 275 318 391
#     4  12  27  45  69  95 137 185 216 271 344 400
#     4   9  21  36  68  92 133 162 222 278 320 383
#     4  11  22  41  67 103 129 174 222 274 338 389
#
# _framework density 25.719591999999999
#
# number of rings (size 3 to 8) (size 9 to 14) (size 15 to 20)
#    0.857    0.571    2.857    3.857    4.000    1.714 
#    0.000    0.714    0.000    0.000    0.000    0.000 
#    0.000    0.000    0.000    0.000    0.000    0.000 
#
# Total GULP energy -78265.840182 kJ/mol
# GULP energy per Si atom -5590.417156 kJ/mol
# Density = 2.566105 g / cm^3
# Si number density = 25.719592 Si / 1000 Ang^3
#
#
#
# Elastic Constant Matrix: (Units=GPa)
#
#
# Indices 1 2 3 4 5 6 
#
# 1 99.7639 35.7590 28.2590 -9.3263 -22.7007 25.3586
# 2 35.7590 161.2884 29.7016 16.4077 -19.1897 23.8509
# 3 28.2590 29.7016 59.3854 8.8340 -11.0832 8.8894
# 4 -9.3263 16.4077 8.8340 51.9640 -10.4633 -1.7808
# 5 -22.7007 -19.1897 -11.0832 -10.4633 44.7191 -17.0187
# 6 25.3586 23.8509 8.8894 -1.7808 -17.0187 53.0898
#
#
#
# Elastic Compliance Matrix: (Units=1/GPa)
#
#
# Indices 1 2 3 4 5 6 
#
# 1 0.014702 -0.001624 -0.005420 0.005009 0.005250 -0.003535
# 2 -0.001624 0.007590 -0.002265 -0.002273 0.000515 -0.002166
# 3 -0.005420 -0.002265 0.021215 -0.003712 0.000728 0.000163
# 4 0.005009 -0.002273 -0.003712 0.022950 0.006862 0.002220
# 5 0.005250 0.000515 0.000728 0.006862 0.029650 0.006874
# 6 -0.003535 -0.002166 0.000163 0.002220 0.006874 0.023748
#
#
# Mechanical properties :
#
#
# Convention : Reuss Voigt Hill
#
# Bulk Modulus (GPa) = 40.17778 56.43079 48.30428
# Shear Modulus (GPa) = 34.06712 45.06913 39.56813
#
# Velocity S-wave (km/s) = 3.64340 4.19062 3.92655
# Velocity P-wave (km/s) = 5.77534 6.73821 6.27527
#
# Compressibility (1/GPa) = 0.02488938
#
# Stress axis : x y z
#
# Youngs Moduli (GPa) = 68.01659 131.75152 47.13670
#
# Poissons Ratio (x) = 0.21392 0.25550
# Poissons Ratio (y) = 0.11044 0.10676
# Poissons Ratio (z) = 0.36867 0.29841
#
# Static dielectric constant tensor:
#      x y z
#    x 2.158230 0.057100 0.083310 
#    y 0.057100 2.032080 -0.018950 
#    z 0.083310 -0.018950 2.070210 
# 
# From -- ./inp_files/467153.got.cif
#   From: 2010.05.17/outbox.cif.g08.bks.cpg/sg2_234_cif.got.tgz:467153.got - 2010.06.03 11:33:40.
