data_PCOD9004254
_publ_section_title
;
Structure prediction by ZEFSAII (Michael W. Deem and Ramdas Pophale) SiO2 
 PCOD9004254
Probable space group: P -1
;
_chemical_formula_sum "Si O2"
_cell_formula_units_Z 16
_cell_length_a 16.441730
_cell_length_b 7.429599
_cell_length_c 11.390306
_cell_angle_alpha 132.991916
_cell_angle_beta 42.419584
_cell_angle_gamma 114.156280
_cell_volume 673.896650
_symmetry_space_group_name_H-M "P -1"
_symmetry_group_IT_number 2
_symmetry_cell_setting 'triclinic'
loop_
_space_group_symop_operation_xyz
x,y,z
-x,-y,-z
loop_
_atom_site_type_symbol
_atom_site_label
_atom_site_fract_x
_atom_site_fract_y
_atom_site_fract_z
Si Si1 0.012193 0.914096 0.639008
Si Si2 0.337106 0.342351 0.047888
Si Si3 0.747053 0.096003 0.959551
Si Si4 0.900038 0.615382 0.813909
Si Si5 0.518886 0.267675 0.140740
Si Si6 0.406605 0.713270 0.304466
Si Si7 0.697619 0.355618 0.379205
Si Si8 0.060860 0.419750 0.775359
O O1 0.960095 0.836324 0.786428
O O2 0.059597 0.645797 0.414395
O O3 0.890062 0.063564 0.770745
O O4 0.097495 0.116747 0.617342
O O5 0.246927 0.333063 0.029181
O O6 0.329882 0.615653 0.239071
O O7 0.277174 0.186304 0.139642
O O8 0.475518 0.173486 0.808107
O O9 0.654295 0.251329 0.037437
O O10 0.715669 0.210629 0.173364
O O11 0.960073 0.549067 0.845976
O O12 0.490969 0.451483 0.142628
O O13 0.416874 0.409732 0.402655
O O14 0.500000 0.000000 0.000000
O O15 0.331732 0.798027 0.540741
O O16 0.818253 0.467436 0.325237
O O17 0.000000 0.500000 0.000000
#
# Coordination Sequence:
#
# PCOD9004254 Si02
#       8
#     2   2   2   2   2   2   2   2
#     4  10  24  43  70  97 129 175 225 273 323 394
#     4  10  21  42  64  93 125 164 219 269 329 387
#     4  11  20  41  63  91 129 165 211 268 326 390
#     4  10  25  43  70  98 130 175 222 280 326 387
#     4  10  21  37  65  89 118 166 205 266 317 374
#     4   9  22  39  63  92 123 163 211 273 319 387
#     4  10  24  39  62  92 133 168 212 269 324 398
#     4  12  25  45  66  99 135 177 220 269 334 397
#
# _framework density 23.742512000000001
#
# number of rings (size 3 to 8) (size 9 to 14) (size 15 to 20)
#    0.750    1.000    2.500    0.750    8.750    2.000 
#    0.000    0.000    0.000    0.000    0.000    0.000 
#    0.000    0.000    0.000    0.000    0.000    0.000 
#
# Total GULP energy -89162.400064 kJ/mol
# GULP energy per Si atom -5572.650004 kJ/mol
# Density = 2.368847 g / cm^3
# Si number density = 23.742512 Si / 1000 Ang^3
#
#
#
# Elastic Constant Matrix: (Units=GPa)
#
#
# Indices 1 2 3 4 5 6 
#
# 1 101.0819 41.5932 -5.3180 3.2122 -5.8062 -6.6674
# 2 41.5932 43.1525 -1.6203 -7.5723 -2.0414 -5.5137
# 3 -5.3180 -1.6203 57.8012 9.0071 -2.5774 4.3005
# 4 3.2122 -7.5723 9.0071 32.6896 -1.6937 -5.6264
# 5 -5.8062 -2.0414 -2.5774 -1.6937 30.0826 0.6267
# 6 -6.6674 -5.5137 4.3005 -5.6264 0.6267 22.6937
#
#
#
# Elastic Compliance Matrix: (Units=1/GPa)
#
#
# Indices 1 2 3 4 5 6 
#
# 1 0.017811 -0.018355 0.002380 -0.006796 0.002043 -0.001419
# 2 -0.018355 0.044561 -0.003473 0.014752 -0.000189 0.009755
# 3 0.002380 -0.003473 0.019021 -0.007156 0.001566 -0.005567
# 4 -0.006796 0.014752 -0.007156 0.038860 0.001003 0.012550
# 5 0.002043 -0.000189 0.001566 0.001003 0.033823 -0.000428
# 6 -0.001419 0.009755 -0.005567 0.012550 -0.000428 0.050196
#
#
# Mechanical properties :
#
#
# Convention : Reuss Voigt Hill
#
# Bulk Modulus (GPa) = 23.53066 30.14948 26.84007
# Shear Modulus (GPa) = 19.43011 28.25189 23.84100
#
# Velocity S-wave (km/s) = 2.86382 3.45328 3.17227
# Velocity P-wave (km/s) = 4.56810 5.35035 4.97463
#
# Compressibility (1/GPa) = 0.04249775
#
# Stress axis : x y z
#
# Youngs Moduli (GPa) = 56.14661 22.44123 52.57225
#
# Poissons Ratio (x) = 0.41190 -0.12511
# Poissons Ratio (y) = 1.03056 0.18256
# Poissons Ratio (z) = -0.13362 0.07793
#
# Static dielectric constant tensor:
#      x y z
#    x 1.973150 0.069990 -0.089490 
#    y 0.069990 2.041470 -0.130220 
#    z -0.089490 -0.130220 2.043400 
# 
# From -- ./inp_files/446384.got.cif
#   From: 2010.05.17/outbox.cif.g08.bks.cpg/sg2_224_cif.got.tgz:446384.got - 2010.06.03 11:33:40.
