data_PCOD9004963
_publ_section_title
;
Structure prediction by ZEFSAII (Michael W. Deem and Ramdas Pophale) SiO2 
 PCOD9004963
Probable space group: P -1
;
_chemical_formula_sum "Si O2"
_cell_formula_units_Z 12
_cell_length_a 12.765687
_cell_length_b 16.495353
_cell_length_c 7.821331
_cell_angle_alpha 83.849958
_cell_angle_beta 77.748717
_cell_angle_gamma 153.425907
_cell_volume 528.461743
_symmetry_space_group_name_H-M "P -1"
_symmetry_group_IT_number 2
_symmetry_cell_setting 'triclinic'
loop_
_space_group_symop_operation_xyz
x,y,z
-x,-y,-z
loop_
_atom_site_type_symbol
_atom_site_label
_atom_site_fract_x
_atom_site_fract_y
_atom_site_fract_z
Si Si1 0.347058 0.907269 0.796740
Si Si2 0.424360 0.370705 0.176100
Si Si3 0.766480 0.941267 0.709241
Si Si4 0.222215 0.365889 0.668844
Si Si5 0.999912 0.634799 0.338205
Si Si6 0.394750 0.785133 0.602792
O O1 0.237997 0.747925 0.769615
O O2 0.731371 0.174712 0.651151
O O3 0.334307 0.975453 0.661158
O O4 0.178128 0.788967 0.064855
O O5 0.705272 0.564528 0.175663
O O6 0.088677 0.150566 0.440702
O O7 0.381674 0.250798 0.136448
O O8 0.500000 0.500000 0.000000
O O9 0.885230 0.083045 0.791557
O O10 0.538486 0.826863 0.684356
O O11 0.500000 0.500000 0.500000
O O12 0.250258 0.470092 0.528991
O O13 0.832073 0.429418 0.396627
#
# Coordination Sequence:
#
# PCOD9004963 Si02
#       6
#     2   2   2   2   2   2
#     4  10  24  38  61  90 117 155 202 238 289 352
#     4  10  22  39  60  86 113 157 201 237 292 352
#     4  10  21  38  60  84 121 153 189 248 296 338
#     4  10  21  39  61  86 120 155 189 244 296 343
#     4  11  21  41  61  86 121 156 195 243 292 343
#     4  11  21  39  62  88 118 155 195 244 295 343
#
# _framework density 22.707414
#
# number of rings (size 3 to 8) (size 9 to 14) (size 15 to 20)
#    0.000    1.667    3.333    1.000    2.333    0.667 
#    0.000    3.333    0.000    0.000    0.000    0.000 
#    0.000    0.000    0.000    0.000    0.000    0.000 
#
# Total GULP energy -67034.052624 kJ/mol
# GULP energy per Si atom -5586.171052 kJ/mol
# Density = 2.265573 g / cm^3
# Si number density = 22.707414 Si / 1000 Ang^3
#
#
#
# Elastic Constant Matrix: (Units=GPa)
#
#
# Indices 1 2 3 4 5 6 
#
# 1 98.7438 32.5853 21.2262 -20.7311 26.5973 -7.8283
# 2 32.5853 131.3797 3.1399 -20.8499 18.9256 -24.6897
# 3 21.2262 3.1399 55.3100 -9.3690 22.2506 -6.1397
# 4 -20.7311 -20.8499 -9.3690 15.0770 -10.7904 9.6097
# 5 26.5973 18.9256 22.2506 -10.7904 39.1446 -6.9199
# 6 -7.8283 -24.6897 -6.1397 9.6097 -6.9199 42.1623
#
#
#
# Elastic Compliance Matrix: (Units=1/GPa)
#
#
# Indices 1 2 3 4 5 6 
#
# 1 0.015474 -0.000789 -0.001167 0.017439 -0.005117 -0.002573
# 2 -0.000789 0.010558 0.003040 0.011369 -0.002549 0.003469
# 3 -0.001167 0.003040 0.024858 0.008493 -0.012247 0.001238
# 4 0.017439 0.011369 0.008493 0.129483 0.010577 -0.016644
# 5 -0.005117 -0.002549 -0.012247 0.010577 0.040124 -0.000052
# 6 -0.002573 0.003469 0.001238 -0.016644 -0.000052 0.029237
#
#
# Mechanical properties :
#
#
# Convention : Reuss Voigt Hill
#
# Bulk Modulus (GPa) = 18.84720 44.37070 31.60895
# Shear Modulus (GPa) = 18.85008 34.50891 26.67950
#
# Velocity S-wave (km/s) = 2.88432 3.90259 3.43144
# Velocity P-wave (km/s) = 4.40573 6.31582 5.44518
#
# Compressibility (1/GPa) = 0.05305829
#
# Stress axis : x y z
#
# Youngs Moduli (GPa) = 64.62468 94.71476 40.22872
#
# Poissons Ratio (x) = 0.07472 0.04693
# Poissons Ratio (y) = 0.05099 -0.12229
# Poissons Ratio (z) = 0.07540 -0.28792
#
# Static dielectric constant tensor:
#      x y z
#    x 1.912990 -0.032330 -0.051770 
#    y -0.032330 1.846970 -0.002550 
#    z -0.051770 -0.002550 1.870810 
# 
# From -- ./inp_files/29095.got.cif
#   From: 2010.05.17/outbox.cif.g08.bks.cpg/sg2_15_cif.got.tgz:29095.got - 2010.06.03 11:33:40.
