data_PCOD9004743
_publ_section_title
;
Structure prediction by ZEFSAII (Michael W. Deem and Ramdas Pophale) SiO2 
 PCOD9004743
Probable space group: P -1
;
_chemical_formula_sum "Si O2"
_cell_formula_units_Z 12
_cell_length_a 13.378123
_cell_length_b 16.495180
_cell_length_c 7.503415
_cell_angle_alpha 129.028632
_cell_angle_beta 114.425837
_cell_angle_gamma 23.333848
_cell_volume 430.358780
_symmetry_space_group_name_H-M "P -1"
_symmetry_group_IT_number 2
_symmetry_cell_setting 'triclinic'
loop_
_space_group_symop_operation_xyz
x,y,z
-x,-y,-z
loop_
_atom_site_type_symbol
_atom_site_label
_atom_site_fract_x
_atom_site_fract_y
_atom_site_fract_z
Si Si1 0.132122 0.921433 0.678286
Si Si2 0.362776 0.084883 0.207020
Si Si3 0.275159 0.380309 0.653053
Si Si4 0.860414 0.508460 0.899781
Si Si5 0.228460 0.625650 0.453206
Si Si6 0.359010 0.515346 0.975838
O O1 0.057772 0.886933 0.702408
O O2 0.484467 0.624196 0.554108
O O3 0.000000 0.000000 0.500000
O O4 0.969556 0.175967 0.927786
O O5 0.426896 0.133228 0.435739
O O6 0.005282 0.385796 0.360601
O O7 0.500000 0.000000 0.000000
O O8 0.528272 0.834769 0.043896
O O9 0.477769 0.303511 0.680092
O O10 0.122352 0.538984 0.948470
O O11 0.943775 0.331905 0.605037
O O12 0.000000 0.500000 0.000000
O O13 0.355747 0.514243 0.187361
O O14 0.500000 0.500000 0.000000
#
# Coordination Sequence:
#
# PCOD9004743 Si02
#       6
#     2   2   2   2   2   2
#     4   9  18  38  59  83 117 158 201 252 299 359
#     4  11  22  41  64  91 122 168 209 255 318 367
#     4  10  23  42  60  90 129 160 211 262 302 375
#     4  11  21  38  62  92 126 164 206 256 314 369
#     4   9  20  37  59  87 120 159 207 250 301 370
#     4  10  21  38  58  87 123 162 200 252 312 362
#
# _framework density 27.883711999999999
#
# number of rings (size 3 to 8) (size 9 to 14) (size 15 to 20)
#    0.000    2.000    1.667    1.500    0.000    2.000 
#   15.000    0.000    0.000    0.000    0.000    0.000 
#    0.000    0.000    0.000    0.000    0.000    0.000 
#
# Total GULP energy -66999.519788 kJ/mol
# GULP energy per Si atom -5583.293316 kJ/mol
# Density = 2.782025 g / cm^3
# Si number density = 27.883712 Si / 1000 Ang^3
#
#
#
# Elastic Constant Matrix: (Units=GPa)
#
#
# Indices 1 2 3 4 5 6 
#
# 1 119.4790 44.2864 29.8958 -25.8206 29.3666 -3.1359
# 2 44.2864 122.4284 11.9185 2.7773 22.6242 5.4282
# 3 29.8958 11.9185 86.7821 -8.6304 36.6488 -0.6082
# 4 -25.8206 2.7773 -8.6304 41.1599 -2.6458 18.1601
# 5 29.3666 22.6242 36.6488 -2.6458 62.1477 -5.5002
# 6 -3.1359 5.4282 -0.6082 18.1601 -5.5002 46.6618
#
#
#
# Elastic Compliance Matrix: (Units=1/GPa)
#
#
# Indices 1 2 3 4 5 6 
#
# 1 0.013000 -0.003968 -0.001509 0.009032 -0.003656 -0.002630
# 2 -0.003968 0.010066 0.000691 -0.002924 -0.002372 -0.000570
# 3 -0.001509 0.000691 0.016030 0.002710 -0.009061 -0.002096
# 4 0.009032 -0.002924 0.002710 0.036507 -0.004464 -0.013752
# 5 -0.003656 -0.002372 -0.009061 -0.004464 0.024234 0.004506
# 6 -0.002630 -0.000570 -0.002096 -0.013752 0.004506 0.027176
#
#
# Mechanical properties :
#
#
# Convention : Reuss Voigt Hill
#
# Bulk Modulus (GPa) = 33.87160 55.65453 44.76307
# Shear Modulus (GPa) = 34.14691 46.16647 40.15669
#
# Velocity S-wave (km/s) = 3.50325 4.07342 3.79905
# Velocity P-wave (km/s) = 5.34205 6.49049 5.94407
#
# Compressibility (1/GPa) = 0.02952326
#
# Stress axis : x y z
#
# Youngs Moduli (GPa) = 76.92494 99.34360 62.38465
#
# Poissons Ratio (x) = 0.39420 0.09417
# Poissons Ratio (y) = 0.30524 -0.04314
# Poissons Ratio (z) = 0.11611 -0.06869
#
# Static dielectric constant tensor:
#      x y z
#    x 2.431350 -0.054610 0.039510 
#    y -0.054610 2.210170 0.108110 
#    z 0.039510 0.108110 2.394620 
# 
# From -- ./inp_files/317875.got.cif
#   From: 2010.05.17/outbox.cif.g08.bks.cpg/sg2_159_cif.got.tgz:317875.got - 2010.06.03 11:33:40.
