data_PCOD9004804
_publ_section_title
;
Structure prediction by ZEFSAII (Michael W. Deem and Ramdas Pophale) SiO2 
 PCOD9004804
Probable space group: P -1
;
_chemical_formula_sum "Si O2"
_cell_formula_units_Z 12
_cell_length_a 8.049529
_cell_length_b 15.015768
_cell_length_c 8.792470
_cell_angle_alpha 97.094298
_cell_angle_beta 48.548515
_cell_angle_gamma 127.936070
_cell_volume 551.287806
_symmetry_space_group_name_H-M "P -1"
_symmetry_group_IT_number 2
_symmetry_cell_setting 'triclinic'
loop_
_space_group_symop_operation_xyz
x,y,z
-x,-y,-z
loop_
_atom_site_type_symbol
_atom_site_label
_atom_site_fract_x
_atom_site_fract_y
_atom_site_fract_z
Si Si1 0.693788 0.382636 0.981495
Si Si2 0.734581 0.190204 0.897512
Si Si3 0.860399 0.588229 0.742990
Si Si4 0.444284 0.002595 0.785243
Si Si5 0.645503 0.602623 0.564795
Si Si6 0.022018 0.825685 0.747844
O O1 0.614948 0.415090 0.189549
O O2 0.346165 0.271221 0.089056
O O3 0.791237 0.309191 0.932925
O O4 0.920196 0.507973 0.760973
O O5 0.080879 0.256786 0.646229
O O6 0.504534 0.106639 0.875416
O O7 0.596600 0.092268 0.096353
O O8 0.827641 0.596500 0.584142
O O9 0.066517 0.729894 0.715002
O O10 0.500000 0.500000 0.000000
O O11 0.139828 0.911976 0.841957
O O12 0.749583 0.079461 0.508162
O O13 0.500000 0.500000 0.500000
#
# Coordination Sequence:
#
# PCOD9004804 Si02
#       6
#     2   2   2   2   2   2
#     4  10  22  39  61  86 114 152 192 240 281 343
#     4  11  23  38  59  89 115 149 198 232 287 338
#     4   8  17  36  59  81 111 150 182 238 284 332
#     4  10  21  38  59  83 120 158 184 238 280 343
#     4  10  21  39  58  86 121 147 185 243 295 330
#     4   9  18  40  61  80 117 156 189 228 294 332
#
# _framework density 21.767216000000001
#
# number of rings (size 3 to 8) (size 9 to 14) (size 15 to 20)
#    0.000    2.667    3.333    0.000    7.000    2.667 
#    0.000    1.667    0.000    0.000    0.000    0.000 
#    0.000    0.000    0.000    0.000    0.000    0.000 
#
# Total GULP energy -66909.797186 kJ/mol
# GULP energy per Si atom -5575.816432 kJ/mol
# Density = 2.171767 g / cm^3
# Si number density = 21.767216 Si / 1000 Ang^3
#
#
#
# Elastic Constant Matrix: (Units=GPa)
#
#
# Indices 1 2 3 4 5 6 
#
# 1 22.8331 31.3260 21.3586 3.7749 9.6607 2.9839
# 2 31.3260 131.1065 44.7388 6.3083 18.2908 11.7171
# 3 21.3586 44.7388 77.6541 -14.4252 24.5285 -7.5686
# 4 3.7749 6.3083 -14.4252 45.8950 -1.8295 7.1244
# 5 9.6607 18.2908 24.5285 -1.8295 25.8743 -1.1602
# 6 2.9839 11.7171 -7.5686 7.1244 -1.1602 51.1862
#
#
#
# Elastic Compliance Matrix: (Units=1/GPa)
#
#
# Indices 1 2 3 4 5 6 
#
# 1 0.079174 -0.012272 -0.014039 -0.009136 -0.008348 -0.002800
# 2 -0.012272 0.012334 -0.004134 -0.001614 -0.000444 -0.002505
# 3 -0.014039 -0.004134 0.026119 0.008672 -0.015800 0.004062
# 4 -0.009136 -0.001614 0.008672 0.025633 -0.001920 -0.001427
# 5 -0.008348 -0.000444 -0.015800 -0.001920 0.056914 -0.000191
# 6 -0.002800 -0.002505 0.004062 -0.001427 -0.000191 0.021068
#
#
# Mechanical properties :
#
#
# Convention : Reuss Voigt Hill
#
# Bulk Modulus (GPa) = 17.62572 47.38227 32.50400
# Shear Modulus (GPa) = 16.60885 33.53579 25.07232
#
# Velocity S-wave (km/s) = 2.76528 3.92938 3.39756
# Velocity P-wave (km/s) = 4.27910 6.51166 5.50964
#
# Compressibility (1/GPa) = 0.05673528
#
# Stress axis : x y z
#
# Youngs Moduli (GPa) = 12.63037 81.07761 38.28700
#
# Poissons Ratio (x) = 0.99500 0.53752
# Poissons Ratio (y) = 0.15500 0.15828
# Poissons Ratio (z) = 0.17732 0.33518
#
# Static dielectric constant tensor:
#      x y z
#    x 1.881750 -0.023560 -0.003090 
#    y -0.023560 1.821310 0.015490 
#    z -0.003090 0.015490 1.802280 
# 
# From -- ./inp_files/161503.got.cif
#   From: 2010.05.17/outbox.cif.g08.bks.cpg/sg2_81_cif.got.tgz:161503.got - 2010.06.03 11:33:40.
