data_PCOD9004897
_publ_section_title
;
Structure prediction by ZEFSAII (Michael W. Deem and Ramdas Pophale) SiO2 
 PCOD9004897
Probable space group: P -1
;
_chemical_formula_sum "Si O2"
_cell_formula_units_Z 16
_cell_length_a 11.945873
_cell_length_b 10.548442
_cell_length_c 11.921187
_cell_angle_alpha 44.915925
_cell_angle_beta 142.838912
_cell_angle_gamma 121.082608
_cell_volume 636.611618
_symmetry_space_group_name_H-M "P -1"
_symmetry_group_IT_number 2
_symmetry_cell_setting 'triclinic'
loop_
_space_group_symop_operation_xyz
x,y,z
-x,-y,-z
loop_
_atom_site_type_symbol
_atom_site_label
_atom_site_fract_x
_atom_site_fract_y
_atom_site_fract_z
Si Si1 0.444305 0.834147 0.982293
Si Si2 0.564439 0.940631 0.760831
Si Si3 0.135768 0.885298 0.993057
Si Si4 0.779605 0.776286 0.729212
Si Si5 0.703804 0.562452 0.138350
Si Si6 0.062250 0.284375 0.572868
Si Si7 0.607973 0.424300 0.743208
Si Si8 0.988114 0.205729 0.328526
O O1 0.530960 0.659984 0.229766
O O2 0.492502 0.888575 0.861344
O O3 0.237579 0.764307 0.861118
O O4 0.500000 0.000000 0.000000
O O5 0.385340 0.059668 0.491882
O O6 0.665354 0.749078 0.917938
O O7 0.726306 0.068547 0.828123
O O8 0.948824 0.804339 0.929613
O O9 0.079780 0.075111 0.761760
O O10 0.252397 0.738075 0.099814
O O11 0.701323 0.584762 0.778068
O O12 0.891237 0.779578 0.696186
O O13 0.795844 0.629440 0.285236
O O14 0.854498 0.389554 0.347991
O O15 0.500000 0.500000 0.000000
O O16 0.087540 0.295993 0.452784
O O17 0.500000 0.500000 0.500000
O O18 0.000000 0.000000 0.500000
#
# Coordination Sequence:
#
# PCOD9004897 Si02
#       8
#     2   2   2   2   2   2   2   2
#     4  12  21  36  56  86 124 163 202 243 300 364
#     4  11  22  36  63  88 118 155 201 254 298 356
#     4  11  20  37  56  82 121 159 194 238 298 354
#     4  12  22  37  56  89 131 159 197 237 308 371
#     4  10  21  38  59  89 123 153 205 258 306 346
#     4  10  22  38  59  93 119 156 206 257 299 357
#     4  12  24  35  52  86 130 168 196 240 298 372
#     4  12  21  35  60  90 125 158 199 247 310 365
#
# _framework density 25.133064999999998
#
# number of rings (size 3 to 8) (size 9 to 14) (size 15 to 20)
#    0.000    0.750    6.250    1.875    1.750    0.000 
#    0.000    0.000    0.000    0.000    3.250    6.125 
#    0.000    0.000    0.000    0.000    0.000    0.000 
#
# Total GULP energy -89168.709595 kJ/mol
# GULP energy per Si atom -5573.044350 kJ/mol
# Density = 2.507586 g / cm^3
# Si number density = 25.133065 Si / 1000 Ang^3
#
#
#
# Elastic Constant Matrix: (Units=GPa)
#
#
# Indices 1 2 3 4 5 6 
#
# 1 55.4835 22.7370 27.2989 -6.0300 13.4184 17.0399
# 2 22.7370 145.7521 62.9650 19.6650 20.8669 21.4851
# 3 27.2989 62.9650 151.9181 2.0684 53.7873 6.5310
# 4 -6.0300 19.6650 2.0684 60.2983 4.9173 7.3857
# 5 13.4184 20.8669 53.7873 4.9173 39.2569 -4.4586
# 6 17.0399 21.4851 6.5310 7.3857 -4.4586 29.4020
#
#
#
# Elastic Compliance Matrix: (Units=1/GPa)
#
#
# Indices 1 2 3 4 5 6 
#
# 1 0.027766 -0.000796 0.000679 0.006430 -0.012990 -0.019246
# 2 -0.000796 0.009637 -0.003436 -0.002423 -0.000438 -0.005275
# 3 0.000679 -0.003436 0.015209 0.002933 -0.020186 -0.005059
# 4 0.006430 -0.002423 0.002933 0.019682 -0.008396 -0.008825
# 5 -0.012990 -0.000438 -0.020186 -0.008396 0.061556 0.023776
# 6 -0.019246 -0.005275 -0.005059 -0.008825 0.023776 0.055966
#
#
# Mechanical properties :
#
#
# Convention : Reuss Voigt Hill
#
# Bulk Modulus (GPa) = 21.97461 64.35063 43.16262
# Shear Modulus (GPa) = 23.57473 41.80163 32.68818
#
# Velocity S-wave (km/s) = 3.06600 4.08267 3.61030
# Velocity P-wave (km/s) = 4.61477 6.91982 5.88132
#
# Compressibility (1/GPa) = 0.04550706
#
# Stress axis : x y z
#
# Youngs Moduli (GPa) = 36.01476 103.76912 65.74923
#
# Poissons Ratio (x) = 0.08256 -0.04466
# Poissons Ratio (y) = 0.02865 0.22594
# Poissons Ratio (z) = -0.02446 0.35659
#
# Static dielectric constant tensor:
#      x y z
#    x 2.131210 -0.058660 -0.203710 
#    y -0.058660 2.002180 -0.112010 
#    z -0.203710 -0.112010 3.735130 
# 
# From -- ./inp_files/531666.got.cif
#   From: 2010.05.17/outbox.cif.g08.bks.cpg/sg2_266_cif.got.tgz:531666.got - 2010.06.03 11:33:40.
