data_PCOD9004327
_publ_section_title
;
Structure prediction by ZEFSAII (Michael W. Deem and Ramdas Pophale) SiO2 
 PCOD9004327
Probable space group: P -1
;
_chemical_formula_sum "Si O2"
_cell_formula_units_Z 16
_cell_length_a 16.157644
_cell_length_b 8.632742
_cell_length_c 9.353990
_cell_angle_alpha 80.243650
_cell_angle_beta 36.927871
_cell_angle_gamma 103.080044
_cell_volume 611.592830
_symmetry_space_group_name_H-M "P -1"
_symmetry_group_IT_number 2
_symmetry_cell_setting 'triclinic'
loop_
_space_group_symop_operation_xyz
x,y,z
-x,-y,-z
loop_
_atom_site_type_symbol
_atom_site_label
_atom_site_fract_x
_atom_site_fract_y
_atom_site_fract_z
Si Si1 0.725168 0.957176 0.680384
Si Si2 0.725419 0.315687 0.215276
Si Si3 0.702020 0.648680 0.234528
Si Si4 0.650729 0.358387 0.865690
Si Si5 0.160037 0.254913 0.291841
Si Si6 0.222766 0.871653 0.142492
Si Si7 0.909846 0.413300 0.292466
Si Si8 0.360298 0.075844 0.616281
O O1 0.844537 0.893106 0.566683
O O2 0.658446 0.955026 0.931581
O O3 0.837155 0.185481 0.442398
O O4 0.555730 0.807100 0.843302
O O5 0.739354 0.493978 0.249047
O O6 0.565899 0.230790 0.339127
O O7 0.680513 0.115336 0.383354
O O8 0.920658 0.438191 0.864986
O O9 0.500000 0.500000 0.500000
O O10 0.720807 0.804728 0.299527
O O11 0.792800 0.744951 0.939345
O O12 0.689657 0.537906 0.875415
O O13 0.741224 0.279495 0.837576
O O14 0.756404 0.419871 0.560101
O O15 0.976424 0.215132 0.552854
O O16 0.285168 0.967081 0.888702
O O17 0.000000 0.500000 0.000000
#
# Coordination Sequence:
#
# PCOD9004327 Si02
#       8
#     2   2   2   2   2   2   2   2
#     4  11  25  43  67  98 134 183 226 281 351 418
#     4  10  22  39  62  98 136 169 228 279 353 402
#     4  10  21  38  63 102 134 173 216 287 347 401
#     4  11  25  43  68 102 136 181 235 278 348 421
#     4  12  23  42  71 101 139 176 232 289 340 413
#     4  11  21  38  69  96 129 176 231 274 342 404
#     4  11  25  44  67  90 132 184 232 281 339 420
#     4  10  21  37  65  97 133 172 218 288 344 409
#
# _framework density 26.161197000000001
#
# number of rings (size 3 to 8) (size 9 to 14) (size 15 to 20)
#    0.000    1.250    1.250    5.625    5.250    0.000 
#    0.000    0.625    0.000    0.000    0.000    0.000 
#    0.000    0.000    0.000    0.000    0.000    0.000 
#
# Total GULP energy -89330.867348 kJ/mol
# GULP energy per Si atom -5583.179209 kJ/mol
# Density = 2.610165 g / cm^3
# Si number density = 26.161197 Si / 1000 Ang^3
#
#
#
# Elastic Constant Matrix: (Units=GPa)
#
#
# Indices 1 2 3 4 5 6 
#
# 1 95.0185 42.2293 54.6430 -8.7678 -7.5579 0.2383
# 2 42.2293 184.6293 25.6814 -20.8679 -11.1048 -16.4402
# 3 54.6430 25.6814 157.6887 -6.6356 -14.8378 7.5843
# 4 -8.7678 -20.8679 -6.6356 45.3138 13.6623 -12.3685
# 5 -7.5579 -11.1048 -14.8378 13.6623 43.7711 -3.8971
# 6 0.2383 -16.4402 7.5843 -12.3685 -3.8971 22.8361
#
#
#
# Elastic Compliance Matrix: (Units=1/GPa)
#
#
# Indices 1 2 3 4 5 6 
#
# 1 0.014339 -0.002540 -0.004516 0.000952 0.000007 0.000038
# 2 -0.002540 0.007386 -0.000468 0.004957 0.000465 0.008264
# 3 -0.004516 -0.000468 0.008282 -0.001442 0.002050 -0.003472
# 4 0.000952 0.004957 -0.001442 0.032011 -0.007266 0.020135
# 5 0.000007 0.000465 0.002050 -0.007266 0.025941 0.000146
# 6 0.000038 0.008264 -0.003472 0.020135 0.000146 0.061823
#
#
# Mechanical properties :
#
#
# Convention : Reuss Voigt Hill
#
# Bulk Modulus (GPa) = 66.85010 75.82709 71.33859
# Shear Modulus (GPa) = 29.44374 43.36973 36.40674
#
# Velocity S-wave (km/s) = 3.35845 4.07601 3.73450
# Velocity P-wave (km/s) = 6.37554 7.15537 6.77668
#
# Compressibility (1/GPa) = 0.01495884
#
# Stress axis : x y z
#
# Youngs Moduli (GPa) = 69.74226 135.38456 120.74475
#
# Poissons Ratio (x) = 0.34388 0.54530
# Poissons Ratio (y) = 0.17715 0.05649
# Poissons Ratio (z) = 0.31496 0.06334
#
# Static dielectric constant tensor:
#      x y z
#    x 2.099220 0.012690 0.053190 
#    y 0.012690 2.284650 0.004500 
#    z 0.053190 0.004500 2.059120 
# 
# From -- ./inp_files/469977.got.cif
#   From: 2010.05.17/outbox.cif.g08.bks.cpg/sg2_235_cif.got.tgz:469977.got - 2010.06.03 11:33:40.
