data_PCOD9004321
_publ_section_title
;
Structure prediction by ZEFSAII (Michael W. Deem and Ramdas Pophale) SiO2 
 PCOD9004321
Probable space group: P -1
;
_chemical_formula_sum "Si O2"
_cell_formula_units_Z 16
_cell_length_a 9.069114
_cell_length_b 9.354952
_cell_length_c 13.159666
_cell_angle_alpha 121.971597
_cell_angle_beta 102.935145
_cell_angle_gamma 57.912235
_cell_volume 799.869856
_symmetry_space_group_name_H-M "P -1"
_symmetry_group_IT_number 2
_symmetry_cell_setting 'triclinic'
loop_
_space_group_symop_operation_xyz
x,y,z
-x,-y,-z
loop_
_atom_site_type_symbol
_atom_site_label
_atom_site_fract_x
_atom_site_fract_y
_atom_site_fract_z
Si Si1 0.733379 0.638865 0.965840
Si Si2 0.506619 0.092982 0.429323
Si Si3 0.457271 0.554282 0.809993
Si Si4 0.859545 0.077659 0.418097
Si Si5 0.828980 0.151617 0.973529
Si Si6 0.037520 0.226598 0.863950
Si Si7 0.657122 0.478513 0.446096
Si Si8 0.519512 0.208883 0.829817
O O1 0.590359 0.639234 0.867526
O O2 0.916574 0.449018 0.891740
O O3 0.795713 0.796108 0.055428
O O4 0.637213 0.654178 0.065456
O O5 0.682419 0.104096 0.450448
O O6 0.349528 0.314823 0.475168
O O7 0.500000 0.000000 0.500000
O O8 0.513931 0.946689 0.289578
O O9 0.392329 0.548466 0.685832
O O10 0.541564 0.344944 0.800747
O O11 0.290583 0.686926 0.903206
O O12 0.821815 0.282626 0.440415
O O13 0.910776 0.924168 0.276139
O O14 0.000000 0.000000 0.500000
O O15 0.694102 0.096088 0.881421
O O16 0.904648 0.214142 0.915606
O O17 0.000000 0.000000 0.000000
O O18 0.500000 0.500000 0.500000
#
# Coordination Sequence:
#
# PCOD9004321 Si02
#       8
#     2   2   2   2   2   2   2   2
#     4  10  21  37  65  97 125 168 212 264 321 386
#     4  11  23  43  70  93 124 174 222 268 315 386
#     4  11  20  42  67  90 129 170 219 260 322 394
#     4  11  26  44  67  94 133 173 214 270 327 383
#     4  11  23  38  61  94 129 169 205 267 323 379
#     4  11  21  39  62  97 130 162 218 265 323 381
#     4  10  24  43  65  94 126 168 223 262 320 384
#     4  11  20  42  66  93 127 171 217 256 325 390
#
# _framework density 20.003253999999998
#
# number of rings (size 3 to 8) (size 9 to 14) (size 15 to 20)
#    0.000    1.250    5.000    1.500    5.250    0.000 
#    4.500    3.750    0.000    0.000    0.000    0.000 
#    0.000    0.000    0.000    0.000    0.000    0.000 
#
# Total GULP energy -89179.538328 kJ/mol
# GULP energy per Si atom -5573.721146 kJ/mol
# Density = 1.995773 g / cm^3
# Si number density = 20.003254 Si / 1000 Ang^3
#
#
#
# Elastic Constant Matrix: (Units=GPa)
#
#
# Indices 1 2 3 4 5 6 
#
# 1 73.8713 21.7960 12.7003 3.1615 4.9469 -7.7026
# 2 21.7960 118.2490 51.6672 9.0491 15.8921 -17.0583
# 3 12.7003 51.6672 85.3664 6.9814 4.0524 -3.4739
# 4 3.1615 9.0491 6.9814 24.7798 0.6228 0.8079
# 5 4.9469 15.8921 4.0524 0.6228 30.5866 -6.7204
# 6 -7.7026 -17.0583 -3.4739 0.8079 -6.7204 26.0851
#
#
#
# Elastic Compliance Matrix: (Units=1/GPa)
#
#
# Indices 1 2 3 4 5 6 
#
# 1 0.014591 -0.001696 -0.000905 -0.001065 -0.000692 0.002933
# 2 -0.001696 0.013718 -0.007348 -0.002822 -0.004406 0.006443
# 3 -0.000905 -0.007348 0.016274 -0.001737 0.001290 -0.002519
# 4 -0.001065 -0.002822 -0.001737 0.042125 0.000211 -0.003642
# 5 -0.000692 -0.004406 0.001290 0.000211 0.036335 0.006441
# 6 0.002933 0.006443 -0.002519 -0.003642 0.006441 0.044852
#
#
# Mechanical properties :
#
#
# Convention : Reuss Voigt Hill
#
# Bulk Modulus (GPa) = 40.51052 49.97929 45.24490
# Shear Modulus (GPa) = 25.50740 29.04518 27.27629
#
# Velocity S-wave (km/s) = 3.57482 3.81468 3.69669
# Velocity P-wave (km/s) = 6.11024 6.66650 6.39442
#
# Compressibility (1/GPa) = 0.02468495
#
# Stress axis : x y z
#
# Youngs Moduli (GPa) = 68.53567 72.89895 61.44639
#
# Poissons Ratio (x) = 0.12367 0.05559
# Poissons Ratio (y) = 0.11627 0.45150
# Poissons Ratio (z) = 0.06200 0.53565
#
# Static dielectric constant tensor:
#      x y z
#    x 1.774720 0.112420 0.016940 
#    y 0.112420 2.003710 0.041430 
#    z 0.016940 0.041430 1.696320 
# 
# From -- ./inp_files/208850.got.cif
#   From: 2010.05.17/outbox.cif.g08.bks.cpg/sg2_105_cif.got.tgz:208850.got - 2010.06.03 11:33:40.
