data_PCOD9004748
_publ_section_title
;
Structure prediction by ZEFSAII (Michael W. Deem and Ramdas Pophale) SiO2 
 PCOD9004748
Probable space group: P -1
;
_chemical_formula_sum "Si O2"
_cell_formula_units_Z 16
_cell_length_a 6.437509
_cell_length_b 10.948688
_cell_length_c 12.557831
_cell_angle_alpha 93.417989
_cell_angle_beta 119.638223
_cell_angle_gamma 116.504887
_cell_volume 642.184536
_symmetry_space_group_name_H-M "P -1"
_symmetry_group_IT_number 2
_symmetry_cell_setting 'triclinic'
loop_
_space_group_symop_operation_xyz
x,y,z
-x,-y,-z
loop_
_atom_site_type_symbol
_atom_site_label
_atom_site_fract_x
_atom_site_fract_y
_atom_site_fract_z
Si Si1 0.564203 0.210975 0.462975
Si Si2 0.741456 0.501695 0.628996
Si Si3 0.825642 0.056291 0.513590
Si Si4 0.272489 0.196233 0.818276
Si Si5 0.625804 0.519070 0.851327
Si Si6 0.373824 0.718274 0.824220
Si Si7 0.779063 0.214928 0.988108
Si Si8 0.110154 0.080192 0.166147
O O1 0.741349 0.367775 0.568726
O O2 0.739830 0.157670 0.439818
O O3 0.289672 0.174408 0.321260
O O4 0.446780 0.095759 0.523048
O O5 0.500000 0.500000 0.500000
O O6 0.665909 0.487378 0.735795
O O7 0.053226 0.645754 0.698486
O O8 0.034861 0.153356 0.666798
O O9 0.000000 0.000000 0.500000
O O10 0.459278 0.372046 0.869823
O O11 0.494153 0.146843 0.841385
O O12 0.073142 0.089876 0.858325
O O13 0.462207 0.602640 0.818280
O O14 0.945066 0.638740 0.981116
O O15 0.342407 0.741208 0.940794
O O16 0.631177 0.867737 0.847131
O O17 0.904975 0.127628 0.069019
#
# Coordination Sequence:
#
# PCOD9004748 Si02
#       8
#     2   2   2   2   2   2   2   2
#     4  10  21  38  58  88 122 155 205 253 303 373
#     4  11  22  38  65  94 125 168 213 258 312 375
#     4  10  22  39  60  87 122 159 195 250 317 370
#     4  11  22  40  65  91 125 165 208 263 318 371
#     4  10  22  40  62  93 126 163 211 262 316 370
#     4  10  22  40  60  87 126 165 212 261 309 375
#     4  10  22  42  63  89 125 166 214 262 311 372
#     4  10  23  41  62  91 126 166 212 260 315 375
#
# _framework density 24.914957999999999
#
# number of rings (size 3 to 8) (size 9 to 14) (size 15 to 20)
#    0.000    1.750    0.000    4.500    0.000    7.000 
#    0.000   15.000    0.000    0.000    0.000    0.000 
#    0.000    0.000    0.000    0.000    0.000    0.000 
#
# Total GULP energy -89381.577155 kJ/mol
# GULP energy per Si atom -5586.348572 kJ/mol
# Density = 2.485825 g / cm^3
# Si number density = 24.914958 Si / 1000 Ang^3
#
#
#
# Elastic Constant Matrix: (Units=GPa)
#
#
# Indices 1 2 3 4 5 6 
#
# 1 112.7495 57.4317 34.6036 4.0112 22.1177 0.6617
# 2 57.4317 167.7316 36.6422 7.9875 10.6335 25.0167
# 3 34.6036 36.6422 101.7826 2.3823 33.1333 1.4327
# 4 4.0112 7.9875 2.3823 30.1635 -2.5830 10.3196
# 5 22.1177 10.6335 33.1333 -2.5830 47.6541 6.1481
# 6 0.6617 25.0167 1.4327 10.3196 6.1481 42.8086
#
#
#
# Elastic Compliance Matrix: (Units=1/GPa)
#
#
# Indices 1 2 3 4 5 6 
#
# 1 0.012232 -0.004033 -0.001264 -0.001976 -0.004434 0.003323
# 2 -0.004033 0.008476 -0.002379 0.000481 0.002340 -0.005263
# 3 -0.001264 -0.002379 0.014099 -0.002037 -0.009149 0.002743
# 4 -0.001976 0.000481 -0.002037 0.037337 0.005537 -0.009978
# 5 -0.004434 0.002340 -0.009149 0.005537 0.030039 -0.006642
# 6 0.003323 -0.005263 0.002743 -0.009978 -0.006642 0.029652
#
#
# Mechanical properties :
#
#
# Convention : Reuss Voigt Hill
#
# Bulk Modulus (GPa) = 51.39964 71.06875 61.23419
# Shear Modulus (GPa) = 32.53711 41.03098 36.78405
#
# Velocity S-wave (km/s) = 3.61768 4.06253 3.84654
# Velocity P-wave (km/s) = 6.17454 7.11281 6.66022
#
# Compressibility (1/GPa) = 0.01945539
#
# Stress axis : x y z
#
# Youngs Moduli (GPa) = 81.75406 117.97712 70.92910
#
# Poissons Ratio (x) = 0.47574 0.08964
# Poissons Ratio (y) = 0.32967 0.16876
# Poissons Ratio (z) = 0.10332 0.28070
#
# Static dielectric constant tensor:
#      x y z
#    x 2.457370 -0.034600 0.049010 
#    y -0.034600 1.965400 -0.009120 
#    z 0.049010 -0.009120 2.119450 
# 
# From -- ./inp_files/482853.got.cif
#   From: 2010.05.17/outbox.cif.g08.bks.cpg/sg2_242_cif.got.tgz:482853.got - 2010.06.03 11:33:40.
