data_PCOD9004493
_publ_section_title
;
Structure prediction by ZEFSAII (Michael W. Deem and Ramdas Pophale) SiO2 
 PCOD9004493
Probable space group: P -1
;
_chemical_formula_sum "Si O2"
_cell_formula_units_Z 14
_cell_length_a 11.143208
_cell_length_b 7.771181
_cell_length_c 13.945951
_cell_angle_alpha 104.974597
_cell_angle_beta 29.747848
_cell_angle_gamma 90.493375
_cell_volume 516.933019
_symmetry_space_group_name_H-M "P -1"
_symmetry_group_IT_number 2
_symmetry_cell_setting 'triclinic'
loop_
_space_group_symop_operation_xyz
x,y,z
-x,-y,-z
loop_
_atom_site_type_symbol
_atom_site_label
_atom_site_fract_x
_atom_site_fract_y
_atom_site_fract_z
Si Si1 0.628091 0.674594 0.851166
Si Si2 0.508090 0.417485 0.634895
Si Si3 0.708797 0.072610 0.321459
Si Si4 0.149107 0.730917 0.055853
Si Si5 0.373201 0.134831 0.824697
Si Si6 0.761150 0.956104 0.693730
Si Si7 0.003324 0.496061 0.728158
O O1 0.431575 0.652346 0.906050
O O2 0.802391 0.506583 0.782207
O O3 0.824346 0.753330 0.675666
O O4 0.422075 0.862214 0.083743
O O5 0.566980 0.305931 0.475546
O O6 0.223219 0.601850 0.887833
O O7 0.515152 0.248201 0.681006
O O8 0.737187 0.492032 0.492267
O O9 0.500000 0.000000 0.500000
O O10 0.743497 0.978848 0.179194
O O11 0.986343 0.960523 0.173608
O O12 0.959730 0.680791 0.251465
O O13 0.585077 0.972427 0.724886
O O14 0.156256 0.307842 0.066586
O O15 0.000000 0.000000 0.500000
#
# Coordination Sequence:
#
# PCOD9004493 Si02
#       7
#     2   2   2   2   2   2   2
#     4  10  23  39  66 102 139 176 224 285 337 409
#     4  10  23  44  68 100 136 178 230 279 336 407
#     4  10  24  45  72  95 140 183 228 283 339 400
#     4  11  25  45  69 102 141 179 228 282 341 405
#     4   9  21  41  64  98 134 176 225 282 334 401
#     4  10  21  37  68 103 133 173 228 276 339 406
#     4  10  22  43  69  97 140 178 225 285 346 401
#
# _framework density 27.082813999999999
#
# number of rings (size 3 to 8) (size 9 to 14) (size 15 to 20)
#    0.000    2.000    0.000    1.286   10.000    7.429 
#    0.000    5.000    0.000    0.000    0.000    0.000 
#    0.000    0.000    0.000    0.000    0.000    0.000 
#
# Total GULP energy -78455.104369 kJ/mol
# GULP energy per Si atom -5603.936026 kJ/mol
# Density = 2.702117 g / cm^3
# Si number density = 27.082814 Si / 1000 Ang^3
#
#
#
# Elastic Constant Matrix: (Units=GPa)
#
#
# Indices 1 2 3 4 5 6 
#
# 1 127.0368 34.3573 43.6045 7.6490 5.5435 5.1231
# 2 34.3573 114.5803 41.3522 -14.6865 10.1370 -13.0343
# 3 43.6045 41.3522 127.5523 -26.4018 26.8245 -1.0709
# 4 7.6490 -14.6865 -26.4018 51.8258 15.9158 3.0581
# 5 5.5435 10.1370 26.8245 15.9158 39.3205 2.2965
# 6 5.1231 -13.0343 -1.0709 3.0581 2.2965 40.5322
#
#
#
# Elastic Compliance Matrix: (Units=1/GPa)
#
#
# Indices 1 2 3 4 5 6 
#
# 1 0.010754 -0.002926 -0.005369 -0.006794 0.005783 -0.002257
# 2 -0.002926 0.011246 -0.001028 0.003980 -0.003622 0.003864
# 3 -0.005369 -0.001028 0.015989 0.013311 -0.015311 0.000634
# 4 -0.006794 0.003980 0.013311 0.035365 -0.023531 0.001155
# 5 0.005783 -0.003622 -0.015311 -0.023531 0.045702 -0.003114
# 6 -0.002257 0.003864 0.000634 0.001155 -0.003114 0.026306
#
#
# Mechanical properties :
#
#
# Convention : Reuss Voigt Hill
#
# Bulk Modulus (GPa) = 51.69857 67.53305 59.61581
# Shear Modulus (GPa) = 29.33322 42.99274 36.16298
#
# Velocity S-wave (km/s) = 3.29461 3.98861 3.65810
# Velocity P-wave (km/s) = 5.79682 6.79720 6.31684
#
# Compressibility (1/GPa) = 0.01934289
#
# Stress axis : x y z
#
# Youngs Moduli (GPa) = 92.99067 88.92117 62.54306
#
# Poissons Ratio (x) = 0.26019 0.33580
# Poissons Ratio (y) = 0.27210 0.06427
# Poissons Ratio (z) = 0.49927 0.09138
#
# Static dielectric constant tensor:
#      x y z
#    x 2.141730 0.036480 0.012300 
#    y 0.036480 2.020140 -0.013000 
#    z 0.012300 -0.013000 2.115470 
# 
# From -- ./inp_files/515725.got.cif
#   From: 2010.05.17/outbox.cif.g08.bks.cpg/sg2_258_cif.got.tgz:515725.got - 2010.06.03 11:33:40.
