data_PCOD9004700
_publ_section_title
;
Structure prediction by ZEFSAII (Michael W. Deem and Ramdas Pophale) SiO2 
 PCOD9004700
Probable space group: P -1
;
_chemical_formula_sum "Si O2"
_cell_formula_units_Z 15
_cell_length_a 12.642721
_cell_length_b 12.153412
_cell_length_c 15.231937
_cell_angle_alpha 71.323599
_cell_angle_beta 18.145822
_cell_angle_gamma 71.009178
_cell_volume 688.739179
_symmetry_space_group_name_H-M "P -1"
_symmetry_group_IT_number 2
_symmetry_cell_setting 'triclinic'
loop_
_space_group_symop_operation_xyz
x,y,z
-x,-y,-z
loop_
_atom_site_type_symbol
_atom_site_label
_atom_site_fract_x
_atom_site_fract_y
_atom_site_fract_z
Si Si1 0.253971 0.119313 0.162616
Si Si2 0.812954 0.387607 0.065136
Si Si3 0.733502 0.780126 0.500792
Si Si4 0.548456 0.899081 0.174618
Si Si5 0.175289 0.592596 0.740834
Si Si6 0.392443 0.207501 0.668654
Si Si7 0.470646 0.831160 0.885745
Si Si8 0.500000 0.000000 0.500000
O O1 0.341334 0.187175 0.164660
O O2 0.858101 0.093990 0.489185
O O3 0.354535 0.165547 0.976097
O O4 0.500000 0.000000 0.000000
O O5 0.460986 0.335019 0.335596
O O6 0.874330 0.386824 0.121887
O O7 0.875967 0.520132 0.955623
O O8 0.104167 0.291354 0.827222
O O9 0.692273 0.807137 0.630318
O O10 0.561617 0.889360 0.552978
O O11 0.129438 0.765182 0.169179
O O12 0.730835 0.839572 0.129438
O O13 0.652293 0.031158 0.054994
O O14 0.500000 0.500000 0.500000
O O15 0.302539 0.710775 0.572003
O O16 0.488482 0.095945 0.563252
#
# Coordination Sequence:
#
# PCOD9004700 Si02
#       8
#     2   2   2   2   2   2   2   1
#     4  10  21  38  58  79 117 159 209 258 289 356
#     4  10  22  39  58  86 121 164 210 249 287 356
#     4  12  24  35  58  85 126 166 197 233 304 366
#     4  11  22  36  60  86 118 161 205 248 309 355
#     4   9  20  40  61  79 119 160 214 254 287 343
#     4  11  23  37  59  89 130 165 199 247 306 365
#     4  11  22  37  55  84 117 163 203 242 301 361
#     4  12  24  36  52  88 140 158 192 230 302 370
#
# _framework density 21.778926999999999
#
# number of rings (size 3 to 8) (size 9 to 14) (size 15 to 20)
#    0.000    1.333    2.667    4.800    5.600    1.067 
#    0.000    0.000    0.000    0.000    0.000    5.600 
#    0.000    0.000    0.000    0.000    0.000    0.000 
#
# Total GULP energy -83537.447228 kJ/mol
# GULP energy per Si atom -5569.163149 kJ/mol
# Density = 2.172936 g / cm^3
# Si number density = 21.778927 Si / 1000 Ang^3
#
#
#
# Elastic Constant Matrix: (Units=GPa)
#
#
# Indices 1 2 3 4 5 6 
#
# 1 106.0636 17.5727 12.6818 -1.2360 23.4317 18.9050
# 2 17.5727 73.5337 6.4350 -12.2833 -0.0102 20.7687
# 3 12.6818 6.4350 87.3455 -5.1552 -1.3118 3.6215
# 4 -1.2360 -12.2833 -5.1552 34.0219 4.9429 -4.6525
# 5 23.4317 -0.0102 -1.3118 4.9429 35.1163 -4.3861
# 6 18.9050 20.7687 3.6215 -4.6525 -4.3861 17.1951
#
#
#
# Elastic Compliance Matrix: (Units=1/GPa)
#
#
# Indices 1 2 3 4 5 6 
#
# 1 0.017006 0.003555 -0.001852 0.000162 -0.014724 -0.026312
# 2 0.003555 0.022489 -0.000689 0.004868 -0.006997 -0.031394
# 3 -0.001852 -0.000689 0.011827 0.001400 0.001626 0.001171
# 4 0.000162 0.004868 0.001400 0.032179 -0.004431 0.001225
# 5 -0.014724 -0.006997 0.001626 -0.004431 0.043247 0.034130
# 6 -0.026312 -0.031394 0.001171 0.001225 0.034130 0.133793
#
#
# Mechanical properties :
#
#
# Convention : Reuss Voigt Hill
#
# Bulk Modulus (GPa) = 18.74437 37.81354 28.27895
# Shear Modulus (GPa) = 18.09652 32.61688 25.35670
#
# Velocity S-wave (km/s) = 2.88569 3.87413 3.41585
# Velocity P-wave (km/s) = 4.44166 6.11653 5.34510
#
# Compressibility (1/GPa) = 0.05334935
#
# Stress axis : x y z
#
# Youngs Moduli (GPa) = 58.80449 44.46634 84.55309
#
# Poissons Ratio (x) = -0.15806 0.15656
# Poissons Ratio (y) = -0.20903 0.05826
# Poissons Ratio (z) = 0.10888 0.03064
#
# Static dielectric constant tensor:
#      x y z
#    x 1.844710 0.007020 0.008240 
#    y 0.007020 1.796020 -0.035230 
#    z 0.008240 -0.035230 1.904470 
# 
# From -- ./inp_files/126632.got.cif
#   From: 2010.05.17/outbox.cif.g08.bks.cpg/sg2_64_cif.got.tgz:126632.got - 2010.06.03 11:33:40.
