data_PCOD9004274
_publ_section_title
;
Structure prediction by ZEFSAII (Michael W. Deem and Ramdas Pophale) SiO2 
 PCOD9004274
Probable space group: P -1
;
_chemical_formula_sum "Si O2"
_cell_formula_units_Z 14
_cell_length_a 12.560962
_cell_length_b 5.034248
_cell_length_c 19.453124
_cell_angle_alpha 124.731485
_cell_angle_beta 43.291311
_cell_angle_gamma 123.549491
_cell_volume 672.121118
_symmetry_space_group_name_H-M "P -1"
_symmetry_group_IT_number 2
_symmetry_cell_setting 'triclinic'
loop_
_space_group_symop_operation_xyz
x,y,z
-x,-y,-z
loop_
_atom_site_type_symbol
_atom_site_label
_atom_site_fract_x
_atom_site_fract_y
_atom_site_fract_z
Si Si1 0.965622 0.108748 0.956343
Si Si2 0.672059 0.965341 0.982439
Si Si3 0.145332 0.851654 0.707798
Si Si4 0.685299 0.222260 0.870823
Si Si5 0.913715 0.316054 0.662821
Si Si6 0.676798 0.723421 0.431245
Si Si7 0.141980 0.835692 0.473826
O O1 0.782000 0.004887 0.002868
O O2 0.069760 0.990761 0.829756
O O3 0.000000 0.500000 0.000000
O O4 0.000000 0.000000 0.000000
O O5 0.666047 0.583776 0.908625
O O6 0.738555 0.203708 0.922025
O O7 0.493604 0.005671 0.084124
O O8 0.212454 0.538496 0.653070
O O9 0.000281 0.692553 0.699311
O O10 0.282258 0.109489 0.638595
O O11 0.815857 0.140303 0.747923
O O12 0.796717 0.240764 0.641180
O O13 0.056529 0.140686 0.554126
O O14 0.500000 0.500000 0.500000
O O15 0.731836 0.032456 0.505349
O O16 0.000000 0.500000 0.500000
#
# Coordination Sequence:
#
# PCOD9004274 Si02
#       7
#     2   2   2   2   2   2   2
#     4  12  25  42  65  93 133 172 225 276 311 397
#     4  10  22  40  62  92 124 161 217 258 329 374
#     4  11  23  42  69  91 121 181 224 259 341 397
#     4  10  21  38  65  91 123 165 203 271 322 387
#     4  10  21  37  65  92 126 163 215 264 327 387
#     4  11  24  44  68  93 135 172 216 272 335 400
#     4  10  21  38  61  98 125 160 215 273 309 386
#
# _framework density 20.829578999999999
#
# number of rings (size 3 to 8) (size 9 to 14) (size 15 to 20)
#    0.000    1.429    2.857    2.143    6.000    0.000 
#    5.143    0.000    0.000    0.000    0.000    0.000 
#    0.000    0.000    0.000    0.000    0.000    0.000 
#
# Total GULP energy -78026.553955 kJ/mol
# GULP energy per Si atom -5573.325283 kJ/mol
# Density = 2.078217 g / cm^3
# Si number density = 20.829579 Si / 1000 Ang^3
#
#
#
# Elastic Constant Matrix: (Units=GPa)
#
#
# Indices 1 2 3 4 5 6 
#
# 1 91.9313 23.7347 37.8084 -4.0268 21.7129 3.2869
# 2 23.7347 92.4684 39.7332 0.1338 21.2521 -4.2344
# 3 37.8084 39.7332 96.5983 -0.6855 25.4336 14.0628
# 4 -4.0268 0.1338 -0.6855 35.9942 -3.7216 2.2157
# 5 21.7129 21.2521 25.4336 -3.7216 28.0604 0.5072
# 6 3.2869 -4.2344 14.0628 2.2157 0.5072 41.7872
#
#
#
# Elastic Compliance Matrix: (Units=1/GPa)
#
#
# Indices 1 2 3 4 5 6 
#
# 1 0.014186 -0.000470 -0.003399 0.000753 -0.007441 0.000031
# 2 -0.000470 0.014575 -0.004486 -0.001091 -0.006810 0.003164
# 3 -0.003399 -0.004486 0.016758 -0.000640 -0.009143 -0.005682
# 4 0.000753 -0.001091 -0.000640 0.028430 0.004622 -0.001518
# 5 -0.007441 -0.006810 -0.009143 0.004622 0.055416 0.002055
# 6 0.000031 0.003164 -0.005682 -0.001518 0.002055 0.026217
#
#
# Mechanical properties :
#
#
# Convention : Reuss Voigt Hill
#
# Bulk Modulus (GPa) = 34.71294 53.72785 44.22039
# Shear Modulus (GPa) = 27.48843 33.14981 30.31912
#
# Velocity S-wave (km/s) = 3.63668 3.99366 3.81935
# Velocity P-wave (km/s) = 5.85964 6.86409 6.38166
#
# Compressibility (1/GPa) = 0.02880771
#
# Stress axis : x y z
#
# Youngs Moduli (GPa) = 70.49031 68.61287 59.67376
#
# Poissons Ratio (x) = 0.03227 0.20283
# Poissons Ratio (y) = 0.03315 0.26770
# Poissons Ratio (z) = 0.23960 0.30780
#
# Static dielectric constant tensor:
#      x y z
#    x 1.807590 -0.011250 0.017820 
#    y -0.011250 1.768130 -0.033310 
#    z 0.017820 -0.033310 1.775000 
# 
# From -- ./inp_files/563937.got.cif
#   From: 2010.05.17/outbox.cif.g08.bks.cpg/sg2_282_cif.got.tgz:563937.got - 2010.06.03 11:33:40.
