data_PCOD9004108
_publ_section_title
;
Structure prediction by ZEFSAII (Michael W. Deem and Ramdas Pophale) SiO2 
 PCOD9004108
Probable space group: P -1
;
_chemical_formula_sum "Si O2"
_cell_formula_units_Z 16
_cell_length_a 11.938651
_cell_length_b 7.378211
_cell_length_c 12.278355
_cell_angle_alpha 115.644589
_cell_angle_beta 47.218903
_cell_angle_gamma 93.144926
_cell_volume 667.261671
_symmetry_space_group_name_H-M "P -1"
_symmetry_group_IT_number 2
_symmetry_cell_setting 'triclinic'
loop_
_space_group_symop_operation_xyz
x,y,z
-x,-y,-z
loop_
_atom_site_type_symbol
_atom_site_label
_atom_site_fract_x
_atom_site_fract_y
_atom_site_fract_z
Si Si1 0.511525 0.719932 0.592439
Si Si2 0.974000 0.507902 0.736686
Si Si3 0.196496 0.208493 0.697149
Si Si4 0.716626 0.613368 0.648239
Si Si5 0.180844 0.849685 0.470800
Si Si6 0.789376 0.997154 0.749398
Si Si7 0.248291 0.180683 0.899524
Si Si8 0.349414 0.536030 0.028544
O O1 0.500000 0.500000 0.500000
O O2 0.632298 0.772913 0.442740
O O3 0.592675 0.684631 0.648805
O O4 0.349528 0.929766 0.761777
O O5 0.824604 0.431470 0.787723
O O6 0.063410 0.370535 0.746817
O O7 0.102986 0.465494 0.546247
O O8 0.887891 0.751405 0.898052
O O9 0.166260 0.249563 0.854464
O O10 0.208895 0.973345 0.590098
O O11 0.710459 0.399577 0.650060
O O12 0.712118 0.815905 0.776690
O O13 0.228907 0.951061 0.356158
O O14 0.984743 0.905395 0.612980
O O15 0.695627 0.224765 0.930225
O O16 0.356387 0.330954 0.896294
O O17 0.500000 0.500000 0.000000
#
# Coordination Sequence:
#
# PCOD9004108 Si02
#       8
#     2   2   2   2   2   2   2   2
#     4  11  23  42  62  92 134 167 214 274 325 387
#     4   9  20  38  62  93 130 165 212 273 322 376
#     4  11  20  42  67  95 123 169 230 264 318 394
#     4  11  22  40  65  97 129 168 226 267 314 385
#     4  11  21  36  70  94 122 168 220 276 310 368
#     4  11  20  40  63  96 129 167 224 262 314 384
#     4  10  22  39  65  92 129 173 213 265 334 381
#     4  10  21  37  64  90 132 173 205 264 338 379
#
# _framework density 23.9786
#
# number of rings (size 3 to 8) (size 9 to 14) (size 15 to 20)
#    0.750    0.750    3.750    3.375    0.000    0.000 
#    0.000    8.125    0.000    2.250    0.000    0.000 
#    0.000    0.000    0.000    0.000    0.000    0.000 
#
# Total GULP energy -89490.868706 kJ/mol
# GULP energy per Si atom -5593.179294 kJ/mol
# Density = 2.392402 g / cm^3
# Si number density = 23.978600 Si / 1000 Ang^3
#
#
#
# Elastic Constant Matrix: (Units=GPa)
#
#
# Indices 1 2 3 4 5 6 
#
# 1 79.3465 19.7884 14.2556 4.3298 15.4402 8.6454
# 2 19.7884 74.5572 24.3919 30.5294 8.7441 5.4668
# 3 14.2556 24.3919 97.0828 29.7329 9.4401 3.6479
# 4 4.3298 30.5294 29.7329 48.3410 6.1103 6.7672
# 5 15.4402 8.7441 9.4401 6.1103 39.5315 9.2924
# 6 8.6454 5.4668 3.6479 6.7672 9.2924 29.9886
#
#
#
# Elastic Compliance Matrix: (Units=1/GPa)
#
#
# Indices 1 2 3 4 5 6 
#
# 1 0.014862 -0.003976 -0.001605 0.003100 -0.004385 -0.002705
# 2 -0.003976 0.019463 -0.000730 -0.011446 -0.000940 0.000561
# 3 -0.001605 -0.000730 0.013092 -0.007421 -0.001456 0.001129
# 4 0.003100 -0.011446 -0.007421 0.033019 -0.000811 -0.005104
# 5 -0.004385 -0.000940 -0.001456 -0.000811 0.029410 -0.007317
# 6 -0.002705 0.000561 0.001129 -0.005104 -0.007317 0.037305
#
#
# Mechanical properties :
#
#
# Convention : Reuss Voigt Hill
#
# Bulk Modulus (GPa) = 28.74067 40.87316 34.80692
# Shear Modulus (GPa) = 29.17644 36.40892 32.79268
#
# Velocity S-wave (km/s) = 3.49201 3.90088 3.70209
# Velocity P-wave (km/s) = 5.31703 6.11325 5.72899
#
# Compressibility (1/GPa) = 0.03479390
#
# Stress axis : x y z
#
# Youngs Moduli (GPa) = 67.28651 51.38013 76.38456
#
# Poissons Ratio (x) = 0.20430 0.12257
# Poissons Ratio (y) = 0.26755 0.05578
# Poissons Ratio (z) = 0.10797 0.03752
#
# Static dielectric constant tensor:
#      x y z
#    x 1.915310 0.011280 0.003430 
#    y 0.011280 1.972090 0.023620 
#    z 0.003430 0.023620 1.972300 
# 
# From -- ./inp_files/513669.got.cif
#   From: 2010.05.17/outbox.cif.g08.bks.cpg/sg2_257_cif.got.tgz:513669.got - 2010.06.03 11:33:40.
