data_PCOD9004494
_publ_section_title
;
Structure prediction by ZEFSAII (Michael W. Deem and Ramdas Pophale) SiO2 
 PCOD9004494
Probable space group: P -1
;
_chemical_formula_sum "Si O2"
_cell_formula_units_Z 14
_cell_length_a 8.959910
_cell_length_b 9.433712
_cell_length_c 21.217158
_cell_angle_alpha 28.122697
_cell_angle_beta 48.098028
_cell_angle_gamma 49.674893
_cell_volume 620.479356
_symmetry_space_group_name_H-M "P -1"
_symmetry_group_IT_number 2
_symmetry_cell_setting 'triclinic'
loop_
_space_group_symop_operation_xyz
x,y,z
-x,-y,-z
loop_
_atom_site_type_symbol
_atom_site_label
_atom_site_fract_x
_atom_site_fract_y
_atom_site_fract_z
Si Si1 0.534119 0.199569 0.152751
Si Si2 0.724428 0.076278 0.904878
Si Si3 0.866896 0.499709 0.806383
Si Si4 0.085265 0.594194 0.027378
Si Si5 0.091878 0.886477 0.289320
Si Si6 0.299342 0.480979 0.638657
Si Si7 0.280450 0.391879 0.529058
O O1 0.321540 0.224119 0.239131
O O2 0.606103 0.870255 0.230929
O O3 0.500000 0.500000 0.000000
O O4 0.728979 0.267096 0.110014
O O5 0.784176 0.280165 0.865417
O O6 0.777443 0.225717 0.765669
O O7 0.500000 0.000000 0.000000
O O8 0.879370 0.759223 0.990897
O O9 0.912646 0.337951 0.924822
O O10 0.080357 0.583399 0.690887
O O11 0.115160 0.233664 0.156451
O O12 0.177244 0.685575 0.403392
O O13 0.858936 0.853050 0.355329
O O14 0.268124 0.456990 0.581664
O O15 0.478425 0.671538 0.528152
#
# Coordination Sequence:
#
# PCOD9004494 Si02
#       7
#     2   2   2   2   2   2   2
#     4  10  21  37  68 104 134 165 217 281 339 393
#     4  12  25  40  69 102 140 171 219 288 350 403
#     4  11  23  41  69 104 132 172 229 272 335 408
#     4  11  23  42  68 101 139 173 220 283 347 406
#     4  11  23  45  66  96 136 183 223 273 350 391
#     4  11  22  44  69  98 131 183 232 274 331 390
#     4  10  23  42  72  87 136 193 226 269 327 406
#
# _framework density 22.563200999999999
#
# number of rings (size 3 to 8) (size 9 to 14) (size 15 to 20)
#    0.000    1.143    2.857    3.429    4.000    1.143 
#    0.000    7.143    3.143    0.000    0.000    0.000 
#    0.000    0.000    0.000    0.000    0.000    0.000 
#
# Total GULP energy -78260.564631 kJ/mol
# GULP energy per Si atom -5590.040331 kJ/mol
# Density = 2.251185 g / cm^3
# Si number density = 22.563201 Si / 1000 Ang^3
#
#
#
# Elastic Constant Matrix: (Units=GPa)
#
#
# Indices 1 2 3 4 5 6 
#
# 1 126.9701 33.9500 37.7706 25.3166 -24.2651 -21.1066
# 2 33.9500 81.7485 18.6010 24.7581 -18.9167 -23.0769
# 3 37.7706 18.6010 63.2752 18.8534 -12.8310 -4.2943
# 4 25.3166 24.7581 18.8534 34.3771 -10.4041 -16.8909
# 5 -24.2651 -18.9167 -12.8310 -10.4041 63.5011 16.5540
# 6 -21.1066 -23.0769 -4.2943 -16.8909 16.5540 54.6749
#
#
#
# Elastic Compliance Matrix: (Units=1/GPa)
#
#
# Indices 1 2 3 4 5 6 
#
# 1 0.010924 -0.001706 -0.004684 -0.002868 0.001808 0.001696
# 2 -0.001706 0.017059 -0.000884 -0.008314 0.002032 0.003289
# 3 -0.004684 -0.000884 0.021698 -0.009155 0.001838 -0.003862
# 4 -0.002868 -0.008314 -0.009155 0.046644 -0.000158 0.009123
# 5 0.001808 0.002032 0.001838 -0.000158 0.018412 -0.003924
# 6 0.001696 0.003289 -0.003862 0.009123 -0.003924 0.024036
#
#
# Mechanical properties :
#
#
# Convention : Reuss Voigt Hill
#
# Bulk Modulus (GPa) = 28.46212 50.29301 39.37756
# Shear Modulus (GPa) = 30.29737 42.62209 36.45973
#
# Velocity S-wave (km/s) = 3.66837 4.35099 4.02418
# Velocity P-wave (km/s) = 5.53031 6.89780 6.25156
#
# Compressibility (1/GPa) = 0.03513442
#
# Stress axis : x y z
#
# Youngs Moduli (GPa) = 91.53806 58.62178 46.08700
#
# Poissons Ratio (x) = 0.09998 0.21585
# Poissons Ratio (y) = 0.15612 0.04075
# Poissons Ratio (z) = 0.42872 0.05184
#
# Static dielectric constant tensor:
#      x y z
#    x 1.876350 -0.001260 0.002930 
#    y -0.001260 1.856150 0.033470 
#    z 0.002930 0.033470 1.865720 
# 
# From -- ./inp_files/499348.got.cif
#   From: 2010.05.17/outbox.cif.g08.bks.cpg/sg2_250_cif.got.tgz:499348.got - 2010.06.03 11:33:40.
