data_PCOD9004639
_publ_section_title
;
Structure prediction by ZEFSAII (Michael W. Deem and Ramdas Pophale) SiO2 
 PCOD9004639
Probable space group: P -1
;
_chemical_formula_sum "Si O2"
_cell_formula_units_Z 14
_cell_length_a 8.160072
_cell_length_b 5.334231
_cell_length_c 16.826165
_cell_angle_alpha 73.040583
_cell_angle_beta 116.052783
_cell_angle_gamma 103.994385
_cell_volume 623.835005
_symmetry_space_group_name_H-M "P -1"
_symmetry_group_IT_number 2
_symmetry_cell_setting 'triclinic'
loop_
_space_group_symop_operation_xyz
x,y,z
-x,-y,-z
loop_
_atom_site_type_symbol
_atom_site_label
_atom_site_fract_x
_atom_site_fract_y
_atom_site_fract_z
Si Si1 0.664719 0.839006 0.023531
Si Si2 0.171285 0.622372 0.251898
Si Si3 0.580683 0.833950 0.696589
Si Si4 0.914559 0.636851 0.587448
Si Si5 0.238671 0.821714 0.515773
Si Si6 0.502465 0.467483 0.139072
Si Si7 0.132363 0.706063 0.060649
O O1 0.674322 0.649271 0.119167
O O2 0.590722 0.685780 0.942789
O O3 0.500000 0.000000 0.000000
O O4 0.838700 0.029606 0.010331
O O5 0.302374 0.395844 0.284563
O O6 0.045525 0.498536 0.308679
O O7 0.078025 0.679546 0.143511
O O8 0.289663 0.896955 0.278948
O O9 0.436343 0.876158 0.593651
O O10 0.474378 0.724892 0.765086
O O11 0.781225 0.412379 0.531532
O O12 0.093356 0.716280 0.563939
O O13 0.823891 0.905874 0.554414
O O14 0.342746 0.637494 0.116318
O O15 0.000000 0.500000 0.000000
#
# Coordination Sequence:
#
# PCOD9004639 Si02
#       7
#     2   2   2   2   2   2   2
#     4   9  17  36  57  77 112 156 193 247 287 344
#     4  11  23  40  61  90 125 154 200 256 295 358
#     4  11  22  39  63  92 119 157 204 245 300 352
#     4  10  22  42  60  90 125 154 195 244 310 353
#     4  10  22  41  65  86 121 160 195 247 295 371
#     4   9  19  36  57  82 115 153 198 248 286 347
#     4  10  21  38  56  84 120 160 196 244 305 349
#
# _framework density 22.441834
#
# number of rings (size 3 to 8) (size 9 to 14) (size 15 to 20)
#    0.000    2.000    1.429    1.714    0.000    4.000 
#    7.714    2.857    0.000    0.000    0.000    0.000 
#    0.000    0.000    0.000    0.000    0.000    0.000 
#
# Total GULP energy -78173.662153 kJ/mol
# GULP energy per Si atom -5583.833011 kJ/mol
# Density = 2.239076 g / cm^3
# Si number density = 22.441834 Si / 1000 Ang^3
#
#
#
# Elastic Constant Matrix: (Units=GPa)
#
#
# Indices 1 2 3 4 5 6 
#
# 1 48.3782 1.3927 6.7917 -19.3005 -4.5169 7.7406
# 2 1.3927 83.4979 -16.7982 -14.1050 25.2455 0.8647
# 3 6.7917 -16.7982 57.5776 -23.7694 16.8396 8.3589
# 4 -19.3005 -14.1050 -23.7694 35.6908 11.8180 -8.7247
# 5 -4.5169 25.2455 16.8396 11.8180 23.0500 -4.5769
# 6 7.7406 0.8647 8.3589 -8.7247 -4.5769 37.4089
#
#
#
# Elastic Compliance Matrix: (Units=1/GPa)
#
#
# Indices 1 2 3 4 5 6 
#
# 1 0.024388 -0.004123 -0.005431 0.003958 0.010941 -0.001476
# 2 -0.004123 -0.001653 -0.015637 -0.020438 0.023398 0.002482
# 3 -0.005431 -0.015637 -0.006747 -0.024458 0.033814 0.001426
# 4 0.003958 -0.020438 -0.024458 -0.007429 0.046643 0.009093
# 5 0.010941 0.023398 0.033814 0.046643 -0.029327 -0.003070
# 6 -0.001476 0.002482 0.001426 0.009093 -0.003070 0.028406
#
#
# Mechanical properties :
#
#
# Convention : Reuss Voigt Hill
#
# Bulk Modulus (GPa) = -29.07389 19.13622 -4.96884
# Shear Modulus (GPa) = 107.39622 32.43444 69.91533
#
# Velocity S-wave (km/s) = 6.92526 3.80579 5.58763
# Velocity P-wave (km/s) = 7.13879 5.27803 6.27774
#
# Compressibility (1/GPa) = -0.03439512
#
# Stress axis : x y z
#
# Youngs Moduli (GPa) = 41.00309 -604.82128 -148.21364
#
# Poissons Ratio (x) = -2.49394 -0.80499
# Poissons Ratio (y) = 0.16907 -2.31760
# Poissons Ratio (z) = 0.22270 -9.45750
#
# Static dielectric constant tensor:
#      x y z
#    x 1.775550 0.018690 -0.069540 
#    y 0.018690 1.791180 -0.004540 
#    z -0.069540 -0.004540 1.788070 
# 
# From -- ./inp_files/34328.got.cif
#   From: 2010.05.17/outbox.cif.g08.bks.cpg/sg2_18_cif.got.tgz:34328.got - 2010.06.03 11:33:40.
