data_PCOD9004862
_publ_section_title
;
Structure prediction by ZEFSAII (Michael W. Deem and Ramdas Pophale) SiO2 
 PCOD9004862
Probable space group: P -1
;
_chemical_formula_sum "Si O2"
_cell_formula_units_Z 14
_cell_length_a 6.872379
_cell_length_b 25.551586
_cell_length_c 7.201480
_cell_angle_alpha 41.700644
_cell_angle_beta 95.152795
_cell_angle_gamma 122.906290
_cell_volume 582.527125
_symmetry_space_group_name_H-M "P -1"
_symmetry_group_IT_number 2
_symmetry_cell_setting 'triclinic'
loop_
_space_group_symop_operation_xyz
x,y,z
-x,-y,-z
loop_
_atom_site_type_symbol
_atom_site_label
_atom_site_fract_x
_atom_site_fract_y
_atom_site_fract_z
Si Si1 0.919790 0.544054 0.644257
Si Si2 0.202872 0.147923 0.680558
Si Si3 0.932715 0.716731 0.182367
Si Si4 0.731427 0.985400 0.784802
Si Si5 0.241970 0.951554 0.777159
Si Si6 0.324670 0.353989 0.042151
Si Si7 0.705071 0.489893 0.191899
O O1 0.075733 0.672358 0.315308
O O2 0.784717 0.502405 0.949499
O O3 0.107699 0.524475 0.665237
O O4 0.639269 0.466233 0.702293
O O5 0.342660 0.273947 0.353417
O O6 0.960785 0.080277 0.994671
O O7 0.383528 0.125248 0.823865
O O8 0.037703 0.086218 0.636734
O O9 0.623627 0.620053 0.506081
O O10 0.103515 0.833758 0.986022
O O11 0.874599 0.715747 0.964978
O O12 0.534628 0.004910 0.744154
O O13 0.265121 0.018441 0.429347
O O14 0.226241 0.401398 0.025131
#
# Coordination Sequence:
#
# PCOD9004862 Si02
#       7
#     2   2   2   2   2   2   2
#     4  10  21  38  59  87 120 154 209 245 298 368
#     4  11  22  42  65  91 123 161 202 256 305 363
#     4  11  22  37  59  88 123 160 201 248 303 364
#     4  10  24  42  64  92 120 158 210 252 310 360
#     4  11  22  42  65  91 123 161 202 256 305 363
#     4  11  22  37  59  88 123 160 201 248 303 364
#     4  10  21  38  59  87 118 162 199 252 300 358
#
# _framework density 24.033215999999999
#
# number of rings (size 3 to 8) (size 9 to 14) (size 15 to 20)
#    0.000    1.429    1.429    6.000    0.000    6.857 
#    0.000    0.000    0.000    0.000    0.000    0.000 
#    0.000    0.000    0.000    0.000    0.000    0.000 
#
# Total GULP energy -78257.779743 kJ/mol
# GULP energy per Si atom -5589.841410 kJ/mol
# Density = 2.397852 g / cm^3
# Si number density = 24.033216 Si / 1000 Ang^3
#
#
#
# Elastic Constant Matrix: (Units=GPa)
#
#
# Indices 1 2 3 4 5 6 
#
# 1 120.7769 39.7114 25.6609 0.4131 35.1515 -3.5902
# 2 39.7114 76.2381 26.1764 -4.7998 19.3321 -0.5577
# 3 25.6609 26.1764 84.4251 -0.4995 31.5584 -7.3214
# 4 0.4131 -4.7998 -0.4995 40.9318 -6.8144 9.8178
# 5 35.1515 19.3321 31.5584 -6.8144 46.3245 4.4515
# 6 -3.5902 -0.5577 -7.3214 9.8178 4.4515 35.6649
#
#
#
# Elastic Compliance Matrix: (Units=1/GPa)
#
#
# Indices 1 2 3 4 5 6 
#
# 1 0.012295 -0.004749 0.001404 -0.002991 -0.009071 0.003407
# 2 -0.004749 0.017155 -0.003828 0.002315 -0.000455 -0.001576
# 3 0.001404 -0.003828 0.017969 -0.003944 -0.012911 0.006467
# 4 -0.002991 0.002315 -0.003944 0.028635 0.009174 -0.010102
# 5 -0.009071 -0.000455 -0.012911 0.009174 0.039869 -0.011072
# 6 0.003407 -0.001576 0.006467 -0.010102 -0.011072 0.033848
#
#
# Mechanical properties :
#
#
# Convention : Reuss Voigt Hill
#
# Bulk Modulus (GPa) = 30.23751 51.61529 40.92640
# Shear Modulus (GPa) = 28.54857 37.24365 32.89611
#
# Velocity S-wave (km/s) = 3.45030 3.94086 3.70371
# Velocity P-wave (km/s) = 5.33682 6.49850 5.94610
#
# Compressibility (1/GPa) = 0.03307150
#
# Stress axis : x y z
#
# Youngs Moduli (GPa) = 81.33596 58.29278 55.65281
#
# Poissons Ratio (x) = 0.27686 -0.07816
# Poissons Ratio (y) = 0.38630 0.21305
# Poissons Ratio (z) = -0.11423 0.22316
#
# Static dielectric constant tensor:
#      x y z
#    x 1.943070 0.036580 0.052860 
#    y 0.036580 1.955750 0.042910 
#    z 0.052860 0.042910 1.975640 
# 
# From -- ./inp_files/143245.got.cif
#   From: 2010.05.17/outbox.cif.g08.bks.cpg/sg2_72_cif.got.tgz:143245.got - 2010.06.03 11:33:40.
