data_PCOD9004301
_publ_section_title
;
Structure prediction by ZEFSAII (Michael W. Deem and Ramdas Pophale) SiO2 
 PCOD9004301
Probable space group: P -1
;
_chemical_formula_sum "Si O2"
_cell_formula_units_Z 15
_cell_length_a 5.327093
_cell_length_b 25.249431
_cell_length_c 9.303452
_cell_angle_alpha 150.988276
_cell_angle_beta 77.602363
_cell_angle_gamma 108.484922
_cell_volume 570.237333
_symmetry_space_group_name_H-M "P -1"
_symmetry_group_IT_number 2
_symmetry_cell_setting 'triclinic'
loop_
_space_group_symop_operation_xyz
x,y,z
-x,-y,-z
loop_
_atom_site_type_symbol
_atom_site_label
_atom_site_fract_x
_atom_site_fract_y
_atom_site_fract_z
Si Si1 0.500000 0.500000 0.500000
Si Si2 0.081885 0.632300 0.515714
Si Si3 0.095305 0.384593 0.025167
Si Si4 0.662420 0.277417 0.027477
Si Si5 0.641504 0.633644 0.334754
Si Si6 0.399579 0.083695 0.009569
Si Si7 0.731070 0.961016 0.532100
Si Si8 0.865619 0.075432 0.079280
O O1 0.310999 0.421200 0.211364
O O2 0.550137 0.386876 0.303881
O O3 0.010028 0.499755 0.263766
O O4 0.129160 0.709653 0.835368
O O5 0.378528 0.668165 0.497189
O O6 0.855378 0.640362 0.451790
O O7 0.838235 0.293563 0.900882
O O8 0.212739 0.333887 0.757460
O O9 0.431083 0.163812 0.784541
O O10 0.500000 0.500000 0.000000
O O11 0.522043 0.039708 0.750675
O O12 0.650988 0.140444 0.212516
O O13 0.166583 0.143339 0.161921
O O14 0.227862 0.978387 0.881877
O O15 0.806525 0.974957 0.726323
O O16 0.000000 0.000000 0.500000
#
# Coordination Sequence:
#
# PCOD9004301 Si02
#       8
#     1   2   2   2   2   2   2   2
#     4  10  22  38  64  96 136 170 228 276 350 408
#     4  10  22  39  61  95 136 175 218 278 347 410
#     4  10  22  36  64  91 128 176 226 277 337 411
#     4  11  25  39  65  97 137 189 228 290 343 420
#     4  10  21  37  65  94 131 175 223 275 344 408
#     4   8  16  35  64  90 124 160 216 277 340 402
#     4  10  22  41  64  97 133 179 232 289 348 408
#     4   8  16  35  63  93 120 162 212 278 339 404
#
# _framework density 26.304838
#
# number of rings (size 3 to 8) (size 9 to 14) (size 15 to 20)
#    0.800    1.600    0.000    3.200   13.067    1.600 
#    0.000    2.667    5.867    0.000    0.000    0.000 
#    0.000    0.000    0.000    0.000    0.000    0.000 
#
# Total GULP energy -83644.365219 kJ/mol
# GULP energy per Si atom -5576.291015 kJ/mol
# Density = 2.624497 g / cm^3
# Si number density = 26.304838 Si / 1000 Ang^3
#
#
#
# Elastic Constant Matrix: (Units=GPa)
#
#
# Indices 1 2 3 4 5 6 
#
# 1 181.2033 80.6508 44.5612 -2.5877 38.9262 14.9793
# 2 80.6508 159.1416 59.3293 -10.8401 10.8598 35.9390
# 3 44.5612 59.3293 126.4547 -7.7342 16.9509 7.3605
# 4 -2.5877 -10.8401 -7.7342 21.6931 0.6236 8.4641
# 5 38.9262 10.8598 16.9509 0.6236 34.9518 -7.9827
# 6 14.9793 35.9390 7.3605 8.4641 -7.9827 71.0352
#
#
#
# Elastic Compliance Matrix: (Units=1/GPa)
#
#
# Indices 1 2 3 4 5 6 
#
# 1 0.009362 -0.003797 -0.000207 -0.000169 -0.009387 -0.001066
# 2 -0.003797 0.010833 -0.003281 0.005657 0.001240 -0.004875
# 3 -0.000207 -0.003281 0.010144 0.002063 -0.003708 -0.000010
# 4 -0.000169 0.005657 0.002063 0.053748 -0.005836 -0.010100
# 5 -0.009387 0.001240 -0.003708 -0.005836 0.042221 0.007176
# 6 -0.001066 -0.004875 -0.000010 -0.010100 0.007176 0.018780
#
#
# Mechanical properties :
#
#
# Convention : Reuss Voigt Hill
#
# Bulk Modulus (GPa) = 63.42108 92.87578 78.14843
# Shear Modulus (GPa) = 30.31864 44.35325 37.33594
#
# Velocity S-wave (km/s) = 3.39866 4.11070 3.77152
# Velocity P-wave (km/s) = 6.28996 7.61017 6.98134
#
# Compressibility (1/GPa) = 0.01576763
#
# Stress axis : x y z
#
# Youngs Moduli (GPa) = 106.81495 92.31198 98.57809
#
# Poissons Ratio (x) = 0.35054 0.02045
# Poissons Ratio (y) = 0.40562 0.32342
# Poissons Ratio (z) = 0.02216 0.30286
#
# Static dielectric constant tensor:
#      x y z
#    x 2.278580 -0.025160 -0.034070 
#    y -0.025160 2.148280 0.058450 
#    z -0.034070 0.058450 2.056790 
# 
# From -- ./inp_files/142419.got.cif
#   From: 2010.05.17/outbox.cif.g08.bks.cpg/sg2_72_cif.got.tgz:142419.got - 2010.06.03 11:33:40.
