data_PCOD9004359
_publ_section_title
;
Structure prediction by ZEFSAII (Michael W. Deem and Ramdas Pophale) SiO2 
 PCOD9004359
Probable space group: P -1
;
_chemical_formula_sum "Si O2"
_cell_formula_units_Z 16
_cell_length_a 10.047832
_cell_length_b 18.158890
_cell_length_c 11.245210
_cell_angle_alpha 27.284807
_cell_angle_beta 41.036806
_cell_angle_gamma 36.834577
_cell_volume 556.938072
_symmetry_space_group_name_H-M "P -1"
_symmetry_group_IT_number 2
_symmetry_cell_setting 'triclinic'
loop_
_space_group_symop_operation_xyz
x,y,z
-x,-y,-z
loop_
_atom_site_type_symbol
_atom_site_label
_atom_site_fract_x
_atom_site_fract_y
_atom_site_fract_z
Si Si1 0.064619 0.079124 0.726624
Si Si2 0.483544 0.751336 0.904605
Si Si3 0.290843 0.569248 0.636757
Si Si4 0.204689 0.538903 0.353133
Si Si5 0.267730 0.044010 0.958460
Si Si6 0.152126 0.794516 0.654021
Si Si7 0.737090 0.759398 0.078602
Si Si8 0.603906 0.691018 0.642198
O O1 0.932127 0.290855 0.485893
O O2 0.941578 0.003021 0.825185
O O3 0.331791 0.964332 0.708786
O O4 0.000000 0.000000 0.000000
O O5 0.668569 0.623429 0.057674
O O6 0.285990 0.682858 0.136568
O O7 0.593898 0.700718 0.774171
O O8 0.500000 0.500000 0.500000
O O9 0.266799 0.687881 0.605448
O O10 0.266960 0.408269 0.611879
O O11 0.311799 0.499714 0.203824
O O12 0.000000 0.500000 0.500000
O O13 0.274541 0.115486 0.981381
O O14 0.255144 0.198884 0.654491
O O15 0.497014 0.874615 0.013150
O O16 0.366222 0.777658 0.611612
O O17 0.000000 0.000000 0.500000
O O18 0.968662 0.716861 0.917074
#
# Coordination Sequence:
#
# PCOD9004359 Si02
#       8
#     2   2   2   2   2   2   2   2
#     4  12  26  48  74  96 134 202 259 287 355 451
#     4  12  24  45  72 101 146 189 249 295 365 440
#     4  12  27  48  74 103 144 198 246 297 363 442
#     4  11  22  36  60 103 147 182 227 295 381 430
#     4  10  21  40  66 107 146 179 233 312 376 422
#     4  12  22  41  75 114 147 184 250 308 366 442
#     4  10  21  37  66 107 146 180 229 309 380 429
#     4  11  22  38  66 110 141 184 229 317 376 422
#
# _framework density 28.728507
#
# number of rings (size 3 to 8) (size 9 to 14) (size 15 to 20)
#    0.000    0.750    3.750    5.625    3.500    0.000 
#    0.000    0.625    0.000    3.750    0.000    0.000 
#    0.000    0.000    0.000    0.000    0.000    0.000 
#
# Total GULP energy -89143.645027 kJ/mol
# GULP energy per Si atom -5571.477814 kJ/mol
# Density = 2.866312 g / cm^3
# Si number density = 28.728507 Si / 1000 Ang^3
#
#
#
# Elastic Constant Matrix: (Units=GPa)
#
#
# Indices 1 2 3 4 5 6 
#
# 1 72.0124 35.5112 37.1872 -19.6943 -4.9845 8.1565
# 2 35.5112 133.0454 73.1759 -5.7697 -2.0464 19.1250
# 3 37.1872 73.1759 109.8474 10.7499 7.6495 -5.1028
# 4 -19.6943 -5.7697 10.7499 61.7241 -7.5167 5.3791
# 5 -4.9845 -2.0464 7.6495 -7.5167 49.6330 5.9303
# 6 8.1565 19.1250 -5.1028 5.3791 5.9303 51.5134
#
#
#
# Elastic Compliance Matrix: (Units=1/GPa)
#
#
# Indices 1 2 3 4 5 6 
#
# 1 0.022680 0.001069 -0.010169 0.010467 0.006288 -0.006812
# 2 0.001069 0.014929 -0.011443 0.004920 0.004168 -0.007839
# 3 -0.010169 -0.011443 0.022137 -0.009964 -0.007605 0.009967
# 4 0.010467 0.004920 -0.009964 0.023292 0.007242 -0.007737
# 5 0.006288 0.004168 -0.007605 0.007242 0.024035 -0.006820
# 6 -0.006812 -0.007839 0.009967 -0.007737 -0.006820 0.025982
#
#
# Mechanical properties :
#
#
# Convention : Reuss Voigt Hill
#
# Bulk Modulus (GPa) = 53.58987 67.40598 60.49792
# Shear Modulus (GPa) = 27.72248 43.84282 35.78265
#
# Velocity S-wave (km/s) = 3.10979 3.91078 3.53306
# Velocity P-wave (km/s) = 5.62039 6.62618 6.14390
#
# Compressibility (1/GPa) = 0.01866024
#
# Stress axis : x y z
#
# Youngs Moduli (GPa) = 44.09219 66.98445 45.17403
#
# Poissons Ratio (x) = -0.07163 0.45937
# Poissons Ratio (y) = -0.04715 0.51692
# Poissons Ratio (z) = 0.44837 0.76650
#
# Static dielectric constant tensor:
#      x y z
#    x 0.875080 0.073160 -0.311430 
#    y 0.073160 2.465230 0.014670 
#    z -0.311430 0.014670 2.225940 
# 
# From -- ./inp_files/438575.got.cif
#   From: 2010.05.17/outbox.cif.g08.bks.cpg/sg2_220_cif.got.tgz:438575.got - 2010.06.03 11:33:40.
