data_PCOD9004606
_publ_section_title
;
Structure prediction by ZEFSAII (Michael W. Deem and Ramdas Pophale) SiO2 
 PCOD9004606
Probable space group: P -1
;
_chemical_formula_sum "Si O2"
_cell_formula_units_Z 16
_cell_length_a 5.085525
_cell_length_b 18.699550
_cell_length_c 11.665491
_cell_angle_alpha 53.508384
_cell_angle_beta 100.844034
_cell_angle_gamma 117.834537
_cell_volume 782.388949
_symmetry_space_group_name_H-M "P -1"
_symmetry_group_IT_number 2
_symmetry_cell_setting 'triclinic'
loop_
_space_group_symop_operation_xyz
x,y,z
-x,-y,-z
loop_
_atom_site_type_symbol
_atom_site_label
_atom_site_fract_x
_atom_site_fract_y
_atom_site_fract_z
Si Si1 0.814252 0.597097 0.415796
Si Si2 0.192740 0.800834 0.951352
Si Si3 0.325116 0.002886 0.658515
Si Si4 0.395584 0.292638 0.854597
Si Si5 0.056256 0.303820 0.208121
Si Si6 0.942507 0.109957 0.498106
Si Si7 0.971688 0.485011 0.702867
Si Si8 0.258855 0.572951 0.865839
O O1 0.500000 0.500000 0.500000
O O2 0.744020 0.688504 0.292922
O O3 0.984969 0.585178 0.551784
O O4 0.961954 0.574432 0.337170
O O5 0.131442 0.747959 0.872132
O O6 0.301120 0.917300 0.825388
O O7 0.428926 0.774256 0.063194
O O8 0.876183 0.753659 0.035120
O O9 0.659714 0.082043 0.582280
O O10 0.139179 0.062440 0.615593
O O11 0.185065 0.945653 0.581454
O O12 0.647519 0.404931 0.799650
O O13 0.389350 0.383853 0.120354
O O14 0.105197 0.224325 0.366297
O O15 0.849274 0.340683 0.226811
O O16 0.203199 0.517109 0.793648
O O17 0.000000 0.500000 0.000000
#
# Coordination Sequence:
#
# PCOD9004606 Si02
#       8
#     2   2   2   2   2   2   2   2
#     4   9  20  36  60  75  99 144 182 238 278 301
#     4  11  20  32  51  78 115 138 179 211 281 324
#     4   9  17  29  50  73  95 141 170 226 259 320
#     4  11  20  33  53  77 107 140 171 226 274 320
#     4  11  23  36  49  76 107 156 181 222 251 317
#     4   9  17  32  49  67 101 134 190 212 260 304
#     4  10  21  38  55  78 105 148 187 226 266 313
#     4  12  25  36  54  77 115 151 190 212 258 317
#
# _framework density 20.450185999999999
#
# number of rings (size 3 to 8) (size 9 to 14) (size 15 to 20)
#    0.000    1.750    1.250    4.125    3.500    4.000 
#    0.000    0.000    0.000    0.000    0.000    0.000 
#    0.000   20.000    0.000    0.000    0.000    0.000 
#
# Total GULP energy -89221.996786 kJ/mol
# GULP energy per Si atom -5576.374799 kJ/mol
# Density = 2.040364 g / cm^3
# Si number density = 20.450186 Si / 1000 Ang^3
#
#
#
# Elastic Constant Matrix: (Units=GPa)
#
#
# Indices 1 2 3 4 5 6 
#
# 1 111.6696 -0.0589 34.9011 -7.9135 7.4682 -3.1661
# 2 -0.0589 2.9310 3.9656 -2.6628 -2.8335 1.1961
# 3 34.9011 3.9656 128.8105 -17.9191 14.4761 1.5586
# 4 -7.9135 -2.6628 -17.9191 19.7748 -1.8187 1.4525
# 5 7.4682 -2.8335 14.4761 -1.8187 44.2360 -2.7091
# 6 -3.1661 1.1961 1.5586 1.4525 -2.7091 11.8357
#
#
#
# Elastic Compliance Matrix: (Units=1/GPa)
#
#
# Indices 1 2 3 4 5 6 
#
# 1 0.009984 0.004250 -0.002534 0.002074 -0.000362 0.002238
# 2 0.004250 0.458251 -0.009849 0.060631 0.031652 -0.044074
# 3 -0.002534 -0.009849 0.010096 0.006688 -0.003392 -0.002609
# 4 0.002074 0.060631 0.006688 0.066946 0.003244 -0.013926
# 5 -0.000362 0.031652 -0.003392 0.003244 0.026105 0.002728
# 6 0.002238 -0.044074 -0.002609 -0.013926 0.002728 0.092220
#
#
# Mechanical properties :
#
#
# Convention : Reuss Voigt Hill
#
# Bulk Modulus (GPa) = 2.16420 35.66962 18.91691
# Shear Modulus (GPa) = 5.99601 28.80952 17.40276
#
# Velocity S-wave (km/s) = 1.71417 3.75742 2.92033
# Velocity P-wave (km/s) = 2.23123 6.02531 4.54328
#
# Compressibility (1/GPa) = 0.46206549
#
# Stress axis : x y z
#
# Youngs Moduli (GPa) = 100.16267 2.18221 99.04646
#
# Poissons Ratio (x) = -0.00927 0.25097
# Poissons Ratio (y) = -0.42569 0.97547
# Poissons Ratio (z) = 0.25380 0.02149
#
# Static dielectric constant tensor:
#      x y z
#    x 1.772620 0.007030 0.040700 
#    y 0.007030 1.759910 -0.021150 
#    z 0.040700 -0.021150 1.798880 
# 
# From -- ./inp_files/369373.got.cif
#   From: 2010.05.17/outbox.cif.g08.bks.cpg/sg2_185_cif.got.tgz:369373.got - 2010.06.03 11:33:40.
