data_PCOD9004231
_publ_section_title
;
Structure prediction by ZEFSAII (Michael W. Deem and Ramdas Pophale) SiO2 
 PCOD9004231
Probable space group: P -1
;
_chemical_formula_sum "Si O2"
_cell_formula_units_Z 16
_cell_length_a 9.036540
_cell_length_b 11.534146
_cell_length_c 14.083706
_cell_angle_alpha 79.863091
_cell_angle_beta 121.466839
_cell_angle_gamma 54.861092
_cell_volume 747.789028
_symmetry_space_group_name_H-M "P -1"
_symmetry_group_IT_number 2
_symmetry_cell_setting 'triclinic'
loop_
_space_group_symop_operation_xyz
x,y,z
-x,-y,-z
loop_
_atom_site_type_symbol
_atom_site_label
_atom_site_fract_x
_atom_site_fract_y
_atom_site_fract_z
Si Si1 0.850556 0.047218 0.294023
Si Si2 0.449852 0.756591 0.644087
Si Si3 0.234629 0.715186 0.921165
Si Si4 0.937771 0.493971 0.352181
Si Si5 0.289592 0.773114 0.135097
Si Si6 0.437643 0.525750 0.364869
Si Si7 0.763679 0.801491 0.673491
Si Si8 0.952937 0.726362 0.412167
O O1 0.661689 0.204258 0.293052
O O2 0.782209 0.149131 0.157937
O O3 0.807289 0.927130 0.300158
O O4 0.175111 0.903889 0.458823
O O5 0.655113 0.547652 0.697962
O O6 0.613012 0.791040 0.693993
O O7 0.946854 0.802074 0.785249
O O8 0.500000 0.500000 0.000000
O O9 0.274432 0.697700 0.049481
O O10 0.599463 0.667631 0.239945
O O11 0.002095 0.598864 0.367585
O O12 0.027152 0.385083 0.299843
O O13 0.121751 0.317281 0.516697
O O14 0.262780 0.726231 0.235379
O O15 0.000000 0.000000 0.000000
O O16 0.500000 0.500000 0.500000
O O17 0.744099 0.383410 0.438287
O O18 0.500000 0.000000 0.500000
#
# Coordination Sequence:
#
# PCOD9004231 Si02
#       8
#     2   2   2   2   2   2   2   2
#     4  10  21  39  65  99 135 179 231 286 353 409
#     4  10  21  37  65 102 129 169 240 299 329 401
#     4  12  25  45  68  95 149 191 223 289 366 422
#     4  10  21  42  62 100 137 177 226 300 346 406
#     4  11  26  43  66  98 138 193 231 273 363 435
#     4  10  21  39  66  94 133 173 228 288 343 406
#     4  12  23  39  71 104 133 179 247 285 342 415
#     4   9  20  36  66  91 131 168 227 295 340 391
#
# _framework density 21.396408999999998
#
# number of rings (size 3 to 8) (size 9 to 14) (size 15 to 20)
#    0.000    1.500    2.500    2.250    7.000    4.000 
#    0.000    4.375    0.000    0.000    0.000    0.000 
#    0.000    0.000    0.000    0.000    0.000    0.000 
#
# Total GULP energy -89141.348822 kJ/mol
# GULP energy per Si atom -5571.334301 kJ/mol
# Density = 2.134771 g / cm^3
# Si number density = 21.396409 Si / 1000 Ang^3
#
#
#
# Elastic Constant Matrix: (Units=GPa)
#
#
# Indices 1 2 3 4 5 6 
#
# 1 83.1433 28.0602 32.1702 -3.2428 -6.3548 18.1307
# 2 28.0602 81.6428 12.8209 -0.0178 -7.9692 14.1008
# 3 32.1702 12.8209 79.8152 -5.8277 -9.3884 11.9438
# 4 -3.2428 -0.0178 -5.8277 35.7259 2.3870 2.2218
# 5 -6.3548 -7.9692 -9.3884 2.3870 36.5082 0.9022
# 6 18.1307 14.1008 11.9438 2.2218 0.9022 36.5361
#
#
#
# Elastic Compliance Matrix: (Units=1/GPa)
#
#
# Indices 1 2 3 4 5 6 
#
# 1 0.016537 -0.003925 -0.005114 0.000930 0.000772 -0.005095
# 2 -0.003925 0.014479 0.000100 -0.000276 0.002613 -0.003721
# 3 -0.005114 0.000100 0.015495 0.002032 0.003052 -0.002765
# 4 0.000930 -0.000276 0.002032 0.028656 -0.001182 -0.002733
# 5 0.000772 0.002613 0.003052 -0.001182 0.029033 -0.003034
# 6 -0.005095 -0.003721 -0.002765 -0.002733 -0.003034 0.032480
#
#
# Mechanical properties :
#
#
# Convention : Reuss Voigt Hill
#
# Bulk Modulus (GPa) = 34.92290 43.41156 39.16723
# Shear Modulus (GPa) = 30.46882 33.19071 31.82977
#
# Velocity S-wave (km/s) = 3.77771 3.94284 3.86115
# Velocity P-wave (km/s) = 5.94856 6.40790 6.18250
#
# Compressibility (1/GPa) = 0.02863451
#
# Stress axis : x y z
#
# Youngs Moduli (GPa) = 60.46989 69.06342 64.53650
#
# Poissons Ratio (x) = 0.27108 0.33002
# Poissons Ratio (y) = 0.23735 -0.00647
# Poissons Ratio (z) = 0.30923 -0.00692
#
# Static dielectric constant tensor:
#      x y z
#    x 1.900280 0.054680 -0.058190 
#    y 0.054680 1.815730 -0.045660 
#    z -0.058190 -0.045660 1.802820 
# 
# From -- ./inp_files/500304.got.cif
#   From: 2010.05.17/outbox.cif.g08.bks.cpg/sg2_251_cif.got.tgz:500304.got - 2010.06.03 11:33:40.
