data_PCOD9004212
_publ_section_title
;
Structure prediction by ZEFSAII (Michael W. Deem and Ramdas Pophale) SiO2 
 PCOD9004212
Probable space group: P -1
;
_chemical_formula_sum "Si O2"
_cell_formula_units_Z 16
_cell_length_a 12.957975
_cell_length_b 10.267652
_cell_length_c 19.185092
_cell_angle_alpha 35.066131
_cell_angle_beta 36.785561
_cell_angle_gamma 33.042382
_cell_volume 744.019193
_symmetry_space_group_name_H-M "P -1"
_symmetry_group_IT_number 2
_symmetry_cell_setting 'triclinic'
loop_
_space_group_symop_operation_xyz
x,y,z
-x,-y,-z
loop_
_atom_site_type_symbol
_atom_site_label
_atom_site_fract_x
_atom_site_fract_y
_atom_site_fract_z
Si Si1 0.294579 0.228602 0.976566
Si Si2 0.797570 0.223986 0.147831
Si Si3 0.206761 0.613273 0.403411
Si Si4 0.339555 0.861072 0.603622
Si Si5 0.190157 0.396153 0.368724
Si Si6 0.177766 0.210143 0.893660
Si Si7 0.997864 0.207828 0.250026
Si Si8 0.475220 0.712515 0.863472
O O1 0.109223 0.219403 0.114969
O O2 0.267419 0.503190 0.896064
O O3 0.288369 0.202248 0.909178
O O4 0.500000 0.000000 0.000000
O O5 0.764728 0.061620 0.297078
O O6 0.646033 0.288351 0.138180
O O7 0.017837 0.124264 0.039412
O O8 0.429571 0.383264 0.406921
O O9 0.190787 0.607068 0.329820
O O10 0.029005 0.562949 0.543137
O O11 0.145626 0.909319 0.330594
O O12 0.206925 0.780897 0.664138
O O13 0.316635 0.117812 0.465810
O O14 0.305818 0.367293 0.248234
O O15 0.054905 0.522119 0.799929
O O16 0.340692 0.005808 0.840909
O O17 0.500000 0.500000 0.000000
#
# Coordination Sequence:
#
# PCOD9004212 Si02
#       8
#     2   2   2   2   2   2   2   2
#     4  11  20  35  65 100 130 168 223 274 318 384
#     4  11  21  40  65  99 124 173 222 265 328 375
#     4  10  21  38  66  98 123 163 222 286 312 367
#     4  11  19  40  70  98 125 163 225 284 318 369
#     4  10  24  40  63 100 127 169 221 275 327 382
#     4  11  23  41  61  99 137 176 208 270 330 405
#     4  10  21  37  64  98 129 164 220 272 320 376
#     4  12  27  44  62  94 142 176 211 262 339 408
#
# _framework density 21.504822000000001
#
# number of rings (size 3 to 8) (size 9 to 14) (size 15 to 20)
#    0.000    1.250    3.750    3.000    1.750    1.000 
#    2.250    2.500    0.000    1.500    0.000    0.000 
#    0.000    0.000    0.000    0.000    0.000    0.000 
#
# Total GULP energy -89473.809189 kJ/mol
# GULP energy per Si atom -5592.113074 kJ/mol
# Density = 2.145588 g / cm^3
# Si number density = 21.504822 Si / 1000 Ang^3
#
#
#
# Elastic Constant Matrix: (Units=GPa)
#
#
# Indices 1 2 3 4 5 6 
#
# 1 63.6252 22.0305 13.7224 3.2686 -6.9067 -12.6720
# 2 22.0305 121.1896 56.3978 5.8004 -8.6246 -15.5317
# 3 13.7224 56.3978 100.8372 4.2341 6.9005 3.7335
# 4 3.2686 5.8004 4.2341 42.5597 -3.9824 3.8129
# 5 -6.9067 -8.6246 6.9005 -3.9824 22.5890 -1.4834
# 6 -12.6720 -15.5317 3.7335 3.8129 -1.4834 31.2301
#
#
#
# Elastic Compliance Matrix: (Units=1/GPa)
#
#
# Indices 1 2 3 4 5 6 
#
# 1 0.019002 -0.000385 -0.003106 -0.001197 0.006950 0.008367
# 2 -0.000385 0.014052 -0.008641 -0.001004 0.008261 0.008381
# 3 -0.003106 -0.008641 0.016150 -0.000397 -0.009771 -0.007904
# 4 -0.001197 -0.001004 -0.000397 0.024422 0.003431 -0.003756
# 5 0.006950 0.008261 -0.009771 0.003431 0.053810 0.010234
# 6 0.008367 0.008381 -0.007904 -0.003756 0.010234 0.041473
#
#
# Mechanical properties :
#
#
# Convention : Reuss Voigt Hill
#
# Bulk Modulus (GPa) = 40.09179 52.21705 46.15442
# Shear Modulus (GPa) = 24.81548 32.17585 28.49567
#
# Velocity S-wave (km/s) = 3.40067 3.87229 3.64412
# Velocity P-wave (km/s) = 5.83978 6.65786 6.26219
#
# Compressibility (1/GPa) = 0.02494276
#
# Stress axis : x y z
#
# Youngs Moduli (GPa) = 52.62472 71.16180 61.91861
#
# Poissons Ratio (x) = 0.02738 0.19231
# Poissons Ratio (y) = 0.02025 0.53501
# Poissons Ratio (z) = 0.16345 0.61488
#
# Static dielectric constant tensor:
#      x y z
#    x 1.768770 -0.030980 -0.027270 
#    y -0.030980 1.819260 -0.029970 
#    z -0.027270 -0.029970 1.831670 
# 
# From -- ./inp_files/566414.got.cif
#   From: 2010.05.17/outbox.cif.g08.bks.cpg/sg2_284_cif.got.tgz:566414.got - 2010.06.03 11:33:40.
