data_PCOD9004317
_publ_section_title
;
Structure prediction by ZEFSAII (Michael W. Deem and Ramdas Pophale) SiO2 
 PCOD9004317
Probable space group: P -1
;
_chemical_formula_sum "Si O2"
_cell_formula_units_Z 13
_cell_length_a 10.716973
_cell_length_b 9.624119
_cell_length_c 16.982507
_cell_angle_alpha 142.437513
_cell_angle_beta 26.765376
_cell_angle_gamma 134.865595
_cell_volume 480.863560
_symmetry_space_group_name_H-M "P -1"
_symmetry_group_IT_number 2
_symmetry_cell_setting 'triclinic'
loop_
_space_group_symop_operation_xyz
x,y,z
-x,-y,-z
loop_
_atom_site_type_symbol
_atom_site_label
_atom_site_fract_x
_atom_site_fract_y
_atom_site_fract_z
Si Si1 0.840240 0.707518 0.791477
Si Si2 0.897638 0.354583 0.159886
Si Si3 0.779554 0.227259 0.834212
Si Si4 0.500000 0.000000 0.500000
Si Si5 0.956447 0.753964 0.567068
Si Si6 0.693282 0.061120 0.260729
Si Si7 0.638804 0.463543 0.187000
O O1 0.946890 0.799034 0.687124
O O2 0.822151 0.435277 0.668621
O O3 0.079398 0.800426 0.753518
O O4 0.536710 0.790151 0.025049
O O5 0.647846 0.227915 0.288381
O O6 0.815071 0.397008 0.134929
O O7 0.018302 0.585679 0.231534
O O8 0.149576 0.174761 0.949499
O O9 0.921663 0.983754 0.643149
O O10 0.727349 0.317603 0.994581
O O11 0.546441 0.980869 0.561298
O O12 0.620259 0.733587 0.303327
O O13 0.670660 0.615716 0.655434
#
# Coordination Sequence:
#
# PCOD9004317 Si02
#       7
#     2   2   2   1   2   2   2
#     4  10  21  39  64  93 133 171 220 273 317 400
#     4  11  25  41  67  97 136 170 220 269 339 391
#     4  11  22  39  66 100 128 177 217 269 332 396
#     4  12  24  40  74  92 130 174 228 270 332 382
#     4  10  21  37  65  96 129 171 222 271 327 383
#     4  11  24  45  64  98 130 176 217 278 329 391
#     4  11  22  41  67  99 128 174 221 274 322 397
#
# _framework density 27.034697000000001
#
# number of rings (size 3 to 8) (size 9 to 14) (size 15 to 20)
#    0.000    1.231    3.077    4.154    2.154    1.231 
#    0.000    0.769    0.000    0.000    0.000    0.000 
#    0.000    0.000    0.000    0.000    0.000    0.000 
#
# Total GULP energy -72608.608099 kJ/mol
# GULP energy per Si atom -5585.277546 kJ/mol
# Density = 2.697316 g / cm^3
# Si number density = 27.034697 Si / 1000 Ang^3
#
#
#
# Elastic Constant Matrix: (Units=GPa)
#
#
# Indices 1 2 3 4 5 6 
#
# 1 69.7873 1.2337 -2.8512 2.3734 -14.4152 11.6004
# 2 1.2337 134.9114 51.5648 43.7536 -6.0111 -19.1045
# 3 -2.8512 51.5648 66.2816 25.2561 -14.1160 -2.6624
# 4 2.3734 43.7536 25.2561 51.3000 8.3730 -5.2653
# 5 -14.4152 -6.0111 -14.1160 8.3730 17.8528 14.3784
# 6 11.6004 -19.1045 -2.6624 -5.2653 14.3784 13.2549
#
#
#
# Elastic Compliance Matrix: (Units=1/GPa)
#
#
# Indices 1 2 3 4 5 6 
#
# 1 0.006380 0.002852 -0.007619 0.006265 -0.019284 0.020404
# 2 0.002852 0.012311 -0.002731 -0.011425 0.011584 -0.002405
# 3 -0.007619 -0.002731 0.013316 0.001815 -0.018432 0.026122
# 4 0.006265 -0.011425 0.001815 0.023427 0.012264 -0.025582
# 5 -0.019284 0.011584 -0.018432 0.012264 -0.031364 0.068765
# 6 0.020404 -0.002405 0.026122 -0.025582 0.068765 -0.025388
#
#
# Mechanical properties :
#
#
# Convention : Reuss Voigt Hill
#
# Bulk Modulus (GPa) = 58.78517 41.20831 49.99674
# Shear Modulus (GPa) = 258.44865 31.21708 144.83287
#
# Velocity S-wave (km/s) = 9.78807 3.40178 7.32730
# Velocity P-wave (km/s) = 12.22839 5.54124 9.49312
#
# Compressibility (1/GPa) = 0.01701109
#
# Stress axis : x y z
#
# Youngs Moduli (GPa) = 156.74936 81.22997 75.09744
#
# Poissons Ratio (x) = -0.23167 0.57215
# Poissons Ratio (y) = -0.44705 0.20508
# Poissons Ratio (z) = 1.19424 0.22183
#
# Static dielectric constant tensor:
#      x y z
#    x 2.207420 0.074180 -0.027890 
#    y 0.074180 2.442680 -0.154200 
#    z -0.027890 -0.154200 2.165420 
# 
# From -- ./inp_files/150455.got.cif
#   From: 2010.05.17/outbox.cif.g08.bks.cpg/sg2_76_cif.got.tgz:150455.got - 2010.06.03 11:33:40.
