data_PCOD9004205
_publ_section_title
;
Structure prediction by ZEFSAII (Michael W. Deem and Ramdas Pophale) SiO2 
 PCOD9004205
Probable space group: P -1
;
_chemical_formula_sum "Si O2"
_cell_formula_units_Z 14
_cell_length_a 5.182897
_cell_length_b 19.062313
_cell_length_c 7.078361
_cell_angle_alpha 106.130379
_cell_angle_beta 78.064650
_cell_angle_gamma 62.002955
_cell_volume 544.282342
_symmetry_space_group_name_H-M "P -1"
_symmetry_group_IT_number 2
_symmetry_cell_setting 'triclinic'
loop_
_space_group_symop_operation_xyz
x,y,z
-x,-y,-z
loop_
_atom_site_type_symbol
_atom_site_label
_atom_site_fract_x
_atom_site_fract_y
_atom_site_fract_z
Si Si1 0.236387 0.417710 0.538087
Si Si2 0.963672 0.091041 0.094338
Si Si3 0.925695 0.358598 0.287266
Si Si4 0.824777 0.105179 0.565043
Si Si5 0.696016 0.827195 0.853712
Si Si6 0.848294 0.412399 0.922367
Si Si7 0.883627 0.788887 0.349693
O O1 0.580533 0.401737 0.467974
O O2 0.196263 0.347969 0.377130
O O3 0.099566 0.419695 0.765532
O O4 0.097704 0.592484 0.864818
O O5 0.877711 0.113349 0.342076
O O6 0.651835 0.152316 0.062051
O O7 0.263871 0.096335 0.023135
O O8 0.000000 0.000000 0.000000
O O9 0.000000 0.500000 0.500000
O O10 0.035920 0.260533 0.148168
O O11 0.444570 0.162710 0.681110
O O12 0.960227 0.157285 0.678433
O O13 0.000000 0.000000 0.500000
O O14 0.788566 0.807833 0.601880
O O15 0.905654 0.317550 0.789688
O O16 0.500000 0.500000 0.000000
#
# Coordination Sequence:
#
# PCOD9004205 Si02
#       7
#     2   2   2   2   2   2   2
#     4  12  27  49  74 103 151 189 246 320 367 427
#     4  10  21  37  64  97 132 180 232 292 361 443
#     4  12  27  47  75 106 141 199 247 304 379 431
#     4  10  22  41  67  98 137 186 232 296 376 427
#     4  10  21  41  65  93 139 185 232 295 370 423
#     4  12  28  49  76 114 150 200 262 303 366 455
#     4  10  23  42  67  99 142 190 235 302 363 435
#
# _framework density 25.721944000000001
#
# number of rings (size 3 to 8) (size 9 to 14) (size 15 to 20)
#    0.000    1.143    2.857    2.143    4.000    5.143 
#    0.000    0.000    0.000    0.000    0.000    0.000 
#    0.000    0.000    0.000    0.000    0.000    0.000 
#
# Total GULP energy -78334.148005 kJ/mol
# GULP energy per Si atom -5595.296286 kJ/mol
# Density = 2.566340 g / cm^3
# Si number density = 25.721944 Si / 1000 Ang^3
#
#
#
# Elastic Constant Matrix: (Units=GPa)
#
#
# Indices 1 2 3 4 5 6 
#
# 1 141.9617 60.5755 46.3546 2.8350 5.3916 11.6941
# 2 60.5755 153.7652 28.5942 8.5723 -13.8704 2.3280
# 3 46.3546 28.5942 98.3428 -15.1767 -9.6427 11.4561
# 4 2.8350 8.5723 -15.1767 71.8131 9.6582 0.6381
# 5 5.3916 -13.8704 -9.6427 9.6582 35.0417 2.2762
# 6 11.6941 2.3280 11.4561 0.6381 2.2762 45.4291
#
#
#
# Elastic Compliance Matrix: (Units=1/GPa)
#
#
# Indices 1 2 3 4 5 6 
#
# 1 0.010134 -0.003562 -0.004029 -0.000288 -0.003920 -0.001210
# 2 -0.003562 0.008486 -0.000682 -0.001575 0.004123 0.000470
# 3 -0.004029 -0.000682 0.013297 0.002608 0.003452 -0.002491
# 4 -0.000288 -0.001575 0.002608 0.015221 -0.004023 -0.000515
# 5 -0.003920 0.004123 0.003452 -0.004023 0.032940 -0.001667
# 6 -0.001210 0.000470 -0.002491 -0.000515 -0.001667 0.023018
#
#
# Mechanical properties :
#
#
# Convention : Reuss Voigt Hill
#
# Bulk Modulus (GPa) = 65.05703 73.90203 69.47953
# Shear Modulus (GPa) = 40.07488 47.69315 43.88402
#
# Velocity S-wave (km/s) = 3.95144 4.31069 4.13497
# Velocity P-wave (km/s) = 6.79454 7.31912 7.06171
#
# Compressibility (1/GPa) = 0.01537113
#
# Stress axis : x y z
#
# Youngs Moduli (GPa) = 98.67746 117.83829 75.20497
#
# Poissons Ratio (x) = 0.41977 0.30300
# Poissons Ratio (y) = 0.35152 0.05128
# Poissons Ratio (z) = 0.39756 0.08035
#
# Static dielectric constant tensor:
#      x y z
#    x 2.041830 -0.017470 0.100910 
#    y -0.017470 2.090400 -0.033340 
#    z 0.100910 -0.033340 2.187270 
# 
# From -- ./inp_files/80150.got.cif
#   From: 2010.05.17/outbox.cif.g08.bks.cpg/sg2_41_cif.got.tgz:80150.got - 2010.06.03 11:33:40.
