data_PCOD9004921
_publ_section_title
;
Structure prediction by ZEFSAII (Michael W. Deem and Ramdas Pophale) SiO2 
 PCOD9004921
Probable space group: P -1
;
_chemical_formula_sum "Si O2"
_cell_formula_units_Z 16
_cell_length_a 6.955336
_cell_length_b 7.633296
_cell_length_c 14.287543
_cell_angle_alpha 121.397003
_cell_angle_beta 80.007930
_cell_angle_gamma 112.980972
_cell_volume 595.667605
_symmetry_space_group_name_H-M "P -1"
_symmetry_group_IT_number 2
_symmetry_cell_setting 'triclinic'
loop_
_space_group_symop_operation_xyz
x,y,z
-x,-y,-z
loop_
_atom_site_type_symbol
_atom_site_label
_atom_site_fract_x
_atom_site_fract_y
_atom_site_fract_z
Si Si1 0.858641 0.721368 0.255346
Si Si2 0.622945 0.271792 0.258662
Si Si3 0.591425 0.871399 0.039270
Si Si4 0.794697 0.568474 0.016072
Si Si5 0.231340 0.750399 0.331576
Si Si6 0.005506 0.181485 0.446765
Si Si7 0.257478 0.393655 0.320970
Si Si8 0.519818 0.783253 0.542991
O O1 0.748968 0.494540 0.256214
O O2 0.777047 0.686851 0.148679
O O3 0.107489 0.773662 0.257424
O O4 0.854099 0.934348 0.369210
O O5 0.376638 0.227954 0.248066
O O6 0.625109 0.299920 0.377428
O O7 0.677647 0.070631 0.160803
O O8 0.761827 0.742079 0.990274
O O9 0.391938 0.667749 0.035792
O O10 0.500000 0.000000 0.000000
O O11 0.000000 0.500000 0.000000
O O12 0.241297 0.511653 0.260438
O O13 0.090368 0.743596 0.434662
O O14 0.437774 0.958098 0.390174
O O15 0.052712 0.299764 0.375277
O O16 0.242264 0.203331 0.458304
O O17 0.413860 0.605237 0.424158
#
# Coordination Sequence:
#
# PCOD9004921 Si02
#       8
#     2   2   2   2   2   2   2   2
#     4  11  23  43  63  98 132 184 227 292 362 414
#     4  11  23  42  66  92 138 177 233 290 354 431
#     4  11  26  53  76 112 142 192 239 302 372 434
#     4  11  28  49  81 107 148 186 242 304 369 444
#     4  11  22  36  61  95 138 178 239 289 344 424
#     4  10  21  38  59  90 138 181 235 291 342 425
#     4  11  22  36  61  96 133 187 230 289 352 416
#     4  10  21  38  60  90 132 189 232 286 351 415
#
# _framework density 26.860617999999999
#
# number of rings (size 3 to 8) (size 9 to 14) (size 15 to 20)
#    0.000    1.250    1.250    6.000    5.250    4.500 
#    0.000    0.000    0.000    0.000    0.000    0.000 
#    0.000    0.000    0.000    0.000    0.000    0.000 
#
# Total GULP energy -89298.996326 kJ/mol
# GULP energy per Si atom -5581.187270 kJ/mol
# Density = 2.679948 g / cm^3
# Si number density = 26.860618 Si / 1000 Ang^3
#
#
#
# Elastic Constant Matrix: (Units=GPa)
#
#
# Indices 1 2 3 4 5 6 
#
# 1 156.1522 36.3052 14.1615 7.2165 -5.4282 -12.2417
# 2 36.3052 166.9234 37.1162 27.6490 -9.5256 -22.7295
# 3 14.1615 37.1162 126.2357 11.9358 -5.0244 -0.8047
# 4 7.2165 27.6490 11.9358 25.1110 3.2574 0.9524
# 5 -5.4282 -9.5256 -5.0244 3.2574 18.3791 9.5515
# 6 -12.2417 -22.7295 -0.8047 0.9524 9.5515 37.5550
#
#
#
# Elastic Compliance Matrix: (Units=1/GPa)
#
#
# Indices 1 2 3 4 5 6 
#
# 1 0.006854 -0.001040 -0.000345 -0.000818 0.000801 0.001414
# 2 -0.001040 0.008880 -0.001449 -0.009382 0.003270 0.004411
# 3 -0.000345 -0.001449 0.008750 -0.002770 0.002777 -0.001438
# 4 -0.000818 -0.009382 -0.002770 0.053579 -0.013287 -0.003983
# 5 0.000801 0.003270 0.002777 -0.013287 0.066932 -0.014387
# 6 0.001414 0.004411 -0.001438 -0.003983 -0.014387 0.033487
#
#
# Mechanical properties :
#
#
# Convention : Reuss Voigt Hill
#
# Bulk Modulus (GPa) = 53.14740 69.38635 61.26688
# Shear Modulus (GPa) = 26.25746 40.32426 33.29086
#
# Velocity S-wave (km/s) = 3.12996 3.87879 3.52432
# Velocity P-wave (km/s) = 5.73512 6.77850 6.27852
#
# Compressibility (1/GPa) = 0.01881559
#
# Stress axis : x y z
#
# Youngs Moduli (GPa) = 145.90808 112.60764 114.28948
#
# Poissons Ratio (x) = 0.11714 0.03941
# Poissons Ratio (y) = 0.15178 0.16561
# Poissons Ratio (z) = 0.05031 0.16317
#
# Static dielectric constant tensor:
#      x y z
#    x 2.365760 -0.170730 0.003890 
#    y -0.170730 2.190130 -0.044820 
#    z 0.003890 -0.044820 2.041950 
# 
# From -- ./inp_files/218501.got.cif
#   From: 2010.05.17/outbox.cif.g08.bks.cpg/sg2_110_cif.got.tgz:218501.got - 2010.06.03 11:33:40.
