data_PCOD9004189
_publ_section_title
;
Structure prediction by ZEFSAII (Michael W. Deem and Ramdas Pophale) SiO2 
 PCOD9004189
Probable space group: P -1
;
_chemical_formula_sum "Si O2"
_cell_formula_units_Z 14
_cell_length_a 11.518202
_cell_length_b 19.127332
_cell_length_c 9.761661
_cell_angle_alpha 145.586041
_cell_angle_beta 43.644910
_cell_angle_gamma 153.040869
_cell_volume 550.460014
_symmetry_space_group_name_H-M "P -1"
_symmetry_group_IT_number 2
_symmetry_cell_setting 'triclinic'
loop_
_space_group_symop_operation_xyz
x,y,z
-x,-y,-z
loop_
_atom_site_type_symbol
_atom_site_label
_atom_site_fract_x
_atom_site_fract_y
_atom_site_fract_z
Si Si1 0.795123 0.204767 0.202678
Si Si2 0.708389 0.749810 0.966489
Si Si3 0.748630 0.647986 0.388659
Si Si4 0.063479 0.996568 0.287264
Si Si5 0.394263 0.806757 0.230288
Si Si6 0.071292 0.348316 0.477346
Si Si7 0.741474 0.175187 0.899964
O O1 0.011179 0.348970 0.366909
O O2 0.501108 0.054686 0.261214
O O3 0.808142 0.267796 0.141142
O O4 0.806855 0.064788 0.929977
O O5 0.494848 0.524644 0.773168
O O6 0.950375 0.815495 0.793239
O O7 0.576885 0.797647 0.098733
O O8 0.793974 0.828814 0.171611
O O9 0.780116 0.813116 0.623058
O O10 0.744097 0.572044 0.415176
O O11 0.007221 0.747439 0.252979
O O12 0.000000 0.000000 0.500000
O O13 0.347460 0.778038 0.062687
O O14 0.125032 0.663334 0.306547
O O15 0.500000 0.000000 0.500000
#
# Coordination Sequence:
#
# PCOD9004189 Si02
#       7
#     2   2   2   2   2   2   2
#     4  10  21  39  65  99 135 168 225 277 323 402
#     4  11  26  44  68 102 137 169 229 279 322 403
#     4  11  24  44  68  99 132 175 222 272 339 393
#     4  11  24  42  70  97 131 179 218 274 340 393
#     4  11  22  40  71  96 132 179 220 271 333 389
#     4  10  23  41  67  99 135 175 222 274 334 391
#     4  10  21  37  64  96 131 172 217 271 330 388
#
# _framework density 25.433274000000001
#
# number of rings (size 3 to 8) (size 9 to 14) (size 15 to 20)
#    0.000    1.429    2.857    2.143    2.000    4.571 
#    2.571    0.000    0.000    2.571    0.000    0.000 
#    0.000    0.000    0.000    0.000    0.000    0.000 
#
# Total GULP energy -78001.004755 kJ/mol
# GULP energy per Si atom -5571.500340 kJ/mol
# Density = 2.537539 g / cm^3
# Si number density = 25.433274 Si / 1000 Ang^3
#
#
#
# Elastic Constant Matrix: (Units=GPa)
#
#
# Indices 1 2 3 4 5 6 
#
# 1 161.2763 22.6298 55.0824 -15.7981 47.2893 -1.5195
# 2 22.6298 47.2782 42.5365 -7.6608 7.8181 10.3539
# 3 55.0824 42.5365 101.6461 -6.7670 23.7079 -4.4202
# 4 -15.7981 -7.6608 -6.7670 40.2874 7.3922 9.7553
# 5 47.2893 7.8181 23.7079 7.3922 64.3313 -7.6971
# 6 -1.5195 10.3539 -4.4202 9.7553 -7.6971 25.8643
#
#
#
# Elastic Compliance Matrix: (Units=1/GPa)
#
#
# Indices 1 2 3 4 5 6 
#
# 1 0.010308 0.003398 -0.005041 0.006821 -0.007691 -0.006478
# 2 0.003398 0.048774 -0.021123 0.015595 -0.006097 -0.030632
# 3 -0.005041 -0.021123 0.021454 -0.005998 0.000769 0.014318
# 4 0.006821 0.015595 -0.005998 0.037610 -0.011966 -0.024614
# 5 -0.007691 -0.006097 0.000769 -0.011966 0.024704 0.013985
# 6 -0.006478 -0.030632 0.014318 -0.024614 0.013985 0.066438
#
#
# Mechanical properties :
#
#
# Convention : Reuss Voigt Hill
#
# Bulk Modulus (GPa) = 28.57097 61.18866 44.87981
# Shear Modulus (GPa) = 18.76256 38.76008 28.76132
#
# Velocity S-wave (km/s) = 2.71904 3.90807 3.36647
# Velocity P-wave (km/s) = 4.59518 6.66894 5.72671
#
# Compressibility (1/GPa) = 0.03500057
#
# Stress axis : x y z
#
# Youngs Moduli (GPa) = 97.01205 20.50291 46.61215
#
# Poissons Ratio (x) = -0.06966 0.23499
# Poissons Ratio (y) = -0.32961 0.98461
# Poissons Ratio (z) = 0.48908 0.43309
#
# Static dielectric constant tensor:
#      x y z
#    x 2.033220 0.011570 0.013710 
#    y 0.011570 2.472190 0.073080 
#    z 0.013710 0.073080 2.025600 
# 
# From -- ./inp_files/280071.got.cif
#   From: 2010.05.17/outbox.cif.g08.bks.cpg/sg2_141_cif.got.tgz:280071.got - 2010.06.03 11:33:40.
