data_PCOD9004352
_publ_section_title
;
Structure prediction by ZEFSAII (Michael W. Deem and Ramdas Pophale) SiO2 
 PCOD9004352
Probable space group: P -1
;
_chemical_formula_sum "Si O2"
_cell_formula_units_Z 15
_cell_length_a 8.578745
_cell_length_b 16.721996
_cell_length_c 7.315771
_cell_angle_alpha 76.339904
_cell_angle_beta 35.475081
_cell_angle_gamma 78.535316
_cell_volume 591.794791
_symmetry_space_group_name_H-M "P -1"
_symmetry_group_IT_number 2
_symmetry_cell_setting 'triclinic'
loop_
_space_group_symop_operation_xyz
x,y,z
-x,-y,-z
loop_
_atom_site_type_symbol
_atom_site_label
_atom_site_fract_x
_atom_site_fract_y
_atom_site_fract_z
Si Si1 0.360746 0.233443 0.954649
Si Si2 0.326212 0.758770 0.727086
Si Si3 0.894236 0.299963 0.566499
Si Si4 0.238829 0.043205 0.142343
Si Si5 0.259061 0.530395 0.488497
Si Si6 0.241283 0.573150 0.909597
Si Si7 0.000000 0.000000 0.000000
Si Si8 0.156051 0.173963 0.670889
O O1 0.517277 0.242880 0.610807
O O2 0.600136 0.261966 0.843842
O O3 0.269946 0.139532 0.108670
O O4 0.097697 0.289884 0.204680
O O5 0.304952 0.664922 0.860785
O O6 0.527390 0.814771 0.620632
O O7 0.033495 0.800450 0.988014
O O8 0.849592 0.397405 0.576359
O O9 0.047895 0.242299 0.595414
O O10 0.000000 0.000000 0.500000
O O11 0.193012 0.032785 0.973248
O O12 0.500000 0.000000 0.000000
O O13 0.275418 0.568541 0.657913
O O14 0.547843 0.494155 0.181293
O O15 0.055150 0.455444 0.742786
O O16 0.914927 0.919683 0.244953
#
# Coordination Sequence:
#
# PCOD9004352 Si02
#       8
#     2   2   2   2   2   2   1   2
#     4  12  24  45  72 100 139 186 239 293 352 428
#     4  12  25  46  69 103 139 185 233 285 358 432
#     4  12  25  46  71 106 142 187 235 298 355 432
#     4  12  28  48  74 110 146 193 251 308 379 445
#     4  10  21  37  66 102 133 174 236 289 341 415
#     4  10  21  38  66 100 133 179 229 290 346 416
#     4  12  28  50  78 106 154 188 254 316 368 442
#     4  12  28  46  70 102 145 188 231 293 376 429
#
# _framework density 25.346623000000001
#
# number of rings (size 3 to 8) (size 9 to 14) (size 15 to 20)
#    0.000    0.533    2.667    5.600    5.600    2.133 
#    0.000    4.000    0.000    0.000    0.000    0.000 
#    0.000    0.000    0.000    0.000    0.000    0.000 
#
# Total GULP energy -83778.485241 kJ/mol
# GULP energy per Si atom -5585.232349 kJ/mol
# Density = 2.528893 g / cm^3
# Si number density = 25.346623 Si / 1000 Ang^3
#
#
#
# Elastic Constant Matrix: (Units=GPa)
#
#
# Indices 1 2 3 4 5 6 
#
# 1 62.5247 10.5025 11.0826 8.0557 0.3006 -5.0630
# 2 10.5025 72.0848 12.3595 -15.5058 -4.0144 -4.7113
# 3 11.0826 12.3595 120.7230 -3.2405 -13.2700 2.3094
# 4 8.0557 -15.5058 -3.2405 50.5941 -7.2367 -6.0986
# 5 0.3006 -4.0144 -13.2700 -7.2367 42.6879 -8.6783
# 6 -5.0630 -4.7113 2.3094 -6.0986 -8.6783 37.8168
#
#
#
# Elastic Compliance Matrix: (Units=1/GPa)
#
#
# Indices 1 2 3 4 5 6 
#
# 1 0.017385 -0.003102 -0.001549 -0.003875 -0.001328 0.001106
# 2 -0.003102 0.016213 -0.000943 0.006235 0.002992 0.003354
# 3 -0.001549 -0.000943 0.008858 0.000919 0.002817 -0.000071
# 4 -0.003875 0.006235 0.000919 0.023873 0.006053 0.005441
# 5 -0.001328 0.002992 0.002817 0.006053 0.027085 0.007215
# 6 0.001106 0.003354 -0.000071 0.005441 0.007215 0.029547
#
#
# Mechanical properties :
#
#
# Convention : Reuss Voigt Hill
#
# Bulk Modulus (GPa) = 31.98336 35.91350 33.94843
# Shear Modulus (GPa) = 34.58473 40.97896 37.78185
#
# Velocity S-wave (km/s) = 3.69788 4.02524 3.86503
# Velocity P-wave (km/s) = 5.55682 5.98357 5.77414
#
# Compressibility (1/GPa) = 0.03126625
#
# Stress axis : x y z
#
# Youngs Moduli (GPa) = 57.52221 61.67801 112.89327
#
# Poissons Ratio (x) = 0.19134 0.17492
# Poissons Ratio (y) = 0.17845 0.10646
# Poissons Ratio (z) = 0.08913 0.05816
#
# Static dielectric constant tensor:
#      x y z
#    x 2.166130 0.060190 0.124140 
#    y 0.060190 1.946750 0.050210 
#    z 0.124140 0.050210 1.979370 
# 
# From -- ./inp_files/216935.got.cif
#   From: 2010.05.17/outbox.cif.g08.bks.cpg/sg2_109_cif.got.tgz:216935.got - 2010.06.03 11:33:40.
