data_PCOD9004612
_publ_section_title
;
Structure prediction by ZEFSAII (Michael W. Deem and Ramdas Pophale) SiO2 
 PCOD9004612
Probable space group: P -1
;
_chemical_formula_sum "Si O2"
_cell_formula_units_Z 16
_cell_length_a 5.486141
_cell_length_b 20.730125
_cell_length_c 20.864404
_cell_angle_alpha 17.540237
_cell_angle_beta 70.062467
_cell_angle_gamma 74.298867
_cell_volume 659.699349
_symmetry_space_group_name_H-M "P -1"
_symmetry_group_IT_number 2
_symmetry_cell_setting 'triclinic'
loop_
_space_group_symop_operation_xyz
x,y,z
-x,-y,-z
loop_
_atom_site_type_symbol
_atom_site_label
_atom_site_fract_x
_atom_site_fract_y
_atom_site_fract_z
Si Si1 0.809579 0.272372 0.742160
Si Si2 0.127105 0.654837 0.784604
Si Si3 0.957381 0.725621 0.939460
Si Si4 0.725525 0.911217 0.000870
Si Si5 0.712231 0.874663 0.532303
Si Si6 0.351160 0.949045 0.265585
Si Si7 0.177927 0.733420 0.101870
Si Si8 0.116209 0.406506 0.323207
O O1 0.000000 0.500000 0.500000
O O2 0.779145 0.247063 0.845014
O O3 0.899422 0.089742 0.862856
O O4 0.494182 0.221143 0.805435
O O5 0.397987 0.816893 0.627712
O O6 0.904446 0.775641 0.658257
O O7 0.195195 0.481613 0.890134
O O8 0.000000 0.500000 0.000000
O O9 0.783032 0.873047 0.852420
O O10 0.120465 0.617443 0.079104
O O11 0.154029 0.877290 0.729313
O O12 0.677549 0.044716 0.815007
O O13 0.870149 0.732946 0.125011
O O14 0.742774 0.757897 0.571854
O O15 0.185572 0.720818 0.520108
O O16 0.660202 0.048617 0.152454
O O17 0.237988 0.510704 0.279453
#
# Coordination Sequence:
#
# PCOD9004612 Si02
#       8
#     2   2   2   2   2   2   2   2
#     4  10  22  37  55  80 113 155 197 248 311 375
#     4  11  24  43  68  99 133 175 220 261 316 381
#     4  10  22  42  64  92 131 165 210 263 318 378
#     4  10  21  38  55  82 117 146 201 253 303 377
#     4  10  24  42  67  98 134 173 216 268 317 375
#     4  10  21  39  58  88 118 156 202 256 313 373
#     4  11  21  36  60  82 117 157 198 256 314 369
#     4  10  21  39  62  91 120 163 208 256 314 379
#
# _framework density 24.253471999999999
#
# number of rings (size 3 to 8) (size 9 to 14) (size 15 to 20)
#    0.000    1.750    1.250    2.250    0.000    7.500 
#    2.250    0.000    0.000    0.000    0.000    0.000 
#    0.000    0.000    0.000    0.000    0.000    0.000 
#
# Total GULP energy -89204.603322 kJ/mol
# GULP energy per Si atom -5575.287708 kJ/mol
# Density = 2.419827 g / cm^3
# Si number density = 24.253472 Si / 1000 Ang^3
#
#
#
# Elastic Constant Matrix: (Units=GPa)
#
#
# Indices 1 2 3 4 5 6 
#
# 1 48.8106 10.1377 37.1636 2.1218 -21.2096 -0.8286
# 2 10.1377 90.5463 16.6026 1.2406 -2.7074 10.1723
# 3 37.1636 16.6026 142.7670 13.8298 -27.9366 7.1284
# 4 2.1218 1.2406 13.8298 42.8154 -2.2861 -7.6763
# 5 -21.2096 -2.7074 -27.9366 -2.2861 32.5639 3.5841
# 6 -0.8286 10.1723 7.1284 -7.6763 3.5841 25.3728
#
#
#
# Elastic Compliance Matrix: (Units=1/GPa)
#
#
# Indices 1 2 3 4 5 6 
#
# 1 0.031782 -0.002337 -0.005047 0.001251 0.016099 0.001497
# 2 -0.002337 0.011958 -0.000543 -0.000968 -0.000519 -0.004937
# 3 -0.005047 -0.000543 0.010035 -0.003506 0.005538 -0.004609
# 4 0.001251 -0.000968 -0.003506 0.026081 -0.001490 0.009515
# 5 0.016099 -0.000519 0.005538 -0.001490 0.046663 -0.007864
# 6 0.001497 -0.004937 -0.004609 0.009515 -0.007864 0.046725
#
#
# Mechanical properties :
#
#
# Convention : Reuss Voigt Hill
#
# Bulk Modulus (GPa) = 26.37140 45.54797 35.95969
# Shear Modulus (GPa) = 24.78451 34.69841 29.74146
#
# Velocity S-wave (km/s) = 3.20018 3.78651 3.50562
# Velocity P-wave (km/s) = 4.95497 6.15935 5.58969
#
# Compressibility (1/GPa) = 0.03791986
#
# Stress axis : x y z
#
# Youngs Moduli (GPa) = 31.46420 83.62750 99.65343
#
# Poissons Ratio (x) = 0.19543 0.50296
# Poissons Ratio (y) = 0.07353 0.05416
# Poissons Ratio (z) = 0.15880 0.04545
#
# Static dielectric constant tensor:
#      x y z
#    x 2.409700 -0.019800 -0.093470 
#    y -0.019800 2.021680 -0.014270 
#    z -0.093470 -0.014270 1.909070 
# 
# From -- ./inp_files/10967.got.cif
#   From: 2010.05.17/outbox.cif.g08.bks.cpg/sg2_6_cif.got.tgz:10967.got - 2010.06.03 11:33:40.
