data_PCOD9004472
_publ_section_title
;
Structure prediction by ZEFSAII (Michael W. Deem and Ramdas Pophale) SiO2 
 PCOD9004472
Probable space group: P -1
;
_chemical_formula_sum "Si O2"
_cell_formula_units_Z 14
_cell_length_a 7.303385
_cell_length_b 15.106296
_cell_length_c 8.741676
_cell_angle_alpha 144.310227
_cell_angle_beta 98.181767
_cell_angle_gamma 73.833520
_cell_volume 534.322643
_symmetry_space_group_name_H-M "P -1"
_symmetry_group_IT_number 2
_symmetry_cell_setting 'triclinic'
loop_
_space_group_symop_operation_xyz
x,y,z
-x,-y,-z
loop_
_atom_site_type_symbol
_atom_site_label
_atom_site_fract_x
_atom_site_fract_y
_atom_site_fract_z
Si Si1 0.041662 0.381886 0.634286
Si Si2 0.829821 0.147582 0.747104
Si Si3 0.551719 0.540157 0.234364
Si Si4 0.715761 0.893244 0.543322
Si Si5 0.655213 0.131904 0.381839
Si Si6 0.671804 0.663949 0.953651
Si Si7 0.108553 0.221926 0.101622
O O1 0.092145 0.232954 0.547343
O O2 0.763811 0.562132 0.274802
O O3 0.852345 0.523145 0.843108
O O4 0.020977 0.312578 0.368730
O O5 0.715855 0.188262 0.632928
O O6 0.946499 0.250566 0.991073
O O7 0.731064 0.064579 0.745563
O O8 0.000000 0.000000 0.500000
O O9 0.404869 0.709749 0.503266
O O10 0.511639 0.403716 0.144297
O O11 0.500000 0.500000 0.000000
O O12 0.547421 0.905141 0.661314
O O13 0.663048 0.813883 0.271142
O O14 0.804992 0.966493 0.121657
O O15 0.726684 0.709492 0.856286
#
# Coordination Sequence:
#
# PCOD9004472 Si02
#       7
#     2   2   2   2   2   2   2
#     4  11  27  45  65  99 142 169 226 273 330 401
#     4  10  21  37  67  97 127 170 221 270 325 390
#     4  11  25  42  71 103 127 176 220 277 335 378
#     4  11  22  40  70 101 120 179 221 278 331 375
#     4  10  22  43  68  96 135 163 232 272 320 401
#     4  12  24  44  69  99 133 178 221 270 333 395
#     4  11  26  44  65  98 137 178 214 275 338 387
#
# _framework density 26.2014
#
# number of rings (size 3 to 8) (size 9 to 14) (size 15 to 20)
#    0.000    1.143    5.714    1.286    6.000    3.429 
#    2.571    0.000    0.000    0.000    0.000    0.000 
#    0.000    0.000    0.000    0.000    0.000    0.000 
#
# Total GULP energy -78428.788093 kJ/mol
# GULP energy per Si atom -5602.056292 kJ/mol
# Density = 2.614176 g / cm^3
# Si number density = 26.201400 Si / 1000 Ang^3
#
#
#
# Elastic Constant Matrix: (Units=GPa)
#
#
# Indices 1 2 3 4 5 6 
#
# 1 80.8343 4.9833 16.4736 12.5890 9.3308 5.4203
# 2 4.9833 84.3736 23.0850 34.4457 8.0211 12.6243
# 3 16.4736 23.0850 69.7709 12.8177 1.3919 -1.4806
# 4 12.5890 34.4457 12.8177 51.5656 -4.9552 -1.7830
# 5 9.3308 8.0211 1.3919 -4.9552 30.1097 12.3910
# 6 5.4203 12.6243 -1.4806 -1.7830 12.3910 51.1210
#
#
#
# Elastic Compliance Matrix: (Units=1/GPa)
#
#
# Indices 1 2 3 4 5 6 
#
# 1 0.014378 0.002855 -0.003309 -0.005157 -0.005422 -0.001191
# 2 0.002855 0.019694 -0.004682 -0.013449 -0.006391 -0.004222
# 3 -0.003309 -0.004682 0.016702 -0.000082 0.000743 0.001808
# 4 -0.005157 -0.013449 -0.000082 0.030625 0.009102 0.002728
# 5 -0.005422 -0.006391 0.000743 0.009102 0.041136 -0.007479
# 6 -0.001191 -0.004222 0.001808 0.002728 -0.007479 0.022691
#
#
# Mechanical properties :
#
#
# Convention : Reuss Voigt Hill
#
# Bulk Modulus (GPa) = 24.68960 36.00697 30.34829
# Shear Modulus (GPa) = 29.58612 39.25505 34.42058
#
# Velocity S-wave (km/s) = 3.36397 3.87486 3.62842
# Velocity P-wave (km/s) = 4.95297 5.81306 5.40016
#
# Compressibility (1/GPa) = 0.04050288
#
# Stress axis : x y z
#
# Youngs Moduli (GPa) = 69.54936 50.77631 59.87427
#
# Poissons Ratio (x) = -0.14498 0.19814
# Poissons Ratio (y) = -0.19859 0.28031
# Poissons Ratio (z) = 0.23016 0.23772
#
# Static dielectric constant tensor:
#      x y z
#    x 2.168180 0.041110 -0.002250 
#    y 0.041110 2.167550 0.132570 
#    z -0.002250 0.132570 2.044910 
# 
# From -- ./inp_files/209339.got.cif
#   From: 2010.05.17/outbox.cif.g08.bks.cpg/sg2_105_cif.got.tgz:209339.got - 2010.06.03 11:33:40.
