data_PCOD9004981
_publ_section_title
;
Structure prediction by ZEFSAII (Michael W. Deem and Ramdas Pophale) SiO2 
 PCOD9004981
Probable space group: P -1
;
_chemical_formula_sum "Si O2"
_cell_formula_units_Z 12
_cell_length_a 9.817838
_cell_length_b 18.277265
_cell_length_c 13.916896
_cell_angle_alpha 158.221361
_cell_angle_beta 55.307897
_cell_angle_gamma 135.056022
_cell_volume 616.432880
_symmetry_space_group_name_H-M "P -1"
_symmetry_group_IT_number 2
_symmetry_cell_setting 'triclinic'
loop_
_space_group_symop_operation_xyz
x,y,z
-x,-y,-z
loop_
_atom_site_type_symbol
_atom_site_label
_atom_site_fract_x
_atom_site_fract_y
_atom_site_fract_z
Si Si1 0.719337 0.466546 0.286478
Si Si2 0.818239 0.192526 0.423652
Si Si3 0.212276 0.762697 0.726026
Si Si4 0.423041 0.663143 0.204578
Si Si5 0.400628 0.808449 0.190945
Si Si6 0.462178 0.240189 0.307285
O O1 0.602318 0.318325 0.249697
O O2 0.605024 0.583876 0.441491
O O3 0.951982 0.676781 0.476659
O O4 0.708271 0.312088 0.012511
O O5 0.792086 0.141862 0.259674
O O6 0.746681 0.366217 0.690351
O O7 0.644332 0.941422 0.238594
O O8 0.399650 0.741773 0.639647
O O9 0.000000 0.500000 0.500000
O O10 0.265602 0.965509 0.030957
O O11 0.337134 0.635425 0.097101
O O12 0.599801 0.957314 0.500224
O O13 0.500000 0.500000 0.000000
#
# Coordination Sequence:
#
# PCOD9004981 Si02
#       6
#     2   2   2   2   2   2
#     4  11  21  38  59  87 118 158 195 244 296 350
#     4  10  21  38  60  85 119 157 198 240 297 353
#     4  11  21  39  57  87 123 157 199 243 284 362
#     4   9  20  42  63  84 115 157 198 250 306 347
#     4   9  21  40  61  84 124 150 197 257 293 351
#     4  10  23  36  57  87 122 158 197 238 295 348
#
# _framework density 19.466837999999999
#
# number of rings (size 3 to 8) (size 9 to 14) (size 15 to 20)
#    1.000    1.000    3.333    0.000    2.333    2.667 
#    0.000    0.833    0.000    0.000    0.000    0.000 
#    0.000    0.000    0.000    0.000    0.000    0.000 
#
# Total GULP energy -66823.191854 kJ/mol
# GULP energy per Si atom -5568.599321 kJ/mol
# Density = 1.942253 g / cm^3
# Si number density = 19.466838 Si / 1000 Ang^3
#
#
#
# Elastic Constant Matrix: (Units=GPa)
#
#
# Indices 1 2 3 4 5 6 
#
# 1 71.3261 -7.5486 29.5433 -2.4050 5.6394 -2.8987
# 2 -7.5486 17.1667 7.6076 7.0956 9.6053 1.4894
# 3 29.5433 7.6076 49.3168 5.9503 16.1245 -0.3321
# 4 -2.4050 7.0956 5.9503 25.2301 0.7679 4.4966
# 5 5.6394 9.6053 16.1245 0.7679 44.2951 5.2165
# 6 -2.8987 1.4894 -0.3321 4.4966 5.2165 18.8040
#
#
#
# Elastic Compliance Matrix: (Units=1/GPa)
#
#
# Indices 1 2 3 4 5 6 
#
# 1 0.022612 0.017080 -0.015927 0.000792 -0.001028 0.001947
# 2 0.017080 0.089823 -0.016462 -0.020056 -0.015832 0.004416
# 3 -0.015927 -0.016462 0.035526 -0.005554 -0.007581 0.002907
# 4 0.000792 -0.020056 -0.005554 0.048574 0.006829 -0.011897
# 5 -0.001028 -0.015832 -0.007581 0.006829 0.029835 -0.008948
# 6 0.001947 0.004416 0.002907 -0.011897 -0.008948 0.058509
#
#
# Mechanical properties :
#
#
# Convention : Reuss Voigt Hill
#
# Bulk Modulus (GPa) = 8.52201 21.89047 15.20624
# Shear Modulus (GPa) = 14.09998 24.87966 19.48982
#
# Velocity S-wave (km/s) = 2.69422 3.57887 3.16758
# Velocity P-wave (km/s) = 3.75041 5.32420 4.60504
#
# Compressibility (1/GPa) = 0.11734323
#
# Stress axis : x y z
#
# Youngs Moduli (GPa) = 44.22505 11.13298 28.14861
#
# Poissons Ratio (x) = -0.19015 0.44831
# Poissons Ratio (y) = -0.75534 0.46337
# Poissons Ratio (z) = 0.70436 0.18327
#
# Static dielectric constant tensor:
#      x y z
#    x 1.657100 -0.003210 -0.005420 
#    y -0.003210 1.707590 0.007020 
#    z -0.005420 0.007020 1.716530 
# 
# From -- ./inp_files/139976.got.cif
#   From: 2010.05.17/outbox.cif.g08.bks.cpg/sg2_70_cif.got.tgz:139976.got - 2010.06.03 11:33:40.
