data_PCOD9004645
_publ_section_title
;
Structure prediction by ZEFSAII (Michael W. Deem and Ramdas Pophale) SiO2 
 PCOD9004645
Probable space group: P -1
;
_chemical_formula_sum "Si O2"
_cell_formula_units_Z 16
_cell_length_a 5.344059
_cell_length_b 12.024286
_cell_length_c 27.654457
_cell_angle_alpha 26.182568
_cell_angle_beta 113.659259
_cell_angle_gamma 120.893740
_cell_volume 664.489904
_symmetry_space_group_name_H-M "P -1"
_symmetry_group_IT_number 2
_symmetry_cell_setting 'triclinic'
loop_
_space_group_symop_operation_xyz
x,y,z
-x,-y,-z
loop_
_atom_site_type_symbol
_atom_site_label
_atom_site_fract_x
_atom_site_fract_y
_atom_site_fract_z
Si Si1 0.682603 0.500923 0.107770
Si Si2 0.406529 0.991677 0.439964
Si Si3 0.121018 0.805722 0.687162
Si Si4 0.101704 0.344677 0.651688
Si Si5 0.430863 0.227586 0.631431
Si Si6 0.636473 0.838807 0.163206
Si Si7 0.056956 0.886463 0.099411
Si Si8 0.090571 0.515329 0.056249
O O1 0.334033 0.385745 0.134317
O O2 0.799877 0.384477 0.116865
O O3 0.858357 0.466882 0.181867
O O4 0.765627 0.817612 0.976659
O O5 0.687173 0.110820 0.379405
O O6 0.230130 0.675547 0.534000
O O7 0.186825 0.154137 0.355907
O O8 0.500000 0.000000 0.500000
O O9 0.292555 0.004337 0.666722
O O10 0.220207 0.240515 0.654049
O O11 0.747854 0.234317 0.670816
O O12 0.232278 0.246330 0.746502
O O13 0.500000 0.500000 0.500000
O O14 0.284840 0.737129 0.177683
O O15 0.761268 0.745417 0.161942
O O16 0.754532 0.167689 0.040295
O O17 0.000000 0.000000 0.000000
O O18 0.000000 0.500000 0.000000
#
# Coordination Sequence:
#
# PCOD9004645 Si02
#       8
#     2   2   2   2   2   2   2   2
#     4  10  23  38  59  89 118 154 201 243 291 357
#     4  12  26  44  64  91 127 163 206 261 309 367
#     4  12  25  42  65  95 124 164 211 249 315 370
#     4  12  24  42  63  95 127 163 208 252 315 369
#     4  12  23  41  67  88 128 167 203 260 303 369
#     4  10  23  37  60  91 118 156 204 244 298 362
#     4  10  21  41  62  85 120 161 205 252 294 350
#     4  10  21  38  56  86 124 155 189 239 296 353
#
# _framework density 24.078617999999999
#
# number of rings (size 3 to 8) (size 9 to 14) (size 15 to 20)
#    0.000    1.000    2.500    3.750    3.500    2.000 
#    0.000    0.000    0.000    0.000    0.000    0.000 
#    0.000    0.000    0.000    0.000    0.000    0.000 
#
# Total GULP energy -89529.913605 kJ/mol
# GULP energy per Si atom -5595.619600 kJ/mol
# Density = 2.402381 g / cm^3
# Si number density = 24.078618 Si / 1000 Ang^3
#
#
#
# Elastic Constant Matrix: (Units=GPa)
#
#
# Indices 1 2 3 4 5 6 
#
# 1 231.0781 43.9423 58.0204 30.2346 24.7338 -20.0128
# 2 43.9423 77.3126 14.6315 11.7939 8.7963 -11.0051
# 3 58.0204 14.6315 106.2733 18.4094 19.1340 -9.1690
# 4 30.2346 11.7939 18.4094 60.4515 3.0025 -1.5108
# 5 24.7338 8.7963 19.1340 3.0025 47.7589 18.3295
# 6 -20.0128 -11.0051 -9.1690 -1.5108 18.3295 37.3139
#
#
#
# Elastic Compliance Matrix: (Units=1/GPa)
#
#
# Indices 1 2 3 4 5 6 
#
# 1 0.006086 -0.001888 -0.001778 -0.001864 -0.003471 0.003900
# 2 -0.001888 0.015467 0.000439 -0.001865 -0.004072 0.005581
# 3 -0.001778 0.000439 0.012221 -0.002507 -0.005786 0.004919
# 4 -0.001864 -0.001865 -0.002507 0.018437 0.002094 -0.002448
# 5 -0.003471 -0.004072 -0.005786 0.002094 0.033718 -0.020963
# 6 0.003900 0.005581 0.004919 -0.002448 -0.020963 0.041945
#
#
# Mechanical properties :
#
#
# Convention : Reuss Voigt Hill
#
# Bulk Modulus (GPa) = 36.60458 71.98361 54.29409
# Shear Modulus (GPa) = 34.85885 48.97620 41.91752
#
# Velocity S-wave (km/s) = 3.80901 4.51489 4.17689
# Velocity P-wave (km/s) = 5.88046 7.55905 6.77196
#
# Compressibility (1/GPa) = 0.02731898
#
# Stress axis : x y z
#
# Youngs Moduli (GPa) = 164.29950 64.65434 81.82751
#
# Poissons Ratio (x) = 0.12208 0.14553
# Poissons Ratio (y) = 0.31024 -0.03594
# Poissons Ratio (z) = 0.29221 -0.02839
#
# Static dielectric constant tensor:
#      x y z
#    x 1.963340 -0.041700 0.051140 
#    y -0.041700 2.115810 -0.254340 
#    z 0.051140 -0.254340 2.075230 
# 
# From -- ./inp_files/604436.got.cif
#   From: 2010.05.17/outbox.cif.g08.bks.cpg/sg2_303_cif.got.tgz:604436.got - 2010.06.03 11:33:40.
