data_PCOD9004580
_publ_section_title
;
Structure prediction by ZEFSAII (Michael W. Deem and Ramdas Pophale) SiO2 
 PCOD9004580
Probable space group: P -1
;
_chemical_formula_sum "Si O2"
_cell_formula_units_Z 16
_cell_length_a 10.963914
_cell_length_b 8.209232
_cell_length_c 11.764518
_cell_angle_alpha 76.327166
_cell_angle_beta 137.306373
_cell_angle_gamma 77.861467
_cell_volume 566.900226
_symmetry_space_group_name_H-M "P -1"
_symmetry_group_IT_number 2
_symmetry_cell_setting 'triclinic'
loop_
_space_group_symop_operation_xyz
x,y,z
-x,-y,-z
loop_
_atom_site_type_symbol
_atom_site_label
_atom_site_fract_x
_atom_site_fract_y
_atom_site_fract_z
Si Si1 0.667280 0.433777 0.462752
Si Si2 0.053641 0.264469 0.376641
Si Si3 0.376819 0.326549 0.381276
Si Si4 0.676726 0.252658 0.172618
Si Si5 0.261268 0.330614 0.690719
Si Si6 0.686252 0.751650 0.003790
Si Si7 0.125386 0.002289 0.884966
Si Si8 0.831122 0.891362 0.765595
O O1 0.459447 0.427262 0.338773
O O2 0.695071 0.538815 0.575499
O O3 0.638560 0.556619 0.310406
O O4 0.895018 0.208903 0.651500
O O5 0.905852 0.222574 0.359878
O O6 0.885555 0.504094 0.175690
O O7 0.255715 0.214271 0.599091
O O8 0.149915 0.127559 0.354817
O O9 0.214366 0.282216 0.214931
O O10 0.604096 0.106667 0.605973
O O11 0.744094 0.131415 0.116221
O O12 0.500000 0.500000 0.000000
O O13 0.551000 0.206804 0.187195
O O14 0.336550 0.220832 0.878943
O O15 0.000000 0.500000 0.500000
O O16 0.755029 0.901787 0.988923
O O17 0.047438 0.891888 0.933578
#
# Coordination Sequence:
#
# PCOD9004580 Si02
#       8
#     2   2   2   2   2   2   2   2
#     4  10  17  29  48  74  96 127 166 200 247 282
#     4   9  16  30  48  68  97 130 160 199 237 283
#     4   9  17  27  46  69 100 121 159 216 243 274
#     4   9  19  31  46  66  97 133 169 202 231 276
#     4  10  17  29  50  70 104 134 155 191 244 302
#     4  10  18  30  48  70 101 138 162 189 235 295
#     4  10  17  28  48  69  94 128 168 196 234 291
#     4   9  16  27  43  68  99 121 154 209 254 266
#
# _framework density 28.223662000000001
#
# number of rings (size 3 to 8) (size 9 to 14) (size 15 to 20)
#    0.000    2.500    3.750    0.375    0.000    0.000 
#    0.000    2.500    2.750    0.000    0.000   17.500 
#    0.000    0.125    0.000    0.000    0.000    0.000 
#
# Total GULP energy -89424.577997 kJ/mol
# GULP energy per Si atom -5589.036125 kJ/mol
# Density = 2.815942 g / cm^3
# Si number density = 28.223662 Si / 1000 Ang^3
#
#
#
# Elastic Constant Matrix: (Units=GPa)
#
#
# Indices 1 2 3 4 5 6 
#
# 1 91.3282 48.3486 41.5436 6.9205 32.7386 27.7117
# 2 48.3486 177.0644 34.8364 -22.3884 17.4792 6.2769
# 3 41.5436 34.8364 77.8075 -16.5448 20.8113 11.7504
# 4 6.9205 -22.3884 -16.5448 55.6204 5.8762 25.0373
# 5 32.7386 17.4792 20.8113 5.8762 44.6105 17.9892
# 6 27.7117 6.2769 11.7504 25.0373 17.9892 77.3940
#
#
#
# Elastic Compliance Matrix: (Units=1/GPa)
#
#
# Indices 1 2 3 4 5 6 
#
# 1 0.020467 -0.003720 -0.007513 -0.004237 -0.008473 -0.002546
# 2 -0.003720 0.007204 -0.000425 0.003360 -0.000250 -0.000217
# 3 -0.007513 -0.000425 0.020139 0.008086 -0.003962 -0.002028
# 4 -0.004237 0.003360 0.008086 0.026052 -0.002228 -0.007893
# 5 -0.008473 -0.000250 -0.003962 -0.002228 0.032120 -0.003089
# 6 -0.002546 -0.000217 -0.002028 -0.007893 -0.003089 0.017429
#
#
# Mechanical properties :
#
#
# Convention : Reuss Voigt Hill
#
# Bulk Modulus (GPa) = 40.82479 66.18414 53.50446
# Shear Modulus (GPa) = 32.28019 50.28975 41.28497
#
# Velocity S-wave (km/s) = 3.38557 4.22575 3.82878
# Velocity P-wave (km/s) = 5.45701 6.87823 6.20842
#
# Compressibility (1/GPa) = 0.02449492
#
# Stress axis : x y z
#
# Youngs Moduli (GPa) = 48.85870 138.80700 49.65390
#
# Poissons Ratio (x) = 0.51632 0.37304
# Poissons Ratio (y) = 0.18174 0.02113
# Poissons Ratio (z) = 0.36707 0.05906
#
# Static dielectric constant tensor:
#      x y z
#    x 2.196950 0.114200 0.089670 
#    y 0.114200 2.510990 0.132590 
#    z 0.089670 0.132590 2.201390 
# 
# From -- ./inp_files/276658.got.cif
#   From: 2010.05.17/outbox.cif.g08.bks.cpg/sg2_139_cif.got.tgz:276658.got - 2010.06.03 11:33:40.
