data_PCOD9004671
_publ_section_title
;
Structure prediction by ZEFSAII (Michael W. Deem and Ramdas Pophale) SiO2 
 PCOD9004671
Probable space group: P -1
;
_chemical_formula_sum "Si O2"
_cell_formula_units_Z 16
_cell_length_a 19.906693
_cell_length_b 10.073787
_cell_length_c 9.846480
_cell_angle_alpha 81.048476
_cell_angle_beta 114.692970
_cell_angle_gamma 41.999802
_cell_volume 770.814533
_symmetry_space_group_name_H-M "P -1"
_symmetry_group_IT_number 2
_symmetry_cell_setting 'triclinic'
loop_
_space_group_symop_operation_xyz
x,y,z
-x,-y,-z
loop_
_atom_site_type_symbol
_atom_site_label
_atom_site_fract_x
_atom_site_fract_y
_atom_site_fract_z
Si Si1 0.356522 0.460815 0.010735
Si Si2 0.862813 0.311620 0.416713
Si Si3 0.734589 0.992258 0.645116
Si Si4 0.015529 0.333859 0.870028
Si Si5 0.861743 0.291452 0.737017
Si Si6 0.445408 0.244259 0.414256
Si Si7 0.636990 0.191313 0.250786
Si Si8 0.107199 0.130593 0.682340
O O1 0.304334 0.447427 0.848115
O O2 0.235179 0.791804 0.855746
O O3 0.344702 0.425491 0.158214
O O4 0.550540 0.188155 0.194258
O O5 0.867935 0.256804 0.586112
O O6 0.926845 0.359660 0.456578
O O7 0.000000 0.000000 0.500000
O O8 0.888352 0.659139 0.756229
O O9 0.594945 0.111844 0.559873
O O10 0.657788 0.204740 0.422011
O O11 0.824087 0.928712 0.850180
O O12 0.088956 0.226741 0.797854
O O13 0.903719 0.381256 0.773218
O O14 0.682097 0.535576 0.603050
O O15 0.000000 0.000000 0.000000
O O16 0.500000 0.000000 0.500000
O O17 0.809724 0.915601 0.356301
O O18 0.500000 0.500000 0.000000
#
# Coordination Sequence:
#
# PCOD9004671 Si02
#       8
#     2   2   2   2   2   2   2   2
#     4   9  19  36  56  81 115 149 188 244 290 344
#     4   9  18  34  54  83 116 144 188 241 285 339
#     4  10  22  39  58  84 120 156 196 242 298 354
#     4  10  21  38  57  85 120 154 195 246 294 351
#     4  11  22  37  63  92 118 156 201 243 293 355
#     4  11  21  39  60  84 119 159 197 243 299 349
#     4   9  19  35  56  79 109 151 188 235 292 344
#     4   9  18  35  57  84 110 146 193 236 290 343
#
# _framework density 20.757261
#
# number of rings (size 3 to 8) (size 9 to 14) (size 15 to 20)
#    0.000    2.250    1.250    2.250    0.000    5.500 
#    0.000    9.375    0.000    0.000    0.000    0.000 
#    0.000    0.000    0.000    0.000    0.000    0.000 
#
# Total GULP energy -89204.715604 kJ/mol
# GULP energy per Si atom -5575.294725 kJ/mol
# Density = 2.071002 g / cm^3
# Si number density = 20.757261 Si / 1000 Ang^3
#
#
#
# Elastic Constant Matrix: (Units=GPa)
#
#
# Indices 1 2 3 4 5 6 
#
# 1 79.0178 44.6588 37.8336 17.6739 -0.4480 -40.9794
# 2 44.6588 83.3187 33.9857 28.4623 7.9828 -33.2693
# 3 37.8336 33.9857 111.3285 33.8177 14.2961 -15.8449
# 4 17.6739 28.4623 33.8177 37.0392 4.2470 -6.0669
# 5 -0.4480 7.9828 14.2961 4.2470 26.4337 -5.7123
# 6 -40.9794 -33.2693 -15.8449 -6.0669 -5.7123 41.2413
#
#
#
# Elastic Compliance Matrix: (Units=1/GPa)
#
#
# Indices 1 2 3 4 5 6 
#
# 1 0.034248 -0.003575 -0.006675 -0.004051 0.012338 0.029695
# 2 -0.003575 0.024728 0.000613 -0.015281 -0.002367 0.014055
# 3 -0.006675 0.000613 0.014721 -0.010389 -0.007242 -0.003014
# 4 -0.004051 -0.015281 -0.010389 0.048025 -0.000434 -0.013340
# 5 0.012338 -0.002367 -0.007242 -0.000434 0.045731 0.013838
# 6 0.029695 0.014055 -0.003014 -0.013340 0.013838 0.063888
#
#
# Mechanical properties :
#
#
# Convention : Reuss Voigt Hill
#
# Bulk Modulus (GPa) = 18.37505 56.29125 37.33315
# Shear Modulus (GPa) = 18.60426 31.42198 25.01312
#
# Velocity S-wave (km/s) = 2.99704 3.89496 3.47512
# Velocity P-wave (km/s) = 4.56595 6.88515 5.84180
#
# Compressibility (1/GPa) = 0.05442161
#
# Stress axis : x y z
#
# Youngs Moduli (GPa) = 29.19874 40.44051 67.93191
#
# Poissons Ratio (x) = 0.14458 0.45343
# Poissons Ratio (y) = 0.10439 -0.04161
# Poissons Ratio (z) = 0.19489 -0.02477
#
# Static dielectric constant tensor:
#      x y z
#    x 1.787400 -0.008960 -0.009060 
#    y -0.008960 1.756790 -0.039780 
#    z -0.009060 -0.039780 1.801460 
# 
# From -- ./inp_files/345288.got.cif
#   From: 2010.05.17/outbox.cif.g08.bks.cpg/sg2_173_cif.got.tgz:345288.got - 2010.06.03 11:33:40.
