data_PCOD9004795
_publ_section_title
;
Structure prediction by ZEFSAII (Michael W. Deem and Ramdas Pophale) SiO2 
 PCOD9004795
Probable space group: P -1
;
_chemical_formula_sum "Si O2"
_cell_formula_units_Z 16
_cell_length_a 18.946170
_cell_length_b 5.419649
_cell_length_c 20.911418
_cell_angle_alpha 88.907364
_cell_angle_beta 159.951629
_cell_angle_gamma 100.861102
_cell_volume 638.423747
_symmetry_space_group_name_H-M "P -1"
_symmetry_group_IT_number 2
_symmetry_cell_setting 'triclinic'
loop_
_space_group_symop_operation_xyz
x,y,z
-x,-y,-z
loop_
_atom_site_type_symbol
_atom_site_label
_atom_site_fract_x
_atom_site_fract_y
_atom_site_fract_z
Si Si1 0.830770 0.567736 0.110405
Si Si2 0.280076 0.270520 0.773387
Si Si3 0.984441 0.994181 0.335368
Si Si4 0.740660 0.912851 0.680417
Si Si5 0.633821 0.440086 0.294241
Si Si6 0.480037 0.976668 0.085051
Si Si7 0.741467 0.220787 0.793770
Si Si8 0.022443 0.591070 0.884035
O O1 0.622263 0.607599 0.900935
O O2 0.682978 0.357783 0.042459
O O3 0.027708 0.847532 0.311684
O O4 0.913549 0.402770 0.135188
O O5 0.052246 0.155693 0.625818
O O6 0.282772 0.417613 0.707398
O O7 0.326473 0.006340 0.799578
O O8 0.500000 0.500000 0.000000
O O9 0.718528 0.940772 0.098737
O O10 0.167555 0.326672 0.493514
O O11 0.732533 0.951909 0.750422
O O12 0.887371 0.247194 0.782857
O O13 0.480480 0.774550 0.427914
O O14 0.864190 0.735250 0.764947
O O15 0.595867 0.129786 0.249844
O O16 0.000000 0.500000 0.000000
O O17 0.747587 0.233780 0.875503
#
# Coordination Sequence:
#
# PCOD9004795 Si02
#       8
#     2   2   2   2   2   2   2   2
#     4  10  24  42  59  82 129 164 206 259 317 379
#     4  11  19  38  59  82 117 148 196 264 329 378
#     4  11  22  38  60  84 115 155 203 262 323 387
#     4  10  23  41  71 104 136 174 225 269 325 391
#     4  10  23  38  59  87 113 154 208 260 320 389
#     4  10  21  38  59  82 115 157 202 261 318 381
#     4   9  21  43  70 106 139 174 217 276 328 380
#     4  11  24  42  68  97 139 182 222 270 326 389
#
# _framework density 25.061726
#
# number of rings (size 3 to 8) (size 9 to 14) (size 15 to 20)
#    0.000    1.750    3.750    1.125    3.500   10.000 
#    0.000    0.000    0.000    0.000    0.000    0.000 
#    0.000    0.000    0.000    0.000    0.000    0.000 
#
# Total GULP energy -89265.432783 kJ/mol
# GULP energy per Si atom -5579.089549 kJ/mol
# Density = 2.500468 g / cm^3
# Si number density = 25.061726 Si / 1000 Ang^3
#
#
#
# Elastic Constant Matrix: (Units=GPa)
#
#
# Indices 1 2 3 4 5 6 
#
# 1 79.3026 30.0180 22.8294 5.0932 -24.2709 -42.1241
# 2 30.0180 118.2664 43.9943 14.4294 -8.5946 -45.5596
# 3 22.8294 43.9943 150.6247 27.1257 -29.8226 -28.0676
# 4 5.0932 14.4294 27.1257 39.2342 -7.2757 -5.5301
# 5 -24.2709 -8.5946 -29.8226 -7.2757 26.4035 14.5743
# 6 -42.1241 -45.5596 -28.0676 -5.5301 14.5743 51.3068
#
#
#
# Elastic Compliance Matrix: (Units=1/GPa)
#
#
# Indices 1 2 3 4 5 6 
#
# 1 0.027396 0.000907 0.002723 0.000301 0.017715 0.019789
# 2 0.000907 0.014153 -0.002346 -0.002817 -0.005286 0.013227
# 3 0.002723 -0.002346 0.010249 -0.004239 0.010936 0.002196
# 4 0.000301 -0.002817 -0.004239 0.029835 0.004201 -0.002551
# 5 0.017715 -0.005286 0.010936 0.004201 0.067549 -0.002903
# 6 0.019789 0.013227 0.002196 -0.002551 -0.002903 0.049234
#
#
# Mechanical properties :
#
#
# Convention : Reuss Voigt Hill
#
# Bulk Modulus (GPa) = 18.39331 60.20857 39.30094
# Shear Modulus (GPa) = 23.36775 40.14567 31.75671
#
# Velocity S-wave (km/s) = 3.05685 4.00668 3.56355
# Velocity P-wave (km/s) = 4.45132 6.74395 5.71381
#
# Compressibility (1/GPa) = 0.05436759
#
# Stress axis : x y z
#
# Youngs Moduli (GPa) = 36.50131 70.65736 97.56673
#
# Poissons Ratio (x) = -0.06409 -0.26571
# Poissons Ratio (y) = -0.03311 0.22888
# Poissons Ratio (z) = -0.09940 0.16575
#
# Static dielectric constant tensor:
#      x y z
#    x 2.211300 0.056250 -0.034540 
#    y 0.056250 2.095700 -0.040680 
#    z -0.034540 -0.040680 1.999390 
# 
# From -- ./inp_files/613401.got.cif
#   From: 2010.05.17/outbox.cif.g08.bks.cpg/sg2_307_cif.got.tgz:613401.got - 2010.06.03 11:33:40.
