data_PCOD9004280
_publ_section_title
;
Structure prediction by ZEFSAII (Michael W. Deem and Ramdas Pophale) SiO2 
 PCOD9004280
Probable space group: P -1
;
_chemical_formula_sum "Si O2"
_cell_formula_units_Z 12
_cell_length_a 10.995615
_cell_length_b 10.837888
_cell_length_c 12.317030
_cell_angle_alpha 132.054756
_cell_angle_beta 129.620858
_cell_angle_gamma 89.949303
_cell_volume 559.699863
_symmetry_space_group_name_H-M "P -1"
_symmetry_group_IT_number 2
_symmetry_cell_setting 'triclinic'
loop_
_space_group_symop_operation_xyz
x,y,z
-x,-y,-z
loop_
_atom_site_type_symbol
_atom_site_label
_atom_site_fract_x
_atom_site_fract_y
_atom_site_fract_z
Si Si1 0.299832 0.222495 0.086245
Si Si2 0.625854 0.801013 0.124458
Si Si3 0.799944 0.007605 0.664975
Si Si4 0.327932 0.531884 0.990068
Si Si5 0.535466 0.760487 0.583371
Si Si6 0.872910 0.296077 0.682767
O O1 0.457121 0.513421 0.358565
O O2 0.341488 0.153126 0.178810
O O3 0.379206 0.194845 0.005143
O O4 0.027378 0.066715 0.830381
O O5 0.742745 0.713430 0.168726
O O6 0.759435 0.061774 0.404946
O O7 0.379586 0.597663 0.931252
O O8 0.707186 0.965159 0.708526
O O9 0.868750 0.221382 0.758626
O O10 0.576155 0.754431 0.324525
O O11 0.138724 0.510113 0.916752
O O12 0.297608 0.681508 0.409371
#
# Coordination Sequence:
#
# PCOD9004280 Si02
#       6
#     2   2   2   2   2   2
#     4  11  24  42  63  84 124 163 199 237 299 361
#     4  10  21  38  63  89 117 159 198 245 295 352
#     4  11  21  40  66  89 117 160 201 245 293 354
#     4  10  21  37  65  93 118 150 203 249 297 347
#     4  11  25  42  58  90 124 161 196 243 297 358
#     4  11  23  38  65  92 121 149 201 255 295 342
#
# _framework density 21.440061
#
# number of rings (size 3 to 8) (size 9 to 14) (size 15 to 20)
#    0.000    1.333    3.333    1.500    4.667    6.000 
#    0.000    0.833    0.000    0.000    0.000    0.000 
#    0.000    0.000    0.000    0.000    0.000    0.000 
#
# Total GULP energy -67124.331899 kJ/mol
# GULP energy per Si atom -5593.694325 kJ/mol
# Density = 2.139126 g / cm^3
# Si number density = 21.440061 Si / 1000 Ang^3
#
#
#
# Elastic Constant Matrix: (Units=GPa)
#
#
# Indices 1 2 3 4 5 6 
#
# 1 142.1968 62.8892 32.7412 -22.3026 -5.6429 42.9891
# 2 62.8892 85.2884 37.2786 -27.1512 0.5579 26.5435
# 3 32.7412 37.2786 69.1116 -15.1108 -0.8144 18.5830
# 4 -22.3026 -27.1512 -15.1108 31.0216 -1.6598 -5.3556
# 5 -5.6429 0.5579 -0.8144 -1.6598 36.9356 -1.0865
# 6 42.9891 26.5435 18.5830 -5.3556 -1.0865 40.2084
#
#
#
# Elastic Compliance Matrix: (Units=1/GPa)
#
#
# Indices 1 2 3 4 5 6 
#
# 1 0.013002 -0.005747 0.000211 0.002835 0.001918 -0.009775
# 2 -0.005747 0.024664 -0.006167 0.013447 -0.000945 -0.005521
# 3 0.000211 -0.006167 0.019779 0.003591 0.000582 -0.004802
# 4 0.002835 0.013447 0.003591 0.046650 0.002191 -0.007295
# 5 0.001918 -0.000945 0.000582 0.002191 0.027473 -0.000661
# 6 -0.009775 -0.005521 -0.004802 -0.007295 -0.000661 0.040196
#
#
# Mechanical properties :
#
#
# Convention : Reuss Voigt Hill
#
# Bulk Modulus (GPa) = 29.37905 62.49052 45.93479
# Shear Modulus (GPa) = 24.21130 32.54565 28.37848
#
# Velocity S-wave (km/s) = 3.36408 3.90036 3.64210
# Velocity P-wave (km/s) = 5.36862 7.03517 6.25762
#
# Compressibility (1/GPa) = 0.03403786
#
# Stress axis : x y z
#
# Youngs Moduli (GPa) = 76.91342 40.54569 50.55889
#
# Poissons Ratio (x) = 0.23302 -0.01069
# Poissons Ratio (y) = 0.44204 0.31181
# Poissons Ratio (z) = -0.01626 0.25006
#
# Static dielectric constant tensor:
#      x y z
#    x 1.780040 0.013930 -0.026130 
#    y 0.013930 1.776290 0.039980 
#    z -0.026130 0.039980 1.805780 
# 
# From -- ./inp_files/25587.got.cif
#   From: 2010.05.17/outbox.cif.g08.bks.cpg/sg2_13_cif.got.tgz:25587.got - 2010.06.03 11:33:40.
