data_PCOD9004074
_publ_section_title
;
Structure prediction by ZEFSAII (Michael W. Deem and Ramdas Pophale) SiO2 
 PCOD9004074
Probable space group: P -1
;
_chemical_formula_sum "Si O2"
_cell_formula_units_Z 16
_cell_length_a 14.407358
_cell_length_b 8.385873
_cell_length_c 10.235496
_cell_angle_alpha 73.246249
_cell_angle_beta 63.334156
_cell_angle_gamma 122.670205
_cell_volume 659.540143
_symmetry_space_group_name_H-M "P -1"
_symmetry_group_IT_number 2
_symmetry_cell_setting 'triclinic'
loop_
_space_group_symop_operation_xyz
x,y,z
-x,-y,-z
loop_
_atom_site_type_symbol
_atom_site_label
_atom_site_fract_x
_atom_site_fract_y
_atom_site_fract_z
Si Si1 0.393002 0.036450 0.801021
Si Si2 0.193478 0.191264 0.329418
Si Si3 0.597216 0.957631 0.491233
Si Si4 0.126647 0.776372 0.577282
Si Si5 0.772565 0.615818 0.460746
Si Si6 0.690855 0.460901 0.070875
Si Si7 0.080144 0.773668 0.168015
Si Si8 0.962615 0.149985 0.112615
O O1 0.340400 0.030009 0.689148
O O2 0.592310 0.310660 0.616208
O O3 0.342461 0.774713 0.897929
O O4 0.281340 0.006970 0.978464
O O5 0.260450 0.342164 0.388190
O O6 0.197180 0.996357 0.379072
O O7 0.277138 0.383532 0.109285
O O8 0.000000 0.000000 0.500000
O O9 0.467372 0.679207 0.712766
O O10 0.500000 0.000000 0.500000
O O11 0.733492 0.167255 0.464211
O O12 0.976762 0.480494 0.690898
O O13 0.072384 0.800492 0.739419
O O14 0.945666 0.724930 0.335540
O O15 0.832928 0.834393 0.269986
O O16 0.848015 0.668420 0.019230
O O17 0.035312 0.749699 0.048346
#
# Coordination Sequence:
#
# PCOD9004074 Si02
#       8
#     2   2   2   2   2   2   2   2
#     4  11  22  41  67 103 136 165 218 286 338 394
#     4  11  23  47  67  88 135 184 227 271 322 399
#     4  10  21  37  64 104 131 161 218 281 327 391
#     4  11  21  40  68 102 128 179 227 264 325 407
#     4  11  26  42  62 102 137 174 216 279 344 389
#     4  11  21  42  72  90 128 186 227 264 327 393
#     4  12  21  40  71 100 137 170 218 277 345 398
#     4  11  21  41  67  95 133 177 217 266 337 402
#
# _framework density 24.259326000000001
#
# number of rings (size 3 to 8) (size 9 to 14) (size 15 to 20)
#    0.000    1.000    5.000    4.500    0.000    1.500 
#    4.500    3.750    0.000    0.000    0.000    0.000 
#    0.000    0.000    0.000    0.000    0.000    0.000 
#
# Total GULP energy -89290.442336 kJ/mol
# GULP energy per Si atom -5580.652646 kJ/mol
# Density = 2.420411 g / cm^3
# Si number density = 24.259326 Si / 1000 Ang^3
#
#
#
# Elastic Constant Matrix: (Units=GPa)
#
#
# Indices 1 2 3 4 5 6 
#
# 1 67.9066 17.3147 45.6897 -11.4848 7.7345 -9.5369
# 2 17.3147 45.0334 39.3458 -17.8299 12.5019 -7.7360
# 3 45.6897 39.3458 162.1328 -16.0526 15.9168 -10.8300
# 4 -11.4848 -17.8299 -16.0526 36.8111 2.1270 -4.8430
# 5 7.7345 12.5019 15.9168 2.1270 51.2475 -0.6436
# 6 -9.5369 -7.7360 -10.8300 -4.8430 -0.6436 30.0974
#
#
#
# Elastic Compliance Matrix: (Units=1/GPa)
#
#
# Indices 1 2 3 4 5 6 
#
# 1 0.019527 -0.000428 -0.004425 0.004734 -0.001599 0.005213
# 2 -0.000428 0.038722 -0.006023 0.017826 -0.008121 0.010345
# 3 -0.004425 -0.006023 0.008915 -0.000350 -0.000615 0.000188
# 4 0.004734 0.017826 -0.000350 0.039088 -0.006424 0.012108
# 5 -0.001599 -0.008121 -0.000615 -0.006424 0.022151 -0.003375
# 6 0.005213 0.010345 0.000188 0.012108 -0.003375 0.039480
#
#
# Mechanical properties :
#
#
# Convention : Reuss Voigt Hill
#
# Bulk Modulus (GPa) = 22.02101 53.30813 37.66457
# Shear Modulus (GPa) = 24.41731 35.14603 29.78167
#
# Velocity S-wave (km/s) = 3.17600 3.81039 3.50757
# Velocity P-wave (km/s) = 4.74830 6.43279 5.65363
#
# Compressibility (1/GPa) = 0.04541118
#
# Stress axis : x y z
#
# Youngs Moduli (GPa) = 51.20991 25.82518 112.17428
#
# Poissons Ratio (x) = 0.01106 0.49639
# Poissons Ratio (y) = 0.02193 0.67564
# Poissons Ratio (z) = 0.22661 0.15555
#
# Static dielectric constant tensor:
#      x y z
#    x 2.010220 -0.056180 -0.082930 
#    y -0.056180 2.020330 0.012710 
#    z -0.082930 0.012710 1.979030 
# 
# From -- ./inp_files/181299.got.cif
#   From: 2010.05.17/outbox.cif.g08.bks.cpg/sg2_91_cif.got.tgz:181299.got - 2010.06.03 11:33:40.
