data_PCOD9004053
_publ_section_title
;
Structure prediction by ZEFSAII (Michael W. Deem and Ramdas Pophale) SiO2 
 PCOD9004053
Probable space group: P -1
;
_chemical_formula_sum "Si O2"
_cell_formula_units_Z 16
_cell_length_a 10.833411
_cell_length_b 9.211380
_cell_length_c 16.566448
_cell_angle_alpha 63.711354
_cell_angle_beta 151.104442
_cell_angle_gamma 103.719001
_cell_volume 671.556936
_symmetry_space_group_name_H-M "P -1"
_symmetry_group_IT_number 2
_symmetry_cell_setting 'triclinic'
loop_
_space_group_symop_operation_xyz
x,y,z
-x,-y,-z
loop_
_atom_site_type_symbol
_atom_site_label
_atom_site_fract_x
_atom_site_fract_y
_atom_site_fract_z
Si Si1 0.124073 0.686714 0.606170
Si Si2 0.875646 0.686480 0.629362
Si Si3 0.270941 0.307845 0.759290
Si Si4 0.435745 0.859357 0.554019
Si Si5 0.923154 0.970551 0.053585
Si Si6 0.789263 0.360665 0.603139
Si Si7 0.455546 0.933237 0.712391
Si Si8 0.116501 0.855899 0.849471
O O1 0.295084 0.498103 0.714872
O O2 0.244444 0.838422 0.633334
O O3 0.096907 0.653546 0.693101
O O4 0.847664 0.735404 0.382454
O O5 0.751501 0.536652 0.584510
O O6 0.007643 0.713671 0.782385
O O7 0.664908 0.870082 0.435083
O O8 0.039634 0.331731 0.689682
O O9 0.570677 0.181301 0.985657
O O10 0.595612 0.838163 0.733972
O O11 0.453568 0.675312 0.574735
O O12 0.500000 0.000000 0.500000
O O13 0.108813 0.964810 0.355812
O O14 0.646900 0.928563 0.897323
O O15 0.890514 0.118980 0.064167
O O16 0.137483 0.797005 0.253965
O O17 0.000000 0.000000 0.000000
#
# Coordination Sequence:
#
# PCOD9004053 Si02
#       8
#     2   2   2   2   2   2   2   2
#     4  10  21  37  63  98 136 176 200 265 332 396
#     4  10  23  39  63  99 133 165 216 258 327 395
#     4  10  21  39  65 102 136 165 214 263 333 391
#     4  10  21  42  65  88 123 173 223 266 322 380
#     4  11  25  44  64  89 127 174 223 272 324 379
#     4  10  22  42  67  96 131 175 208 269 327 383
#     4  11  21  39  63  91 126 174 219 263 323 385
#     4  10  23  40  65  93 133 163 215 269 319 392
#
# _framework density 23.825233000000001
#
# number of rings (size 3 to 8) (size 9 to 14) (size 15 to 20)
#    0.000    1.750    1.250    2.625    3.500    3.000 
#    0.000    6.250    0.000    0.000    0.000    0.000 
#    0.000    0.000    0.000    0.000    0.000    0.000 
#
# Total GULP energy -89282.047283 kJ/mol
# GULP energy per Si atom -5580.127955 kJ/mol
# Density = 2.377101 g / cm^3
# Si number density = 23.825233 Si / 1000 Ang^3
#
#
#
# Elastic Constant Matrix: (Units=GPa)
#
#
# Indices 1 2 3 4 5 6 
#
# 1 80.5426 56.6852 4.2939 11.1239 -18.9287 -8.6778
# 2 56.6852 200.2839 17.9359 34.0384 -2.4465 -17.2256
# 3 4.2939 17.9359 45.4654 21.2022 6.2965 -9.8998
# 4 11.1239 34.0384 21.2022 32.6740 -3.0956 -18.1121
# 5 -18.9287 -2.4465 6.2965 -3.0956 30.1533 10.6489
# 6 -8.6778 -17.2256 -9.8998 -18.1121 10.6489 36.0237
#
#
#
# Elastic Compliance Matrix: (Units=1/GPa)
#
#
# Indices 1 2 3 4 5 6 
#
# 1 0.018930 -0.005273 -0.002146 0.000510 0.012677 -0.002042
# 2 -0.005273 0.007563 0.001496 -0.007294 -0.003837 0.000225
# 3 -0.002146 0.001496 0.034412 -0.023610 -0.011225 0.001103
# 4 0.000510 -0.007294 -0.023610 0.066052 0.003563 0.022303
# 5 0.012677 -0.003837 -0.011225 0.003563 0.048622 -0.014447
# 6 -0.002042 0.000225 0.001103 0.022303 -0.014447 0.043162
#
#
# Mechanical properties :
#
#
# Convention : Reuss Voigt Hill
#
# Bulk Modulus (GPa) = 20.38315 53.79134 37.08725
# Shear Modulus (GPa) = 20.24775 36.26199 28.25487
#
# Velocity S-wave (km/s) = 2.91837 3.90551 3.44746
# Velocity P-wave (km/s) = 4.46427 6.55468 5.60774
#
# Compressibility (1/GPa) = 0.04906013
#
# Stress axis : x y z
#
# Youngs Moduli (GPa) = 52.82585 132.21671 29.05948
#
# Poissons Ratio (x) = 0.69717 0.06235
# Poissons Ratio (y) = 0.27855 -0.04347
# Poissons Ratio (z) = 0.11335 -0.19778
#
# Static dielectric constant tensor:
#      x y z
#    x 2.020220 -0.031160 0.042690 
#    y -0.031160 1.991950 0.043430 
#    z 0.042690 0.043430 1.945050 
# 
# From -- ./inp_files/245071.got.cif
#   From: 2010.05.17/outbox.cif.g08.bks.cpg/sg2_123_cif.got.tgz:245071.got - 2010.06.03 11:33:40.
