data_PCOD9004709
_publ_section_title
;
Structure prediction by ZEFSAII (Michael W. Deem and Ramdas Pophale) SiO2 
 PCOD9004709
Probable space group: P -1
;
_chemical_formula_sum "Si O2"
_cell_formula_units_Z 16
_cell_length_a 17.109949
_cell_length_b 19.525827
_cell_length_c 11.889163
_cell_angle_alpha 159.196605
_cell_angle_beta 143.766704
_cell_angle_gamma 26.321707
_cell_volume 613.070384
_symmetry_space_group_name_H-M "P -1"
_symmetry_group_IT_number 2
_symmetry_cell_setting 'triclinic'
loop_
_space_group_symop_operation_xyz
x,y,z
-x,-y,-z
loop_
_atom_site_type_symbol
_atom_site_label
_atom_site_fract_x
_atom_site_fract_y
_atom_site_fract_z
Si Si1 0.358127 0.794789 0.130155
Si Si2 0.966901 0.227642 0.907583
Si Si3 0.602942 0.750797 0.819884
Si Si4 0.646870 0.793374 0.516940
Si Si5 0.838281 0.979305 0.965547
Si Si6 0.180094 0.196142 0.730019
Si Si7 0.326485 0.773554 0.441780
Si Si8 0.158404 0.425111 0.371140
O O1 0.472275 0.880688 0.388723
O O2 0.258717 0.821652 0.944357
O O3 0.211182 0.008075 0.378938
O O4 0.525193 0.481517 0.858505
O O5 0.816716 0.514840 0.231464
O O6 0.075031 0.023587 0.824492
O O7 0.089230 0.270260 0.054779
O O8 0.832100 0.204845 0.660678
O O9 0.455365 0.730350 0.621874
O O10 0.780040 0.553631 0.644219
O O11 0.669569 0.781051 0.058149
O O12 0.500000 0.000000 0.000000
O O13 0.689559 0.973435 0.825147
O O14 0.678191 0.717517 0.568922
O O15 0.998726 0.707613 0.671821
O O16 0.230136 0.021348 0.629152
O O17 0.000000 0.500000 0.000000
#
# Coordination Sequence:
#
# PCOD9004709 Si02
#       8
#     2   2   2   2   2   2   2   2
#     4  11  20  34  59  89 117 149 193 247 290 331
#     4   8  17  33  56  86 118 143 184 247 295 331
#     4  10  21  38  58  82 116 159 196 228 284 356
#     4   8  15  29  52  84 117 147 185 236 293 346
#     4   9  17  29  52  87 119 146 184 238 296 346
#     4  11  24  40  56  81 120 161 195 231 284 356
#     4  10  22  40  61  88 116 147 195 251 292 332
#     4   9  16  33  56  79 113 158 191 226 288 354
#
# _framework density 26.098146
#
# number of rings (size 3 to 8) (size 9 to 14) (size 15 to 20)
#    0.000    2.500    0.000    4.500    0.000    3.000 
#    0.000    4.375    0.000    0.000    0.000   25.375 
#    0.000    0.000    0.000    0.000    0.000    0.000 
#
# Total GULP energy -89214.651083 kJ/mol
# GULP energy per Si atom -5575.915693 kJ/mol
# Density = 2.603875 g / cm^3
# Si number density = 26.098146 Si / 1000 Ang^3
#
#
#
# Elastic Constant Matrix: (Units=GPa)
#
#
# Indices 1 2 3 4 5 6 
#
# 1 84.6302 40.7318 35.3703 -0.9991 -17.3715 -3.5765
# 2 40.7318 148.4341 60.2847 -6.1922 0.3039 -8.4005
# 3 35.3703 60.2847 84.8593 2.1647 7.8642 -4.7108
# 4 -0.9991 -6.1922 2.1647 65.7803 -15.1409 -2.7040
# 5 -17.3715 0.3039 7.8642 -15.1409 28.7811 -5.2296
# 6 -3.5765 -8.4005 -4.7108 -2.7040 -5.2296 34.9863
#
#
#
# Elastic Compliance Matrix: (Units=1/GPa)
#
#
# Indices 1 2 3 4 5 6 
#
# 1 0.020071 -0.001578 -0.008802 0.004642 0.017610 0.003479
# 2 -0.001578 0.010004 -0.006572 0.001651 0.001927 0.001772
# 3 -0.008802 -0.006572 0.021424 -0.004758 -0.013972 -0.002049
# 4 0.004642 0.001651 -0.004758 0.019173 0.014886 0.003937
# 5 0.017610 0.001927 -0.013972 0.014886 0.058880 0.010333
# 6 0.003479 0.001772 -0.002049 0.003937 0.010333 0.030937
#
#
# Mechanical properties :
#
#
# Convention : Reuss Voigt Hill
#
# Bulk Modulus (GPa) = 56.83276 65.63302 61.23289
# Shear Modulus (GPa) = 24.96787 38.01199 31.48993
#
# Velocity S-wave (km/s) = 3.09640 3.82055 3.47738
# Velocity P-wave (km/s) = 5.88281 6.68321 6.29574
#
# Compressibility (1/GPa) = 0.01759548
#
# Stress axis : x y z
#
# Youngs Moduli (GPa) = 49.82321 99.95724 46.67701
#
# Poissons Ratio (x) = 0.15778 0.41084
# Poissons Ratio (y) = 0.07864 0.30674
# Poissons Ratio (z) = 0.43853 0.65688
#
# Static dielectric constant tensor:
#      x y z
#    x 2.116990 -0.067630 -0.045690 
#    y -0.067630 2.088170 -0.007370 
#    z -0.045690 -0.007370 2.225760 
# 
# From -- ./inp_files/541781.got.cif
#   From: 2010.05.17/outbox.cif.g08.bks.cpg/sg2_271_cif.got.tgz:541781.got - 2010.06.03 11:33:40.
