data_PCOD9004241
_publ_section_title
;
Structure prediction by ZEFSAII (Michael W. Deem and Ramdas Pophale) SiO2 
 PCOD9004241
Probable space group: P -1
;
_chemical_formula_sum "Si O2"
_cell_formula_units_Z 16
_cell_length_a 15.510295
_cell_length_b 15.042956
_cell_length_c 8.210386
_cell_angle_alpha 129.594263
_cell_angle_beta 73.502315
_cell_angle_gamma 146.186387
_cell_volume 673.442169
_symmetry_space_group_name_H-M "P -1"
_symmetry_group_IT_number 2
_symmetry_cell_setting 'triclinic'
loop_
_space_group_symop_operation_xyz
x,y,z
-x,-y,-z
loop_
_atom_site_type_symbol
_atom_site_label
_atom_site_fract_x
_atom_site_fract_y
_atom_site_fract_z
Si Si1 0.600253 0.225729 0.137541
Si Si2 0.387033 0.331120 0.614729
Si Si3 0.914500 0.528792 0.062830
Si Si4 0.987196 0.034591 0.737056
Si Si5 0.145579 0.986066 0.646421
Si Si6 0.568611 0.782989 0.998376
Si Si7 0.304415 0.512798 0.343587
Si Si8 0.392218 0.761865 0.319019
O O1 0.730535 0.328930 0.041870
O O2 0.448826 0.150831 0.067882
O O3 0.744568 0.464299 0.448885
O O4 0.500000 0.000000 0.000000
O O5 0.311067 0.228180 0.722631
O O6 0.454584 0.534915 0.766902
O O7 0.561538 0.442376 0.630249
O O8 0.205648 0.111049 0.337465
O O9 0.828161 0.458769 0.850790
O O10 0.053326 0.784586 0.348304
O O11 0.000000 0.500000 0.000000
O O12 0.003392 0.930194 0.697639
O O13 0.149413 0.291315 0.039797
O O14 0.000000 0.000000 0.500000
O O15 0.231896 0.026960 0.808957
O O16 0.462930 0.739511 0.140466
O O17 0.429026 0.749924 0.460068
O O18 0.500000 0.000000 0.500000
#
# Coordination Sequence:
#
# PCOD9004241 Si02
#       8
#     2   2   2   2   2   2   2   2
#     4  11  28  50  71  99 150 198 241 303 373 436
#     4  11  22  39  74 107 142 186 238 298 370 431
#     4  11  25  45  71 104 137 185 255 305 359 438
#     4  10  21  37  65 107 144 182 233 292 359 432
#     4  11  20  39  69 107 140 177 242 310 353 424
#     4  11  21  42  68 101 141 194 241 288 364 444
#     4  12  23  44  70 103 146 189 243 300 372 432
#     4  11  21  38  67  95 132 188 242 295 356 429
#
# _framework density 23.758537
#
# number of rings (size 3 to 8) (size 9 to 14) (size 15 to 20)
#    0.000    1.000    2.500    7.125    1.750    0.500 
#    2.250    2.500    0.000    0.000    0.000    0.000 
#    0.000    0.000    0.000    0.000    0.000    0.000 
#
# Total GULP energy -89335.539895 kJ/mol
# GULP energy per Si atom -5583.471243 kJ/mol
# Density = 2.370446 g / cm^3
# Si number density = 23.758537 Si / 1000 Ang^3
#
#
#
# Elastic Constant Matrix: (Units=GPa)
#
#
# Indices 1 2 3 4 5 6 
#
# 1 197.0691 31.3879 72.7488 15.8143 0.1252 -26.1921
# 2 31.3879 36.5376 18.9461 12.3766 -10.5460 -20.6850
# 3 72.7488 18.9461 156.7027 18.5338 0.5204 -5.6168
# 4 15.8143 12.3766 18.5338 30.3779 -0.5734 -9.5561
# 5 0.1252 -10.5460 0.5204 -0.5734 44.7196 9.5346
# 6 -26.1921 -20.6850 -5.6168 -9.5561 9.5346 41.8146
#
#
#
# Elastic Compliance Matrix: (Units=1/GPa)
#
#
# Indices 1 2 3 4 5 6 
#
# 1 0.006985 -0.003603 -0.002745 0.000301 -0.001390 0.002610
# 2 -0.003603 0.046544 -0.002152 -0.010475 0.007380 0.016402
# 3 -0.002745 -0.002152 0.008242 -0.003495 -0.000119 -0.002449
# 4 0.000301 -0.010475 -0.003495 0.040507 -0.002859 0.004446
# 5 -0.001390 0.007380 -0.000119 -0.002859 0.024828 -0.003550
# 6 0.002610 0.016402 -0.002449 0.004446 -0.003550 0.035161
#
#
# Mechanical properties :
#
#
# Convention : Reuss Voigt Hill
#
# Bulk Modulus (GPa) = 22.33557 70.71945 46.52751
# Shear Modulus (GPa) = 25.74795 41.19752 33.47273
#
# Velocity S-wave (km/s) = 3.29558 4.16866 3.75757
# Velocity P-wave (km/s) = 4.88903 7.28017 6.20095
#
# Compressibility (1/GPa) = 0.04477164
#
# Stress axis : x y z
#
# Youngs Moduli (GPa) = 143.16373 21.48483 121.33051
#
# Poissons Ratio (x) = 0.07741 0.33300
# Poissons Ratio (y) = 0.51579 0.26116
# Poissons Ratio (z) = 0.39293 0.04625
#
# Static dielectric constant tensor:
#      x y z
#    x 1.868910 0.041600 0.038480 
#    y 0.041600 1.905210 0.044500 
#    z 0.038480 0.044500 1.926510 
# 
# From -- ./inp_files/315885.got.cif
#   From: 2010.05.17/outbox.cif.g08.bks.cpg/sg2_158_cif.got.tgz:315885.got - 2010.06.03 11:33:40.
