data_PCOD9004840
_publ_section_title
;
Structure prediction by ZEFSAII (Michael W. Deem and Ramdas Pophale) SiO2 
 PCOD9004840
Probable space group: P -1
;
_chemical_formula_sum "Si O2"
_cell_formula_units_Z 16
_cell_length_a 8.366250
_cell_length_b 15.821132
_cell_length_c 9.814160
_cell_angle_alpha 50.675480
_cell_angle_beta 56.203381
_cell_angle_gamma 88.541275
_cell_volume 718.941436
_symmetry_space_group_name_H-M "P -1"
_symmetry_group_IT_number 2
_symmetry_cell_setting 'triclinic'
loop_
_space_group_symop_operation_xyz
x,y,z
-x,-y,-z
loop_
_atom_site_type_symbol
_atom_site_label
_atom_site_fract_x
_atom_site_fract_y
_atom_site_fract_z
Si Si1 0.372740 0.679487 0.978186
Si Si2 0.104591 0.205940 0.396663
Si Si3 0.635336 0.313781 0.721323
Si Si4 0.698106 0.515683 0.295177
Si Si5 0.708038 0.086856 0.216050
Si Si6 0.887236 0.803314 0.905867
Si Si7 0.283612 0.914500 0.097976
Si Si8 0.166239 0.479258 0.042199
O O1 0.637991 0.752780 0.747111
O O2 0.291820 0.780911 0.918593
O O3 0.249818 0.572616 0.033546
O O4 0.337473 0.626321 0.203281
O O5 0.044252 0.148933 0.330212
O O6 0.935124 0.114178 0.684556
O O7 0.095662 0.336267 0.261548
O O8 0.754768 0.419651 0.441607
O O9 0.727811 0.219637 0.772572
O O10 0.365891 0.230205 0.912349
O O11 0.500000 0.500000 0.500000
O O12 0.633047 0.479354 0.206391
O O13 0.870299 0.665579 0.059396
O O14 0.932061 0.109726 0.159142
O O15 0.500000 0.000000 0.500000
O O16 0.690609 0.038878 0.118083
O O17 0.500000 0.000000 0.000000
O O18 0.000000 0.500000 0.000000
#
# Coordination Sequence:
#
# PCOD9004840 Si02
#       8
#     2   2   2   2   2   2   2   2
#     4  10  22  39  59  85 117 154 191 230 286 344
#     4  10  21  38  59  86 118 151 187 233 283 340
#     4   9  20  38  60  84 115 150 186 232 285 340
#     4   9  18  33  56  86 115 144 178 223 276 331
#     4  11  24  41  59  80 110 151 196 241 286 338
#     4   9  19  38  60  83 114 150 186 228 284 341
#     4  11  24  40  58  83 112 148 194 241 286 336
#     4  11  21  35  59  89 120 154 187 228 281 338
#
# _framework density 22.254942
#
# number of rings (size 3 to 8) (size 9 to 14) (size 15 to 20)
#    0.000    2.000    0.000    4.125    0.000    5.000 
#    0.000    8.125    0.000    0.000    0.000    0.000 
#    0.000    0.000    0.000    0.000    0.000    0.000 
#
# Total GULP energy -89357.776886 kJ/mol
# GULP energy per Si atom -5584.861055 kJ/mol
# Density = 2.220429 g / cm^3
# Si number density = 22.254942 Si / 1000 Ang^3
#
#
#
# Elastic Constant Matrix: (Units=GPa)
#
#
# Indices 1 2 3 4 5 6 
#
# 1 96.8728 36.8538 23.1920 16.7882 -7.9301 23.2703
# 2 36.8538 88.9482 40.8241 20.2407 1.5078 32.1179
# 3 23.1920 40.8241 123.6449 41.8424 8.7168 30.1852
# 4 16.7882 20.2407 41.8424 30.6512 -5.1919 12.3403
# 5 -7.9301 1.5078 8.7168 -5.1919 22.7274 0.8317
# 6 23.2703 32.1179 30.1852 12.3403 0.8317 53.4355
#
#
#
# Elastic Compliance Matrix: (Units=1/GPa)
#
#
# Indices 1 2 3 4 5 6 
#
# 1 0.013360 -0.003952 0.000330 -0.003271 0.004157 -0.002939
# 2 -0.003952 0.017084 -0.001366 -0.005109 -0.002916 -0.006551
# 3 0.000330 -0.001366 0.019167 -0.026056 -0.012954 -0.003931
# 4 -0.003271 -0.005109 -0.026056 0.077556 0.026876 0.000886
# 5 0.004157 -0.002916 -0.012954 0.026876 0.056746 0.000170
# 6 -0.002939 -0.006551 -0.003931 0.000886 0.000170 0.025945
#
#
# Mechanical properties :
#
#
# Convention : Reuss Voigt Hill
#
# Bulk Modulus (GPa) = 25.22897 56.80063 41.01480
# Shear Modulus (GPa) = 21.45503 35.26921 28.36212
#
# Velocity S-wave (km/s) = 3.10829 3.98525 3.57377
# Velocity P-wave (km/s) = 4.92371 6.83772 5.95808
#
# Compressibility (1/GPa) = 0.03963697
#
# Stress axis : x y z
#
# Youngs Moduli (GPa) = 74.84769 58.53344 52.17272
#
# Poissons Ratio (x) = 0.23133 -0.01723
# Poissons Ratio (y) = 0.29581 0.07124
# Poissons Ratio (z) = -0.02472 0.07993
#
# Static dielectric constant tensor:
#      x y z
#    x 1.885830 -0.070920 -0.005770 
#    y -0.070920 1.857030 0.039390 
#    z -0.005770 0.039390 1.852500 
# 
# From -- ./inp_files/205872.got.cif
#   From: 2010.05.17/outbox.cif.g08.bks.cpg/sg2_103_cif.got.tgz:205872.got - 2010.06.03 11:33:40.
