data_PCOD9004842
_publ_section_title
;
Structure prediction by ZEFSAII (Michael W. Deem and Ramdas Pophale) SiO2 
 PCOD9004842
Probable space group: P -1
;
_chemical_formula_sum "Si O2"
_cell_formula_units_Z 16
_cell_length_a 15.221380
_cell_length_b 8.788054
_cell_length_c 9.236011
_cell_angle_alpha 94.629154
_cell_angle_beta 55.795105
_cell_angle_gamma 61.062578
_cell_volume 780.841001
_symmetry_space_group_name_H-M "P -1"
_symmetry_group_IT_number 2
_symmetry_cell_setting 'triclinic'
loop_
_space_group_symop_operation_xyz
x,y,z
-x,-y,-z
loop_
_atom_site_type_symbol
_atom_site_label
_atom_site_fract_x
_atom_site_fract_y
_atom_site_fract_z
Si Si1 0.621413 0.228134 0.179628
Si Si2 0.417031 0.919865 0.076273
Si Si3 0.463233 0.862089 0.479853
Si Si4 0.614714 0.561070 0.063454
Si Si5 0.905111 0.455436 0.157254
Si Si6 0.915044 0.291070 0.834092
Si Si7 0.061836 0.031236 0.082024
Si Si8 0.212643 0.170444 0.544185
O O1 0.526516 0.260168 0.402179
O O2 0.589244 0.416843 0.143527
O O3 0.626658 0.092990 0.042537
O O4 0.774655 0.102449 0.092235
O O5 0.517473 0.695863 0.030680
O O6 0.291715 0.067099 0.313793
O O7 0.500000 0.000000 0.000000
O O8 0.565152 0.721215 0.246829
O O9 0.500000 0.000000 0.500000
O O10 0.308156 0.000531 0.564571
O O11 0.778562 0.432565 0.873387
O O12 0.797548 0.647058 0.370927
O O13 0.990681 0.261222 0.164832
O O14 0.861784 0.395738 0.052202
O O15 0.000000 0.500000 0.000000
O O16 0.056253 0.253230 0.676913
O O17 0.957107 0.073616 0.780516
O O18 0.000000 0.000000 0.000000
#
# Coordination Sequence:
#
# PCOD9004842 Si02
#       8
#     2   2   2   2   2   2   2   2
#     4  11  21  39  63  86 119 162 200 245 298 351
#     4  11  25  43  59  83 122 163 201 243 294 357
#     4  11  21  36  61  92 120 155 200 248 296 351
#     4  10  22  39  61  88 117 154 200 247 296 354
#     4   9  16  29  53  85 115 146 185 238 291 339
#     4   9  18  35  59  84 113 147 192 246 296 346
#     4   9  18  33  56  88 119 147 187 243 300 349
#     4  10  21  38  59  86 118 154 195 242 294 353
#
# _framework density 20.490728000000001
#
# number of rings (size 3 to 8) (size 9 to 14) (size 15 to 20)
#    0.000    2.000    0.000    5.250    0.000    3.000 
#    0.000   12.500    0.000    1.500    0.000    0.000 
#    0.000    0.000    0.000    0.000    0.000    0.000 
#
# Total GULP energy -89194.940253 kJ/mol
# GULP energy per Si atom -5574.683766 kJ/mol
# Density = 2.044409 g / cm^3
# Si number density = 20.490728 Si / 1000 Ang^3
#
#
#
# Elastic Constant Matrix: (Units=GPa)
#
#
# Indices 1 2 3 4 5 6 
#
# 1 76.7613 11.2486 24.1442 -3.2758 -9.5372 0.9204
# 2 11.2486 85.4067 11.6520 17.6322 -11.0177 0.3933
# 3 24.1442 11.6520 49.8864 2.3613 -6.9018 -12.2220
# 4 -3.2758 17.6322 2.3613 26.3528 0.5606 -0.2869
# 5 -9.5372 -11.0177 -6.9018 0.5606 27.5440 4.1068
# 6 0.9204 0.3933 -12.2220 -0.2869 4.1068 28.7216
#
#
#
# Elastic Compliance Matrix: (Units=1/GPa)
#
#
# Indices 1 2 3 4 5 6 
#
# 1 0.016554 -0.001246 -0.008507 0.003524 0.003720 -0.004630
# 2 -0.001246 0.014975 -0.002133 -0.010122 0.005523 -0.001963
# 3 -0.008507 -0.002133 0.027883 -0.002030 0.001449 0.011939
# 4 0.003524 -0.010122 -0.002030 0.045433 -0.004296 0.000230
# 5 0.003720 0.005523 0.001449 -0.004296 0.041073 -0.005494
# 6 -0.004630 -0.001963 0.011939 0.000230 -0.005494 0.040861
#
#
# Mechanical properties :
#
#
# Convention : Reuss Voigt Hill
#
# Bulk Modulus (GPa) = 28.05823 34.01600 31.03711
# Shear Modulus (GPa) = 22.47898 27.52431 25.00164
#
# Velocity S-wave (km/s) = 3.31574 3.66902 3.49685
# Velocity P-wave (km/s) = 5.32745 5.88096 5.61103
#
# Compressibility (1/GPa) = 0.03564017
#
# Stress axis : x y z
#
# Youngs Moduli (GPa) = 60.40827 66.77817 35.86441
#
# Poissons Ratio (x) = 0.08320 0.30511
# Poissons Ratio (y) = 0.07526 0.07648
# Poissons Ratio (z) = 0.51392 0.14240
#
# Static dielectric constant tensor:
#      x y z
#    x 1.742440 0.042080 -0.027230 
#    y 0.042080 1.703620 0.023090 
#    z -0.027230 0.023090 1.717260 
# 
# From -- ./inp_files/244035.got.cif
#   From: 2010.05.17/outbox.cif.g08.bks.cpg/sg2_123_cif.got.tgz:244035.got - 2010.06.03 11:33:40.
