data_PCOD9004831
_publ_section_title
;
Structure prediction by ZEFSAII (Michael W. Deem and Ramdas Pophale) SiO2 
 PCOD9004831
Probable space group: P -1
;
_chemical_formula_sum "Si O2"
_cell_formula_units_Z 16
_cell_length_a 17.606692
_cell_length_b 16.232256
_cell_length_c 9.160244
_cell_angle_alpha 37.270794
_cell_angle_beta 108.156702
_cell_angle_gamma 137.086305
_cell_volume 813.150340
_symmetry_space_group_name_H-M "P -1"
_symmetry_group_IT_number 2
_symmetry_cell_setting 'triclinic'
loop_
_space_group_symop_operation_xyz
x,y,z
-x,-y,-z
loop_
_atom_site_type_symbol
_atom_site_label
_atom_site_fract_x
_atom_site_fract_y
_atom_site_fract_z
Si Si1 0.001645 0.662075 0.646671
Si Si2 0.066982 0.226365 0.800912
Si Si3 0.418824 0.748400 0.246109
Si Si4 0.264790 0.136528 0.352336
Si Si5 0.484849 0.696333 0.622532
Si Si6 0.544739 0.042703 0.632171
Si Si7 0.848577 0.406684 0.195985
Si Si8 0.968678 0.092863 0.261678
O O1 0.049184 0.578677 0.750198
O O2 0.975873 0.710125 0.418714
O O3 0.135366 0.914089 0.472456
O O4 0.857681 0.450390 0.965396
O O5 0.245792 0.485481 0.551466
O O6 0.996326 0.123109 0.064529
O O7 0.000000 0.000000 0.000000
O O8 0.500621 0.746530 0.387714
O O9 0.500000 0.000000 0.000000
O O10 0.440057 0.800905 0.012497
O O11 0.370704 0.159790 0.415523
O O12 0.189274 0.076525 0.542305
O O13 0.360224 0.402237 0.982126
O O14 0.442706 0.784573 0.539373
O O15 0.695247 0.173047 0.516933
O O16 0.500000 0.000000 0.500000
O O17 0.917847 0.635159 0.992365
O O18 0.000000 0.000000 0.500000
#
# Coordination Sequence:
#
# PCOD9004831 Si02
#       8
#     2   2   2   2   2   2   2   2
#     4  10  22  39  60  90 125 156 201 256 313 358
#     4  12  24  40  64  92 125 160 201 259 310 359
#     4  10  22  38  59  86 119 156 198 245 297 359
#     4  10  21  39  62  85 118 162 202 251 304 366
#     4  10  21  39  60  84 119 161 204 246 304 366
#     4  11  21  35  59  86 117 155 202 250 302 363
#     4  10  21  38  59  85 120 160 200 250 301 365
#     4  11  22  38  61  87 119 160 206 246 300 370
#
# _framework density 19.676559000000001
#
# number of rings (size 3 to 8) (size 9 to 14) (size 15 to 20)
#    0.000    1.500    0.000    6.750    0.000    7.500 
#    0.000    0.000    0.000    5.250    0.000    0.000 
#    0.000    0.000    0.000    0.000    0.000    0.000 
#
# Total GULP energy -89223.715126 kJ/mol
# GULP energy per Si atom -5576.482195 kJ/mol
# Density = 1.963177 g / cm^3
# Si number density = 19.676559 Si / 1000 Ang^3
#
#
#
# Elastic Constant Matrix: (Units=GPa)
#
#
# Indices 1 2 3 4 5 6 
#
# 1 83.2362 27.6944 31.9518 18.6477 -5.5815 -9.5895
# 2 27.6944 79.1652 36.0918 27.0409 6.0545 -1.1808
# 3 31.9518 36.0918 107.1513 26.9099 -1.7602 0.6313
# 4 18.6477 27.0409 26.9099 48.3814 3.3140 1.7080
# 5 -5.5815 6.0545 -1.7602 3.3140 29.7228 1.0945
# 6 -9.5895 -1.1808 0.6313 1.7080 1.0945 30.7346
#
#
#
# Elastic Compliance Matrix: (Units=1/GPa)
#
#
# Indices 1 2 3 4 5 6 
#
# 1 0.015682 -0.003407 -0.002734 -0.003040 0.003637 0.004857
# 2 -0.003407 0.017916 -0.003441 -0.006535 -0.003771 0.000194
# 3 -0.002734 -0.003441 0.012324 -0.003936 0.001396 -0.001069
# 4 -0.003040 -0.006535 -0.003936 0.027945 -0.002493 -0.002583
# 5 0.003637 -0.003771 0.001396 -0.002493 0.035462 -0.000163
# 6 0.004857 0.000194 -0.001069 -0.002583 -0.000163 0.034231
#
#
# Mechanical properties :
#
#
# Convention : Reuss Voigt Hill
#
# Bulk Modulus (GPa) = 37.37052 51.22541 44.29796
# Shear Modulus (GPa) = 29.13046 33.35540 31.24293
#
# Velocity S-wave (km/s) = 3.85186 4.12173 3.98908
# Velocity P-wave (km/s) = 6.23025 6.98153 6.61656
#
# Compressibility (1/GPa) = 0.02675906
#
# Stress axis : x y z
#
# Youngs Moduli (GPa) = 63.76912 55.81695 81.13936
#
# Poissons Ratio (x) = 0.19015 0.22184
# Poissons Ratio (y) = 0.21724 0.27917
# Poissons Ratio (z) = 0.17435 0.19204
#
# Static dielectric constant tensor:
#      x y z
#    x 2.043250 -0.084470 -0.006440 
#    y -0.084470 1.710070 0.085540 
#    z -0.006440 0.085540 1.629120 
# 
# From -- ./inp_files/263103.got.cif
#   From: 2010.05.17/outbox.cif.g08.bks.cpg/sg2_132_cif.got.tgz:263103.got - 2010.06.03 11:33:40.
