data_PCOD9004256
_publ_section_title
;
Structure prediction by ZEFSAII (Michael W. Deem and Ramdas Pophale) SiO2 
 PCOD9004256
Probable space group: P -1
;
_chemical_formula_sum "Si O2"
_cell_formula_units_Z 16
_cell_length_a 11.201398
_cell_length_b 18.023938
_cell_length_c 5.621724
_cell_angle_alpha 128.549065
_cell_angle_beta 48.661878
_cell_angle_gamma 126.156035
_cell_volume 634.973674
_symmetry_space_group_name_H-M "P -1"
_symmetry_group_IT_number 2
_symmetry_cell_setting 'triclinic'
loop_
_space_group_symop_operation_xyz
x,y,z
-x,-y,-z
loop_
_atom_site_type_symbol
_atom_site_label
_atom_site_fract_x
_atom_site_fract_y
_atom_site_fract_z
Si Si1 0.678733 0.022541 0.166084
Si Si2 0.258006 0.289494 0.990895
Si Si3 0.494790 0.380223 0.491283
Si Si4 0.542882 0.821373 0.043853
Si Si5 0.636194 0.171107 0.206135
Si Si6 0.993847 0.288599 0.925381
Si Si7 0.758779 0.544965 0.280056
Si Si8 0.007783 0.115160 0.188255
O O1 0.668772 0.063975 0.998123
O O2 0.837846 0.101115 0.230984
O O3 0.500000 0.000000 0.500000
O O4 0.700444 0.913537 0.943402
O O5 0.441910 0.329882 0.715145
O O6 0.125154 0.289001 0.957597
O O7 0.246168 0.374154 0.354373
O O8 0.182325 0.176735 0.956935
O O9 0.683733 0.438951 0.292857
O O10 0.379998 0.451380 0.730411
O O11 0.431262 0.285399 0.214586
O O12 0.472362 0.829067 0.414004
O O13 0.425967 0.821986 0.965744
O O14 0.804652 0.260278 0.197703
O O15 0.059981 0.400816 0.956465
O O16 0.996590 0.195163 0.565031
O O17 0.000000 0.000000 0.000000
#
# Coordination Sequence:
#
# PCOD9004256 Si02
#       8
#     2   2   2   2   2   2   2   2
#     4  10  22  41  64  91 130 185 219 262 330 400
#     4  10  21  37  65  89 124 172 210 264 333 408
#     4  10  22  41  62  98 124 166 217 278 336 393
#     4  11  26  40  69  95 131 172 230 279 316 396
#     4  11  23  45  65  93 131 182 221 269 329 397
#     4  10  21  40  64  89 125 174 216 262 339 400
#     4   9  21  40  67  90 129 165 212 270 349 401
#     4  11  24  38  61 100 138 170 223 282 327 396
#
# _framework density 25.197894999999999
#
# number of rings (size 3 to 8) (size 9 to 14) (size 15 to 20)
#    0.000    1.750    1.250    2.250    8.750    3.500 
#    0.000    1.250    0.000    0.000    0.000    0.000 
#    0.000    0.000    0.000    0.000    0.000    0.000 
#
# Total GULP energy -89201.782508 kJ/mol
# GULP energy per Si atom -5575.111407 kJ/mol
# Density = 2.514054 g / cm^3
# Si number density = 25.197895 Si / 1000 Ang^3
#
#
#
# Elastic Constant Matrix: (Units=GPa)
#
#
# Indices 1 2 3 4 5 6 
#
# 1 110.3117 24.1200 4.0301 -10.3177 12.4469 7.8515
# 2 24.1200 174.5276 11.4560 -43.2369 -2.0243 21.5384
# 3 4.0301 11.4560 39.9910 -19.1801 3.0174 -0.7179
# 4 -10.3177 -43.2369 -19.1801 43.8133 8.4689 2.7527
# 5 12.4469 -2.0243 3.0174 8.4689 21.2514 -5.7758
# 6 7.8515 21.5384 -0.7179 2.7527 -5.7758 33.1518
#
#
#
# Elastic Compliance Matrix: (Units=1/GPa)
#
#
# Indices 1 2 3 4 5 6 
#
# 1 0.011113 0.000496 0.002713 0.006758 -0.011000 -0.005373
# 2 0.000496 0.009767 0.004109 0.013614 -0.007777 -0.008860
# 3 0.002713 0.004109 0.036704 0.024810 -0.018412 -0.007785
# 4 0.006758 0.013614 0.024810 0.056647 -0.034356 -0.020598
# 5 -0.011000 -0.007777 -0.018412 -0.034356 0.075381 0.023245
# 6 -0.005373 -0.008860 -0.007785 -0.020598 0.023245 0.042784
#
#
# Mechanical properties :
#
#
# Convention : Reuss Voigt Hill
#
# Bulk Modulus (GPa) = 13.84662 44.89361 29.37012
# Shear Modulus (GPa) = 20.67535 38.65825 29.66680
#
# Velocity S-wave (km/s) = 2.86758 3.92112 3.43498
# Velocity P-wave (km/s) = 4.05846 6.19317 5.23576
#
# Compressibility (1/GPa) = 0.07221977
#
# Stress axis : x y z
#
# Youngs Moduli (GPa) = 89.98118 102.38058 27.24534
#
# Poissons Ratio (x) = -0.05074 -0.07391
# Poissons Ratio (y) = -0.04460 -0.11196
# Poissons Ratio (z) = -0.24408 -0.42072
#
# Static dielectric constant tensor:
#      x y z
#    x 2.107670 -0.106670 -0.074050 
#    y -0.106670 2.082220 0.044100 
#    z -0.074050 0.044100 2.122560 
# 
# From -- ./inp_files/81556.got.cif
#   From: 2010.05.17/outbox.cif.g08.bks.cpg/sg2_41_cif.got.tgz:81556.got - 2010.06.03 11:33:40.
