data_PCOD9004644
_publ_section_title
;
Structure prediction by ZEFSAII (Michael W. Deem and Ramdas Pophale) SiO2 
 PCOD9004644
Probable space group: P -1
;
_chemical_formula_sum "Si O2"
_cell_formula_units_Z 16
_cell_length_a 13.109672
_cell_length_b 6.498660
_cell_length_c 10.355130
_cell_angle_alpha 50.036463
_cell_angle_beta 71.289565
_cell_angle_gamma 70.698200
_cell_volume 630.948022
_symmetry_space_group_name_H-M "P -1"
_symmetry_group_IT_number 2
_symmetry_cell_setting 'triclinic'
loop_
_space_group_symop_operation_xyz
x,y,z
-x,-y,-z
loop_
_atom_site_type_symbol
_atom_site_label
_atom_site_fract_x
_atom_site_fract_y
_atom_site_fract_z
Si Si1 0.539474 0.208555 0.801893
Si Si2 0.074242 0.213217 0.432768
Si Si3 0.229813 0.052714 0.117437
Si Si4 0.991043 0.182447 0.761907
Si Si5 0.571729 0.217537 0.343617
Si Si6 0.237013 0.725576 0.576261
Si Si7 0.890190 0.378205 0.069072
Si Si8 0.667652 0.846009 0.243995
O O1 0.507777 0.501952 0.762022
O O2 0.457253 0.196981 0.719798
O O3 0.669480 0.122072 0.775101
O O4 0.500000 0.000000 0.000000
O O5 0.038964 0.524093 0.274357
O O6 0.057584 0.236511 0.583907
O O7 0.189206 0.028877 0.425359
O O8 0.000000 0.000000 0.500000
O O9 0.122483 0.910818 0.201499
O O10 0.194533 0.365497 0.053836
O O11 0.276675 0.088753 0.938815
O O12 0.070071 0.916081 0.895972
O O13 0.647735 0.263236 0.412141
O O14 0.500000 0.000000 0.500000
O O15 0.652261 0.099787 0.243279
O O16 0.158393 0.679577 0.747464
O O17 0.260499 0.430840 0.614706
O O18 0.000000 0.500000 0.000000
#
# Coordination Sequence:
#
# PCOD9004644 Si02
#       8
#     2   2   2   2   2   2   2   2
#     4   9  20  38  58  88 124 152 197 255 300 352
#     4  10  21  38  56  86 122 160 196 243 298 360
#     4   9  17  35  63  90 117 157 199 248 303 356
#     4   9  19  35  58  85 123 153 195 247 293 356
#     4  11  24  40  61  87 119 163 206 249 299 364
#     4   9  20  37  58  84 119 153 199 244 295 351
#     4   8  15  33  59  84 113 154 189 238 298 350
#     4   9  20  40  61  83 121 158 197 247 302 354
#
# _framework density 25.358664999999998
#
# number of rings (size 3 to 8) (size 9 to 14) (size 15 to 20)
#    0.000    2.750    0.000    0.750    1.750    7.000 
#    2.250    7.500    0.000   15.000    0.000    0.000 
#    0.000    0.000    0.000    0.000    0.000    0.000 
#
# Total GULP energy -89387.543290 kJ/mol
# GULP energy per Si atom -5586.721456 kJ/mol
# Density = 2.530095 g / cm^3
# Si number density = 25.358665 Si / 1000 Ang^3
#
#
#
# Elastic Constant Matrix: (Units=GPa)
#
#
# Indices 1 2 3 4 5 6 
#
# 1 91.9945 41.4829 19.9001 -20.3543 1.9120 -29.8626
# 2 41.4829 203.2952 57.7836 -49.2937 21.2737 -43.2458
# 3 19.9001 57.7836 116.3495 -30.7861 2.0056 -22.4372
# 4 -20.3543 -49.2937 -30.7861 64.4071 -18.0973 8.2102
# 5 1.9120 21.2737 2.0056 -18.0973 39.1678 -8.6500
# 6 -29.8626 -43.2458 -22.4372 8.2102 -8.6500 46.7373
#
#
#
# Elastic Compliance Matrix: (Units=1/GPa)
#
#
# Indices 1 2 3 4 5 6 
#
# 1 0.014867 -0.000569 0.000608 0.004400 0.003608 0.009160
# 2 -0.000569 0.007644 -0.001678 0.003914 -0.001123 0.005009
# 3 0.000608 -0.001678 0.011304 0.004747 0.003392 0.004056
# 4 0.004400 0.003914 0.004747 0.024182 0.009983 0.006312
# 5 0.003608 -0.001123 0.003392 0.009983 0.031963 0.007056
# 6 0.009160 0.005009 0.004056 0.006312 0.007056 0.034028
#
#
# Mechanical properties :
#
#
# Convention : Reuss Voigt Hill
#
# Bulk Modulus (GPa) = 32.74635 72.21915 52.48275
# Shear Modulus (GPa) = 36.37830 49.56058 42.96944
#
# Velocity S-wave (km/s) = 3.79166 4.42564 4.12086
# Velocity P-wave (km/s) = 5.66658 7.39297 6.58658
#
# Compressibility (1/GPa) = 0.03053776
#
# Stress axis : x y z
#
# Youngs Moduli (GPa) = 67.26305 130.81956 88.46349
#
# Poissons Ratio (x) = 0.07439 -0.05379
# Poissons Ratio (y) = 0.03825 0.14845
# Poissons Ratio (z) = -0.04090 0.21953
#
# Static dielectric constant tensor:
#      x y z
#    x 2.283470 -0.140870 0.161200 
#    y -0.140870 2.139120 -0.103000 
#    z 0.161200 -0.103000 2.152090 
# 
# From -- ./inp_files/97279.got.cif
#   From: 2010.05.17/outbox.cif.g08.bks.cpg/sg2_49_cif.got.tgz:97279.got - 2010.06.03 11:33:40.
