data_PCOD9004483
_publ_section_title
;
Structure prediction by ZEFSAII (Michael W. Deem and Ramdas Pophale) SiO2 
 PCOD9004483
Probable space group: P -1
;
_chemical_formula_sum "Si O2"
_cell_formula_units_Z 14
_cell_length_a 18.732329
_cell_length_b 5.678876
_cell_length_c 10.334677
_cell_angle_alpha 67.899779
_cell_angle_beta 43.411906
_cell_angle_gamma 47.191105
_cell_volume 539.041402
_symmetry_space_group_name_H-M "P -1"
_symmetry_group_IT_number 2
_symmetry_cell_setting 'triclinic'
loop_
_space_group_symop_operation_xyz
x,y,z
-x,-y,-z
loop_
_atom_site_type_symbol
_atom_site_label
_atom_site_fract_x
_atom_site_fract_y
_atom_site_fract_z
Si Si1 0.014126 0.285503 0.905238
Si Si2 0.150848 0.246779 0.410597
Si Si3 0.759463 0.670450 0.990471
Si Si4 0.845052 0.258648 0.596894
Si Si5 0.553894 0.624129 0.009811
Si Si6 0.705998 0.276391 0.297411
Si Si7 0.468405 0.716078 0.673439
O O1 0.172284 0.038127 0.722997
O O2 0.000000 0.500000 0.000000
O O3 0.897620 0.547131 0.904287
O O4 0.000000 0.000000 0.000000
O O5 0.171915 0.414973 0.461368
O O6 0.000000 0.500000 0.500000
O O7 0.170607 0.914442 0.463979
O O8 0.233292 0.240279 0.182786
O O9 0.756613 0.377376 0.091944
O O10 0.622856 0.983261 0.170906
O O11 0.717605 0.372808 0.830159
O O12 0.000000 0.000000 0.500000
O O13 0.500000 0.500000 0.000000
O O14 0.509528 0.579109 0.215174
O O15 0.500000 0.000000 0.000000
O O16 0.612017 0.578264 0.458451
O O17 0.619150 0.199473 0.356169
#
# Coordination Sequence:
#
# PCOD9004483 Si02
#       7
#     2   2   2   2   2   2   2
#     4  10  21  40  62  97 129 164 217 283 332 386
#     4  10  21  37  67  99 132 174 232 276 336 418
#     4  11  21  39  72  93 140 175 230 283 349 408
#     4  10  21  43  67  94 129 178 236 278 334 414
#     4  12  27  47  69 101 145 186 232 292 356 412
#     4  10  23  42  68 104 134 180 237 279 352 414
#     4  11  23  43  71  96 137 189 231 281 343 429
#
# _framework density 25.972028999999999
#
# number of rings (size 3 to 8) (size 9 to 14) (size 15 to 20)
#    0.000    1.429    2.857    2.143    2.000    0.000 
#   10.286    0.000    0.000    0.000    0.000    0.000 
#    0.000    0.000    0.000    0.000    0.000    0.000 
#
# Total GULP energy -78099.015267 kJ/mol
# GULP energy per Si atom -5578.501091 kJ/mol
# Density = 2.591292 g / cm^3
# Si number density = 25.972029 Si / 1000 Ang^3
#
#
#
# Elastic Constant Matrix: (Units=GPa)
#
#
# Indices 1 2 3 4 5 6 
#
# 1 134.5096 61.9048 36.6269 0.1897 -5.5630 27.8204
# 2 61.9048 153.0826 47.2819 -7.9711 7.4426 32.0473
# 3 36.6269 47.2819 123.5647 10.3574 -15.2636 -13.0320
# 4 0.1897 -7.9711 10.3574 50.3217 -7.3669 -3.8865
# 5 -5.5630 7.4426 -15.2636 -7.3669 32.5474 4.5665
# 6 27.8204 32.0473 -13.0320 -3.8865 4.5665 53.9339
#
#
#
# Elastic Compliance Matrix: (Units=1/GPa)
#
#
# Indices 1 2 3 4 5 6 
#
# 1 0.010252 -0.002606 -0.002273 -0.000050 0.001896 -0.004453
# 2 -0.002606 0.010322 -0.004340 0.001575 -0.003726 -0.005409
# 3 -0.002273 -0.004340 0.011829 -0.001934 0.004864 0.006058
# 4 -0.000050 0.001575 -0.001934 0.021021 0.003505 -0.000159
# 5 0.001896 -0.003726 0.004864 0.003505 0.035017 -0.000301
# 6 -0.004453 -0.005409 0.006058 -0.000159 -0.000301 0.025530
#
#
# Mechanical properties :
#
#
# Convention : Reuss Voigt Hill
#
# Bulk Modulus (GPa) = 71.60610 78.08713 74.84662
# Shear Modulus (GPa) = 36.47905 45.05016 40.76461
#
# Velocity S-wave (km/s) = 3.75180 4.16933 3.96606
# Velocity P-wave (km/s) = 6.81163 7.30129 7.06071
#
# Compressibility (1/GPa) = 0.01396529
#
# Stress axis : x y z
#
# Youngs Moduli (GPa) = 97.53838 96.87703 84.53680
#
# Poissons Ratio (x) = 0.25251 0.19214
# Poissons Ratio (y) = 0.25423 0.36688
# Poissons Ratio (z) = 0.22169 0.42044
#
# Static dielectric constant tensor:
#      x y z
#    x 2.010660 -0.017810 -0.020480 
#    y -0.017810 1.988730 0.154600 
#    z -0.020480 0.154600 1.961460 
# 
# From -- ./inp_files/468046.got.cif
#   From: 2010.05.17/outbox.cif.g08.bks.cpg/sg2_235_cif.got.tgz:468046.got - 2010.06.03 11:33:40.
