data_PCOD9004679
_publ_section_title
;
Structure prediction by ZEFSAII (Michael W. Deem and Ramdas Pophale) SiO2 
 PCOD9004679
Probable space group: P -1
;
_chemical_formula_sum "Si O2"
_cell_formula_units_Z 14
_cell_length_a 5.112004
_cell_length_b 9.407746
_cell_length_c 23.096407
_cell_angle_alpha 37.270669
_cell_angle_beta 83.990796
_cell_angle_gamma 75.506061
_cell_volume 642.737885
_symmetry_space_group_name_H-M "P -1"
_symmetry_group_IT_number 2
_symmetry_cell_setting 'triclinic'
loop_
_space_group_symop_operation_xyz
x,y,z
-x,-y,-z
loop_
_atom_site_type_symbol
_atom_site_label
_atom_site_fract_x
_atom_site_fract_y
_atom_site_fract_z
Si Si1 0.073674 0.954390 0.694285
Si Si2 0.923284 0.542783 0.771718
Si Si3 0.435896 0.266209 0.781116
Si Si4 0.489009 0.154520 0.690800
Si Si5 0.655453 0.722262 0.602613
Si Si6 0.275355 0.874142 0.069014
Si Si7 0.063904 0.616595 0.521004
O O1 0.812614 0.073885 0.701903
O O2 0.997868 0.104352 0.587290
O O3 0.341255 0.004364 0.700356
O O4 0.060695 0.684472 0.767677
O O5 0.784974 0.713561 0.666204
O O6 0.708449 0.413324 0.846133
O O7 0.163137 0.333232 0.803780
O O8 0.414368 0.127901 0.767584
O O9 0.479741 0.528135 0.676982
O O10 0.683973 0.122578 0.863163
O O11 0.363359 0.441476 0.584878
O O12 0.878000 0.616202 0.581584
O O13 0.500000 0.000000 0.500000
O O14 0.500000 0.000000 0.000000
O O15 0.000000 0.000000 0.000000
O O16 0.000000 0.500000 0.500000
#
# Coordination Sequence:
#
# PCOD9004679 Si02
#       7
#     2   2   2   2   2   2   2
#     4  11  26  39  63  93 138 182 224 272 324 377
#     4  11  25  42  68 102 132 175 223 277 341 392
#     4  11  23  42  71  98 131 174 230 268 335 398
#     4  11  24  42  62  93 135 185 225 270 315 392
#     4  11  24  37  62  97 142 179 224 281 323 380
#     4  11  24  44  75 104 127 161 219 287 343 404
#     4  10  21  38  57  87 132 188 234 256 310 375
#
# _framework density 21.781818999999999
#
# number of rings (size 3 to 8) (size 9 to 14) (size 15 to 20)
#    0.000    1.143    2.857    3.000   12.000    1.143 
#    0.000    0.000    0.000    5.143    0.000    0.000 
#    0.000    0.000    0.000    0.000    0.000    0.000 
#
# Total GULP energy -78137.904962 kJ/mol
# GULP energy per Si atom -5581.278926 kJ/mol
# Density = 2.173224 g / cm^3
# Si number density = 21.781819 Si / 1000 Ang^3
#
#
#
# Elastic Constant Matrix: (Units=GPa)
#
#
# Indices 1 2 3 4 5 6 
#
# 1 86.0503 22.8739 34.8083 -1.7483 -5.4340 7.0359
# 2 22.8739 53.6984 40.7519 6.5562 -8.2494 18.4004
# 3 34.8083 40.7519 123.6219 10.0668 0.8373 11.3538
# 4 -1.7483 6.5562 10.0668 12.0240 10.8461 1.5857
# 5 -5.4340 -8.2494 0.8373 10.8461 50.0943 2.3545
# 6 7.0359 18.4004 11.3538 1.5857 2.3545 43.2514
#
#
#
# Elastic Compliance Matrix: (Units=1/GPa)
#
#
# Indices 1 2 3 4 5 6 
#
# 1 0.014274 -0.005072 -0.003051 0.008290 -0.001049 0.000390
# 2 -0.005072 0.034470 -0.007187 -0.021371 0.010425 -0.011737
# 3 -0.003051 -0.007187 0.011749 -0.006067 -0.000431 0.000716
# 4 0.008290 -0.021371 -0.006067 0.127765 -0.030478 0.006311
# 5 -0.001049 0.010425 -0.000431 -0.030478 0.028387 -0.004579
# 6 0.000390 -0.011737 0.000716 0.006311 -0.004579 0.027880
#
#
# Mechanical properties :
#
#
# Convention : Reuss Voigt Hill
#
# Bulk Modulus (GPa) = 33.47558 51.13766 42.30662
# Shear Modulus (GPa) = 17.53760 32.06971 24.80365
#
# Velocity S-wave (km/s) = 2.84059 3.84124 3.37817
# Velocity P-wave (km/s) = 5.11474 6.57280 5.88907
#
# Compressibility (1/GPa) = 0.02987252
#
# Stress axis : x y z
#
# Youngs Moduli (GPa) = 70.05885 29.01079 85.11556
#
# Poissons Ratio (x) = 0.14713 0.25968
# Poissons Ratio (y) = 0.35531 0.61175
# Poissons Ratio (z) = 0.21375 0.20851
#
# Static dielectric constant tensor:
#      x y z
#    x 1.871790 0.002310 -0.000570 
#    y 0.002310 1.803770 -0.027130 
#    z -0.000570 -0.027130 1.881230 
# 
# From -- ./inp_files/548432.got.cif
#   From: 2010.05.17/outbox.cif.g08.bks.cpg/sg2_275_cif.got.tgz:548432.got - 2010.06.03 11:33:40.
