data_PCOD9004159
_publ_section_title
;
Structure prediction by ZEFSAII (Michael W. Deem and Ramdas Pophale) SiO2 
 PCOD9004159
Probable space group: P -1
;
_chemical_formula_sum "Si O2"
_cell_formula_units_Z 16
_cell_length_a 20.983322
_cell_length_b 8.663516
_cell_length_c 8.664578
_cell_angle_alpha 52.087444
_cell_angle_beta 44.726634
_cell_angle_gamma 42.945005
_cell_volume 740.408613
_symmetry_space_group_name_H-M "P -1"
_symmetry_group_IT_number 2
_symmetry_cell_setting 'triclinic'
loop_
_space_group_symop_operation_xyz
x,y,z
-x,-y,-z
loop_
_atom_site_type_symbol
_atom_site_label
_atom_site_fract_x
_atom_site_fract_y
_atom_site_fract_z
Si Si1 0.506011 0.079660 0.112927
Si Si2 0.973889 0.913874 0.253142
Si Si3 0.740015 0.743313 0.057595
Si Si4 0.627639 0.395844 0.000432
Si Si5 0.793709 0.448165 0.872997
Si Si6 0.789631 0.880183 0.482616
Si Si7 0.662684 0.958305 0.363838
Si Si8 0.774864 0.115100 0.644561
O O1 0.472309 0.345862 0.004911
O O2 0.622652 0.909331 0.084602
O O3 0.422507 0.060949 0.376908
O O4 0.500000 0.000000 0.000000
O O5 0.911790 0.793926 0.366668
O O6 0.085688 0.753633 0.243294
O O7 0.883955 0.095307 0.416058
O O8 0.000000 0.000000 0.000000
O O9 0.722442 0.752959 0.263480
O O10 0.787682 0.505331 0.030575
O O11 0.801856 0.874308 0.829031
O O12 0.705011 0.404721 0.989789
O O13 0.695798 0.310667 0.777049
O O14 0.608242 0.197913 0.214340
O O15 0.770845 0.680244 0.686997
O O16 0.750141 0.947256 0.336755
O O17 0.726730 0.099017 0.572388
#
# Coordination Sequence:
#
# PCOD9004159 Si02
#       8
#     2   2   2   2   2   2   2   2
#     4  12  23  44  64  94 127 165 211 257 317 367
#     4  10  21  37  64  94 125 161 214 257 308 375
#     4  10  22  41  64  92 126 165 210 263 302 377
#     4  11  23  41  68  92 126 169 203 259 317 368
#     4  11  20  41  65  90 124 173 205 254 325 359
#     4   9  19  41  61  89 128 164 203 260 304 374
#     4  11  23  42  63  95 128 162 214 256 308 377
#     4   8  21  39  62  89 123 166 199 259 309 365
#
# _framework density 21.609690000000001
#
# number of rings (size 3 to 8) (size 9 to 14) (size 15 to 20)
#    0.750    1.000    2.500    2.250    0.000    4.000 
#    0.000    0.625    0.000    0.000    0.000    0.000 
#    0.000    0.000    0.000    0.000    0.000    0.000 
#
# Total GULP energy -89279.138681 kJ/mol
# GULP energy per Si atom -5579.946168 kJ/mol
# Density = 2.156051 g / cm^3
# Si number density = 21.609690 Si / 1000 Ang^3
#
#
#
# Elastic Constant Matrix: (Units=GPa)
#
#
# Indices 1 2 3 4 5 6 
#
# 1 32.5816 3.4458 8.7401 6.7590 12.9322 3.8087
# 2 3.4458 63.4662 13.8810 11.4862 11.4685 1.9193
# 3 8.7401 13.8810 116.0582 12.0071 11.7436 7.8310
# 4 6.7590 11.4862 12.0071 30.7039 10.4264 2.8073
# 5 12.9322 11.4685 11.7436 10.4264 41.0948 9.3857
# 6 3.8087 1.9193 7.8310 2.8073 9.3857 34.1828
#
#
#
# Elastic Compliance Matrix: (Units=1/GPa)
#
#
# Indices 1 2 3 4 5 6 
#
# 1 0.035856 0.000933 -0.001318 -0.004295 -0.009925 -0.000668
# 2 0.000933 0.017556 -0.001317 -0.005068 -0.003676 0.000638
# 3 -0.001318 -0.001317 0.009315 -0.002409 -0.000935 -0.001459
# 4 -0.004295 -0.005068 -0.002409 0.038498 -0.006285 -0.000121
# 5 -0.009925 -0.003676 -0.000935 -0.006285 0.031878 -0.006710
# 6 -0.000668 0.000638 -0.001459 -0.000121 -0.006710 0.031480
#
#
# Mechanical properties :
#
#
# Convention : Reuss Voigt Hill
#
# Bulk Modulus (GPa) = 16.85698 29.35997 23.10848
# Shear Modulus (GPa) = 26.62960 33.59892 30.11426
#
# Velocity S-wave (km/s) = 3.51422 3.94738 3.73708
# Velocity P-wave (km/s) = 4.92787 5.86445 5.41644
#
# Compressibility (1/GPa) = 0.05932259
#
# Stress axis : x y z
#
# Youngs Moduli (GPa) = 27.88972 56.96048 107.34871
#
# Poissons Ratio (x) = -0.05312 0.14149
# Poissons Ratio (y) = -0.02601 0.14135
# Poissons Ratio (z) = 0.03676 0.07500
#
# Static dielectric constant tensor:
#      x y z
#    x 1.825510 0.012670 -0.012190 
#    y 0.012670 1.793690 0.007900 
#    z -0.012190 0.007900 1.835470 
# 
# From -- ./inp_files/343414.got.cif
#   From: 2010.05.17/outbox.cif.g08.bks.cpg/sg2_172_cif.got.tgz:343414.got - 2010.06.03 11:33:40.
