data_PCOD9004467
_publ_section_title
;
Structure prediction by ZEFSAII (Michael W. Deem and Ramdas Pophale) SiO2 
 PCOD9004467
Probable space group: P -1
;
_chemical_formula_sum "Si O2"
_cell_formula_units_Z 16
_cell_length_a 14.385969
_cell_length_b 5.736527
_cell_length_c 11.776904
_cell_angle_alpha 103.732580
_cell_angle_beta 52.970359
_cell_angle_gamma 80.805955
_cell_volume 693.903614
_symmetry_space_group_name_H-M "P -1"
_symmetry_group_IT_number 2
_symmetry_cell_setting 'triclinic'
loop_
_space_group_symop_operation_xyz
x,y,z
-x,-y,-z
loop_
_atom_site_type_symbol
_atom_site_label
_atom_site_fract_x
_atom_site_fract_y
_atom_site_fract_z
Si Si1 0.929439 0.814385 0.491220
Si Si2 0.811076 0.596593 0.749807
Si Si3 0.108330 0.228365 0.927531
Si Si4 0.320033 0.302209 0.671362
Si Si5 0.455543 0.795451 0.360699
Si Si6 0.087036 0.745669 0.767294
Si Si7 0.460508 0.246179 0.965441
Si Si8 0.772054 0.274885 0.542081
O O1 0.852172 0.770228 0.649773
O O2 0.051153 0.580839 0.324438
O O3 0.826504 0.967817 0.492253
O O4 0.000000 0.000000 0.500000
O O5 0.760987 0.426156 0.682832
O O6 0.689908 0.696197 0.930855
O O7 0.249156 0.205828 0.809972
O O8 0.098882 0.013025 0.824475
O O9 0.000000 0.500000 0.000000
O O10 0.055210 0.200282 0.085965
O O11 0.422623 0.370144 0.673181
O O12 0.201832 0.528516 0.725960
O O13 0.391419 0.073336 0.503437
O O14 0.480418 0.828012 0.212924
O O15 0.357360 0.654282 0.419252
O O16 0.122400 0.680168 0.604260
O O17 0.500000 0.500000 0.000000
O O18 0.500000 0.000000 0.000000
#
# Coordination Sequence:
#
# PCOD9004467 Si02
#       8
#     2   2   2   2   2   2   2   2
#     4   9  21  41  66  93 133 169 229 293 355 434
#     4  10  22  43  66  98 137 179 231 295 357 432
#     4   9  19  41  61  90 130 164 221 285 346 416
#     4  10  23  44  64  96 140 181 242 284 350 417
#     4  11  24  45  66  98 138 193 235 297 344 427
#     4  10  21  37  67  96 126 174 223 288 351 422
#     4  12  27  48  73 105 146 191 246 297 362 436
#     4  11  21  38  68  97 128 181 227 280 362 425
#
# _framework density 23.057956000000001
#
# number of rings (size 3 to 8) (size 9 to 14) (size 15 to 20)
#    0.000    1.750    2.500    0.750    5.250    0.500 
#   15.750    0.000    0.000    0.000    0.000    0.000 
#    0.000    0.000    0.000    0.000    0.000    0.000 
#
# Total GULP energy -89125.969858 kJ/mol
# GULP energy per Si atom -5570.373116 kJ/mol
# Density = 2.300547 g / cm^3
# Si number density = 23.057956 Si / 1000 Ang^3
#
#
#
# Elastic Constant Matrix: (Units=GPa)
#
#
# Indices 1 2 3 4 5 6 
#
# 1 73.5524 15.3672 36.5486 1.5844 -14.3611 18.0860
# 2 15.3672 56.4617 11.5460 4.2867 -14.8071 2.5584
# 3 36.5486 11.5460 131.0016 -13.1936 -19.2655 6.5971
# 4 1.5844 4.2867 -13.1936 28.0772 12.1210 -1.2769
# 5 -14.3611 -14.8071 -19.2655 12.1210 38.2783 -8.7063
# 6 18.0860 2.5584 6.5971 -1.2769 -8.7063 26.3022
#
#
#
# Elastic Compliance Matrix: (Units=1/GPa)
#
#
# Indices 1 2 3 4 5 6 
#
# 1 0.020110 -0.002847 -0.004829 -0.004737 0.002870 -0.011620
# 2 -0.002847 0.021708 -0.000547 -0.007659 0.010156 0.002973
# 3 -0.004829 -0.000547 0.009638 0.004135 0.001927 0.001795
# 4 -0.004737 -0.007659 0.004135 0.046536 -0.017526 -0.000577
# 5 0.002870 0.010156 0.001927 -0.017526 0.039658 0.008832
# 6 -0.011620 0.002973 0.001795 -0.000577 0.008832 0.048166
#
#
# Mechanical properties :
#
#
# Convention : Reuss Voigt Hill
#
# Bulk Modulus (GPa) = 28.56307 43.10437 35.83372
# Shear Modulus (GPa) = 23.37198 31.70179 27.53688
#
# Velocity S-wave (km/s) = 3.18719 3.71195 3.45954
# Velocity P-wave (km/s) = 5.09496 6.09147 5.61536
#
# Compressibility (1/GPa) = 0.03501025
#
# Stress axis : x y z
#
# Youngs Moduli (GPa) = 49.72659 46.06630 103.75109
#
# Poissons Ratio (x) = 0.13115 0.50106
# Poissons Ratio (y) = 0.14157 0.05671
# Poissons Ratio (z) = 0.24015 0.02518
#
# Static dielectric constant tensor:
#      x y z
#    x 1.875490 -0.027250 -0.023760 
#    y -0.027250 2.016360 0.008290 
#    z -0.023760 0.008290 1.915120 
# 
# From -- ./inp_files/442144.got.cif
#   From: 2010.05.17/outbox.cif.g08.bks.cpg/sg2_222_cif.got.tgz:442144.got - 2010.06.03 11:33:40.
