data_PCOD9004948
_publ_section_title
;
Structure prediction by ZEFSAII (Michael W. Deem and Ramdas Pophale) SiO2 
 PCOD9004948
Probable space group: P -1
;
_chemical_formula_sum "Si O2"
_cell_formula_units_Z 16
_cell_length_a 12.984796
_cell_length_b 13.790101
_cell_length_c 10.550948
_cell_angle_alpha 132.574568
_cell_angle_beta 33.774719
_cell_angle_gamma 118.065322
_cell_volume 753.702791
_symmetry_space_group_name_H-M "P -1"
_symmetry_group_IT_number 2
_symmetry_cell_setting 'triclinic'
loop_
_space_group_symop_operation_xyz
x,y,z
-x,-y,-z
loop_
_atom_site_type_symbol
_atom_site_label
_atom_site_fract_x
_atom_site_fract_y
_atom_site_fract_z
Si Si1 0.276418 0.496046 0.319272
Si Si2 0.465047 0.100626 0.460865
Si Si3 0.299643 0.713120 0.677633
Si Si4 0.503113 0.188943 0.788237
Si Si5 0.978119 0.575718 0.288825
Si Si6 0.868454 0.290237 0.544230
Si Si7 0.721304 0.494227 0.289917
Si Si8 0.041887 0.130190 0.002372
O O1 0.376420 0.587599 0.390609
O O2 0.242939 0.568888 0.282749
O O3 0.078981 0.506170 0.606037
O O4 0.374600 0.338483 0.072434
O O5 0.541122 0.203222 0.383095
O O6 0.518977 0.147597 0.587219
O O7 0.554608 0.941667 0.206721
O O8 0.240400 0.113584 0.713687
O O9 0.218726 0.648930 0.824379
O O10 0.128854 0.810962 0.865708
O O11 0.711301 0.201569 0.631720
O O12 0.039583 0.697952 0.404485
O O13 0.794291 0.595470 0.402310
O O14 0.158145 0.504369 0.958617
O O15 0.027140 0.232565 0.226256
O O16 0.500000 0.500000 0.500000
O O17 0.000000 0.000000 0.000000
#
# Coordination Sequence:
#
# PCOD9004948 Si02
#       8
#     2   2   2   2   2   2   2   2
#     4  10  21  38  59  98 131 158 204 268 316 387
#     4  11  21  37  60  86 132 177 199 243 312 381
#     4  10  23  40  63  96 121 166 216 257 314 380
#     4  11  21  35  57  92 131 171 201 242 319 384
#     4  10  23  39  61  90 120 165 204 258 329 361
#     4  11  21  36  61  95 131 160 208 259 322 382
#     4  10  24  44  63  88 125 163 219 272 311 368
#     4  11  20  39  61  96 135 165 201 249 314 392
#
# _framework density 21.228525999999999
#
# number of rings (size 3 to 8) (size 9 to 14) (size 15 to 20)
#    0.000    1.500    3.750    2.250    3.500    6.000 
#    0.000    0.000    0.000    3.750    0.000    0.000 
#    0.000    0.000    0.000    0.000    0.000    0.000 
#
# Total GULP energy -89236.226414 kJ/mol
# GULP energy per Si atom -5577.264151 kJ/mol
# Density = 2.118021 g / cm^3
# Si number density = 21.228526 Si / 1000 Ang^3
#
#
#
# Elastic Constant Matrix: (Units=GPa)
#
#
# Indices 1 2 3 4 5 6 
#
# 1 72.1749 23.7805 29.8769 -6.0244 -2.3009 21.2765
# 2 23.7805 134.5921 53.9675 3.6733 -4.8114 15.0982
# 3 29.8769 53.9675 74.8731 5.5503 -7.9126 7.3032
# 4 -6.0244 3.6733 5.5503 39.3166 0.8821 -5.3817
# 5 -2.3009 -4.8114 -7.9126 0.8821 19.9416 -4.7963
# 6 21.2765 15.0982 7.3032 -5.3817 -4.7963 30.5016
#
#
#
# Elastic Compliance Matrix: (Units=1/GPa)
#
#
# Indices 1 2 3 4 5 6 
#
# 1 0.021021 0.000918 -0.008367 0.002587 -0.003982 -0.013284
# 2 0.000918 0.010896 -0.007917 -0.000333 -0.001456 -0.004426
# 3 -0.008367 -0.007917 0.022969 -0.003289 0.007553 0.004863
# 4 0.002587 -0.000333 -0.003289 0.026860 -0.001393 0.003667
# 5 -0.003982 -0.001456 0.007553 -0.001393 0.054815 0.010064
# 6 -0.013284 -0.004426 0.004863 0.003667 0.010064 0.045308
#
#
# Mechanical properties :
#
#
# Convention : Reuss Voigt Hill
#
# Bulk Modulus (GPa) = 41.40171 55.21000 48.30585
# Shear Modulus (GPa) = 22.66016 29.55296 26.10656
#
# Velocity S-wave (km/s) = 3.27071 3.73518 3.51064
# Velocity P-wave (km/s) = 5.81452 6.68326 6.26397
#
# Compressibility (1/GPa) = 0.02415359
#
# Stress axis : x y z
#
# Youngs Moduli (GPa) = 47.57074 91.77847 43.53705
#
# Poissons Ratio (x) = -0.08424 0.36426
# Poissons Ratio (y) = -0.04366 0.34470
# Poissons Ratio (z) = 0.39801 0.72664
#
# Static dielectric constant tensor:
#      x y z
#    x 1.818660 0.036280 -0.035540 
#    y 0.036280 1.839930 0.006220 
#    z -0.035540 0.006220 1.827750 
# 
# From -- ./inp_files/455033.got.cif
#   From: 2010.05.17/outbox.cif.g08.bks.cpg/sg2_228_cif.got.tgz:455033.got - 2010.06.03 11:33:40.
