data_PCOD9004048
_publ_section_title
;
Structure prediction by ZEFSAII (Michael W. Deem and Ramdas Pophale) SiO2 
 PCOD9004048
Probable space group: P -1
;
_chemical_formula_sum "Si O2"
_cell_formula_units_Z 16
_cell_length_a 8.434308
_cell_length_b 22.334336
_cell_length_c 5.873797
_cell_angle_alpha 122.882824
_cell_angle_beta 70.744598
_cell_angle_gamma 131.575366
_cell_volume 694.297745
_symmetry_space_group_name_H-M "P -1"
_symmetry_group_IT_number 2
_symmetry_cell_setting 'triclinic'
loop_
_space_group_symop_operation_xyz
x,y,z
-x,-y,-z
loop_
_atom_site_type_symbol
_atom_site_label
_atom_site_fract_x
_atom_site_fract_y
_atom_site_fract_z
Si Si1 0.402565 0.559618 0.422020
Si Si2 0.895034 0.285580 0.703006
Si Si3 0.796649 0.908078 0.001942
Si Si4 0.256693 0.483253 0.833195
Si Si5 0.690733 0.011397 0.567619
Si Si6 0.071053 0.794989 0.078189
Si Si7 0.209280 0.255232 0.264492
Si Si8 0.463745 0.865512 0.722482
O O1 0.275719 0.521607 0.646956
O O2 0.564661 0.533529 0.288834
O O3 0.557180 0.667217 0.602194
O O4 0.296139 0.532343 0.162928
O O5 0.889507 0.267431 0.933609
O O6 0.661920 0.214522 0.567336
O O7 0.024467 0.387289 0.771742
O O8 0.044757 0.257485 0.498823
O O9 0.844678 0.841105 0.914629
O O10 0.613153 0.859064 0.799984
O O11 0.727017 0.943203 0.304580
O O12 0.000000 0.000000 0.000000
O O13 0.606418 0.965681 0.759046
O O14 0.500000 0.000000 0.500000
O O15 0.889525 0.116062 0.653334
O O16 0.267938 0.847378 0.918025
O O17 0.843449 0.730283 0.934069
#
# Coordination Sequence:
#
# PCOD9004048 Si02
#       8
#     2   2   2   2   2   2   2   2
#     4   9  19  36  57  94 133 172 209 275 331 396
#     4  10  21  37  63  98 120 168 212 272 319 387
#     4  12  26  42  62  95 129 169 212 266 328 385
#     4   9  19  33  62  93 132 166 221 267 334 388
#     4  12  23  41  62  89 122 170 214 259 318 383
#     4  11  22  38  63  89 126 164 219 265 318 385
#     4  10  24  37  60  93 132 168 209 266 331 385
#     4  11  23  40  63  86 124 169 213 265 314 391
#
# _framework density 23.044867
#
# number of rings (size 3 to 8) (size 9 to 14) (size 15 to 20)
#    0.000    1.500    2.500    1.875   12.250    3.000 
#    0.000    0.000    0.000    1.500    0.000    0.000 
#    0.000    0.000    0.000    0.000    0.000    0.000 
#
# Total GULP energy -89237.291958 kJ/mol
# GULP energy per Si atom -5577.330747 kJ/mol
# Density = 2.299242 g / cm^3
# Si number density = 23.044867 Si / 1000 Ang^3
#
#
#
# Elastic Constant Matrix: (Units=GPa)
#
#
# Indices 1 2 3 4 5 6 
#
# 1 27.0151 -1.6215 17.0948 3.8740 8.7689 6.6761
# 2 -1.6215 109.2138 34.2963 -3.3132 5.5770 15.6467
# 3 17.0948 34.2963 76.1550 1.5415 16.3743 4.5107
# 4 3.8740 -3.3132 1.5415 30.0710 0.8223 8.5491
# 5 8.7689 5.5770 16.3743 0.8223 25.0727 1.3696
# 6 6.6761 15.6467 4.5107 8.5491 1.3696 18.3917
#
#
#
# Elastic Compliance Matrix: (Units=1/GPa)
#
#
# Indices 1 2 3 4 5 6 
#
# 1 0.055007 0.008863 -0.012381 0.001792 -0.011848 -0.024421
# 2 0.008863 0.014047 -0.007327 0.005286 -0.000751 -0.015772
# 3 -0.012381 -0.007327 0.020489 -0.002115 -0.007748 0.007263
# 4 0.001792 0.005286 -0.002115 0.040368 -0.000469 -0.023358
# 5 -0.011848 -0.000751 -0.007748 -0.000469 0.049084 0.003403
# 6 -0.024421 -0.015772 0.007263 -0.023358 0.003403 0.085478
#
#
# Mechanical properties :
#
#
# Convention : Reuss Voigt Hill
#
# Bulk Modulus (GPa) = 14.73792 34.65813 24.69803
# Shear Modulus (GPa) = 16.19269 25.54803 20.87036
#
# Velocity S-wave (km/s) = 2.65365 3.33321 3.01265
# Velocity P-wave (km/s) = 3.97471 5.46679 4.77934
#
# Compressibility (1/GPa) = 0.06785219
#
# Stress axis : x y z
#
# Youngs Moduli (GPa) = 18.17946 71.18915 48.80761
#
# Poissons Ratio (x) = -0.63094 0.60430
# Poissons Ratio (y) = -0.16112 0.35761
# Poissons Ratio (z) = 0.22508 0.52160
#
# Static dielectric constant tensor:
#      x y z
#    x 1.853420 -0.026320 0.004810 
#    y -0.026320 1.910310 -0.070910 
#    z 0.004810 -0.070910 2.101420 
# 
# From -- ./inp_files/52955.got.cif
#   From: 2010.05.17/outbox.cif.g08.bks.cpg/sg2_27_cif.got.tgz:52955.got - 2010.06.03 11:33:40.
