data_PCOD9004898
_publ_section_title
;
Structure prediction by ZEFSAII (Michael W. Deem and Ramdas Pophale) SiO2 
 PCOD9004898
Probable space group: P -1
;
_chemical_formula_sum "Si O2"
_cell_formula_units_Z 16
_cell_length_a 5.377274
_cell_length_b 22.422800
_cell_length_c 8.693272
_cell_angle_alpha 118.190410
_cell_angle_beta 56.706261
_cell_angle_gamma 89.335051
_cell_volume 718.102405
_symmetry_space_group_name_H-M "P -1"
_symmetry_group_IT_number 2
_symmetry_cell_setting 'triclinic'
loop_
_space_group_symop_operation_xyz
x,y,z
-x,-y,-z
loop_
_atom_site_type_symbol
_atom_site_label
_atom_site_fract_x
_atom_site_fract_y
_atom_site_fract_z
Si Si1 0.200934 0.045525 0.049378
Si Si2 0.214223 0.549690 0.981139
Si Si3 0.257205 0.584564 0.367789
Si Si4 0.125675 0.801145 0.526964
Si Si5 0.447419 0.079485 0.688599
Si Si6 0.877199 0.168285 0.764034
Si Si7 0.679939 0.684249 0.326219
Si Si8 0.282949 0.276336 0.284288
O O1 0.323469 0.073602 0.892962
O O2 0.959972 0.115554 0.301802
O O3 0.500000 0.000000 0.000000
O O4 0.000000 0.000000 0.000000
O O5 0.549769 0.496186 0.730052
O O6 0.237204 0.568800 0.174891
O O7 0.000000 0.500000 0.000000
O O8 0.019465 0.629556 0.078230
O O9 0.481402 0.631370 0.349717
O O10 0.917274 0.641935 0.609929
O O11 0.024243 0.798791 0.382134
O O12 0.491710 0.748841 0.354967
O O13 0.944013 0.770433 0.677386
O O14 0.730269 0.109845 0.671507
O O15 0.173079 0.132731 0.735338
O O16 0.500000 0.000000 0.500000
O O17 0.592907 0.229808 0.027042
O O18 0.665817 0.713613 0.539805
#
# Coordination Sequence:
#
# PCOD9004898 Si02
#       8
#     2   2   2   2   2   2   2   2
#     4  12  25  42  67  93 122 162 206 259 317 376
#     4   8  13  26  50  86 122 158 203 252 306 365
#     4   8  15  28  51  87 121 158 206 253 306 369
#     4  11  24  40  61  89 123 162 212 258 318 376
#     4  12  25  46  65  94 127 160 210 264 319 381
#     4  12  26  42  66  91 127 165 208 264 313 381
#     4   9  18  32  58  84 122 162 207 259 307 373
#     4  10  21  38  59  89 123 166 208 261 315 374
#
# _framework density 22.280947000000001
#
# number of rings (size 3 to 8) (size 9 to 14) (size 15 to 20)
#    0.000    1.750    1.250    3.375    5.250    0.000 
#    0.000    0.000    0.000    0.750    0.000   78.750 
#    0.000    0.000    0.000    0.000    0.000    0.000 
#
# Total GULP energy -89175.048875 kJ/mol
# GULP energy per Si atom -5573.440555 kJ/mol
# Density = 2.223023 g / cm^3
# Si number density = 22.280947 Si / 1000 Ang^3
#
#
#
# Elastic Constant Matrix: (Units=GPa)
#
#
# Indices 1 2 3 4 5 6 
#
# 1 101.1084 28.8338 6.3425 23.7705 7.6966 -12.3277
# 2 28.8338 61.8322 55.1399 24.9286 -4.1225 -26.7578
# 3 6.3425 55.1399 86.9751 30.6172 7.5353 -19.4958
# 4 23.7705 24.9286 30.6172 51.1452 -4.9660 -8.1733
# 5 7.6966 -4.1225 7.5353 -4.9660 27.1698 14.9798
# 6 -12.3277 -26.7578 -19.4958 -8.1733 14.9798 52.6061
#
#
#
# Elastic Compliance Matrix: (Units=1/GPa)
#
#
# Indices 1 2 3 4 5 6 
#
# 1 0.018144 -0.017865 0.015956 -0.010207 -0.016443 0.004175
# 2 -0.017865 0.064189 -0.041712 0.005406 0.023397 0.007182
# 3 0.015956 -0.041712 0.046658 -0.017019 -0.030058 0.005729
# 4 -0.010207 0.005406 -0.017019 0.032619 0.017651 -0.005907
# 5 -0.016443 0.023397 -0.030058 0.017651 0.067342 -0.019526
# 6 0.004175 0.007182 0.005729 -0.005907 -0.019526 0.030406
#
#
# Mechanical properties :
#
#
# Convention : Reuss Voigt Hill
#
# Bulk Modulus (GPa) = 23.95206 47.83869 35.89537
# Shear Modulus (GPa) = 13.86903 36.82418 25.34660
#
# Velocity S-wave (km/s) = 2.49762 4.06978 3.37648
# Velocity P-wave (km/s) = 4.36931 6.60314 5.59876
#
# Compressibility (1/GPa) = 0.04175006
#
# Stress axis : x y z
#
# Youngs Moduli (GPa) = 55.11341 15.57893 21.43277
#
# Poissons Ratio (x) = 0.27832 -0.34198
# Poissons Ratio (y) = 0.98460 0.89400
# Poissons Ratio (z) = -0.87940 0.64982
#
# Static dielectric constant tensor:
#      x y z
#    x 4.316520 2.660410 -0.178310 
#    y 2.660410 4.803310 -0.114230 
#    z -0.178310 -0.114230 1.918900 
# 
# From -- ./inp_files/47745.got.cif
#   From: 2010.05.17/outbox.cif.g08.bks.cpg/sg2_24_cif.got.tgz:47745.got - 2010.06.03 11:33:40.
