data_PCOD9004372
_publ_section_title
;
Structure prediction by ZEFSAII (Michael W. Deem and Ramdas Pophale) SiO2 
 PCOD9004372
Probable space group: P -1
;
_chemical_formula_sum "Si O2"
_cell_formula_units_Z 16
_cell_length_a 9.714312
_cell_length_b 19.244866
_cell_length_c 7.741071
_cell_angle_alpha 104.536594
_cell_angle_beta 80.613428
_cell_angle_gamma 35.687591
_cell_volume 621.144770
_symmetry_space_group_name_H-M "P -1"
_symmetry_group_IT_number 2
_symmetry_cell_setting 'triclinic'
loop_
_space_group_symop_operation_xyz
x,y,z
-x,-y,-z
loop_
_atom_site_type_symbol
_atom_site_label
_atom_site_fract_x
_atom_site_fract_y
_atom_site_fract_z
Si Si1 0.294872 0.874229 0.125777
Si Si2 0.169923 0.209716 0.548778
Si Si3 0.804661 0.410100 0.389808
Si Si4 0.661020 0.350428 0.869692
Si Si5 0.344209 0.721632 0.807731
Si Si6 0.779121 0.671012 0.173546
Si Si7 0.750416 0.898081 0.035966
Si Si8 0.278916 0.803745 0.432544
O O1 0.608312 0.758578 0.077253
O O2 0.181469 0.869300 0.295168
O O3 0.331944 0.811746 0.907185
O O4 0.022656 0.056933 0.302724
O O5 0.127049 0.298428 0.737180
O O6 0.990507 0.310324 0.468481
O O7 0.011406 0.212166 0.665671
O O8 0.524912 0.028125 0.315681
O O9 0.500000 0.500000 0.500000
O O10 0.638121 0.564295 0.531735
O O11 0.035987 0.272264 0.110299
O O12 0.561763 0.345167 0.728992
O O13 0.500000 0.500000 0.000000
O O14 0.588567 0.347162 0.063814
O O15 0.011741 0.838263 0.908171
O O16 0.508723 0.761540 0.407914
O O17 0.000000 0.500000 0.000000
O O18 0.500000 0.000000 0.000000
#
# Coordination Sequence:
#
# PCOD9004372 Si02
#       8
#     2   2   2   2   2   2   2   2
#     4   8  16  30  48  70 102 135 176 196 245 326
#     4  11  20  31  51  81 113 128 164 225 265 305
#     4   9  18  34  52  72  99 140 185 215 247 291
#     4  11  20  31  50  81 115 139 163 195 285 341
#     4  10  17  33  56  76 108 137 170 214 260 319
#     4  10  17  28  47  74 108 130 169 209 251 311
#     4   9  20  33  48  75 104 133 181 225 254 276
#     4   8  17  31  45  64 107 141 163 192 238 339
#
# _framework density 25.758889
#
# number of rings (size 3 to 8) (size 9 to 14) (size 15 to 20)
#    0.750    1.750    1.250    2.250    1.750    0.500 
#    0.000    0.000    0.000    0.000    0.000   33.250 
#    0.000    0.000    0.000    0.000    0.000    0.000 
#
# Total GULP energy -89258.786478 kJ/mol
# GULP energy per Si atom -5578.674155 kJ/mol
# Density = 2.570026 g / cm^3
# Si number density = 25.758889 Si / 1000 Ang^3
#
#
#
# Elastic Constant Matrix: (Units=GPa)
#
#
# Indices 1 2 3 4 5 6 
#
# 1 79.2813 27.4399 38.5428 -7.8293 16.9615 -16.4601
# 2 27.4399 60.5685 29.8649 -30.4499 -22.8753 -19.9781
# 3 38.5428 29.8649 174.0432 14.6242 9.3328 -3.3174
# 4 -7.8293 -30.4499 14.6242 22.1145 -26.6187 -6.5345
# 5 16.9615 -22.8753 9.3328 -26.6187 28.9848 -8.6615
# 6 -16.4601 -19.9781 -3.3174 -6.5345 -8.6615 37.8494
#
#
#
# Elastic Compliance Matrix: (Units=1/GPa)
#
#
# Indices 1 2 3 4 5 6 
#
# 1 0.017588 -0.001407 -0.003921 0.006245 -0.002277 0.007120
# 2 -0.001407 0.002528 0.001718 -0.014823 -0.012721 -0.004597
# 3 -0.003921 0.001718 0.005950 0.002097 0.003956 0.000991
# 4 0.006245 -0.014823 0.002097 -0.000798 -0.019615 -0.009550
# 5 -0.002277 -0.012721 0.003956 -0.019615 0.003538 -0.009935
# 6 0.007120 -0.004597 0.000991 -0.009550 -0.009935 0.023255
#
#
# Mechanical properties :
#
#
# Convention : Reuss Voigt Hill
#
# Bulk Modulus (GPa) = 53.05901 56.17647 54.61774
# Shear Modulus (GPa) = 76.26209 32.32611 54.29410
#
# Velocity S-wave (km/s) = 5.44705 3.54637 4.59604
# Velocity P-wave (km/s) = 7.75910 6.21489 7.02953
#
# Compressibility (1/GPa) = 0.01884694
#
# Stress axis : x y z
#
# Youngs Moduli (GPa) = 56.85593 395.52834 168.07535
#
# Poissons Ratio (x) = 0.55642 0.65896
# Poissons Ratio (y) = 0.07998 -0.28870
# Poissons Ratio (z) = 0.22291 -0.67940
#
# Static dielectric constant tensor:
#      x y z
#    x 2.008560 0.017390 0.056470 
#    y 0.017390 1.975450 0.199520 
#    z 0.056470 0.199520 1.873770 
# 
# From -- ./inp_files/406902.got.cif
#   From: 2010.05.17/outbox.cif.g08.bks.cpg/sg2_204_cif.got.tgz:406902.got - 2010.06.03 11:33:40.
