data_PCOD9004227
_publ_section_title
;
Structure prediction by ZEFSAII (Michael W. Deem and Ramdas Pophale) SiO2 
 PCOD9004227
Probable space group: P -1
;
_chemical_formula_sum "Si O2"
_cell_formula_units_Z 14
_cell_length_a 10.653506
_cell_length_b 24.970188
_cell_length_c 7.507402
_cell_angle_alpha 141.616579
_cell_angle_beta 41.837191
_cell_angle_gamma 150.624079
_cell_volume 595.573615
_symmetry_space_group_name_H-M "P -1"
_symmetry_group_IT_number 2
_symmetry_cell_setting 'triclinic'
loop_
_space_group_symop_operation_xyz
x,y,z
-x,-y,-z
loop_
_atom_site_type_symbol
_atom_site_label
_atom_site_fract_x
_atom_site_fract_y
_atom_site_fract_z
Si Si1 0.348988 0.622319 0.801991
Si Si2 0.813925 0.372632 0.608644
Si Si3 0.105567 0.939185 0.190344
Si Si4 0.592054 0.468381 0.980339
Si Si5 0.211619 0.304172 0.270940
Si Si6 0.143008 0.722221 0.179761
Si Si7 0.305718 0.855530 0.013755
O O1 0.609398 0.650734 0.625907
O O2 0.119824 0.495320 0.618911
O O3 0.276260 0.624974 0.091497
O O4 0.364902 0.720658 0.952388
O O5 0.649583 0.383473 0.678148
O O6 0.769806 0.260238 0.302237
O O7 0.162523 0.891081 0.167256
O O8 0.000000 0.000000 0.500000
O O9 0.881968 0.819727 0.006356
O O10 0.384631 0.034350 0.046610
O O11 0.500000 0.500000 0.000000
O O12 0.380197 0.401437 0.190878
O O13 0.881171 0.590861 0.049133
O O14 0.950599 0.271953 0.516270
O O15 0.220952 0.819490 0.213138
#
# Coordination Sequence:
#
# PCOD9004227 Si02
#       7
#     2   2   2   2   2   2   2
#     4   9  20  38  63  94 129 164 204 256 320 381
#     4   9  19  40  64  91 130 169 206 261 319 374
#     4  11  25  46  70  91 120 169 221 272 318 369
#     4  10  21  37  65 100 132 168 213 261 315 380
#     4  11  23  41  65  93 131 169 211 262 318 383
#     4  11  24  39  62  97 132 169 204 257 326 385
#     4  11  25  44  66  94 129 167 218 266 315 383
#
# _framework density 23.506751000000001
#
# number of rings (size 3 to 8) (size 9 to 14) (size 15 to 20)
#    0.000    1.714    0.000    4.714    0.000    8.571 
#    0.000    2.857    0.000    0.000    0.000    0.000 
#    0.000    0.000    0.000    0.000    0.000    0.000 
#
# Total GULP energy -78283.985713 kJ/mol
# GULP energy per Si atom -5591.713265 kJ/mol
# Density = 2.345325 g / cm^3
# Si number density = 23.506751 Si / 1000 Ang^3
#
#
#
# Elastic Constant Matrix: (Units=GPa)
#
#
# Indices 1 2 3 4 5 6 
#
# 1 104.4180 51.9085 60.8620 6.1711 -24.9651 -9.2334
# 2 51.9085 108.8442 29.5008 10.8406 -10.4570 -19.1083
# 3 60.8620 29.5008 100.4377 14.0637 -39.7273 -7.2611
# 4 6.1711 10.8406 14.0637 36.9829 0.7914 3.7553
# 5 -24.9651 -10.4570 -39.7273 0.7914 40.8804 2.9675
# 6 -9.2334 -19.1083 -7.2611 3.7553 2.9675 38.3428
#
#
#
# Elastic Compliance Matrix: (Units=1/GPa)
#
#
# Indices 1 2 3 4 5 6 
#
# 1 0.018096 -0.006475 -0.009357 0.002522 0.000320 -0.000913
# 2 -0.006475 0.013394 0.000952 -0.003784 0.000060 0.005662
# 3 -0.009357 0.000952 0.023548 -0.008263 0.017418 0.002142
# 4 0.002522 -0.003784 -0.008263 0.031577 -0.007681 -0.005341
# 5 0.000320 0.000060 0.017418 -0.007681 0.041679 0.000932
# 6 -0.000913 0.005662 0.002142 -0.005341 0.000932 0.029539
#
#
# Mechanical properties :
#
#
# Convention : Reuss Voigt Hill
#
# Bulk Modulus (GPa) = 39.55819 66.47138 53.01479
# Shear Modulus (GPa) = 25.50796 34.66979 30.08888
#
# Velocity S-wave (km/s) = 3.29771 3.84459 3.58160
# Velocity P-wave (km/s) = 5.60043 6.93158 6.30126
#
# Compressibility (1/GPa) = 0.02527921
#
# Stress axis : x y z
#
# Youngs Moduli (GPa) = 55.26104 74.66106 42.46700
#
# Poissons Ratio (x) = 0.48342 0.39734
# Poissons Ratio (y) = 0.35781 -0.04044
# Poissons Ratio (z) = 0.51705 -0.07110
#
# Static dielectric constant tensor:
#      x y z
#    x 1.936680 -0.011120 -0.010190 
#    y -0.011120 1.883000 -0.031590 
#    z -0.010190 -0.031590 1.968940 
# 
# From -- ./inp_files/285232.got.cif
#   From: 2010.05.17/outbox.cif.g08.bks.cpg/sg2_143_cif.got.tgz:285232.got - 2010.06.03 11:33:40.
