data_PCOD9004758
_publ_section_title
;
Structure prediction by ZEFSAII (Michael W. Deem and Ramdas Pophale) SiO2 
 PCOD9004758
Probable space group: P -1
;
_chemical_formula_sum "Si O2"
_cell_formula_units_Z 12
_cell_length_a 9.723438
_cell_length_b 12.181730
_cell_length_c 9.112060
_cell_angle_alpha 63.176718
_cell_angle_beta 95.871721
_cell_angle_gamma 49.271437
_cell_volume 591.113449
_symmetry_space_group_name_H-M "P -1"
_symmetry_group_IT_number 2
_symmetry_cell_setting 'triclinic'
loop_
_space_group_symop_operation_xyz
x,y,z
-x,-y,-z
loop_
_atom_site_type_symbol
_atom_site_label
_atom_site_fract_x
_atom_site_fract_y
_atom_site_fract_z
Si Si1 0.612247 0.093030 0.504326
Si Si2 0.876703 0.666142 0.761385
Si Si3 0.609376 0.377725 0.933631
Si Si4 0.811032 0.442799 0.380593
Si Si5 0.106663 0.998195 0.648335
Si Si6 0.422102 0.432019 0.444811
O O1 0.356081 0.227672 0.387109
O O2 0.673064 0.097458 0.345236
O O3 0.615431 0.202568 0.554080
O O4 0.790685 0.859858 0.695214
O O5 0.042950 0.573021 0.698780
O O6 0.000000 0.500000 0.000000
O O7 0.419191 0.428188 0.805850
O O8 0.667068 0.450253 0.789104
O O9 0.500000 0.500000 0.000000
O O10 0.821109 0.146092 0.132705
O O11 0.744320 0.522544 0.491196
O O12 0.947860 0.219512 0.543089
O O13 0.000000 0.000000 0.500000
O O14 0.500000 0.500000 0.500000
#
# Coordination Sequence:
#
# PCOD9004758 Si02
#       6
#     2   2   2   2   2   2
#     4  10  21  38  59  84 120 152 197 242 290 340
#     4  10  22  39  62  85 108 160 211 241 278 345
#     4  11  19  34  60  86 116 156 194 236 291 354
#     4  10  22  37  55  86 122 148 197 247 292 344
#     4  11  19  33  59  87 113 153 198 239 288 347
#     4  10  21  38  58  89 127 153 181 246 308 346
#
# _framework density 20.30067
#
# number of rings (size 3 to 8) (size 9 to 14) (size 15 to 20)
#    0.000    1.667    3.333    2.000    0.000    1.333 
#    0.000    4.167    0.000    0.000    0.000    0.000 
#    0.000    0.000    0.000    0.000    0.000    0.000 
#
# Total GULP energy -66950.738526 kJ/mol
# GULP energy per Si atom -5579.228210 kJ/mol
# Density = 2.025447 g / cm^3
# Si number density = 20.300670 Si / 1000 Ang^3
#
#
#
# Elastic Constant Matrix: (Units=GPa)
#
#
# Indices 1 2 3 4 5 6 
#
# 1 62.6360 14.5892 27.9848 4.8151 -11.4000 -23.5754
# 2 14.5892 108.8562 45.9254 4.6075 -17.8969 -4.1765
# 3 27.9848 45.9254 139.1043 -5.9435 -30.5086 -14.4947
# 4 4.8151 4.6075 -5.9435 31.3256 -3.1495 -11.2829
# 5 -11.4000 -17.8969 -30.5086 -3.1495 31.6063 0.7530
# 6 -23.5754 -4.1765 -14.4947 -11.2829 0.7530 42.5269
#
#
#
# Elastic Compliance Matrix: (Units=1/GPa)
#
#
# Indices 1 2 3 4 5 6 
#
# 1 0.022387 -0.000961 -0.001600 0.001311 0.005831 0.012015
# 2 -0.000961 0.011122 -0.003078 -0.002196 0.002788 -0.001122
# 3 -0.001600 -0.003078 0.011055 0.005031 0.008764 0.003759
# 4 0.001311 -0.002196 0.005031 0.038163 0.007598 0.012216
# 5 0.005831 0.002788 0.008764 0.007598 0.044353 0.007723
# 6 0.012015 -0.001122 0.003759 0.012216 0.007723 0.034451
#
#
# Mechanical properties :
#
#
# Convention : Reuss Voigt Hill
#
# Bulk Modulus (GPa) = 30.04189 54.17725 42.10957
# Shear Modulus (GPa) = 27.18812 35.89823 31.54317
#
# Velocity S-wave (km/s) = 3.66358 4.20971 3.94610
# Velocity P-wave (km/s) = 5.72069 7.09748 6.44595
#
# Compressibility (1/GPa) = 0.03328685
#
# Stress axis : x y z
#
# Youngs Moduli (GPa) = 44.66939 89.91154 90.45334
#
# Poissons Ratio (x) = 0.08644 0.14468
# Poissons Ratio (y) = 0.04294 0.27839
# Poissons Ratio (z) = 0.07145 0.27672
#
# Static dielectric constant tensor:
#      x y z
#    x 1.821060 -0.003010 -0.011890 
#    y -0.003010 1.737430 0.004470 
#    z -0.011890 0.004470 1.709340 
# 
# From -- ./inp_files/29012.got.cif
#   From: 2010.05.17/outbox.cif.g08.bks.cpg/sg2_15_cif.got.tgz:29012.got - 2010.06.03 11:33:40.
