data_PCOD9004092
_publ_section_title
;
Structure prediction by ZEFSAII (Michael W. Deem and Ramdas Pophale) SiO2 
 PCOD9004092
Probable space group: P -1
;
_chemical_formula_sum "Si O2"
_cell_formula_units_Z 16
_cell_length_a 18.040549
_cell_length_b 8.197365
_cell_length_c 14.647917
_cell_angle_alpha 136.057786
_cell_angle_beta 149.769929
_cell_angle_gamma 40.322807
_cell_volume 693.129118
_symmetry_space_group_name_H-M "P -1"
_symmetry_group_IT_number 2
_symmetry_cell_setting 'triclinic'
loop_
_space_group_symop_operation_xyz
x,y,z
-x,-y,-z
loop_
_atom_site_type_symbol
_atom_site_label
_atom_site_fract_x
_atom_site_fract_y
_atom_site_fract_z
Si Si1 0.834707 0.809742 0.218915
Si Si2 0.044267 0.707738 0.953326
Si Si3 0.501722 0.505284 0.782832
Si Si4 0.162036 0.451532 0.206373
Si Si5 0.843691 0.165908 0.508553
Si Si6 0.491658 0.997689 0.325008
Si Si7 0.487232 0.767714 0.044039
Si Si8 0.626947 0.365514 0.660985
O O1 0.877429 0.510269 0.128200
O O2 0.985412 0.849267 0.349207
O O3 0.831038 0.902610 0.357391
O O4 0.681772 0.003224 0.075877
O O5 0.886167 0.674078 0.805976
O O6 0.193731 0.648321 0.159419
O O7 0.000000 0.000000 0.000000
O O8 0.307772 0.635328 0.628500
O O9 0.541194 0.222663 0.746502
O O10 0.557566 0.502650 0.738279
O O11 0.563426 0.660336 0.982890
O O12 0.178061 0.708606 0.363909
O O13 0.320311 0.237890 0.246242
O O14 0.000000 0.500000 0.000000
O O15 0.544460 0.903718 0.239866
O O16 0.620691 0.086123 0.544028
O O17 0.500000 0.500000 0.000000
O O18 0.500000 0.500000 0.500000
#
# Coordination Sequence:
#
# PCOD9004092 Si02
#       8
#     2   2   2   2   2   2   2   2
#     4   9  18  36  58  86 127 160 207 256 314 380
#     4  11  25  40  61  93 134 172 206 263 330 386
#     4  10  21  37  64  89 120 164 214 261 313 376
#     4  11  21  37  64  90 121 163 215 264 320 373
#     4   9  18  33  60  88 113 156 212 256 305 360
#     4  11  21  37  65  92 121 158 220 267 304 381
#     4   9  19  37  60  98 122 156 210 277 317 360
#     4  12  24  39  60  94 132 165 211 261 324 382
#
# _framework density 23.083722999999999
#
# number of rings (size 3 to 8) (size 9 to 14) (size 15 to 20)
#    0.000    1.750    1.250    4.125    3.500    0.000 
#    0.000    5.625    0.000    0.750    0.000    0.000 
#    0.000    0.000    0.000    0.000    0.000    0.000 
#
# Total GULP energy -89158.284915 kJ/mol
# GULP energy per Si atom -5572.392807 kJ/mol
# Density = 2.303118 g / cm^3
# Si number density = 23.083723 Si / 1000 Ang^3
#
#
#
# Elastic Constant Matrix: (Units=GPa)
#
#
# Indices 1 2 3 4 5 6 
#
# 1 66.5332 13.4399 37.0272 10.3954 -18.2813 -9.1858
# 2 13.4399 121.1168 39.9874 23.7556 -10.4834 -8.1124
# 3 37.0272 39.9874 124.6787 29.5101 -22.2567 -17.1372
# 4 10.3954 23.7556 29.5101 41.2366 -11.8349 -11.4893
# 5 -18.2813 -10.4834 -22.2567 -11.8349 56.2085 6.6047
# 6 -9.1858 -8.1124 -17.1372 -11.4893 6.6047 19.0303
#
#
#
# Elastic Compliance Matrix: (Units=1/GPa)
#
#
# Indices 1 2 3 4 5 6 
#
# 1 0.019155 -0.000161 -0.004532 0.000848 0.004092 0.004188
# 2 -0.000161 0.009776 -0.002143 -0.004133 0.000096 -0.000368
# 3 -0.004532 -0.002143 0.011996 -0.004565 0.001391 0.004463
# 4 0.000848 -0.004133 -0.004565 0.034614 0.003307 0.014287
# 5 0.004092 0.000096 0.001391 0.003307 0.020608 -0.001888
# 6 0.004188 -0.000368 0.004463 0.014287 -0.001888 0.067712
#
#
# Mechanical properties :
#
#
# Convention : Reuss Voigt Hill
#
# Bulk Modulus (GPa) = 36.68985 54.80417 45.74701
# Shear Modulus (GPa) = 26.79283 38.08669 32.43976
#
# Velocity S-wave (km/s) = 3.41057 4.06635 3.75281
# Velocity P-wave (km/s) = 5.60697 6.77052 6.21603
#
# Compressibility (1/GPa) = 0.02725549
#
# Stress axis : x y z
#
# Youngs Moduli (GPa) = 52.20682 102.29047 83.36169
#
# Poissons Ratio (x) = 0.01648 0.37775
# Poissons Ratio (y) = 0.00841 0.17864
# Poissons Ratio (z) = 0.23658 0.21921
#
# Static dielectric constant tensor:
#      x y z
#    x 2.062850 0.069000 -0.065500 
#    y 0.069000 1.915690 0.043500 
#    z -0.065500 0.043500 1.911160 
# 
# From -- ./inp_files/540342.got.cif
#   From: 2010.05.17/outbox.cif.g08.bks.cpg/sg2_271_cif.got.tgz:540342.got - 2010.06.03 11:33:40.
