data_PCOD9004586
_publ_section_title
;
Structure prediction by ZEFSAII (Michael W. Deem and Ramdas Pophale) SiO2 
 PCOD9004586
Probable space group: P -1
;
_chemical_formula_sum "Si O2"
_cell_formula_units_Z 14
_cell_length_a 17.868068
_cell_length_b 8.570380
_cell_length_c 15.380746
_cell_angle_alpha 56.234319
_cell_angle_beta 22.578628
_cell_angle_gamma 65.803408
_cell_volume 711.308303
_symmetry_space_group_name_H-M "P -1"
_symmetry_group_IT_number 2
_symmetry_cell_setting 'triclinic'
loop_
_space_group_symop_operation_xyz
x,y,z
-x,-y,-z
loop_
_atom_site_type_symbol
_atom_site_label
_atom_site_fract_x
_atom_site_fract_y
_atom_site_fract_z
Si Si1 0.708843 0.233610 0.610153
Si Si2 0.975690 0.835375 0.000469
Si Si3 0.538916 0.777986 0.943584
Si Si4 0.131572 0.220107 0.633858
Si Si5 0.876617 0.421036 0.954803
Si Si6 0.420197 0.424670 0.421300
Si Si7 0.211212 0.455723 0.298011
O O1 0.597848 0.355947 0.631951
O O2 0.948735 0.364239 0.306480
O O3 0.653429 0.002466 0.723799
O O4 0.615408 0.236886 0.805899
O O5 0.736358 0.703846 0.297762
O O6 0.092855 0.687168 0.954803
O O7 0.000000 0.000000 0.000000
O O8 0.067495 0.981705 0.777507
O O9 0.702999 0.665493 0.826802
O O10 0.392884 0.657775 0.060796
O O11 0.314070 0.318874 0.477430
O O12 0.187611 0.317836 0.450830
O O13 0.943098 0.290095 0.850486
O O14 0.648755 0.423774 0.187276
O O15 0.000000 0.500000 0.500000
#
# Coordination Sequence:
#
# PCOD9004586 Si02
#       7
#     2   2   2   2   2   2   2
#     4   9  19  35  54  76 103 136 173 214 258 300
#     4   7  15  28  44  74 107 128 164 209 259 307
#     4  10  21  38  52  72 106 139 174 217 255 297
#     4   9  18  32  46  73 107 135 168 211 258 302
#     4   9  16  28  52  81  99 129 170 211 257 308
#     4   9  16  29  52  77 104 130 165 216 256 303
#     4  11  23  36  53  76 104 140 177 210 254 309
#
# _framework density 19.682041999999999
#
# number of rings (size 3 to 8) (size 9 to 14) (size 15 to 20)
#    0.000    3.429    2.857    0.000    2.000    6.286 
#    0.000    2.857    0.000    3.429    0.000    6.000 
#    0.000    0.000    0.000    0.000    0.000    0.000 
#
# Total GULP energy -77966.210002 kJ/mol
# GULP energy per Si atom -5569.015000 kJ/mol
# Density = 1.963724 g / cm^3
# Si number density = 19.682042 Si / 1000 Ang^3
#
#
#
# Elastic Constant Matrix: (Units=GPa)
#
#
# Indices 1 2 3 4 5 6 
#
# 1 32.4161 27.2138 45.6421 1.9148 -3.5651 -18.3293
# 2 27.2138 117.7805 87.4061 -14.7436 -23.7201 -20.0165
# 3 45.6421 87.4061 131.1170 -7.2351 -21.5695 -37.5295
# 4 1.9148 -14.7436 -7.2351 47.0692 -21.2589 -3.3933
# 5 -3.5651 -23.7201 -21.5695 -21.2589 28.9843 9.7118
# 6 -18.3293 -20.0165 -37.5295 -3.3933 9.7118 19.5576
#
#
#
# Elastic Compliance Matrix: (Units=1/GPa)
#
#
# Indices 1 2 3 4 5 6 
#
# 1 0.107505 -0.017190 -0.016565 -0.036518 -0.066034 0.077828
# 2 -0.017190 0.027106 -0.012790 0.021079 0.034923 -0.026596
# 3 -0.016565 -0.012790 0.032236 0.006443 0.005635 0.031564
# 4 -0.036518 0.021079 0.006443 0.060111 0.069870 -0.024553
# 5 -0.066034 0.034923 0.005635 0.069870 0.133725 -0.069614
# 6 0.077828 -0.026596 0.031564 -0.024553 -0.069614 0.187728
#
#
# Mechanical properties :
#
#
# Convention : Reuss Voigt Hill
#
# Bulk Modulus (GPa) = 13.55798 66.87086 40.21442
# Shear Modulus (GPa) = 7.50655 27.19233 17.34944
#
# Velocity S-wave (km/s) = 1.95504 3.72099 2.97220
# Velocity P-wave (km/s) = 3.46406 7.24641 5.67935
#
# Compressibility (1/GPa) = 0.07375730
#
# Stress axis : x y z
#
# Youngs Moduli (GPa) = 9.30189 36.89283 31.02137
#
# Poissons Ratio (x) = 0.63419 0.51386
# Poissons Ratio (y) = 0.15990 0.39675
# Poissons Ratio (z) = 0.15408 0.47185
#
# Static dielectric constant tensor:
#      x y z
#    x 1.735410 0.018080 0.058840 
#    y 0.018080 1.740500 0.003890 
#    z 0.058840 0.003890 1.729190 
# 
# From -- ./inp_files/577250.got.cif
#   From: 2010.05.17/outbox.cif.g08.bks.cpg/sg2_289_cif.got.tgz:577250.got - 2010.06.03 11:33:40.
