data_PCOD9004686
_publ_section_title
;
Structure prediction by ZEFSAII (Michael W. Deem and Ramdas Pophale) SiO2 
 PCOD9004686
Probable space group: P -1
;
_chemical_formula_sum "Si O2"
_cell_formula_units_Z 16
_cell_length_a 22.412345
_cell_length_b 13.094172
_cell_length_c 14.411727
_cell_angle_alpha 30.512573
_cell_angle_beta 152.750312
_cell_angle_gamma 156.999259
_cell_volume 734.318527
_symmetry_space_group_name_H-M "P -1"
_symmetry_group_IT_number 2
_symmetry_cell_setting 'triclinic'
loop_
_space_group_symop_operation_xyz
x,y,z
-x,-y,-z
loop_
_atom_site_type_symbol
_atom_site_label
_atom_site_fract_x
_atom_site_fract_y
_atom_site_fract_z
Si Si1 0.250368 0.403465 0.735057
Si Si2 0.110809 0.637256 0.160732
Si Si3 0.168823 0.402072 0.283617
Si Si4 0.508017 0.838890 0.044290
Si Si5 0.637315 0.064211 0.563118
Si Si6 0.113417 0.905700 0.618250
Si Si7 0.579890 0.358902 0.730100
Si Si8 0.486207 0.464494 0.162940
O O1 0.322823 0.701524 0.626660
O O2 0.349005 0.430851 0.755430
O O3 0.044599 0.219124 0.575663
O O4 0.326137 0.336645 0.970319
O O5 0.233069 0.643574 0.252433
O O6 0.192858 0.786820 0.253370
O O7 0.968731 0.321980 0.239300
O O8 0.022532 0.725143 0.914328
O O9 0.272194 0.492095 0.260327
O O10 0.165303 0.185214 0.499025
O O11 0.381808 0.633272 0.113234
O O12 0.508019 0.688078 0.076404
O O13 0.705412 0.013290 0.222582
O O14 0.480582 0.043663 0.820184
O O15 0.500000 0.000000 0.500000
O O16 0.570540 0.781135 0.658313
O O17 0.500000 0.500000 0.500000
#
# Coordination Sequence:
#
# PCOD9004686 Si02
#       8
#     2   2   2   2   2   2   2   2
#     4   9  21  35  59  89 129 163 191 243 311 365
#     4  10  22  36  57  97 128 152 193 250 310 367
#     4  11  22  35  61  90 125 158 196 249 309 361
#     4  11  25  39  64  90 120 155 213 258 299 355
#     4   9  19  34  54  83 125 161 193 228 297 367
#     4  11  21  36  60  92 125 156 197 252 309 353
#     4  11  24  43  59  89 120 165 203 255 303 361
#     4  10  21  38  57  89 126 162 200 244 297 374
#
# _framework density 21.788909
#
# number of rings (size 3 to 8) (size 9 to 14) (size 15 to 20)
#    0.000    1.750    2.500    1.125    7.000    4.000 
#    0.000    0.000    0.000    6.000    0.000    0.000 
#    0.000    0.000    0.000    0.000    0.000    0.000 
#
# Total GULP energy -89189.296184 kJ/mol
# GULP energy per Si atom -5574.331011 kJ/mol
# Density = 2.173932 g / cm^3
# Si number density = 21.788909 Si / 1000 Ang^3
#
#
#
# Elastic Constant Matrix: (Units=GPa)
#
#
# Indices 1 2 3 4 5 6 
#
# 1 70.5611 30.0612 25.2752 -6.5336 15.6150 -0.0292
# 2 30.0612 52.3756 30.7127 -15.7102 8.4642 -2.1950
# 3 25.2752 30.7127 125.3453 -29.3403 6.7550 -3.8751
# 4 -6.5336 -15.7102 -29.3403 48.1217 -5.0134 1.9167
# 5 15.6150 8.4642 6.7550 -5.0134 32.4773 -7.8206
# 6 -0.0292 -2.1950 -3.8751 1.9167 -7.8206 17.3929
#
#
#
# Elastic Compliance Matrix: (Units=1/GPa)
#
#
# Indices 1 2 3 4 5 6 
#
# 1 0.021015 -0.010485 -0.001939 -0.002439 -0.008628 -0.005331
# 2 -0.010485 0.029092 -0.003579 0.005768 -0.000416 0.002034
# 3 -0.001939 -0.003579 0.010407 0.004937 0.000875 0.001713
# 4 -0.002439 0.005768 0.004937 0.025610 0.002641 0.000189
# 5 -0.008628 -0.000416 0.000875 0.002641 0.039512 0.017603
# 6 -0.005331 0.002034 0.001713 0.000189 0.017603 0.066018
#
#
# Mechanical properties :
#
#
# Convention : Reuss Voigt Hill
#
# Bulk Modulus (GPa) = 35.07728 46.70892 40.89310
# Shear Modulus (GPa) = 21.44419 30.41392 25.92906
#
# Velocity S-wave (km/s) = 3.14057 3.74015 3.45340
# Velocity P-wave (km/s) = 5.41152 6.33524 5.89151
#
# Compressibility (1/GPa) = 0.02850848
#
# Stress axis : x y z
#
# Youngs Moduli (GPa) = 47.58487 34.37388 96.08741
#
# Poissons Ratio (x) = 0.36042 0.18632
# Poissons Ratio (y) = 0.49893 0.34385
# Poissons Ratio (z) = 0.09227 0.12301
#
# Static dielectric constant tensor:
#      x y z
#    x 1.796770 -0.015860 -0.001420 
#    y -0.015860 1.899860 0.024160 
#    z -0.001420 0.024160 1.842690 
# 
# From -- ./inp_files/541064.got.cif
#   From: 2010.05.17/outbox.cif.g08.bks.cpg/sg2_271_cif.got.tgz:541064.got - 2010.06.03 11:33:40.
