data_PCOD9004322
_publ_section_title
;
Structure prediction by ZEFSAII (Michael W. Deem and Ramdas Pophale) SiO2 
 PCOD9004322
Probable space group: P -1
;
_chemical_formula_sum "Si O2"
_cell_formula_units_Z 16
_cell_length_a 15.168838
_cell_length_b 10.062005
_cell_length_c 18.327645
_cell_angle_alpha 144.031582
_cell_angle_beta 148.867171
_cell_angle_gamma 36.680550
_cell_volume 792.629428
_symmetry_space_group_name_H-M "P -1"
_symmetry_group_IT_number 2
_symmetry_cell_setting 'triclinic'
loop_
_space_group_symop_operation_xyz
x,y,z
-x,-y,-z
loop_
_atom_site_type_symbol
_atom_site_label
_atom_site_fract_x
_atom_site_fract_y
_atom_site_fract_z
Si Si1 0.641733 0.788245 0.905254
Si Si2 0.420522 0.676155 0.089073
Si Si3 0.889238 0.843061 0.980449
Si Si4 0.422155 0.094885 0.587448
Si Si5 0.533348 0.530479 0.452275
Si Si6 0.925756 0.506735 0.719877
Si Si7 0.317136 0.285181 0.926044
Si Si8 0.805511 0.934948 0.711029
O O1 0.564275 0.605118 0.728041
O O2 0.483323 0.054530 0.911997
O O3 0.812278 0.795495 0.982024
O O4 0.683602 0.723392 0.990637
O O5 0.576442 0.748525 0.271510
O O6 0.500000 0.500000 0.000000
O O7 0.342516 0.528187 0.023896
O O8 0.264629 0.921392 0.060198
O O9 0.911039 0.627696 0.843358
O O10 0.072331 0.903628 0.143869
O O11 0.245305 0.178867 0.448601
O O12 0.460479 0.816705 0.511325
O O13 0.604805 0.084792 0.668309
O O14 0.500000 0.500000 0.500000
O O15 0.750897 0.434128 0.550569
O O16 0.906994 0.723106 0.745807
O O17 0.122212 0.298039 0.762938
#
# Coordination Sequence:
#
# PCOD9004322 Si02
#       8
#     2   2   2   2   2   2   2   2
#     4  11  26  44  62  96 134 172 207 257 330 385
#     4  12  22  41  71  91 127 172 211 262 320 381
#     4  12  21  41  65 100 125 165 223 258 314 383
#     4  10  23  39  63 102 125 163 210 272 325 358
#     4  11  22  41  65  91 133 169 210 263 314 388
#     4  11  22  38  67  96 124 168 218 265 314 374
#     4  11  26  42  65  95 131 170 212 260 322 389
#     4  10  21  37  65  97 127 154 217 276 310 363
#
# _framework density 20.185977999999999
#
# number of rings (size 3 to 8) (size 9 to 14) (size 15 to 20)
#    0.000    1.000    6.250    1.125    7.000    2.000 
#    0.000    0.625    5.500    0.000    0.000    0.000 
#    0.000    0.000    0.000    0.000    0.000    0.000 
#
# Total GULP energy -89467.723493 kJ/mol
# GULP energy per Si atom -5591.732718 kJ/mol
# Density = 2.014003 g / cm^3
# Si number density = 20.185978 Si / 1000 Ang^3
#
#
#
# Elastic Constant Matrix: (Units=GPa)
#
#
# Indices 1 2 3 4 5 6 
#
# 1 97.8023 20.8238 46.4176 3.5055 6.4821 20.7805
# 2 20.8238 36.4776 4.6376 -4.6686 0.9119 -0.9887
# 3 46.4176 4.6376 113.6129 4.6993 1.3612 3.7465
# 4 3.5055 -4.6686 4.6993 28.6529 1.0818 2.6433
# 5 6.4821 0.9119 1.3612 1.0818 39.8499 6.5877
# 6 20.7805 -0.9887 3.7465 2.6433 6.5877 22.6125
#
#
#
# Elastic Compliance Matrix: (Units=1/GPa)
#
#
# Indices 1 2 3 4 5 6 
#
# 1 0.019506 -0.010914 -0.006900 -0.001458 0.000186 -0.017143
# 2 -0.010914 0.034359 0.002483 0.005572 -0.001027 0.010769
# 3 -0.006900 0.002483 0.011409 -0.001054 -0.000073 0.004704
# 4 -0.001458 0.005572 -0.001054 0.036395 -0.000451 -0.002364
# 5 0.000186 -0.001027 -0.000073 -0.000451 0.026399 -0.007842
# 6 -0.017143 0.010769 0.004704 -0.002364 -0.007842 0.062230
#
#
# Mechanical properties :
#
#
# Convention : Reuss Voigt Hill
#
# Bulk Modulus (GPa) = 28.89167 43.51676 36.20422
# Shear Modulus (GPa) = 21.50563 29.95730 25.73147
#
# Velocity S-wave (km/s) = 3.26755 3.85654 3.57420
# Velocity P-wave (km/s) = 5.34599 6.43702 5.91671
#
# Compressibility (1/GPa) = 0.03461205
#
# Stress axis : x y z
#
# Youngs Moduli (GPa) = 51.26656 29.10413 87.65001
#
# Poissons Ratio (x) = 0.31764 0.60482
# Poissons Ratio (y) = 0.55952 -0.21765
# Poissons Ratio (z) = 0.35376 -0.07227
#
# Static dielectric constant tensor:
#      x y z
#    x 1.735670 0.011640 -0.003680 
#    y 0.011640 1.719770 -0.019260 
#    z -0.003680 -0.019260 1.711520 
# 
# From -- ./inp_files/217029.got.cif
#   From: 2010.05.17/outbox.cif.g08.bks.cpg/sg2_109_cif.got.tgz:217029.got - 2010.06.03 11:33:40.
