data_PCOD9004406
_publ_section_title
;
Structure prediction by ZEFSAII (Michael W. Deem and Ramdas Pophale) SiO2 
 PCOD9004406
Probable space group: P -1
;
_chemical_formula_sum "Si O2"
_cell_formula_units_Z 15
_cell_length_a 7.455897
_cell_length_b 11.676096
_cell_length_c 20.086100
_cell_angle_alpha 147.530221
_cell_angle_beta 133.620962
_cell_angle_gamma 69.446538
_cell_volume 546.562337
_symmetry_space_group_name_H-M "P -1"
_symmetry_group_IT_number 2
_symmetry_cell_setting 'triclinic'
loop_
_space_group_symop_operation_xyz
x,y,z
-x,-y,-z
loop_
_atom_site_type_symbol
_atom_site_label
_atom_site_fract_x
_atom_site_fract_y
_atom_site_fract_z
Si Si1 0.165197 0.270625 0.618615
Si Si2 0.206760 0.583261 0.180523
Si Si3 0.108249 0.990401 0.158238
Si Si4 0.451504 0.752133 0.829545
Si Si5 0.874633 0.507776 0.733133
Si Si6 0.500000 0.500000 0.500000
Si Si7 0.810628 0.781324 0.196846
Si Si8 0.542084 0.055382 0.204720
O O1 0.498293 0.331045 0.745401
O O2 0.250156 0.484514 0.687374
O O3 0.991418 0.333074 0.655713
O O4 0.945596 0.977540 0.390306
O O5 0.289331 0.615178 0.297099
O O6 0.049631 0.731566 0.205535
O O7 0.951432 0.265184 0.947480
O O8 0.457722 0.163338 0.299583
O O9 0.171255 0.252478 0.332301
O O10 0.804516 0.851387 0.967922
O O11 0.340713 0.737283 0.720786
O O12 0.500000 0.000000 0.000000
O O13 0.702593 0.533859 0.641096
O O14 0.197255 0.795554 0.971877
O O15 0.726918 0.933823 0.201892
O O16 0.500000 0.500000 0.000000
#
# Coordination Sequence:
#
# PCOD9004406 Si02
#       8
#     2   2   2   2   2   1   2   2
#     4  11  25  45  73 105 137 187 235 293 348 418
#     4  10  25  48  72  97 142 191 228 294 349 409
#     4  10  21  37  66  95 135 176 228 276 347 409
#     4  11  21  40  65  98 141 173 220 295 350 409
#     4  11  23  43  68 106 140 182 232 286 354 418
#     4  12  22  36  66 108 140 176 236 280 344 436
#     4  12  24  47  73  99 141 186 245 285 341 422
#     4  11  22  42  69  98 137 187 223 288 357 404
#
# _framework density 27.444258999999999
#
# number of rings (size 3 to 8) (size 9 to 14) (size 15 to 20)
#    0.000    1.067    5.333    1.600    3.733    1.067 
#    4.800    0.667    2.933    0.000    0.000    0.000 
#    0.000    0.000    0.000    0.000    0.000    0.000 
#
# Total GULP energy -83764.806881 kJ/mol
# GULP energy per Si atom -5584.320459 kJ/mol
# Density = 2.738180 g / cm^3
# Si number density = 27.444259 Si / 1000 Ang^3
#
#
#
# Elastic Constant Matrix: (Units=GPa)
#
#
# Indices 1 2 3 4 5 6 
#
# 1 133.3623 57.1459 20.5976 3.7453 -5.0495 -36.4882
# 2 57.1459 136.9459 27.0650 -1.9085 -4.7244 -31.6319
# 3 20.5976 27.0650 122.5087 14.4146 -2.8567 -3.5907
# 4 3.7453 -1.9085 14.4146 45.1562 -0.3701 3.1296
# 5 -5.0495 -4.7244 -2.8567 -0.3701 27.0573 -5.0778
# 6 -36.4882 -31.6319 -3.5907 3.1296 -5.0778 48.2385
#
#
#
# Elastic Compliance Matrix: (Units=1/GPa)
#
#
# Indices 1 2 3 4 5 6 
#
# 1 0.010737 -0.002710 -0.000810 -0.001185 0.002675 0.006642
# 2 -0.002710 0.009861 -0.001652 0.000877 0.001886 0.004435
# 3 -0.000810 -0.001652 0.008978 -0.002810 0.000317 -0.000812
# 4 -0.001185 0.000877 -0.002810 0.023319 -0.000438 -0.002089
# 5 0.002675 0.001886 0.000317 -0.000438 0.039211 0.007440
# 6 0.006642 0.004435 -0.000812 -0.002089 0.007440 0.029521
#
#
# Mechanical properties :
#
#
# Convention : Reuss Voigt Hill
#
# Bulk Modulus (GPa) = 51.99789 66.93709 59.46749
# Shear Modulus (GPa) = 36.13181 43.29096 39.71138
#
# Velocity S-wave (km/s) = 3.63237 3.97598 3.80805
# Velocity P-wave (km/s) = 6.04814 6.74692 6.40707
#
# Compressibility (1/GPa) = 0.01923155
#
# Stress axis : x y z
#
# Youngs Moduli (GPa) = 93.13807 101.40650 111.38268
#
# Poissons Ratio (x) = 0.27483 0.09021
# Poissons Ratio (y) = 0.25242 0.18402
# Poissons Ratio (z) = 0.07544 0.16754
#
# Static dielectric constant tensor:
#      x y z
#    x -0.535870 1.538090 2.249360 
#    y 1.538090 1.462300 -1.238100 
#    z 2.249360 -1.238100 0.256500 
# 
# From -- ./inp_files/589659.got.cif
#   From: 2010.05.17/outbox.cif.g08.bks.cpg/sg2_295_cif.got.tgz:589659.got - 2010.06.03 11:33:40.
