data_PCOD9004968
_publ_section_title
;
Structure prediction by ZEFSAII (Michael W. Deem and Ramdas Pophale) SiO2 
 PCOD9004968
Probable space group: P -1
;
_chemical_formula_sum "Si O2"
_cell_formula_units_Z 14
_cell_length_a 21.739224
_cell_length_b 17.435072
_cell_length_c 6.812612
_cell_angle_alpha 129.172755
_cell_angle_beta 133.644790
_cell_angle_gamma 19.186317
_cell_volume 611.858357
_symmetry_space_group_name_H-M "P -1"
_symmetry_group_IT_number 2
_symmetry_cell_setting 'triclinic'
loop_
_space_group_symop_operation_xyz
x,y,z
-x,-y,-z
loop_
_atom_site_type_symbol
_atom_site_label
_atom_site_fract_x
_atom_site_fract_y
_atom_site_fract_z
Si Si1 0.053822 0.197813 0.167830
Si Si2 0.297206 0.313461 0.709955
Si Si3 0.844970 0.028923 0.629855
Si Si4 0.739884 0.325362 0.161853
Si Si5 0.688200 0.803937 0.841522
Si Si6 0.053542 0.381956 0.210641
Si Si7 0.300275 0.790222 0.816211
O O1 0.817574 0.466693 0.126167
O O2 0.127641 0.212863 0.228456
O O3 0.155455 0.067621 0.390780
O O4 0.113911 0.043558 0.914405
O O5 0.354475 0.237431 0.482428
O O6 0.122631 0.413945 0.502838
O O7 0.483352 0.078688 0.866227
O O8 0.072392 0.803150 0.681930
O O9 0.705876 0.183467 0.384470
O O10 0.782949 0.185453 0.887585
O O11 0.727680 0.292650 0.301658
O O12 0.516084 0.598901 0.063337
O O13 0.823060 0.621578 0.019434
O O14 0.174267 0.260189 0.073026
#
# Coordination Sequence:
#
# PCOD9004968 Si02
#       7
#     2   2   2   2   2   2   2
#     4  11  23  33  55  90 114 140 188 228 276 329
#     4   9  18  37  53  78 108 146 191 227 265 324
#     4  10  21  38  61  82 116 145 173 234 273 326
#     4   9  20  41  62  83 106 148 190 209 276 346
#     4   8  18  34  61  71  97 159 190 224 272 316
#     4   9  18  36  54  78 107 148 189 226 271 322
#     4  10  21  38  60  85 112 144 181 229 271 328
#
# _framework density 22.881112999999999
#
# number of rings (size 3 to 8) (size 9 to 14) (size 15 to 20)
#    0.857    1.714    0.000    1.286    2.000    1.714 
#    0.000    2.857    0.000    0.000    0.000    0.000 
#    0.000    0.000    0.000    0.000    0.000    0.000 
#
# Total GULP energy -77996.476096 kJ/mol
# GULP energy per Si atom -5571.176864 kJ/mol
# Density = 2.282903 g / cm^3
# Si number density = 22.881113 Si / 1000 Ang^3
#
#
#
# Elastic Constant Matrix: (Units=GPa)
#
#
# Indices 1 2 3 4 5 6 
#
# 1 114.6536 19.6638 16.0682 -10.6741 -24.6464 23.0430
# 2 19.6638 108.7150 20.4530 -18.5277 -4.6001 -5.3976
# 3 16.0682 20.4530 34.9781 -16.8774 -9.5172 11.6982
# 4 -10.6741 -18.5277 -16.8774 21.5410 -2.4721 -1.6477
# 5 -24.6464 -4.6001 -9.5172 -2.4721 20.2938 -12.1443
# 6 23.0430 -5.3976 11.6982 -1.6477 -12.1443 40.9455
#
#
#
# Elastic Compliance Matrix: (Units=1/GPa)
#
#
# Indices 1 2 3 4 5 6 
#
# 1 0.014216 -0.000910 0.007596 0.014234 0.020108 -0.003753
# 2 -0.000910 0.011657 -0.002977 0.007998 0.003700 0.004318
# 3 0.007596 -0.002977 0.071885 0.061838 0.044014 -0.009662
# 4 0.014234 0.007998 0.061838 0.115674 0.061083 -0.001851
# 5 0.020108 0.003700 0.044014 0.061083 0.109523 0.011539
# 6 -0.003753 0.004318 -0.009662 -0.001851 0.011539 0.033213
#
#
# Mechanical properties :
#
#
# Convention : Reuss Voigt Hill
#
# Bulk Modulus (GPa) = 9.50778 41.19075 25.34927
# Shear Modulus (GPa) = 13.02737 30.03351 21.53044
#
# Velocity S-wave (km/s) = 2.38870 3.62690 3.07085
# Velocity P-wave (km/s) = 3.43105 5.96493 4.86582
#
# Compressibility (1/GPa) = 0.10517700
#
# Stress axis : x y z
#
# Youngs Moduli (GPa) = 70.34565 85.78540 13.91110
#
# Poissons Ratio (x) = 0.07807 -0.10568
# Poissons Ratio (y) = 0.06402 0.04141
# Poissons Ratio (z) = -0.53438 0.25536
#
# Static dielectric constant tensor:
#      x y z
#    x 2.163560 0.122180 0.163660 
#    y 0.122180 2.058880 0.209360 
#    z 0.163660 0.209360 2.070930 
# 
# From -- ./inp_files/354715.got.cif
#   From: 2010.05.17/outbox.cif.g08.bks.cpg/sg2_178_cif.got.tgz:354715.got - 2010.06.03 11:33:40.
