data_PCOD9004194
_publ_section_title
;
Structure prediction by ZEFSAII (Michael W. Deem and Ramdas Pophale) SiO2 
 PCOD9004194
Probable space group: P -1
;
_chemical_formula_sum "Si O2"
_cell_formula_units_Z 16
_cell_length_a 15.882889
_cell_length_b 11.834191
_cell_length_c 9.699272
_cell_angle_alpha 138.228575
_cell_angle_beta 71.709403
_cell_angle_gamma 137.212489
_cell_volume 706.655865
_symmetry_space_group_name_H-M "P -1"
_symmetry_group_IT_number 2
_symmetry_cell_setting 'triclinic'
loop_
_space_group_symop_operation_xyz
x,y,z
-x,-y,-z
loop_
_atom_site_type_symbol
_atom_site_label
_atom_site_fract_x
_atom_site_fract_y
_atom_site_fract_z
Si Si1 0.157935 0.096756 0.971681
Si Si2 0.170613 0.744580 0.105362
Si Si3 0.528553 0.394592 0.209970
Si Si4 0.298074 0.250987 0.326450
Si Si5 0.602393 0.417811 0.892008
Si Si6 0.139897 0.446840 0.376232
Si Si7 0.659669 0.190130 0.146721
Si Si8 0.695570 0.162525 0.593674
O O1 0.188654 0.110624 0.129595
O O2 0.301462 0.309789 0.000523
O O3 0.126939 0.251439 0.121085
O O4 0.025505 0.783188 0.700482
O O5 0.240795 0.821284 0.287403
O O6 0.231679 0.003292 0.231774
O O7 0.228974 0.682834 0.918179
O O8 0.000000 0.500000 0.000000
O O9 0.451532 0.450661 0.349772
O O10 0.651283 0.536824 0.390981
O O11 0.592326 0.478635 0.104160
O O12 0.390319 0.062558 0.986577
O O13 0.657965 0.305169 0.772296
O O14 0.447755 0.154212 0.662627
O O15 0.254248 0.592414 0.573658
O O16 0.198852 0.671411 0.441879
O O17 0.500000 0.000000 0.000000
#
# Coordination Sequence:
#
# PCOD9004194 Si02
#       8
#     2   2   2   2   2   2   2   2
#     4  10  22  38  62  90 128 163 200 267 328 372
#     4  11  25  42  61  93 132 173 206 262 331 380
#     4  10  21  38  56  92 119 162 212 259 307 375
#     4  10  23  40  58  85 133 167 206 250 323 386
#     4  10  21  37  64  97 117 160 221 268 313 363
#     4  10  21  41  63  92 122 161 212 267 321 368
#     4  11  22  39  68  93 121 167 225 262 307 383
#     4  10  21  39  65  90 126 160 215 270 308 379
#
# _framework density 22.641853999999999
#
# number of rings (size 3 to 8) (size 9 to 14) (size 15 to 20)
#    0.000    1.750    1.250    2.250    8.750    1.500 
#    2.250    1.875    0.000    7.500    0.000    0.000 
#    0.000    0.000    0.000    0.000    0.000    0.000 
#
# Total GULP energy -89218.291190 kJ/mol
# GULP energy per Si atom -5576.143199 kJ/mol
# Density = 2.259032 g / cm^3
# Si number density = 22.641854 Si / 1000 Ang^3
#
#
#
# Elastic Constant Matrix: (Units=GPa)
#
#
# Indices 1 2 3 4 5 6 
#
# 1 53.9214 44.2033 30.7485 2.7061 21.5549 -4.4091
# 2 44.2033 184.7386 75.0546 8.8638 25.4106 -5.2886
# 3 30.7485 75.0546 106.8592 -0.9628 32.0024 4.8210
# 4 2.7061 8.8638 -0.9628 39.9912 0.6367 6.4679
# 5 21.5549 25.4106 32.0024 0.6367 32.0377 -11.8010
# 6 -4.4091 -5.2886 4.8210 6.4679 -11.8010 32.9188
#
#
#
# Elastic Compliance Matrix: (Units=1/GPa)
#
#
# Indices 1 2 3 4 5 6 
#
# 1 0.028850 -0.004750 0.000264 -0.000135 -0.017013 -0.003010
# 2 -0.004750 0.008701 -0.005986 -0.002354 0.003566 0.003379
# 3 0.000264 -0.005986 0.019977 0.004002 -0.019786 -0.011731
# 4 -0.000135 -0.002354 0.004002 0.027069 -0.005643 -0.008324
# 5 -0.017013 0.003566 -0.019786 -0.005643 0.069769 0.027312
# 6 -0.003010 0.003379 -0.011731 -0.008324 0.027312 0.043662
#
#
# Mechanical properties :
#
#
# Convention : Reuss Voigt Hill
#
# Bulk Modulus (GPa) = 27.33339 71.72576 49.52958
# Shear Modulus (GPa) = 21.62949 34.02373 27.82661
#
# Velocity S-wave (km/s) = 3.09413 3.88066 3.50950
# Velocity P-wave (km/s) = 4.98629 7.19907 6.19232
#
# Compressibility (1/GPa) = 0.03658529
#
# Stress axis : x y z
#
# Youngs Moduli (GPa) = 34.66172 114.93229 50.05704
#
# Poissons Ratio (x) = 0.54594 -0.01324
# Poissons Ratio (y) = 0.16465 0.29963
# Poissons Ratio (z) = -0.00917 0.68796
#
# Static dielectric constant tensor:
#      x y z
#    x 2.015900 0.043270 -0.046610 
#    y 0.043270 1.866830 0.022890 
#    z -0.046610 0.022890 1.875480 
# 
# From -- ./inp_files/333758.got.cif
#   From: 2010.05.17/outbox.cif.g08.bks.cpg/sg2_167_cif.got.tgz:333758.got - 2010.06.03 11:33:40.
