data_PCOD9004387
_publ_section_title
;
Structure prediction by ZEFSAII (Michael W. Deem and Ramdas Pophale) SiO2 
 PCOD9004387
Probable space group: P -1
;
_chemical_formula_sum "Si O2"
_cell_formula_units_Z 14
_cell_length_a 14.526484
_cell_length_b 9.106366
_cell_length_c 9.214356
_cell_angle_alpha 78.429593
_cell_angle_beta 70.641473
_cell_angle_gamma 35.248159
_cell_volume 658.154530
_symmetry_space_group_name_H-M "P -1"
_symmetry_group_IT_number 2
_symmetry_cell_setting 'triclinic'
loop_
_space_group_symop_operation_xyz
x,y,z
-x,-y,-z
loop_
_atom_site_type_symbol
_atom_site_label
_atom_site_fract_x
_atom_site_fract_y
_atom_site_fract_z
Si Si1 0.521856 0.188194 0.059248
Si Si2 0.613621 0.769290 0.598805
Si Si3 0.814981 0.250467 0.480128
Si Si4 0.779384 0.598969 0.978269
Si Si5 0.263774 0.872480 0.226282
Si Si6 0.962680 0.131321 0.142628
Si Si7 0.137055 0.338412 0.336897
O O1 0.481188 0.226098 0.243079
O O2 0.352329 0.352353 0.032925
O O3 0.590877 0.247605 0.929783
O O4 0.664609 0.882995 0.024150
O O5 0.749388 0.498909 0.498596
O O6 0.701090 0.784806 0.651710
O O7 0.500000 0.000000 0.500000
O O8 0.700933 0.277298 0.624382
O O9 0.840227 0.198916 0.305455
O O10 0.000000 0.000000 0.500000
O O11 0.905140 0.500215 0.807774
O O12 0.876974 0.396008 0.094518
O O13 0.178627 0.125067 0.292432
O O14 0.133331 0.950325 0.175023
O O15 0.000000 0.000000 0.000000
O O16 0.000000 0.500000 0.500000
#
# Coordination Sequence:
#
# PCOD9004387 Si02
#       7
#     2   2   2   2   2   2   2
#     4   9  20  39  63  89 124 166 204 258 325 373
#     4  11  23  41  68  95 131 170 211 265 322 381
#     4  10  23  42  64  92 130 167 210 260 325 379
#     4   9  20  38  60  88 126 164 207 257 315 374
#     4  10  23  41  62  95 126 167 214 262 311 384
#     4  11  24  39  64  90 128 169 211 259 317 374
#     4  10  21  37  66  93 127 170 213 260 319 380
#
# _framework density 21.271601
#
# number of rings (size 3 to 8) (size 9 to 14) (size 15 to 20)
#    0.000    2.000    0.000    3.429   10.000    4.000 
#    0.000    1.429    0.000    0.000    0.000    0.000 
#    0.000    0.000    0.000    0.000    0.000    0.000 
#
# Total GULP energy -78150.327373 kJ/mol
# GULP energy per Si atom -5582.166241 kJ/mol
# Density = 2.122319 g / cm^3
# Si number density = 21.271601 Si / 1000 Ang^3
#
#
#
# Elastic Constant Matrix: (Units=GPa)
#
#
# Indices 1 2 3 4 5 6 
#
# 1 58.6991 2.5875 44.4222 9.2922 -6.5941 20.8559
# 2 2.5875 65.3334 33.6186 6.9795 1.1101 15.1301
# 3 44.4222 33.6186 191.1961 1.7902 -16.4660 10.7245
# 4 9.2922 6.9795 1.7902 34.0849 5.4170 1.1161
# 5 -6.5941 1.1101 -16.4660 5.4170 39.0036 3.1929
# 6 20.8559 15.1301 10.7245 1.1161 3.1929 17.3811
#
#
#
# Elastic Compliance Matrix: (Units=1/GPa)
#
#
# Indices 1 2 3 4 5 6 
#
# 1 0.065742 0.028919 -0.013337 -0.022461 0.015744 -0.097279
# 2 0.028919 0.033573 -0.008579 -0.013490 0.007020 -0.059056
# 3 -0.013337 -0.008579 0.008761 0.004409 -0.000386 0.017852
# 4 -0.022461 -0.013490 0.004409 0.038390 -0.009774 0.035304
# 5 0.015744 0.007020 -0.000386 -0.009774 0.031749 -0.029969
# 6 -0.097279 -0.059056 0.017852 0.035304 -0.029969 0.217892
#
#
# Mechanical properties :
#
#
# Convention : Reuss Voigt Hill
#
# Bulk Modulus (GPa) = 8.19109 52.94280 30.56695
# Shear Modulus (GPa) = 11.82609 33.73393 22.78001
#
# Velocity S-wave (km/s) = 2.36043 3.98661 3.27603
# Velocity P-wave (km/s) = 3.35975 6.79219 5.35825
#
# Compressibility (1/GPa) = 0.12208383
#
# Stress axis : x y z
#
# Youngs Moduli (GPa) = 15.21102 29.78552 114.13669
#
# Poissons Ratio (x) = -0.86137 1.52218
# Poissons Ratio (y) = -0.43989 0.97917
# Poissons Ratio (z) = 0.20286 0.25553
#
# Static dielectric constant tensor:
#      x y z
#    x 1.812190 -0.128910 -0.146950 
#    y -0.128910 2.289730 0.411300 
#    z -0.146950 0.411300 2.109500 
# 
# From -- ./inp_files/206292.got.cif
#   From: 2010.05.17/outbox.cif.g08.bks.cpg/sg2_104_cif.got.tgz:206292.got - 2010.06.03 11:33:40.
