data_PCOD9004677
_publ_section_title
;
Structure prediction by ZEFSAII (Michael W. Deem and Ramdas Pophale) SiO2 
 PCOD9004677
Probable space group: P -1
;
_chemical_formula_sum "Si O2"
_cell_formula_units_Z 14
_cell_length_a 13.155261
_cell_length_b 9.299880
_cell_length_c 8.019115
_cell_angle_alpha 73.925727
_cell_angle_beta 65.551109
_cell_angle_gamma 36.263057
_cell_volume 525.314859
_symmetry_space_group_name_H-M "P -1"
_symmetry_group_IT_number 2
_symmetry_cell_setting 'triclinic'
loop_
_space_group_symop_operation_xyz
x,y,z
-x,-y,-z
loop_
_atom_site_type_symbol
_atom_site_label
_atom_site_fract_x
_atom_site_fract_y
_atom_site_fract_z
Si Si1 0.285469 0.217968 0.133867
Si Si2 0.933333 0.040313 0.846333
Si Si3 0.273936 0.487926 0.273576
Si Si4 0.632222 0.131454 0.981882
Si Si5 0.182282 0.500353 0.799449
Si Si6 0.500234 0.326343 0.504880
Si Si7 0.689651 0.885267 0.362400
O O1 0.163427 0.435941 0.009606
O O2 0.268665 0.058096 0.176728
O O3 0.250632 0.335962 0.295634
O O4 0.500000 0.000000 0.000000
O O5 0.908391 0.223761 0.712394
O O6 0.734331 0.175976 0.931326
O O7 0.061441 0.774951 0.774219
O O8 0.000000 0.000000 0.000000
O O9 0.414842 0.377109 0.060721
O O10 0.379342 0.431835 0.384101
O O11 0.672455 0.979252 0.160420
O O12 0.387057 0.349805 0.706343
O O13 0.169186 0.396553 0.688544
O O14 0.500000 0.500000 0.500000
O O15 0.685261 0.038002 0.431690
O O16 0.500000 0.000000 0.500000
#
# Coordination Sequence:
#
# PCOD9004677 Si02
#       7
#     2   2   2   2   2   2   2
#     4   9  18  36  61  88 114 156 204 258 298 363
#     4  12  24  36  58  95 134 162 194 261 312 362
#     4  10  21  40  60  89 121 162 211 254 302 369
#     4   9  20  36  62  88 119 163 208 246 306 364
#     4  10  21  38  57  87 127 160 201 251 309 360
#     4  10  22  38  65  89 117 164 211 255 304 366
#     4   8  17  36  59  86 113 155 204 250 290 362
#
# _framework density 26.650683999999998
#
# number of rings (size 3 to 8) (size 9 to 14) (size 15 to 20)
#    0.000    2.286    1.429    1.286    4.000    5.143 
#    0.000    0.000    0.000    1.714    0.000    0.000 
#    0.000    0.000    0.000    0.000    0.000    0.000 
#
# Total GULP energy -78128.511657 kJ/mol
# GULP energy per Si atom -5580.607976 kJ/mol
# Density = 2.659003 g / cm^3
# Si number density = 26.650684 Si / 1000 Ang^3
#
#
#
# Elastic Constant Matrix: (Units=GPa)
#
#
# Indices 1 2 3 4 5 6 
#
# 1 106.2241 38.8804 31.5385 12.8936 23.1344 43.7220
# 2 38.8804 212.3717 25.6108 29.9707 29.6444 53.0144
# 3 31.5385 25.6108 87.4417 7.9350 35.1527 12.5110
# 4 12.8936 29.9707 7.9350 29.3961 5.6240 13.7302
# 5 23.1344 29.6444 35.1527 5.6240 41.9332 14.8771
# 6 43.7220 53.0144 12.5110 13.7302 14.8771 55.5978
#
#
#
# Elastic Compliance Matrix: (Units=1/GPa)
#
#
# Indices 1 2 3 4 5 6 
#
# 1 0.015295 0.000856 -0.003150 -0.001032 -0.002264 -0.011275
# 2 0.000856 0.006920 -0.000025 -0.004343 -0.002832 -0.005436
# 3 -0.003150 -0.000025 0.018021 -0.002035 -0.014038 0.002705
# 4 -0.001032 -0.004343 -0.002035 0.041611 0.001647 -0.005306
# 5 -0.002264 -0.002832 -0.014038 0.001647 0.039864 -0.003434
# 6 -0.011275 -0.005436 0.002705 -0.005306 -0.003434 0.033656
#
#
# Mechanical properties :
#
#
# Convention : Reuss Voigt Hill
#
# Bulk Modulus (GPa) = 28.09219 66.45520 47.27369
# Shear Modulus (GPa) = 29.09124 46.05261 37.57193
#
# Velocity S-wave (km/s) = 3.30748 4.16144 3.75879
# Velocity P-wave (km/s) = 5.01495 6.93397 6.05102
#
# Compressibility (1/GPa) = 0.03559708
#
# Stress axis : x y z
#
# Youngs Moduli (GPa) = 65.38034 144.50267 55.49117
#
# Poissons Ratio (x) = -0.12367 0.17482
# Poissons Ratio (y) = -0.05595 0.00139
# Poissons Ratio (z) = 0.20598 0.00361
#
# Static dielectric constant tensor:
#      x y z
#    x 2.359620 0.126210 -0.035760 
#    y 0.126210 2.269950 -0.052300 
#    z -0.035760 -0.052300 2.176260 
# 
# From -- ./inp_files/203065.got.cif
#   From: 2010.05.17/outbox.cif.g08.bks.cpg/sg2_102_cif.got.tgz:203065.got - 2010.06.03 11:33:40.
