data_PCOD9004602
_publ_section_title
;
Structure prediction by ZEFSAII (Michael W. Deem and Ramdas Pophale) SiO2 
 PCOD9004602
Probable space group: P -1
;
_chemical_formula_sum "Si O2"
_cell_formula_units_Z 14
_cell_length_a 13.905151
_cell_length_b 21.133287
_cell_length_c 8.623848
_cell_angle_alpha 145.882868
_cell_angle_beta 138.231247
_cell_angle_gamma 32.499734
_cell_volume 754.129942
_symmetry_space_group_name_H-M "P -1"
_symmetry_group_IT_number 2
_symmetry_cell_setting 'triclinic'
loop_
_space_group_symop_operation_xyz
x,y,z
-x,-y,-z
loop_
_atom_site_type_symbol
_atom_site_label
_atom_site_fract_x
_atom_site_fract_y
_atom_site_fract_z
Si Si1 0.577173 0.384502 0.724956
Si Si2 0.224387 0.494758 0.329175
Si Si3 0.252085 0.128313 0.855352
Si Si4 0.152366 0.596693 0.119278
Si Si5 0.833898 0.655378 0.294432
Si Si6 0.794256 0.061940 0.399272
Si Si7 0.625343 0.938751 0.795900
O O1 0.408555 0.427230 0.502795
O O2 0.726790 0.382619 0.802630
O O3 0.670095 0.229741 0.592562
O O4 0.500000 0.500000 0.000000
O O5 0.209203 0.583192 0.340467
O O6 0.043761 0.593790 0.415509
O O7 0.210920 0.377174 0.994213
O O8 0.411463 0.062962 0.790035
O O9 0.059608 0.274530 0.888555
O O10 0.223280 0.009286 0.615855
O O11 0.330333 0.135797 0.130518
O O12 0.181234 0.448845 0.826452
O O13 0.704656 0.816322 0.518154
O O14 0.729737 0.008430 0.074975
O O15 0.000000 0.000000 0.500000
#
# Coordination Sequence:
#
# PCOD9004602 Si02
#       7
#     2   2   2   2   2   2   2
#     4  12  25  38  67  91 120 168 203 255 302 369
#     4   9  23  41  62  91 126 156 213 246 308 359
#     4   9  20  36  59  92 122 159 198 259 300 356
#     4  10  21  41  61  86 127 159 199 257 303 360
#     4   9  21  40  64  87 122 165 203 254 296 369
#     4  10  21  38  54  90 127 150 200 254 304 354
#     4   9  20  36  62  87 122 159 204 251 301 355
#
# _framework density 18.564440999999999
#
# number of rings (size 3 to 8) (size 9 to 14) (size 15 to 20)
#    1.714    0.571    1.429    0.429    8.000    0.571 
#    0.000    2.857    0.000    2.571    0.000    0.000 
#    0.000    0.000    0.000    0.000    0.000    0.000 
#
# Total GULP energy -77956.646475 kJ/mol
# GULP energy per Si atom -5568.331891 kJ/mol
# Density = 1.852219 g / cm^3
# Si number density = 18.564441 Si / 1000 Ang^3
#
#
#
# Elastic Constant Matrix: (Units=GPa)
#
#
# Indices 1 2 3 4 5 6 
#
# 1 64.0212 17.4923 31.0813 0.7433 16.9111 -23.2452
# 2 17.4923 95.2244 48.6128 -7.0416 2.1252 -21.7958
# 3 31.0813 48.6128 72.0129 13.1068 6.2918 -22.6069
# 4 0.7433 -7.0416 13.1068 25.0964 -3.5337 7.4858
# 5 16.9111 2.1252 6.2918 -3.5337 26.4882 0.4190
# 6 -23.2452 -21.7958 -22.6069 7.4858 0.4190 39.3564
#
#
#
# Elastic Compliance Matrix: (Units=1/GPa)
#
#
# Indices 1 2 3 4 5 6 
#
# 1 0.028356 0.001530 -0.006333 -0.004013 -0.017494 0.014907
# 2 0.001530 0.020140 -0.017866 0.015845 0.003785 -0.001259
# 3 -0.006333 -0.017866 0.039997 -0.031507 -0.008471 0.015423
# 4 -0.004013 0.015845 -0.031507 0.071072 0.018658 -0.025410
# 5 -0.017494 0.003785 -0.008471 0.018658 0.053391 -0.017220
# 6 0.014907 -0.001259 0.015423 -0.025410 -0.017220 0.047392
#
#
# Mechanical properties :
#
#
# Convention : Reuss Voigt Hill
#
# Bulk Modulus (GPa) = 23.17218 47.29236 35.23227
# Shear Modulus (GPa) = 15.62149 27.12634 21.37392
#
# Velocity S-wave (km/s) = 2.90396 3.82671 3.39682
# Velocity P-wave (km/s) = 4.87372 6.71230 5.86550
#
# Compressibility (1/GPa) = 0.04315520
#
# Stress axis : x y z
#
# Youngs Moduli (GPa) = 35.26531 49.65200 25.00217
#
# Poissons Ratio (x) = -0.07596 0.15834
# Poissons Ratio (y) = -0.05395 0.44669
# Poissons Ratio (z) = 0.22333 0.88708
#
# Static dielectric constant tensor:
#      x y z
#    x 1.663220 0.029090 0.002440 
#    y 0.029090 1.638420 -0.011820 
#    z 0.002440 -0.011820 1.632280 
# 
# From -- ./inp_files/319111.got.cif
#   From: 2010.05.17/outbox.cif.g08.bks.cpg/sg2_160_cif.got.tgz:319111.got - 2010.06.03 11:33:40.
