data_PCOD9004620
_publ_section_title
;
Structure prediction by ZEFSAII (Michael W. Deem and Ramdas Pophale) SiO2 
 PCOD9004620
Probable space group: P -1
;
_chemical_formula_sum "Si O2"
_cell_formula_units_Z 12
_cell_length_a 7.739491
_cell_length_b 12.657762
_cell_length_c 11.191417
_cell_angle_alpha 65.324370
_cell_angle_beta 62.340937
_cell_angle_gamma 118.142764
_cell_volume 496.313624
_symmetry_space_group_name_H-M "P -1"
_symmetry_group_IT_number 2
_symmetry_cell_setting 'triclinic'
loop_
_space_group_symop_operation_xyz
x,y,z
-x,-y,-z
loop_
_atom_site_type_symbol
_atom_site_label
_atom_site_fract_x
_atom_site_fract_y
_atom_site_fract_z
Si Si1 0.000230 0.840639 0.680539
Si Si2 0.396914 0.858577 0.405057
Si Si3 0.702414 0.418901 0.555223
Si Si4 0.198734 0.311693 0.933385
Si Si5 0.866075 0.168507 0.742796
Si Si6 0.317651 0.232595 0.433931
O O1 0.186317 0.811775 0.602470
O O2 0.809919 0.793891 0.646097
O O3 0.294035 0.081606 0.506927
O O4 0.747978 0.699381 0.940172
O O5 0.398374 0.721006 0.448954
O O6 0.183206 0.801076 0.386556
O O7 0.784195 0.099943 0.153149
O O8 0.388396 0.309834 0.789874
O O9 0.000000 0.500000 0.500000
O O10 0.877782 0.625208 0.360315
O O11 0.362673 0.520976 0.764299
O O12 0.033003 0.128497 0.675403
O O13 0.500000 0.000000 0.000000
#
# Coordination Sequence:
#
# PCOD9004620 Si02
#       6
#     2   2   2   2   2   2
#     4  10  21  39  59  81 118 152 188 231 282 339
#     4  10  21  38  55  89 115 142 194 232 284 343
#     4   9  20  37  58  82 111 147 197 225 273 350
#     4  11  21  38  61  83 118 151 181 243 290 321
#     4   9  19  38  59  81 112 152 189 236 277 332
#     4   9  21  38  57  87 110 147 204 225 268 355
#
# _framework density 24.178260000000002
#
# number of rings (size 3 to 8) (size 9 to 14) (size 15 to 20)
#    0.000    2.333    0.000    2.500    4.667    0.667 
#    9.000    1.667    0.000    0.000    0.000    0.000 
#    0.000    0.000    0.000    0.000    0.000    0.000 
#
# Total GULP energy -67026.165109 kJ/mol
# GULP energy per Si atom -5585.513759 kJ/mol
# Density = 2.412323 g / cm^3
# Si number density = 24.178260 Si / 1000 Ang^3
#
#
#
# Elastic Constant Matrix: (Units=GPa)
#
#
# Indices 1 2 3 4 5 6 
#
# 1 63.9155 13.4500 -0.4627 7.5422 -4.1168 -10.8391
# 2 13.4500 165.3405 46.5177 4.6307 0.8745 -21.8175
# 3 -0.4627 46.5177 103.2066 12.3554 3.0725 -23.4697
# 4 7.5422 4.6307 12.3554 42.0735 1.5039 -9.0462
# 5 -4.1168 0.8745 3.0725 1.5039 28.1942 -3.2010
# 6 -10.8391 -21.8175 -23.4697 -9.0462 -3.2010 34.7237
#
#
#
# Elastic Compliance Matrix: (Units=1/GPa)
#
#
# Indices 1 2 3 4 5 6 
#
# 1 0.017385 -0.001202 0.002132 -0.002485 0.003129 0.005754
# 2 -0.001202 0.007240 -0.002797 0.000772 0.000147 0.002498
# 3 0.002132 -0.002797 0.012825 -0.002341 -0.000085 0.006959
# 4 -0.002485 0.000772 -0.002341 0.025878 -0.000969 0.004779
# 5 0.003129 0.000147 -0.000085 -0.000969 0.036449 0.004120
# 6 0.005754 0.002498 0.006959 0.004779 0.004120 0.038492
#
#
# Mechanical properties :
#
#
# Convention : Reuss Voigt Hill
#
# Bulk Modulus (GPa) = 29.65955 50.16362 39.91159
# Shear Modulus (GPa) = 32.62815 39.19546 35.91181
#
# Velocity S-wave (km/s) = 3.67752 4.03066 3.85813
# Velocity P-wave (km/s) = 5.50689 6.51568 6.03241
#
# Compressibility (1/GPa) = 0.03371595
#
# Stress axis : x y z
#
# Youngs Moduli (GPa) = 57.52231 138.11871 77.97282
#
# Poissons Ratio (x) = 0.16600 -0.16627
# Poissons Ratio (y) = 0.06913 0.21813
# Poissons Ratio (z) = -0.12266 0.38638
#
# Static dielectric constant tensor:
#      x y z
#    x 2.007640 0.019710 0.004190 
#    y 0.019710 2.009700 0.001320 
#    z 0.004190 0.001320 1.901930 
# 
# From -- ./inp_files/147898.got.cif
#   From: 2010.05.17/outbox.cif.g08.bks.cpg/sg2_74_cif.got.tgz:147898.got - 2010.06.03 11:33:40.
