data_PCOD9004761
_publ_section_title
;
Structure prediction by ZEFSAII (Michael W. Deem and Ramdas Pophale) SiO2 
 PCOD9004761
Probable space group: P -1
;
_chemical_formula_sum "Si O2"
_cell_formula_units_Z 16
_cell_length_a 14.425334
_cell_length_b 9.127756
_cell_length_c 12.022090
_cell_angle_alpha 109.493004
_cell_angle_beta 81.129237
_cell_angle_gamma 147.696325
_cell_volume 771.353018
_symmetry_space_group_name_H-M "P -1"
_symmetry_group_IT_number 2
_symmetry_cell_setting 'triclinic'
loop_
_space_group_symop_operation_xyz
x,y,z
-x,-y,-z
loop_
_atom_site_type_symbol
_atom_site_label
_atom_site_fract_x
_atom_site_fract_y
_atom_site_fract_z
Si Si1 0.401576 0.572583 0.110067
Si Si2 0.104415 0.186163 0.699151
Si Si3 0.695101 0.841774 0.409433
Si Si4 0.047317 0.176347 0.142485
Si Si5 0.092336 0.821399 0.334866
Si Si6 0.353340 0.238107 0.205539
Si Si7 0.576466 0.272406 0.091069
Si Si8 0.181140 0.845066 0.761732
O O1 0.263764 0.501317 0.173499
O O2 0.351393 0.338604 0.119355
O O3 0.616154 0.893749 0.164735
O O4 0.365858 0.541909 0.978515
O O5 0.215967 0.201416 0.633470
O O6 0.251659 0.507083 0.808476
O O7 0.996933 0.136821 0.619710
O O8 0.989136 0.957127 0.765893
O O9 0.487453 0.524319 0.334843
O O10 0.749200 0.980417 0.554973
O O11 0.785649 0.070705 0.353210
O O12 0.925408 0.159290 0.164759
O O13 0.000000 0.000000 0.000000
O O14 0.945990 0.481600 0.285000
O O15 0.170165 0.948888 0.229142
O O16 0.435598 0.185364 0.154724
O O17 0.500000 0.000000 0.000000
#
# Coordination Sequence:
#
# PCOD9004761 Si02
#       8
#     2   2   2   2   2   2   2   2
#     4  11  22  42  63  84 127 163 195 239 299 368
#     4  10  21  38  58  90 115 159 205 238 296 371
#     4   9  21  42  62  81 119 164 200 245 307 357
#     4  11  22  39  64  87 121 164 202 240 294 367
#     4  12  21  39  62  90 120 150 203 266 297 340
#     4  10  23  37  63  90 114 158 210 240 296 366
#     4  11  23  38  59  89 127 157 190 250 306 356
#     4  10  25  39  62  93 121 158 203 246 310 357
#
# _framework density 20.742771999999999
#
# number of rings (size 3 to 8) (size 9 to 14) (size 15 to 20)
#    0.000    1.500    2.500    3.000    3.500    0.000 
#    0.000    1.875    0.000    3.000    0.000    0.000 
#    0.000    0.000    0.000    0.000    0.000    0.000 
#
# Total GULP energy -89281.265665 kJ/mol
# GULP energy per Si atom -5580.079104 kJ/mol
# Density = 2.069556 g / cm^3
# Si number density = 20.742772 Si / 1000 Ang^3
#
#
#
# Elastic Constant Matrix: (Units=GPa)
#
#
# Indices 1 2 3 4 5 6 
#
# 1 73.1390 34.0653 13.1936 4.4783 8.7212 5.9390
# 2 34.0653 109.8933 13.9815 11.3361 -10.7559 -3.6936
# 3 13.1936 13.9815 50.7052 8.6548 10.3682 -9.1916
# 4 4.4783 11.3361 8.6548 13.0470 3.5891 0.9005
# 5 8.7212 -10.7559 10.3682 3.5891 28.8126 -4.0433
# 6 5.9390 -3.6936 -9.1916 0.9005 -4.0433 33.7900
#
#
#
# Elastic Compliance Matrix: (Units=1/GPa)
#
#
# Indices 1 2 3 4 5 6 
#
# 1 0.018661 -0.006879 -0.003049 0.004346 -0.008502 -0.005994
# 2 -0.006879 0.013657 -0.001277 -0.011566 0.009616 0.003813
# 3 -0.003049 -0.001277 0.025734 -0.013717 -0.006119 0.007030
# 4 0.004346 -0.011566 -0.013717 0.098976 -0.014447 -0.010126
# 5 -0.008502 0.009616 -0.006119 -0.014447 0.045818 0.006749
# 6 -0.005994 0.003813 0.007030 -0.010126 0.006749 0.034055
#
#
# Mechanical properties :
#
#
# Convention : Reuss Voigt Hill
#
# Bulk Modulus (GPa) = 28.05560 39.57980 33.81770
# Shear Modulus (GPa) = 18.43724 26.62973 22.53349
#
# Velocity S-wave (km/s) = 2.98460 3.58691 3.29953
# Velocity P-wave (km/s) = 5.04301 6.02306 5.55469
#
# Compressibility (1/GPa) = 0.03564350
#
# Stress axis : x y z
#
# Youngs Moduli (GPa) = 53.58856 73.22340 38.85904
#
# Poissons Ratio (x) = 0.50367 0.11848
# Poissons Ratio (y) = 0.36861 0.04961
# Poissons Ratio (z) = 0.16339 0.09348
#
# Static dielectric constant tensor:
#      x y z
#    x 1.768290 0.040980 0.015050 
#    y 0.040980 1.747950 0.012180 
#    z 0.015050 0.012180 1.746460 
# 
# From -- ./inp_files/176727.got.cif
#   From: 2010.05.17/outbox.cif.g08.bks.cpg/sg2_89_cif.got.tgz:176727.got - 2010.06.03 11:33:40.
