data_PCOD9004668
_publ_section_title
;
Structure prediction by ZEFSAII (Michael W. Deem and Ramdas Pophale) SiO2 
 PCOD9004668
Probable space group: P -1
;
_chemical_formula_sum "Si O2"
_cell_formula_units_Z 16
_cell_length_a 16.971978
_cell_length_b 16.735132
_cell_length_c 15.925445
_cell_angle_alpha 154.685932
_cell_angle_beta 26.133612
_cell_angle_gamma 155.153573
_cell_volume 733.245554
_symmetry_space_group_name_H-M "P -1"
_symmetry_group_IT_number 2
_symmetry_cell_setting 'triclinic'
loop_
_space_group_symop_operation_xyz
x,y,z
-x,-y,-z
loop_
_atom_site_type_symbol
_atom_site_label
_atom_site_fract_x
_atom_site_fract_y
_atom_site_fract_z
Si Si1 0.917926 0.947391 0.934641
Si Si2 0.542285 0.181211 0.435188
Si Si3 0.264990 0.945376 0.159196
Si Si4 0.800208 0.478866 0.625922
Si Si5 0.163755 0.216554 0.802351
Si Si6 0.122147 0.635980 0.847361
Si Si7 0.529654 0.148167 0.693311
Si Si8 0.050239 0.167924 0.493164
O O1 0.879714 0.711241 0.730521
O O2 0.690459 0.911624 0.116680
O O3 0.073175 0.135108 0.903965
O O4 0.000000 0.000000 0.000000
O O5 0.693695 0.318151 0.497125
O O6 0.403071 0.284102 0.639341
O O7 0.686257 0.193862 0.232816
O O8 0.388158 0.941218 0.395134
O O9 0.131553 0.894106 0.323114
O O10 0.230504 0.130940 0.324952
O O11 0.160227 0.737842 0.000307
O O12 0.500000 0.000000 0.000000
O O13 0.643041 0.385539 0.767957
O O14 0.000000 0.500000 0.500000
O O15 0.046669 0.006298 0.654318
O O16 0.090026 0.381061 0.999113
O O17 0.121150 0.412074 0.631722
O O18 0.500000 0.000000 0.500000
#
# Coordination Sequence:
#
# PCOD9004668 Si02
#       8
#     2   2   2   2   2   2   2   2
#     4  12  22  40  62  86 125 166 220 274 326 387
#     4  11  22  43  60  91 127 165 219 271 328 392
#     4  10  22  42  70 101 134 170 211 261 323 387
#     4  11  23  39  61  87 118 167 219 277 336 388
#     4  11  24  42  64  93 133 174 216 277 327 381
#     4  11  23  41  68  96 136 173 214 265 326 391
#     4  10  21  38  57  84 116 156 210 267 321 380
#     4  10  23  43  66  99 135 170 214 264 322 391
#
# _framework density 21.820792999999998
#
# number of rings (size 3 to 8) (size 9 to 14) (size 15 to 20)
#    0.000    1.250    1.250    6.000    0.000    1.500 
#    2.250    0.000    0.000    0.000    0.000    0.000 
#    0.000    0.000    0.000    0.000    0.000    0.000 
#
# Total GULP energy -89300.689376 kJ/mol
# GULP energy per Si atom -5581.293086 kJ/mol
# Density = 2.177113 g / cm^3
# Si number density = 21.820793 Si / 1000 Ang^3
#
#
#
# Elastic Constant Matrix: (Units=GPa)
#
#
# Indices 1 2 3 4 5 6 
#
# 1 91.6438 12.7372 30.8212 -4.4928 -11.3771 0.0112
# 2 12.7372 29.8593 12.0949 4.2825 -8.5077 -2.7586
# 3 30.8212 12.0949 94.4296 -7.6708 -29.5758 5.4133
# 4 -4.4928 4.2825 -7.6708 44.6542 -0.5654 -5.2968
# 5 -11.3771 -8.5077 -29.5758 -0.5654 49.5983 -9.0117
# 6 0.0112 -2.7586 5.4133 -5.2968 -9.0117 24.7268
#
#
#
# Elastic Compliance Matrix: (Units=1/GPa)
#
#
# Indices 1 2 3 4 5 6 
#
# 1 0.012741 -0.004044 -0.003499 0.001150 0.000275 0.000656
# 2 -0.004044 0.038885 -0.002691 -0.003821 0.005184 0.006000
# 3 -0.003499 -0.002691 0.014622 0.002481 0.007436 -0.000258
# 4 0.001150 -0.003821 0.002481 0.023922 0.002266 0.004980
# 5 0.000275 0.005184 0.007436 0.002266 0.027278 0.009377
# 6 0.000656 0.006000 -0.000258 0.004980 0.009377 0.045652
#
#
# Mechanical properties :
#
#
# Convention : Reuss Voigt Hill
#
# Bulk Modulus (GPa) = 21.84344 36.35993 29.10168
# Shear Modulus (GPa) = 25.14738 34.48116 29.81427
#
# Velocity S-wave (km/s) = 3.39846 3.97948 3.70039
# Velocity P-wave (km/s) = 5.04296 6.14932 5.62342
#
# Compressibility (1/GPa) = 0.04578034
#
# Stress axis : x y z
#
# Youngs Moduli (GPa) = 78.48725 25.71690 68.38978
#
# Poissons Ratio (x) = 0.10399 0.23927
# Poissons Ratio (y) = 0.31738 0.18406
# Poissons Ratio (z) = 0.27460 0.06921
#
# Static dielectric constant tensor:
#      x y z
#    x 1.732910 -0.110180 -0.073830 
#    y -0.110180 1.871440 0.054330 
#    z -0.073830 0.054330 1.866480 
# 
# From -- ./inp_files/534533.got.cif
#   From: 2010.05.17/outbox.cif.g08.bks.cpg/sg2_268_cif.got.tgz:534533.got - 2010.06.03 11:33:40.
