data_PCOD9004959
_publ_section_title
;
Structure prediction by ZEFSAII (Michael W. Deem and Ramdas Pophale) SiO2 
 PCOD9004959
Probable space group: P -1
;
_chemical_formula_sum "Si O2"
_cell_formula_units_Z 14
_cell_length_a 25.600684
_cell_length_b 5.281302
_cell_length_c 5.098498
_cell_angle_alpha 118.221710
_cell_angle_beta 87.508017
_cell_angle_gamma 95.733512
_cell_volume 604.351949
_symmetry_space_group_name_H-M "P -1"
_symmetry_group_IT_number 2
_symmetry_cell_setting 'triclinic'
loop_
_space_group_symop_operation_xyz
x,y,z
-x,-y,-z
loop_
_atom_site_type_symbol
_atom_site_label
_atom_site_fract_x
_atom_site_fract_y
_atom_site_fract_z
Si Si1 0.937228 0.180357 0.262799
Si Si2 0.355362 0.614896 0.248050
Si Si3 0.042845 0.390518 0.127742
Si Si4 0.804653 0.803423 0.257173
Si Si5 0.316669 0.254349 0.578295
Si Si6 0.479180 0.663258 0.334891
Si Si7 0.156667 0.828128 0.075581
O O1 0.921985 0.393536 0.593678
O O2 0.904142 0.229666 0.034487
O O3 0.001107 0.226190 0.265730
O O4 0.926744 0.841822 0.142102
O O5 0.323667 0.429598 0.390574
O O6 0.416246 0.638436 0.326310
O O7 0.336980 0.937129 0.389761
O O8 0.347222 0.443744 0.892065
O O9 0.000000 0.500000 0.000000
O O10 0.743634 0.784160 0.338481
O O11 0.819958 0.478439 0.048777
O O12 0.815955 0.998476 0.092256
O O13 0.834492 0.966336 0.575494
O O14 0.500000 0.500000 0.500000
O O15 0.500000 0.000000 0.500000
O O16 0.500000 0.500000 0.000000
#
# Coordination Sequence:
#
# PCOD9004959 Si02
#       7
#     2   2   2   2   2   2   2
#     4  10  23  37  58  91 116 166 207 261 311 399
#     4  12  24  43  70  98 132 182 221 272 327 392
#     4  10  21  38  60  83 123 158 211 255 316 369
#     4  12  26  46  69 100 132 174 215 287 330 394
#     4  12  25  45  69  98 133 171 233 271 332 392
#     4  12  25  43  66  99 141 177 221 273 327 389
#     4  12  26  44  71  98 135 171 221 268 349 390
#
# _framework density 23.165309000000001
#
# number of rings (size 3 to 8) (size 9 to 14) (size 15 to 20)
#    0.000    0.571    0.000    8.571    4.000    0.000 
#    0.000    0.000    0.000    0.000    0.000    0.000 
#    0.000    0.000    0.000    0.000    0.000    0.000 
#
# Total GULP energy -78401.860225 kJ/mol
# GULP energy per Si atom -5600.132873 kJ/mol
# Density = 2.311258 g / cm^3
# Si number density = 23.165309 Si / 1000 Ang^3
#
#
#
# Elastic Constant Matrix: (Units=GPa)
#
#
# Indices 1 2 3 4 5 6 
#
# 1 89.1019 -12.3341 2.5014 21.4209 -4.9562 5.3173
# 2 -12.3341 117.9284 60.0773 18.6698 -4.8547 -7.6482
# 3 2.5014 60.0773 183.7335 23.5783 8.8451 -15.5800
# 4 21.4209 18.6698 23.5783 50.6065 -6.2885 -10.0853
# 5 -4.9562 -4.8547 8.8451 -6.2885 41.8992 0.3912
# 6 5.3173 -7.6482 -15.5800 -10.0853 0.3912 43.1976
#
#
#
# Elastic Compliance Matrix: (Units=1/GPa)
#
#
# Indices 1 2 3 4 5 6 
#
# 1 0.013491 0.002578 -0.000437 -0.006933 0.000974 -0.002989
# 2 0.002578 0.011036 -0.003315 -0.003475 0.001766 -0.000386
# 3 -0.000437 -0.003315 0.007006 -0.001813 -0.002202 0.001590
# 4 -0.006933 -0.003475 -0.001813 0.026339 0.003060 0.005706
# 5 0.000974 0.001766 -0.002202 0.003060 0.025112 -0.000115
# 6 -0.002989 -0.000386 0.001590 0.005706 -0.000115 0.025356
#
#
# Mechanical properties :
#
#
# Convention : Reuss Voigt Hill
#
# Bulk Modulus (GPa) = 34.26589 54.58365 44.42477
# Shear Modulus (GPa) = 41.52198 49.84195 45.68196
#
# Velocity S-wave (km/s) = 4.23829 4.64354 4.44554
# Velocity P-wave (km/s) = 6.22694 7.23628 6.75050
#
# Compressibility (1/GPa) = 0.02918354
#
# Stress axis : x y z
#
# Youngs Moduli (GPa) = 74.12111 90.61120 142.73072
#
# Poissons Ratio (x) = -0.23356 0.06241
# Poissons Ratio (y) = -0.19105 0.47322
# Poissons Ratio (z) = 0.03241 0.30042
#
# Static dielectric constant tensor:
#      x y z
#    x 1.887680 0.081750 0.007920 
#    y 0.081750 1.970310 0.026280 
#    z 0.007920 0.026280 1.865320 
# 
# From -- ./inp_files/13893.got.cif
#   From: 2010.05.17/outbox.cif.g08.bks.cpg/sg2_7_cif.got.tgz:13893.got - 2010.06.03 11:33:40.
