data_PCOD9004251
_publ_section_title
;
Structure prediction by ZEFSAII (Michael W. Deem and Ramdas Pophale) SiO2 
 PCOD9004251
Probable space group: P -1
;
_chemical_formula_sum "Si O2"
_cell_formula_units_Z 16
_cell_length_a 11.470099
_cell_length_b 14.044739
_cell_length_c 8.417177
_cell_angle_alpha 68.732783
_cell_angle_beta 39.865980
_cell_angle_gamma 84.719900
_cell_volume 769.536708
_symmetry_space_group_name_H-M "P -1"
_symmetry_group_IT_number 2
_symmetry_cell_setting 'triclinic'
loop_
_space_group_symop_operation_xyz
x,y,z
-x,-y,-z
loop_
_atom_site_type_symbol
_atom_site_label
_atom_site_fract_x
_atom_site_fract_y
_atom_site_fract_z
Si Si1 0.231615 0.709731 0.088062
Si Si2 0.293349 0.072459 0.061958
Si Si3 0.862871 0.180601 0.588326
Si Si4 0.014243 0.841922 0.838420
Si Si5 0.302487 0.242575 0.201145
Si Si6 0.185804 0.319222 0.598371
Si Si7 0.402756 0.896627 0.556230
Si Si8 0.387107 0.551467 0.207236
O O1 0.253722 0.777558 0.186307
O O2 0.267532 0.603177 0.182005
O O3 0.016571 0.685235 0.265741
O O4 0.359763 0.787071 0.771990
O O5 0.343865 0.143638 0.126633
O O6 0.105030 0.091489 0.166945
O O7 0.232585 0.947182 0.240240
O O8 0.462822 0.101673 0.737222
O O9 0.889152 0.216765 0.356686
O O10 0.082283 0.221058 0.395172
O O11 0.195032 0.905213 0.716910
O O12 0.860984 0.757895 0.156418
O O13 0.295765 0.267694 0.382628
O O14 0.462806 0.352384 0.911686
O O15 0.273978 0.443498 0.482875
O O16 0.500000 0.000000 0.500000
O O17 0.500000 0.500000 0.000000
#
# Coordination Sequence:
#
# PCOD9004251 Si02
#       8
#     2   2   2   2   2   2   2   2
#     4  10  21  39  63  86 127 155 201 256 296 370
#     4  11  23  41  62  89 133 163 198 246 302 369
#     4  10  21  42  59  90 124 166 195 241 312 363
#     4  10  23  40  62  87 129 159 202 254 295 357
#     4   9  20  37  61  89 117 157 202 243 299 364
#     4   9  20  41  61  88 119 159 209 249 308 352
#     4  11  24  40  59  98 121 162 209 243 302 361
#     4  10  21  37  65  89 113 158 208 252 308 357
#
# _framework density 20.791730000000001
#
# number of rings (size 3 to 8) (size 9 to 14) (size 15 to 20)
#    0.000    2.000    1.250    1.875    5.250    3.000 
#    0.000    3.125    2.750    0.000    0.000    0.000 
#    0.000    0.000    0.000    0.000    0.000    0.000 
#
# Total GULP energy -89121.973807 kJ/mol
# GULP energy per Si atom -5570.123363 kJ/mol
# Density = 2.074441 g / cm^3
# Si number density = 20.791730 Si / 1000 Ang^3
#
#
#
# Elastic Constant Matrix: (Units=GPa)
#
#
# Indices 1 2 3 4 5 6 
#
# 1 37.5648 25.0457 15.3956 -0.3126 -3.4723 5.3764
# 2 25.0457 101.6102 34.0817 -9.7532 9.8897 8.4288
# 3 15.3956 34.0817 111.5797 -0.1321 14.2387 16.4855
# 4 -0.3126 -9.7532 -0.1321 26.9363 8.9710 -11.9362
# 5 -3.4723 9.8897 14.2387 8.9710 36.5281 0.5643
# 6 5.3764 8.4288 16.4855 -11.9362 0.5643 25.2196
#
#
#
# Elastic Compliance Matrix: (Units=1/GPa)
#
#
# Indices 1 2 3 4 5 6 
#
# 1 0.035486 -0.009181 -0.002119 -0.009398 0.009113 -0.007763
# 2 -0.009181 0.014123 -0.002766 0.008254 -0.005693 0.003079
# 3 -0.002119 -0.002766 0.011630 -0.003402 -0.003030 -0.007768
# 4 -0.009398 0.008254 -0.003402 0.058655 -0.016665 0.029603
# 5 0.009113 -0.005693 -0.003030 -0.016665 0.035162 -0.006733
# 6 -0.007763 0.003079 -0.007768 0.029603 -0.006733 0.059517
#
#
# Mechanical properties :
#
#
# Convention : Reuss Voigt Hill
#
# Bulk Modulus (GPa) = 30.20498 44.42231 37.31364
# Shear Modulus (GPa) = 19.70516 29.48556 24.59536
#
# Velocity S-wave (km/s) = 3.08188 3.76990 3.44312
# Velocity P-wave (km/s) = 5.21756 6.35306 5.81310
#
# Compressibility (1/GPa) = 0.03310713
#
# Stress axis : x y z
#
# Youngs Moduli (GPa) = 28.18033 70.80530 85.98597
#
# Poissons Ratio (x) = 0.65007 0.18220
# Poissons Ratio (y) = 0.25873 0.23781
# Poissons Ratio (z) = 0.05971 0.19583
#
# Static dielectric constant tensor:
#      x y z
#    x 1.772190 -0.004800 -0.022050 
#    y -0.004800 1.774960 -0.006520 
#    z -0.022050 -0.006520 1.835340 
# 
# From -- ./inp_files/272351.got.cif
#   From: 2010.05.17/outbox.cif.g08.bks.cpg/sg2_137_cif.got.tgz:272351.got - 2010.06.03 11:33:40.
