data_PCOD9004055
_publ_section_title
;
Structure prediction by ZEFSAII (Michael W. Deem and Ramdas Pophale) SiO2 
 PCOD9004055
Probable space group: P -1
;
_chemical_formula_sum "Si O2"
_cell_formula_units_Z 16
_cell_length_a 13.819124
_cell_length_b 11.134304
_cell_length_c 8.785083
_cell_angle_alpha 56.065794
_cell_angle_beta 91.685181
_cell_angle_gamma 130.160251
_cell_volume 731.366338
_symmetry_space_group_name_H-M "P -1"
_symmetry_group_IT_number 2
_symmetry_cell_setting 'triclinic'
loop_
_space_group_symop_operation_xyz
x,y,z
-x,-y,-z
loop_
_atom_site_type_symbol
_atom_site_label
_atom_site_fract_x
_atom_site_fract_y
_atom_site_fract_z
Si Si1 0.337673 0.869027 0.028433
Si Si2 0.651973 0.901743 0.890516
Si Si3 0.509058 0.734098 0.467554
Si Si4 0.883799 0.497634 0.958015
Si Si5 0.611994 0.349237 0.156026
Si Si6 0.205990 0.159890 0.261468
Si Si7 0.321862 0.291082 0.698506
Si Si8 0.072628 0.994462 0.690570
O O1 0.276408 0.889674 0.155106
O O2 0.392765 0.040320 0.777048
O O3 0.500000 0.000000 0.000000
O O4 0.205326 0.627019 0.117156
O O5 0.637308 0.753724 0.116850
O O6 0.497046 0.784943 0.898404
O O7 0.736624 0.927757 0.733748
O O8 0.483979 0.755539 0.621455
O O9 0.348186 0.493483 0.572491
O O10 0.590908 0.677992 0.464181
O O11 0.982607 0.753366 0.797399
O O12 0.741148 0.374553 0.146450
O O13 0.000000 0.500000 0.000000
O O14 0.687343 0.592149 0.968741
O O15 0.043778 0.008755 0.296116
O O16 0.184951 0.153686 0.444932
O O17 0.154422 0.066064 0.802176
#
# Coordination Sequence:
#
# PCOD9004055 Si02
#       8
#     2   2   2   2   2   2   2   2
#     4  11  24  44  65  93 129 170 213 261 310 371
#     4  11  21  38  66  94 129 157 208 276 315 372
#     4  10  22  37  64  99 124 160 204 271 321 373
#     4  11  24  46  64  85 130 180 217 246 310 386
#     4  11  22  40  66  96 125 159 211 271 317 383
#     4  10  22  38  64  95 121 165 206 264 327 373
#     4  10  21  37  63  99 128 157 205 268 335 373
#     4  10  23  41  64  89 131 171 210 258 318 389
#
# _framework density 21.876861000000002
#
# number of rings (size 3 to 8) (size 9 to 14) (size 15 to 20)
#    0.000    1.500    2.500    2.625    5.250    2.000 
#    4.500    0.625    0.000    0.000    0.000    0.000 
#    0.000    0.000    0.000    0.000    0.000    0.000 
#
# Total GULP energy -89090.130918 kJ/mol
# GULP energy per Si atom -5568.133182 kJ/mol
# Density = 2.182707 g / cm^3
# Si number density = 21.876861 Si / 1000 Ang^3
#
#
#
# Elastic Constant Matrix: (Units=GPa)
#
#
# Indices 1 2 3 4 5 6 
#
# 1 107.4276 31.9705 5.2756 13.9113 -12.4719 12.2016
# 2 31.9705 102.8819 2.1102 1.8087 -4.7489 7.9456
# 3 5.2756 2.1102 31.1069 6.3938 -8.1152 10.5976
# 4 13.9113 1.8087 6.3938 20.9806 -7.7579 4.9525
# 5 -12.4719 -4.7489 -8.1152 -7.7579 17.2319 5.7912
# 6 12.2016 7.9456 10.5976 4.9525 5.7912 31.8091
#
#
#
# Elastic Compliance Matrix: (Units=1/GPa)
#
#
# Indices 1 2 3 4 5 6 
#
# 1 0.012450 -0.002871 0.003918 -0.003662 0.010681 -0.006738
# 2 -0.002871 0.010962 0.001269 0.002748 0.003849 -0.003188
# 3 0.003918 0.001269 0.048609 0.001156 0.034845 -0.024538
# 4 -0.003662 0.002748 0.001156 0.065715 0.033620 -0.016019
# 5 0.010681 0.003849 0.034845 0.033620 0.112621 -0.042406
# 6 -0.006738 -0.003188 -0.024538 -0.016019 -0.042406 0.053208
#
#
# Mechanical properties :
#
#
# Convention : Reuss Voigt Hill
#
# Bulk Modulus (GPa) = 13.04603 35.56988 24.30795
# Shear Modulus (GPa) = 15.40901 27.47499 21.44200
#
# Velocity S-wave (km/s) = 2.65684 3.54770 3.13409
# Velocity P-wave (km/s) = 3.92277 5.75118 4.92261
#
# Compressibility (1/GPa) = 0.07665167
#
# Stress axis : x y z
#
# Youngs Moduli (GPa) = 80.31952 91.22671 20.57222
#
# Poissons Ratio (x) = 0.26195 -0.08060
# Poissons Ratio (y) = 0.23063 -0.02610
# Poissons Ratio (z) = -0.31470 -0.11573
#
# Static dielectric constant tensor:
#      x y z
#    x 1.903630 0.064550 -0.005450 
#    y 0.064550 2.003620 -0.143630 
#    z -0.005450 -0.143630 1.994710 
# 
# From -- ./inp_files/304805.got.cif
#   From: 2010.05.17/outbox.cif.g08.bks.cpg/sg2_153_cif.got.tgz:304805.got - 2010.06.03 11:33:40.
