data_PCOD9004459
_publ_section_title
;
Structure prediction by ZEFSAII (Michael W. Deem and Ramdas Pophale) SiO2 
 PCOD9004459
Probable space group: P -1
;
_chemical_formula_sum "Si O2"
_cell_formula_units_Z 14
_cell_length_a 5.060227
_cell_length_b 12.766544
_cell_length_c 11.687278
_cell_angle_alpha 60.777986
_cell_angle_beta 111.407185
_cell_angle_gamma 90.127738
_cell_volume 598.912146
_symmetry_space_group_name_H-M "P -1"
_symmetry_group_IT_number 2
_symmetry_cell_setting 'triclinic'
loop_
_space_group_symop_operation_xyz
x,y,z
-x,-y,-z
loop_
_atom_site_type_symbol
_atom_site_label
_atom_site_fract_x
_atom_site_fract_y
_atom_site_fract_z
Si Si1 0.036347 0.796130 0.428735
Si Si2 0.342039 0.457569 0.105284
Si Si3 0.864850 0.561645 0.562617
Si Si4 0.762362 0.319120 0.699301
Si Si5 0.730504 0.776651 0.877838
Si Si6 0.604209 0.304710 0.922896
Si Si7 0.496801 0.044027 0.606294
O O1 0.004673 0.760210 0.308209
O O2 0.315992 0.852736 0.429594
O O3 0.030831 0.668501 0.561979
O O4 0.796838 0.895046 0.405449
O O5 0.393006 0.309559 0.188412
O O6 0.446591 0.545708 0.167492
O O7 0.500000 0.500000 0.000000
O O8 0.000000 0.500000 0.000000
O O9 0.879841 0.437034 0.700848
O O10 0.528227 0.626706 0.450524
O O11 0.000000 0.500000 0.500000
O O12 0.651511 0.258024 0.824895
O O13 0.631868 0.920210 0.762398
O O14 0.619294 0.741163 0.003697
O O15 0.078301 0.741646 0.945963
O O16 0.500000 0.000000 0.500000
#
# Coordination Sequence:
#
# PCOD9004459 Si02
#       7
#     2   2   2   2   2   2   2
#     4  11  23  44  65  94 131 163 215 278 306 380
#     4   8  16  34  55  82 119 154 193 251 302 359
#     4   9  20  39  66  94 135 162 207 258 319 374
#     4  10  21  40  67 100 132 167 204 260 333 385
#     4  10  22  41  59  92 128 162 217 263 302 378
#     4  10  21  37  67  93 128 165 199 257 329 383
#     4  12  26  45  68  88 122 177 222 268 317 368
#
# _framework density 23.375715
#
# number of rings (size 3 to 8) (size 9 to 14) (size 15 to 20)
#    0.000    2.000    1.429    1.286    4.000    1.143 
#    0.000    7.143    0.000    0.000    0.000    0.000 
#    0.000    0.000    0.000    0.000    0.000    0.000 
#
# Total GULP energy -78025.563032 kJ/mol
# GULP energy per Si atom -5573.254502 kJ/mol
# Density = 2.332251 g / cm^3
# Si number density = 23.375715 Si / 1000 Ang^3
#
#
#
# Elastic Constant Matrix: (Units=GPa)
#
#
# Indices 1 2 3 4 5 6 
#
# 1 112.7964 9.1760 14.5153 4.9255 -21.7799 -14.0873
# 2 9.1760 98.9651 23.9794 -3.3657 -5.6968 -16.2596
# 3 14.5153 23.9794 62.9295 2.5934 -14.4614 -6.2723
# 4 4.9255 -3.3657 2.5934 19.9975 -8.8133 -9.6151
# 5 -21.7799 -5.6968 -14.4614 -8.8133 31.6986 -2.2532
# 6 -14.0873 -16.2596 -6.2723 -9.6151 -2.2532 50.0597
#
#
#
# Elastic Compliance Matrix: (Units=1/GPa)
#
#
# Indices 1 2 3 4 5 6 
#
# 1 0.010919 0.000368 -0.000410 0.003190 0.008563 0.004139
# 2 0.000368 0.012158 -0.003867 0.005960 0.002674 0.004833
# 3 -0.000410 -0.003867 0.019516 0.001486 0.008464 0.001740
# 4 0.003190 0.005960 0.001486 0.069153 0.024404 0.017400
# 5 0.008563 0.002674 0.008464 0.024404 0.049357 0.011248
# 6 0.004139 0.004833 0.001740 0.017400 0.011248 0.026777
#
#
# Mechanical properties :
#
#
# Convention : Reuss Voigt Hill
#
# Bulk Modulus (GPa) = 28.75556 41.11470 34.93513
# Shear Modulus (GPa) = 24.12073 35.48588 29.80330
#
# Velocity S-wave (km/s) = 3.21576 3.90046 3.57454
# Velocity P-wave (km/s) = 5.11041 6.15724 5.65809
#
# Compressibility (1/GPa) = 0.03477588
#
# Stress axis : x y z
#
# Youngs Moduli (GPa) = 91.58018 82.24947 51.23962
#
# Poissons Ratio (x) = -0.03030 0.02102
# Poissons Ratio (y) = -0.03374 0.19815
# Poissons Ratio (z) = 0.03756 0.31807
#
# Static dielectric constant tensor:
#      x y z
#    x 1.924680 0.039670 0.016490 
#    y 0.039670 2.042130 0.034230 
#    z 0.016490 0.034230 1.919660 
# 
# From -- ./inp_files/362689.got.cif
#   From: 2010.05.17/outbox.cif.g08.bks.cpg/sg2_182_cif.got.tgz:362689.got - 2010.06.03 11:33:40.
