data_PCOD9004125
_publ_section_title
;
Structure prediction by ZEFSAII (Michael W. Deem and Ramdas Pophale) SiO2 
 PCOD9004125
Probable space group: P -1
;
_chemical_formula_sum "Si O2"
_cell_formula_units_Z 16
_cell_length_a 11.279469
_cell_length_b 7.832521
_cell_length_c 12.429467
_cell_angle_alpha 130.811243
_cell_angle_beta 46.929955
_cell_angle_gamma 113.595940
_cell_volume 605.039214
_symmetry_space_group_name_H-M "P -1"
_symmetry_group_IT_number 2
_symmetry_cell_setting 'triclinic'
loop_
_space_group_symop_operation_xyz
x,y,z
-x,-y,-z
loop_
_atom_site_type_symbol
_atom_site_label
_atom_site_fract_x
_atom_site_fract_y
_atom_site_fract_z
Si Si1 0.352394 0.085208 0.778506
Si Si2 0.619347 0.720305 0.398060
Si Si3 0.821956 0.664398 0.638717
Si Si4 0.692066 0.410765 0.941796
Si Si5 0.966951 0.739314 0.218433
Si Si6 0.844018 0.238769 0.572441
Si Si7 0.508782 0.271092 0.199487
Si Si8 0.838144 0.015041 0.963870
O O1 0.345431 0.155008 0.685681
O O2 0.509865 0.903355 0.611047
O O3 0.360044 0.325167 0.932077
O O4 0.187718 0.003936 0.900025
O O5 0.515545 0.508606 0.354568
O O6 0.800240 0.618643 0.277124
O O7 0.783782 0.407488 0.582579
O O8 0.673358 0.794411 0.722625
O O9 0.860251 0.793575 0.780158
O O10 0.982608 0.665226 0.468517
O O11 0.871045 0.375667 0.873691
O O12 0.717991 0.280519 0.761988
O O13 0.562646 0.317207 0.062854
O O14 0.035840 0.816197 0.091502
O O15 0.896474 0.979983 0.410916
O O16 0.653110 0.105111 0.085570
#
# Coordination Sequence:
#
# PCOD9004125 Si02
#       8
#     2   2   2   2   2   2   2   2
#     4  10  22  40  61  85 124 157 208 245 292 359
#     4  10  24  43  58  90 121 165 203 243 298 358
#     4  10  21  38  61  94 124 152 197 255 303 356
#     4  10  21  40  61  95 119 157 202 249 302 354
#     4  10  23  40  65  87 128 158 196 250 299 358
#     4  10  21  37  64  92 121 156 199 247 309 355
#     4  10  23  39  64  86 126 160 199 248 299 357
#     4  10  21  41  62  92 117 159 203 249 304 351
#
# _framework density 26.444566999999999
#
# number of rings (size 3 to 8) (size 9 to 14) (size 15 to 20)
#    0.000    2.000    1.250    0.750    5.250    8.000 
#    0.000    2.500    0.000    0.000    0.000    0.000 
#    0.000    0.000    0.000    0.000    0.000    0.000 
#
# Total GULP energy -89479.916802 kJ/mol
# GULP energy per Si atom -5592.494800 kJ/mol
# Density = 2.638438 g / cm^3
# Si number density = 26.444567 Si / 1000 Ang^3
#
#
#
# Elastic Constant Matrix: (Units=GPa)
#
#
# Indices 1 2 3 4 5 6 
#
# 1 70.1097 -4.7798 23.4911 6.0394 -36.6241 11.2498
# 2 -4.7798 39.1034 45.2533 9.7867 1.4547 -6.5260
# 3 23.4911 45.2533 181.6333 13.8529 -19.3099 -1.6597
# 4 6.0394 9.7867 13.8529 53.0057 -6.9755 -3.7397
# 5 -36.6241 1.4547 -19.3099 -6.9755 38.0392 -0.5272
# 6 11.2498 -6.5260 -1.6597 -3.7397 -0.5272 19.0287
#
#
#
# Elastic Compliance Matrix: (Units=1/GPa)
#
#
# Indices 1 2 3 4 5 6 
#
# 1 0.035134 0.002078 -0.001714 -0.001050 0.032414 -0.019516
# 2 0.002078 0.041607 -0.010767 -0.005102 -0.005840 0.010937
# 3 -0.001714 -0.010767 0.008718 0.000199 0.003199 -0.001791
# 4 -0.001050 -0.005102 0.000199 0.020493 0.003085 0.003001
# 5 0.032414 -0.005840 0.003199 0.003085 0.059652 -0.018628
# 6 -0.019516 0.010937 -0.001791 0.003001 -0.018628 0.067759
#
#
# Mechanical properties :
#
#
# Convention : Reuss Voigt Hill
#
# Bulk Modulus (GPa) = 15.46710 46.53064 30.99887
# Shear Modulus (GPa) = 18.13439 37.14020 27.63729
#
# Velocity S-wave (km/s) = 2.62153 3.75167 3.23631
# Velocity P-wave (km/s) = 3.87618 6.03328 5.07076
#
# Compressibility (1/GPa) = 0.06465335
#
# Stress axis : x y z
#
# Youngs Moduli (GPa) = 28.46247 24.03468 114.70175
#
# Poissons Ratio (x) = -0.04994 0.19658
# Poissons Ratio (y) = -0.05914 1.23496
# Poissons Ratio (z) = 0.04878 0.25877
#
# Static dielectric constant tensor:
#      x y z
#    x 2.128460 0.005920 0.082540 
#    y 0.005920 2.137970 0.004080 
#    z 0.082540 0.004080 2.021870 
# 
# From -- ./inp_files/351704.got.cif
#   From: 2010.05.17/outbox.cif.g08.bks.cpg/sg2_176_cif.got.tgz:351704.got - 2010.06.03 11:33:40.
