data_PCOD9004328
_publ_section_title
;
Structure prediction by ZEFSAII (Michael W. Deem and Ramdas Pophale) SiO2 
 PCOD9004328
Probable space group: P -1
;
_chemical_formula_sum "Si O2"
_cell_formula_units_Z 12
_cell_length_a 5.423513
_cell_length_b 14.950215
_cell_length_c 11.871542
_cell_angle_alpha 131.196349
_cell_angle_beta 74.460097
_cell_angle_gamma 131.535777
_cell_volume 517.238379
_symmetry_space_group_name_H-M "P -1"
_symmetry_group_IT_number 2
_symmetry_cell_setting 'triclinic'
loop_
_space_group_symop_operation_xyz
x,y,z
-x,-y,-z
loop_
_atom_site_type_symbol
_atom_site_label
_atom_site_fract_x
_atom_site_fract_y
_atom_site_fract_z
Si Si1 0.812201 0.835069 0.480021
Si Si2 0.324821 0.630445 0.910310
Si Si3 0.655495 0.104825 0.391506
Si Si4 0.357051 0.430408 0.581995
Si Si5 0.638815 0.952228 0.037313
Si Si6 0.461788 0.627695 0.134062
O O1 0.696637 0.934533 0.582720
O O2 0.590711 0.685824 0.472864
O O3 0.716302 0.748461 0.300562
O O4 0.199038 0.932892 0.557899
O O5 0.473696 0.565691 0.768818
O O6 0.929525 0.476820 0.861416
O O7 0.371670 0.762711 0.940476
O O8 0.505784 0.703272 0.069953
O O9 0.942050 0.298860 0.515915
O O10 0.677172 0.038970 0.219266
O O11 0.500000 0.500000 0.500000
O O12 0.500000 0.000000 0.000000
O O13 0.000000 0.000000 0.000000
O O14 0.500000 0.500000 0.000000
#
# Coordination Sequence:
#
# PCOD9004328 Si02
#       6
#     2   2   2   2   2   2
#     4  10  21  41  64  96 133 180 221 292 336 405
#     4  11  25  42  71 108 134 188 235 292 352 410
#     4  10  22  42  63  93 137 173 228 273 348 409
#     4  10  21  37  65  97 134 172 233 282 343 400
#     4  12  28  48  69 100 149 188 229 282 355 433
#     4  11  21  43  71 101 142 175 244 296 342 410
#
# _framework density 23.200133000000001
#
# number of rings (size 3 to 8) (size 9 to 14) (size 15 to 20)
#    1.000    0.333    3.333    2.000    7.000    2.000 
#    0.000    1.667    0.000    0.000    0.000    0.000 
#    0.000    0.000    0.000    0.000    0.000    0.000 
#
# Total GULP energy -67067.185213 kJ/mol
# GULP energy per Si atom -5588.932101 kJ/mol
# Density = 2.314733 g / cm^3
# Si number density = 23.200133 Si / 1000 Ang^3
#
#
#
# Elastic Constant Matrix: (Units=GPa)
#
#
# Indices 1 2 3 4 5 6 
#
# 1 175.9577 37.5807 68.2952 -20.5908 -3.5908 -25.2963
# 2 37.5807 118.8684 24.4487 -12.6119 7.9374 -30.3089
# 3 68.2952 24.4487 151.0924 -27.5346 -0.1651 -3.1739
# 4 -20.5908 -12.6119 -27.5346 29.2894 -2.5106 0.9390
# 5 -3.5908 7.9374 -0.1651 -2.5106 38.5726 -4.1190
# 6 -25.2963 -30.3089 -3.1739 0.9390 -4.1190 32.3032
#
#
#
# Elastic Compliance Matrix: (Units=1/GPa)
#
#
# Indices 1 2 3 4 5 6 
#
# 1 0.008107 -0.000248 -0.003003 0.002717 0.001605 0.005946
# 2 -0.000248 0.011834 -0.000922 0.003622 -0.001097 0.010573
# 3 -0.003003 -0.000922 0.009209 0.006237 0.000091 -0.002481
# 4 0.002717 0.003622 0.006237 0.043558 0.002930 0.005246
# 5 0.001605 -0.001097 0.000091 0.002930 0.026873 0.003577
# 6 0.005946 0.010573 -0.002481 0.005246 0.003577 0.045594
#
#
# Mechanical properties :
#
#
# Convention : Reuss Voigt Hill
#
# Bulk Modulus (GPa) = 48.06404 78.50750 63.28577
# Shear Modulus (GPa) = 31.16111 41.07264 36.11687
#
# Velocity S-wave (km/s) = 3.66887 4.21213 3.94985
# Velocity P-wave (km/s) = 6.22170 7.58741 6.93824
#
# Compressibility (1/GPa) = 0.02080558
#
# Stress axis : x y z
#
# Youngs Moduli (GPa) = 123.34806 84.50018 108.58415
#
# Poissons Ratio (x) = 0.02098 0.32603
# Poissons Ratio (y) = 0.03062 0.10009
# Poissons Ratio (z) = 0.37036 0.07789
#
# Static dielectric constant tensor:
#      x y z
#    x 1.736440 -0.044480 0.116820 
#    y -0.044480 1.879610 0.042690 
#    z 0.116820 0.042690 1.756930 
# 
# From -- ./inp_files/368038.got.cif
#   From: 2010.05.17/outbox.cif.g08.bks.cpg/sg2_185_cif.got.tgz:368038.got - 2010.06.03 11:33:40.
