data_PCOD9004030
_publ_section_title
;
Structure prediction by ZEFSAII (Michael W. Deem and Ramdas Pophale) SiO2 
 PCOD9004030
Probable space group: P -1
;
_chemical_formula_sum "Si O2"
_cell_formula_units_Z 15
_cell_length_a 11.993943
_cell_length_b 7.361139
_cell_length_c 8.994421
_cell_angle_alpha 115.257786
_cell_angle_beta 116.558417
_cell_angle_gamma 83.342691
_cell_volume 639.650384
_symmetry_space_group_name_H-M "P -1"
_symmetry_group_IT_number 2
_symmetry_cell_setting 'triclinic'
loop_
_space_group_symop_operation_xyz
x,y,z
-x,-y,-z
loop_
_atom_site_type_symbol
_atom_site_label
_atom_site_fract_x
_atom_site_fract_y
_atom_site_fract_z
Si Si1 0.633434 0.429306 0.590480
Si Si2 0.280852 0.599603 0.697872
Si Si3 0.018738 0.802799 0.343253
Si Si4 0.270649 0.946946 0.373223
Si Si5 0.000000 0.500000 0.500000
Si Si6 0.759232 0.626506 0.007640
Si Si7 0.313415 0.817877 0.060269
Si Si8 0.401321 0.258228 0.784815
O O1 0.500000 0.500000 0.500000
O O2 0.692343 0.381353 0.451480
O O3 0.629713 0.218925 0.602732
O O4 0.711899 0.589467 0.798825
O O5 0.149349 0.471111 0.603270
O O6 0.394498 0.485480 0.797242
O O7 0.273949 0.805793 0.859716
O O8 0.137702 0.853506 0.324827
O O9 0.035832 0.628864 0.412901
O O10 0.897242 0.733744 0.148184
O O11 0.000000 0.000000 0.500000
O O12 0.268351 0.978740 0.205682
O O13 0.319078 0.130452 0.569047
O O14 0.665876 0.741275 0.095650
O O15 0.749963 0.398398 0.990945
O O16 0.462931 0.819339 0.154290
#
# Coordination Sequence:
#
# PCOD9004030 Si02
#       8
#     2   2   2   2   1   2   2   2
#     4  11  23  40  62  96 131 171 222 270 331 409
#     4  11  21  39  62  91 125 167 221 272 326 395
#     4  12  23  45  70  99 137 175 233 282 336 404
#     4  11  23  39  65  95 128 175 217 275 341 395
#     4  12  22  40  68  94 132 176 220 274 340 394
#     4  10  21  39  68  92 129 181 219 268 341 400
#     4  10  21  37  63  96 123 174 226 262 340 413
#     4  11  20  41  64  91 131 171 219 278 333 400
#
# _framework density 23.450310000000002
#
# number of rings (size 3 to 8) (size 9 to 14) (size 15 to 20)
#    0.000    1.067    5.333    4.400    0.000    3.200 
#    0.000    6.667    0.000    3.200    0.000    0.000 
#    0.000    0.000    0.000    0.000    0.000    0.000 
#
# Total GULP energy -83603.242370 kJ/mol
# GULP energy per Si atom -5573.549491 kJ/mol
# Density = 2.339694 g / cm^3
# Si number density = 23.450310 Si / 1000 Ang^3
#
#
#
# Elastic Constant Matrix: (Units=GPa)
#
#
# Indices 1 2 3 4 5 6 
#
# 1 99.0130 3.6100 69.7562 -2.4407 -7.4455 0.1548
# 2 3.6100 40.7861 21.6688 -3.5506 -1.7542 -1.2634
# 3 69.7562 21.6688 206.3828 11.9108 -27.6314 3.7379
# 4 -2.4407 -3.5506 11.9108 22.9351 2.1777 2.4220
# 5 -7.4455 -1.7542 -27.6314 2.1777 57.5916 -5.6570
# 6 0.1548 -1.2634 3.7379 2.4220 -5.6570 23.3192
#
#
#
# Elastic Compliance Matrix: (Units=1/GPa)
#
#
# Indices 1 2 3 4 5 6 
#
# 1 0.013763 0.001925 -0.005230 0.004538 -0.000825 0.000180
# 2 0.001925 0.027036 -0.004014 0.006442 -0.000980 0.001188
# 3 -0.005230 -0.004014 0.007773 -0.005501 0.003129 -0.000098
# 4 0.004538 0.006442 -0.005501 0.048852 -0.004184 -0.004888
# 5 -0.000825 -0.000980 0.003129 -0.004184 0.019336 0.004576
# 6 0.000180 0.001188 -0.000098 -0.004888 0.004576 0.044580
#
#
# Mechanical properties :
#
#
# Convention : Reuss Voigt Hill
#
# Bulk Modulus (GPa) = 29.46787 59.58353 44.52570
# Shear Modulus (GPa) = 26.69685 37.51232 32.10459
#
# Velocity S-wave (km/s) = 3.37774 4.00390 3.70408
# Velocity P-wave (km/s) = 5.27310 6.84387 6.10918
#
# Compressibility (1/GPa) = 0.03393527
#
# Stress axis : x y z
#
# Youngs Moduli (GPa) = 72.65612 36.98812 128.65658
#
# Poissons Ratio (x) = -0.07122 0.67284
# Poissons Ratio (y) = -0.13989 0.51641
# Poissons Ratio (z) = 0.37997 0.14847
#
# Static dielectric constant tensor:
#      x y z
#    x 1.904840 -0.009580 -0.049470 
#    y -0.009580 1.935610 -0.000200 
#    z -0.049470 -0.000200 1.998410 
# 
# From -- ./inp_files/177343.got.cif
#   From: 2010.05.17/outbox.cif.g08.bks.cpg/sg2_89_cif.got.tgz:177343.got - 2010.06.03 11:33:40.
