data_PCOD9004485
_publ_section_title
;
Structure prediction by ZEFSAII (Michael W. Deem and Ramdas Pophale) SiO2 
 PCOD9004485
Probable space group: P -1
;
_chemical_formula_sum "Si O2"
_cell_formula_units_Z 13
_cell_length_a 11.250665
_cell_length_b 12.231848
_cell_length_c 7.752029
_cell_angle_alpha 60.155247
_cell_angle_beta 136.209215
_cell_angle_gamma 131.481068
_cell_volume 552.693403
_symmetry_space_group_name_H-M "P -1"
_symmetry_group_IT_number 2
_symmetry_cell_setting 'triclinic'
loop_
_space_group_symop_operation_xyz
x,y,z
-x,-y,-z
loop_
_atom_site_type_symbol
_atom_site_label
_atom_site_fract_x
_atom_site_fract_y
_atom_site_fract_z
Si Si1 0.611399 0.197852 0.548969
Si Si2 0.741521 0.974744 0.915642
Si Si3 0.113612 0.027097 0.414604
Si Si4 0.834652 0.244617 0.381438
Si Si5 0.477044 0.233675 0.843486
Si Si6 0.500000 0.500000 0.500000
Si Si7 0.147995 0.488012 0.297623
O O1 0.381169 0.104200 0.323247
O O2 0.739366 0.238801 0.471908
O O3 0.681468 0.349641 0.596287
O O4 0.670319 0.090614 0.791714
O O5 0.654415 0.843394 0.065108
O O6 0.978715 0.055117 0.116470
O O7 0.110938 0.880847 0.473913
O O8 0.337555 0.150677 0.599445
O O9 0.000000 0.000000 0.500000
O O10 0.023767 0.396562 0.404408
O O11 0.665705 0.213648 0.086531
O O12 0.549917 0.402447 0.763341
O O13 0.267498 0.417740 0.392671
O O14 0.000000 0.500000 0.000000
#
# Coordination Sequence:
#
# PCOD9004485 Si02
#       7
#     2   2   2   2   2   1   2
#     4  10  24  44  70  99 143 183 227 286 353 409
#     4   9  21  43  66  99 137 183 229 275 346 416
#     4  10  21  37  67  99 136 179 229 282 335 406
#     4  11  23  45  66 104 140 185 227 285 353 410
#     4  10  22  39  67  98 140 176 232 284 338 409
#     4  12  26  44  66 108 130 182 236 282 352 404
#     4  12  26  45  71 100 140 182 235 286 345 412
#
# _framework density 23.521177999999999
#
# number of rings (size 3 to 8) (size 9 to 14) (size 15 to 20)
#    0.000    1.538    1.538    2.769    6.462    4.308 
#    2.769    3.846    0.000    0.000    0.000    0.000 
#    0.000    0.000    0.000    0.000    0.000    0.000 
#
# Total GULP energy -72452.502953 kJ/mol
# GULP energy per Si atom -5573.269458 kJ/mol
# Density = 2.346764 g / cm^3
# Si number density = 23.521178 Si / 1000 Ang^3
#
#
#
# Elastic Constant Matrix: (Units=GPa)
#
#
# Indices 1 2 3 4 5 6 
#
# 1 69.6283 -6.5555 9.5355 -2.0812 -6.9025 24.3029
# 2 -6.5555 74.3183 13.9944 -2.2218 -6.9907 26.2076
# 3 9.5355 13.9944 140.3266 -6.4013 30.0375 -4.2475
# 4 -2.0812 -2.2218 -6.4013 39.0725 12.7476 -5.1537
# 5 -6.9025 -6.9907 30.0375 12.7476 41.2320 -1.2381
# 6 24.3029 26.2076 -4.2475 -5.1537 -1.2381 36.0102
#
#
#
# Elastic Compliance Matrix: (Units=1/GPa)
#
#
# Indices 1 2 3 4 5 6 
#
# 1 0.031688 0.018864 -0.009189 -0.009133 0.016912 -0.036924
# 2 0.018864 0.031559 -0.009714 -0.009418 0.017368 -0.037596
# 3 -0.009189 -0.009714 0.012593 0.007708 -0.014281 0.015369
# 4 -0.009133 -0.009418 0.007708 0.034376 -0.018822 0.018200
# 5 0.016912 0.017368 -0.014281 -0.018822 0.045445 -0.026870
# 6 -0.036924 -0.037596 0.015369 0.018200 -0.026870 0.083545
#
#
# Mechanical properties :
#
#
# Convention : Reuss Voigt Hill
#
# Bulk Modulus (GPa) = 13.19926 35.35799 24.27862
# Shear Modulus (GPa) = 18.90089 41.08286 29.99188
#
# Velocity S-wave (km/s) = 2.83780 4.18381 3.57473
# Velocity P-wave (km/s) = 4.04492 6.19710 5.23285
#
# Compressibility (1/GPa) = 0.07576183
#
# Stress axis : x y z
#
# Youngs Moduli (GPa) = 31.55766 31.68677 79.40847
#
# Poissons Ratio (x) = -0.59775 0.72968
# Poissons Ratio (y) = -0.59531 0.77141
# Poissons Ratio (z) = 0.28998 0.30782
#
# Static dielectric constant tensor:
#      x y z
#    x 2.028970 0.010750 0.010530 
#    y 0.010750 1.893910 0.023990 
#    z 0.010530 0.023990 1.913390 
# 
# From -- ./inp_files/262236.got.cif
#   From: 2010.05.17/outbox.cif.g08.bks.cpg/sg2_132_cif.got.tgz:262236.got - 2010.06.03 11:33:40.
