data_PCOD9004202
_publ_section_title
;
Structure prediction by ZEFSAII (Michael W. Deem and Ramdas Pophale) SiO2 
 PCOD9004202
Probable space group: P -1
;
_chemical_formula_sum "Si O2"
_cell_formula_units_Z 15
_cell_length_a 15.583051
_cell_length_b 16.549537
_cell_length_c 11.171303
_cell_angle_alpha 34.966714
_cell_angle_beta 39.789067
_cell_angle_gamma 21.785146
_cell_volume 612.391677
_symmetry_space_group_name_H-M "P -1"
_symmetry_group_IT_number 2
_symmetry_cell_setting 'triclinic'
loop_
_space_group_symop_operation_xyz
x,y,z
-x,-y,-z
loop_
_atom_site_type_symbol
_atom_site_label
_atom_site_fract_x
_atom_site_fract_y
_atom_site_fract_z
Si Si1 0.868877 0.702957 0.993202
Si Si2 0.324071 0.579290 0.880049
Si Si3 0.961852 0.430018 0.775595
Si Si4 0.766722 0.074746 0.300595
Si Si5 0.258045 0.682352 0.377807
Si Si6 0.000000 0.000000 0.500000
Si Si7 0.269007 0.108229 0.636605
Si Si8 0.469622 0.834962 0.333756
O O1 0.764163 0.937366 0.768869
O O2 0.651253 0.803058 0.156629
O O3 0.000000 0.500000 0.000000
O O4 0.034956 0.582469 0.070889
O O5 0.329469 0.690268 0.845725
O O6 0.569295 0.355483 0.823392
O O7 0.146384 0.796462 0.707054
O O8 0.237847 0.508619 0.117225
O O9 0.923034 0.624194 0.544230
O O10 0.192858 0.174176 0.776005
O O11 0.617945 0.099580 0.516802
O O12 0.746383 0.026810 0.249993
O O13 0.031066 0.849976 0.336396
O O14 0.187104 0.781542 0.467086
O O15 0.405028 0.412213 0.543243
O O16 0.500000 0.000000 0.500000
#
# Coordination Sequence:
#
# PCOD9004202 Si02
#       8
#     2   2   2   2   2   1   2   2
#     4  11  23  39  62  99 136 175 224 279 341 415
#     4  10  24  40  66 100 138 178 222 276 337 415
#     4  11  26  43  66 101 132 174 234 281 337 404
#     4  10  22  44  68  94 134 179 224 278 347 403
#     4  10  21  40  63  96 138 184 217 272 337 413
#     4  10  22  40  60  96 142 180 220 262 336 408
#     4  11  25  48  71  93 130 178 231 296 337 393
#     4  10  21  37  64  97 131 178 220 273 339 412
#
# _framework density 24.494129000000001
#
# number of rings (size 3 to 8) (size 9 to 14) (size 15 to 20)
#    0.000    1.600    0.000    3.600    7.467    6.933 
#    0.000    1.333    0.000    0.000    0.000    0.000 
#    0.000    0.000    0.000    0.000    0.000    0.000 
#
# Total GULP energy -83728.032332 kJ/mol
# GULP energy per Si atom -5581.868822 kJ/mol
# Density = 2.443838 g / cm^3
# Si number density = 24.494129 Si / 1000 Ang^3
#
#
#
# Elastic Constant Matrix: (Units=GPa)
#
#
# Indices 1 2 3 4 5 6 
#
# 1 92.8213 26.2201 3.4709 4.8603 15.4363 26.3740
# 2 26.2201 116.6779 16.1889 14.6742 12.9103 18.5271
# 3 3.4709 16.1889 65.8524 3.7579 -4.3710 6.1129
# 4 4.8603 14.6742 3.7579 40.3717 -15.0017 2.8553
# 5 15.4363 12.9103 -4.3710 -15.0017 29.7183 11.9508
# 6 26.3740 18.5271 6.1129 2.8553 11.9508 38.5378
#
#
#
# Elastic Compliance Matrix: (Units=1/GPa)
#
#
# Indices 1 2 3 4 5 6 
#
# 1 0.014200 -0.001082 0.000001 -0.002793 -0.005369 -0.007326
# 2 -0.001082 0.010970 -0.002625 -0.006151 -0.007109 -0.001456
# 3 0.000001 -0.002625 0.016415 0.001805 0.005780 -0.003268
# 4 -0.002793 -0.006151 0.001805 0.037107 0.025572 -0.006097
# 5 -0.005369 -0.007109 0.005780 0.025572 0.058910 -0.013988
# 6 -0.007326 -0.001456 -0.003268 -0.006097 -0.013988 0.036970
#
#
# Mechanical properties :
#
#
# Convention : Reuss Voigt Hill
#
# Bulk Modulus (GPa) = 29.26550 40.79018 35.02784
# Shear Modulus (GPa) = 25.85642 37.02367 31.44005
#
# Velocity S-wave (km/s) = 3.25255 3.89206 3.58659
# Velocity P-wave (km/s) = 5.10680 6.07344 5.61097
#
# Compressibility (1/GPa) = 0.03416992
#
# Stress axis : x y z
#
# Youngs Moduli (GPa) = 70.42355 91.16183 60.92048
#
# Poissons Ratio (x) = 0.09868 -0.00004
# Poissons Ratio (y) = 0.07623 0.15994
# Poissons Ratio (z) = -0.00005 0.23933
#
# Static dielectric constant tensor:
#      x y z
#    x 2.114200 -0.151790 -0.098890 
#    y -0.151790 1.986670 0.004980 
#    z -0.098890 0.004980 2.074080 
# 
# From -- ./inp_files/466305.got.cif
#   From: 2010.05.17/outbox.cif.g08.bks.cpg/sg2_234_cif.got.tgz:466305.got - 2010.06.03 11:33:40.
