data_PCOD9004496
_publ_section_title
;
Structure prediction by ZEFSAII (Michael W. Deem and Ramdas Pophale) SiO2 
 PCOD9004496
Probable space group: P -1
;
_chemical_formula_sum "Si O2"
_cell_formula_units_Z 16
_cell_length_a 11.499054
_cell_length_b 7.810230
_cell_length_c 9.296632
_cell_angle_alpha 109.669374
_cell_angle_beta 58.293353
_cell_angle_gamma 88.264360
_cell_volume 646.115204
_symmetry_space_group_name_H-M "P -1"
_symmetry_group_IT_number 2
_symmetry_cell_setting 'triclinic'
loop_
_space_group_symop_operation_xyz
x,y,z
-x,-y,-z
loop_
_atom_site_type_symbol
_atom_site_label
_atom_site_fract_x
_atom_site_fract_y
_atom_site_fract_z
Si Si1 0.939747 0.943617 0.671491
Si Si2 0.220450 0.265750 0.482342
Si Si3 0.447999 0.705731 0.028671
Si Si4 0.240746 0.791981 0.937114
Si Si5 0.678833 0.823339 0.053106
Si Si6 0.651337 0.417410 0.451776
Si Si7 0.613856 0.106700 0.602398
Si Si8 0.977050 0.588428 0.701073
O O1 0.818740 0.846235 0.661536
O O2 0.020303 0.783226 0.687700
O O3 0.000000 0.000000 0.500000
O O4 0.889757 0.131095 0.850954
O O5 0.310874 0.416501 0.435359
O O6 0.075387 0.411319 0.671091
O O7 0.305654 0.112371 0.497474
O O8 0.424424 0.193909 0.018301
O O9 0.343126 0.812218 0.251418
O O10 0.500000 0.500000 0.000000
O O11 0.372525 0.701843 0.928329
O O12 0.238528 0.653920 0.770110
O O13 0.272618 0.986250 0.918791
O O14 0.821354 0.655530 0.893689
O O15 0.558396 0.844133 0.261163
O O16 0.500000 0.500000 0.500000
O O17 0.649473 0.233993 0.491724
O O18 0.000000 0.500000 0.500000
#
# Coordination Sequence:
#
# PCOD9004496 Si02
#       8
#     2   2   2   2   2   2   2   2
#     4  10  22  44  76 107 141 194 250 306 366 434
#     4  11  24  47  75 107 149 190 243 308 364 436
#     4  10  21  37  68 106 133 178 243 304 348 426
#     4  11  22  42  69 104 140 190 242 308 362 432
#     4   9  21  41  67 103 141 185 246 296 369 426
#     4  12  28  46  72 108 155 194 240 299 377 439
#     4  10  24  45  75 102 144 197 242 299 367 436
#     4   9  21  39  70 104 142 182 236 312 361 418
#
# _framework density 24.763387999999999
#
# number of rings (size 3 to 8) (size 9 to 14) (size 15 to 20)
#    0.750    1.000    1.250    1.875    1.750   10.000 
#    0.000    3.125    0.000    0.000    0.000    0.000 
#    0.000    0.000    0.000    0.000    0.000    0.000 
#
# Total GULP energy -89183.463414 kJ/mol
# GULP energy per Si atom -5573.966463 kJ/mol
# Density = 2.470703 g / cm^3
# Si number density = 24.763388 Si / 1000 Ang^3
#
#
#
# Elastic Constant Matrix: (Units=GPa)
#
#
# Indices 1 2 3 4 5 6 
#
# 1 57.6521 27.7205 45.6764 8.4275 -13.6829 -14.1890
# 2 27.7205 104.0442 56.7788 8.4606 -21.6298 -12.4839
# 3 45.6764 56.7788 137.5199 9.2543 -13.0962 -25.4101
# 4 8.4275 8.4606 9.2543 40.0285 -4.2650 -10.3332
# 5 -13.6829 -21.6298 -13.0962 -4.2650 44.1417 20.3788
# 6 -14.1890 -12.4839 -25.4101 -10.3332 20.3788 31.5437
#
#
#
# Elastic Compliance Matrix: (Units=1/GPa)
#
#
# Indices 1 2 3 4 5 6 
#
# 1 0.025334 -0.001828 -0.006771 -0.002474 0.003811 0.001945
# 2 -0.001828 0.013916 -0.005191 -0.001769 0.006521 -0.004289
# 3 -0.006771 -0.005191 0.012720 0.001305 -0.004725 0.008627
# 4 -0.002474 -0.001769 0.001305 0.027950 -0.003450 0.010624
# 5 0.003811 0.006521 -0.004725 -0.003450 0.036470 -0.024203
# 6 0.001945 -0.004289 0.008627 0.010624 -0.024203 0.056945
#
#
# Mechanical properties :
#
#
# Convention : Reuss Voigt Hill
#
# Bulk Modulus (GPa) = 40.99966 62.17417 51.58691
# Shear Modulus (GPa) = 23.91842 34.41215 29.16528
#
# Velocity S-wave (km/s) = 3.11123 3.73183 3.43557
# Velocity P-wave (km/s) = 5.43128 6.61291 6.05101
#
# Compressibility (1/GPa) = 0.02439045
#
# Stress axis : x y z
#
# Youngs Moduli (GPa) = 39.47330 71.85966 78.61633
#
# Poissons Ratio (x) = 0.13134 0.53231
# Poissons Ratio (y) = 0.07215 0.40809
# Poissons Ratio (z) = 0.26727 0.37302
#
# Static dielectric constant tensor:
#      x y z
#    x 2.269820 -0.160010 0.224940 
#    y -0.160010 2.111910 -0.254610 
#    z 0.224940 -0.254610 2.499740 
# 
# From -- ./inp_files/419940.got.cif
#   From: 2010.05.17/outbox.cif.g08.bks.cpg/sg2_210_cif.got.tgz:419940.got - 2010.06.03 11:33:40.
