data_PCOD9004547
_publ_section_title
;
Structure prediction by ZEFSAII (Michael W. Deem and Ramdas Pophale) SiO2 
 PCOD9004547
Probable space group: P -1
;
_chemical_formula_sum "Si O2"
_cell_formula_units_Z 16
_cell_length_a 23.848054
_cell_length_b 14.140382
_cell_length_c 16.559122
_cell_angle_alpha 24.177456
_cell_angle_beta 21.696604
_cell_angle_gamma 17.312689
_cell_volume 597.970381
_symmetry_space_group_name_H-M "P -1"
_symmetry_group_IT_number 2
_symmetry_cell_setting 'triclinic'
loop_
_space_group_symop_operation_xyz
x,y,z
-x,-y,-z
loop_
_atom_site_type_symbol
_atom_site_label
_atom_site_fract_x
_atom_site_fract_y
_atom_site_fract_z
Si Si1 0.312877 0.330841 0.238268
Si Si2 0.746708 0.230592 0.157838
Si Si3 0.844678 0.844063 0.535738
Si Si4 0.381681 0.361403 0.494158
Si Si5 0.269201 0.918640 0.096331
Si Si6 0.140905 0.850594 0.583430
Si Si7 0.028613 0.408456 0.183544
Si Si8 0.278607 0.379049 0.997572
O O1 0.342629 0.480210 0.009174
O O2 0.292224 0.108578 0.392776
O O3 0.084195 0.630085 0.350315
O O4 0.516178 0.174760 0.142860
O O5 0.681120 0.404229 0.197192
O O6 0.637168 0.113109 0.363595
O O7 0.000000 0.000000 0.000000
O O8 0.769318 0.134073 0.467022
O O9 0.859641 0.607825 0.760054
O O10 0.330874 0.616967 0.296691
O O11 0.226703 0.325593 0.696490
O O12 0.282395 0.547582 0.568568
O O13 0.084771 0.039983 0.186588
O O14 0.149063 0.211580 0.093514
O O15 0.084006 0.134190 0.382688
O O16 0.149246 0.487430 0.004077
O O17 0.500000 0.000000 0.000000
#
# Coordination Sequence:
#
# PCOD9004547 Si02
#       8
#     2   2   2   2   2   2   2   2
#     4   9  17  27  38  57  89 117 137 169 215 258
#     4  10  19  30  44  63  88 116 144 176 215 255
#     4   9  16  25  39  61  87 111 138 172 213 252
#     4   8  14  25  40  58  82 109 138 176 212 246
#     4   8  13  22  38  61  84 106 132 170 215 251
#     4   8  13  22  39  61  82 104 136 174 211 248
#     4   8  13  23  40  62  83 104 138 178 211 242
#     4  10  17  28  48  69  86 109 145 181 209 248
#
# _framework density 26.757178
#
# number of rings (size 3 to 8) (size 9 to 14) (size 15 to 20)
#    0.000    3.250    0.000    5.250    0.000    0.500 
#    0.000    0.625    0.000    3.000    0.000    0.000 
#    0.000   21.000    0.000    0.000    0.000    0.000 
#
# Total GULP energy -89377.998721 kJ/mol
# GULP energy per Si atom -5586.124920 kJ/mol
# Density = 2.669628 g / cm^3
# Si number density = 26.757178 Si / 1000 Ang^3
#
#
#
# Elastic Constant Matrix: (Units=GPa)
#
#
# Indices 1 2 3 4 5 6 
#
# 1 94.6165 24.1450 9.4840 4.4622 -21.0190 -16.9457
# 2 24.1450 38.1184 26.7931 3.9717 -12.6634 -14.6507
# 3 9.4840 26.7931 153.5231 9.6863 -33.1644 -5.2444
# 4 4.4622 3.9717 9.6863 39.7447 -16.0736 -6.8183
# 5 -21.0190 -12.6634 -33.1644 -16.0736 34.0511 7.1177
# 6 -16.9457 -14.6507 -5.2444 -6.8183 7.1177 38.6164
#
#
#
# Elastic Compliance Matrix: (Units=1/GPa)
#
#
# Indices 1 2 3 4 5 6 
#
# 1 0.014550 -0.006891 0.002237 0.002762 0.009306 0.002847
# 2 -0.006891 0.039645 -0.005433 0.001464 0.003617 0.010871
# 3 0.002237 -0.005433 0.009197 0.001612 0.009344 -0.001268
# 4 0.002762 0.001464 0.001612 0.032425 0.018215 0.004354
# 5 0.009306 0.003617 0.009344 0.018215 0.054165 -0.000042
# 6 0.002847 0.010871 -0.001268 0.004354 -0.000042 0.031874
#
#
# Mechanical properties :
#
#
# Convention : Reuss Voigt Hill
#
# Bulk Modulus (GPa) = 23.13774 45.23357 34.18565
# Shear Modulus (GPa) = 23.10157 37.53815 30.31986
#
# Velocity S-wave (km/s) = 2.94152 3.74962 3.36988
# Velocity P-wave (km/s) = 4.49475 5.97395 5.28634
#
# Compressibility (1/GPa) = 0.04321944
#
# Stress axis : x y z
#
# Youngs Moduli (GPa) = 68.72743 25.22389 108.72957
#
# Poissons Ratio (x) = 0.17381 -0.24324
# Poissons Ratio (y) = 0.47359 0.59070
# Poissons Ratio (z) = -0.15375 0.13704
#
# Static dielectric constant tensor:
#      x y z
#    x 2.109140 -0.054240 0.009270 
#    y -0.054240 2.121670 -0.043750 
#    z 0.009270 -0.043750 2.208660 
# 
# From -- ./inp_files/303409.got.cif
#   From: 2010.05.17/outbox.cif.g08.bks.cpg/sg2_152_cif.got.tgz:303409.got - 2010.06.03 11:33:40.
