data_PCOD9004503
_publ_section_title
;
Structure prediction by ZEFSAII (Michael W. Deem and Ramdas Pophale) SiO2 
 PCOD9004503
Probable space group: P -1
;
_chemical_formula_sum "Si O2"
_cell_formula_units_Z 14
_cell_length_a 14.217067
_cell_length_b 8.383994
_cell_length_c 9.817050
_cell_angle_alpha 62.679850
_cell_angle_beta 80.342637
_cell_angle_gamma 38.375827
_cell_volume 605.031205
_symmetry_space_group_name_H-M "P -1"
_symmetry_group_IT_number 2
_symmetry_cell_setting 'triclinic'
loop_
_space_group_symop_operation_xyz
x,y,z
-x,-y,-z
loop_
_atom_site_type_symbol
_atom_site_label
_atom_site_fract_x
_atom_site_fract_y
_atom_site_fract_z
Si Si1 0.832646 0.255697 0.857356
Si Si2 0.659631 0.604350 0.266774
Si Si3 0.253619 0.966247 0.900880
Si Si4 0.908406 0.229918 0.560380
Si Si5 0.308173 0.161027 0.033416
Si Si6 0.866756 0.607007 0.754821
Si Si7 0.223175 0.961799 0.608463
O O1 0.865348 0.172404 0.722018
O O2 0.787343 0.533322 0.770847
O O3 0.727682 0.261245 0.950980
O O4 0.000000 0.000000 0.000000
O O5 0.744683 0.545586 0.405719
O O6 0.473499 0.932732 0.165428
O O7 0.686285 0.351064 0.348396
O O8 0.743348 0.574136 0.128307
O O9 0.299439 0.900469 0.757536
O O10 0.061179 0.305472 0.818724
O O11 0.338093 0.980250 0.972544
O O12 0.037149 0.181260 0.597462
O O13 0.000000 0.000000 0.500000
O O14 0.179388 0.281149 0.122469
O O15 0.793093 0.861607 0.569253
#
# Coordination Sequence:
#
# PCOD9004503 Si02
#       7
#     2   2   2   2   2   2   2
#     4  10  21  39  62  96 127 158 203 257 316 359
#     4  10  25  44  65  86 129 171 208 251 313 368
#     4  11  23  39  68  94 126 160 208 262 311 365
#     4  10  21  37  68  92 122 162 209 257 309 364
#     4  11  25  43  64  91 125 170 213 249 305 383
#     4  11  23  38  65  98 126 159 209 258 314 368
#     4  11  22  41  66  95 125 159 206 268 312 363
#
# _framework density 23.139302000000001
#
# number of rings (size 3 to 8) (size 9 to 14) (size 15 to 20)
#    0.000    1.429    2.857    2.571   12.000    1.143 
#    0.000    0.714    0.000    0.000    0.000    0.000 
#    0.000    0.000    0.000    0.000    0.000    0.000 
#
# Total GULP energy -78271.289630 kJ/mol
# GULP energy per Si atom -5590.806402 kJ/mol
# Density = 2.308664 g / cm^3
# Si number density = 23.139302 Si / 1000 Ang^3
#
#
#
# Elastic Constant Matrix: (Units=GPa)
#
#
# Indices 1 2 3 4 5 6 
#
# 1 53.0527 2.6635 22.7421 -9.5351 -4.6237 14.6642
# 2 2.6635 29.8496 28.3452 3.6086 -0.2714 3.9241
# 3 22.7421 28.3452 160.1412 5.0023 -22.2102 2.1650
# 4 -9.5351 3.6086 5.0023 33.2081 10.7269 -1.5048
# 5 -4.6237 -0.2714 -22.2102 10.7269 55.3240 -8.3733
# 6 14.6642 3.9241 2.1650 -1.5048 -8.3733 21.0130
#
#
#
# Elastic Compliance Matrix: (Units=1/GPa)
#
#
# Indices 1 2 3 4 5 6 
#
# 1 0.027925 0.004234 -0.005363 0.008936 -0.004703 -0.020961
# 2 0.004234 0.043005 -0.008632 -0.001256 -0.004468 -0.011966
# 3 -0.005363 -0.008632 0.009213 -0.003251 0.004757 0.006068
# 4 0.008936 -0.001256 -0.003251 0.035750 -0.008478 -0.006484
# 5 -0.004703 -0.004468 0.004757 -0.008478 0.023062 0.012209
# 6 -0.020961 -0.011966 0.006068 -0.006484 0.012209 0.068228
#
#
# Mechanical properties :
#
#
# Convention : Reuss Voigt Hill
#
# Bulk Modulus (GPa) = 16.49607 38.94945 27.72276
# Shear Modulus (GPa) = 20.25013 34.52852 27.38933
#
# Velocity S-wave (km/s) = 2.96149 3.86709 3.44418
# Velocity P-wave (km/s) = 4.34032 6.06699 5.27479
#
# Compressibility (1/GPa) = 0.06062051
#
# Stress axis : x y z
#
# Youngs Moduli (GPa) = 35.80965 23.25333 108.53943
#
# Poissons Ratio (x) = -0.09844 0.58212
# Poissons Ratio (y) = -0.15160 0.93688
# Poissons Ratio (z) = 0.19205 0.20072
#
# Static dielectric constant tensor:
#      x y z
#    x 1.905280 0.008420 0.000690 
#    y 0.008420 1.917320 -0.000100 
#    z 0.000690 -0.000100 1.868510 
# 
# From -- ./inp_files/157585.got.cif
#   From: 2010.05.17/outbox.cif.g08.bks.cpg/sg2_79_cif.got.tgz:157585.got - 2010.06.03 11:33:40.
