data_PCOD9004589
_publ_section_title
;
Structure prediction by ZEFSAII (Michael W. Deem and Ramdas Pophale) SiO2 
 PCOD9004589
Probable space group: P -1
;
_chemical_formula_sum "Si O2"
_cell_formula_units_Z 12
_cell_length_a 9.236230
_cell_length_b 8.272794
_cell_length_c 18.870172
_cell_angle_alpha 45.002552
_cell_angle_beta 28.786215
_cell_angle_gamma 46.089346
_cell_volume 479.295869
_symmetry_space_group_name_H-M "P -1"
_symmetry_group_IT_number 2
_symmetry_cell_setting 'triclinic'
loop_
_space_group_symop_operation_xyz
x,y,z
-x,-y,-z
loop_
_atom_site_type_symbol
_atom_site_label
_atom_site_fract_x
_atom_site_fract_y
_atom_site_fract_z
Si Si1 0.502369 0.774375 0.615818
Si Si2 0.981264 0.946616 0.441376
Si Si3 0.191406 0.184793 0.044959
Si Si4 0.346881 0.548068 0.627913
Si Si5 0.563633 0.081989 0.104637
Si Si6 0.224004 0.553095 0.020263
O O1 0.569794 0.567570 0.592406
O O2 0.146010 0.814045 0.779915
O O3 0.500000 0.000000 0.500000
O O4 0.759561 0.775597 0.565408
O O5 0.840771 0.191532 0.387474
O O6 0.324833 0.920393 0.273467
O O7 0.000000 0.000000 0.500000
O O8 0.230002 0.442732 0.973053
O O9 0.500000 0.000000 0.000000
O O10 0.188787 0.090771 0.995531
O O11 0.500000 0.500000 0.500000
O O12 0.095056 0.411114 0.808266
O O13 0.429229 0.319575 0.043212
O O14 0.653353 0.211512 0.095325
#
# Coordination Sequence:
#
# PCOD9004589 Si02
#       6
#     2   2   2   2   2   2
#     4   9  18  32  54  81 106 142 187 227 269 331
#     4  10  21  38  53  79 117 149 183 224 282 343
#     4   9  16  29  52  78 106 137 180 235 279 317
#     4   9  18  33  58  84 105 140 187 240 276 318
#     4   9  17  31  51  74 105 146 177 224 276 324
#     4   8  16  29  49  81 104 130 185 231 269 318
#
# _framework density 25.036728
#
# number of rings (size 3 to 8) (size 9 to 14) (size 15 to 20)
#    0.000    3.000    0.000    3.000    4.667    0.000 
#    6.000    1.667    0.000    2.000    0.000    0.000 
#    0.000    0.000    0.000    0.000    0.000    0.000 
#
# Total GULP energy -66826.288461 kJ/mol
# GULP energy per Si atom -5568.857372 kJ/mol
# Density = 2.497974 g / cm^3
# Si number density = 25.036728 Si / 1000 Ang^3
#
#
#
# Elastic Constant Matrix: (Units=GPa)
#
#
# Indices 1 2 3 4 5 6 
#
# 1 157.1101 48.8583 38.4550 6.2097 -13.1368 31.4003
# 2 48.8583 149.8278 54.3454 6.9055 -7.6222 36.4392
# 3 38.4550 54.3454 105.0079 14.9295 -5.6841 21.1871
# 4 6.2097 6.9055 14.9295 40.4671 8.3255 8.8285
# 5 -13.1368 -7.6222 -5.6841 8.3255 35.9063 -1.2118
# 6 31.4003 36.4392 21.1871 8.8285 -1.2118 55.5143
#
#
#
# Elastic Compliance Matrix: (Units=1/GPa)
#
#
# Indices 1 2 3 4 5 6 
#
# 1 0.007913 -0.001157 -0.001517 -0.000282 0.002372 -0.003041
# 2 -0.001157 0.009407 -0.003655 0.000700 0.000690 -0.004221
# 3 -0.001517 -0.003655 0.012818 -0.003989 0.001591 -0.000966
# 4 -0.000282 0.000700 -0.003989 0.028356 -0.007277 -0.003446
# 5 0.002372 0.000690 0.001591 -0.007277 0.030784 -0.000573
# 6 -0.003041 -0.004221 -0.000966 -0.003446 -0.000573 0.023408
#
#
# Mechanical properties :
#
#
# Convention : Reuss Voigt Hill
#
# Bulk Modulus (GPa) = 57.20729 77.25147 67.22938
# Shear Modulus (GPa) = 38.11768 44.39669 41.25718
#
# Velocity S-wave (km/s) = 3.90612 4.21558 4.06380
# Velocity P-wave (km/s) = 6.57591 7.39034 6.99499
#
# Compressibility (1/GPa) = 0.01748029
#
# Stress axis : x y z
#
# Youngs Moduli (GPa) = 126.36856 106.30435 78.01254
#
# Poissons Ratio (x) = 0.12299 0.11836
# Poissons Ratio (y) = 0.14620 0.28514
# Poissons Ratio (z) = 0.19172 0.38855
#
# Static dielectric constant tensor:
#      x y z
#    x 2.255110 0.030420 -0.035660 
#    y 0.030420 2.011020 0.044870 
#    z -0.035660 0.044870 2.049420 
# 
# From -- ./inp_files/146894.got.cif
#   From: 2010.05.17/outbox.cif.g08.bks.cpg/sg2_74_cif.got.tgz:146894.got - 2010.06.03 11:33:40.
