data_PCOD9004365
_publ_section_title
;
Structure prediction by ZEFSAII (Michael W. Deem and Ramdas Pophale) SiO2 
 PCOD9004365
Probable space group: P -1
;
_chemical_formula_sum "Si O2"
_cell_formula_units_Z 16
_cell_length_a 12.592068
_cell_length_b 9.719657
_cell_length_c 11.280035
_cell_angle_alpha 74.599591
_cell_angle_beta 51.327876
_cell_angle_gamma 53.291792
_cell_volume 851.161537
_symmetry_space_group_name_H-M "P -1"
_symmetry_group_IT_number 2
_symmetry_cell_setting 'triclinic'
loop_
_space_group_symop_operation_xyz
x,y,z
-x,-y,-z
loop_
_atom_site_type_symbol
_atom_site_label
_atom_site_fract_x
_atom_site_fract_y
_atom_site_fract_z
Si Si1 0.416493 0.885368 0.212535
Si Si2 0.294200 0.264385 0.538529
Si Si3 0.738249 0.736264 0.869923
Si Si4 0.064383 0.541956 0.829591
Si Si5 0.365177 0.912858 0.519299
Si Si6 0.158623 0.504479 0.363573
Si Si7 0.840886 0.196580 0.592068
Si Si8 0.699853 0.352606 0.396955
O O1 0.424928 0.864389 0.352820
O O2 0.302627 0.824520 0.259100
O O3 0.329199 0.088646 0.197725
O O4 0.595290 0.779486 0.051687
O O5 0.164604 0.383579 0.703272
O O6 0.475581 0.171068 0.489182
O O7 0.283298 0.373640 0.408164
O O8 0.265319 0.118909 0.553850
O O9 0.778574 0.581063 0.789399
O O10 0.901899 0.687512 0.836723
O O11 0.193150 0.591659 0.755831
O O12 0.000000 0.500000 0.000000
O O13 0.271546 0.823029 0.632800
O O14 0.124453 0.691168 0.371085
O O15 0.000000 0.500000 0.500000
O O16 0.771835 0.304361 0.491933
O O17 0.000000 0.000000 0.500000
O O18 0.500000 0.500000 0.500000
#
# Coordination Sequence:
#
# PCOD9004365 Si02
#       8
#     2   2   2   2   2   2   2   2
#     4  10  22  40  61  93 120 163 205 249 320 359
#     4  11  21  38  60  95 116 165 202 256 299 375
#     4  11  23  39  61  87 129 163 199 258 308 374
#     4  12  24  40  62  90 125 161 208 250 317 365
#     4  10  21  37  66  89 122 153 215 251 305 361
#     4  12  21  38  61  88 124 158 207 250 307 363
#     4  11  23  37  66  93 121 159 211 258 303 371
#     4  11  21  39  63  93 119 161 209 254 299 366
#
# _framework density 18.797844000000001
#
# number of rings (size 3 to 8) (size 9 to 14) (size 15 to 20)
#    0.000    1.000    5.000    2.250    3.500    0.500 
#    0.000    0.625    0.000    0.000    0.000    0.000 
#    0.000    0.000    0.000    0.000    0.000    0.000 
#
# Total GULP energy -89337.937727 kJ/mol
# GULP energy per Si atom -5583.621108 kJ/mol
# Density = 1.875506 g / cm^3
# Si number density = 18.797844 Si / 1000 Ang^3
#
#
#
# Elastic Constant Matrix: (Units=GPa)
#
#
# Indices 1 2 3 4 5 6 
#
# 1 91.9388 40.6652 28.7568 -1.1057 -11.6798 14.9402
# 2 40.6652 98.0142 29.7425 1.9520 -9.2333 28.1106
# 3 28.7568 29.7425 81.0137 -8.1075 -14.4187 14.2584
# 4 -1.1057 1.9520 -8.1075 25.6354 2.1943 -1.1466
# 5 -11.6798 -9.2333 -14.4187 2.1943 32.4441 -6.0741
# 6 14.9402 28.1106 14.2584 -1.1466 -6.0741 50.8345
#
#
#
# Elastic Compliance Matrix: (Units=1/GPa)
#
#
# Indices 1 2 3 4 5 6 
#
# 1 0.014214 -0.004657 -0.002824 -0.000158 0.002450 -0.000521
# 2 -0.004657 0.014834 -0.002936 -0.002553 0.000283 -0.006034
# 3 -0.002824 -0.002936 0.015964 0.004690 0.004671 -0.001360
# 4 -0.000158 -0.002553 0.004690 0.040831 -0.001290 0.000910
# 5 0.002450 0.000283 0.004671 -0.001290 0.034300 0.001883
# 6 -0.000521 -0.006034 -0.001360 0.000910 0.001883 0.023789
#
#
# Mechanical properties :
#
#
# Convention : Reuss Voigt Hill
#
# Bulk Modulus (GPa) = 41.35959 52.14396 46.75177
# Shear Modulus (GPa) = 28.93118 33.23625 31.08371
#
# Velocity S-wave (km/s) = 3.92735 4.20943 4.07083
# Velocity P-wave (km/s) = 6.52806 7.17114 6.85714
#
# Compressibility (1/GPa) = 0.02417819
#
# Stress axis : x y z
#
# Youngs Moduli (GPa) = 70.35405 67.41338 62.64154
#
# Poissons Ratio (x) = 0.31394 0.17689
# Poissons Ratio (y) = 0.32763 0.18391
# Poissons Ratio (z) = 0.19867 0.19792
#
# Static dielectric constant tensor:
#      x y z
#    x 1.702360 -0.021400 -0.000160 
#    y -0.021400 1.707910 -0.009080 
#    z -0.000160 -0.009080 1.617650 
# 
# From -- ./inp_files/417056.got.cif
#   From: 2010.05.17/outbox.cif.g08.bks.cpg/sg2_209_cif.got.tgz:417056.got - 2010.06.03 11:33:40.
