data_PCOD9004944
_publ_section_title
;
Structure prediction by ZEFSAII (Michael W. Deem and Ramdas Pophale) SiO2 
 PCOD9004944
Probable space group: P -1
;
_chemical_formula_sum "Si O2"
_cell_formula_units_Z 12
_cell_length_a 10.767151
_cell_length_b 13.635806
_cell_length_c 10.440003
_cell_angle_alpha 57.590744
_cell_angle_beta 138.596873
_cell_angle_gamma 148.847972
_cell_volume 498.625727
_symmetry_space_group_name_H-M "P -1"
_symmetry_group_IT_number 2
_symmetry_cell_setting 'triclinic'
loop_
_space_group_symop_operation_xyz
x,y,z
-x,-y,-z
loop_
_atom_site_type_symbol
_atom_site_label
_atom_site_fract_x
_atom_site_fract_y
_atom_site_fract_z
Si Si1 0.178480 0.267707 0.881205
Si Si2 0.318663 0.914485 0.780838
Si Si3 0.071058 0.513721 0.192036
Si Si4 0.707677 0.207828 0.641993
Si Si5 0.125891 0.084389 0.217945
Si Si6 0.722468 0.725162 0.542188
O O1 0.892617 0.218388 0.678664
O O2 0.500000 0.500000 0.000000
O O3 0.105172 0.154568 0.029082
O O4 0.151339 0.154910 0.829481
O O5 0.126382 0.697690 0.771077
O O6 0.035123 0.869065 0.596557
O O7 0.535052 0.046825 0.732720
O O8 0.500000 0.000000 0.000000
O O9 0.024640 0.587818 0.210947
O O10 0.456500 0.690466 0.355852
O O11 0.000000 0.500000 0.000000
O O12 0.458673 0.175964 0.412239
O O13 0.131693 0.178755 0.272024
O O14 0.500000 0.500000 0.500000
#
# Coordination Sequence:
#
# PCOD9004944 Si02
#       6
#     2   2   2   2   2   2
#     4  11  26  46  69  94 128 174 228 283 322 386
#     4  11  21  38  63  95 136 173 209 266 324 393
#     4  10  21  38  59  96 130 171 213 255 321 394
#     4  11  24  43  65  95 133 172 218 271 330 389
#     4  10  24  45  67  98 129 170 227 267 333 394
#     4   9  21  39  64  96 134 168 210 264 325 396
#
# _framework density 24.066147999999998
#
# number of rings (size 3 to 8) (size 9 to 14) (size 15 to 20)
#    0.000    1.667    1.667    1.500    2.333   11.333 
#    3.000    0.000    0.000    0.000    0.000    0.000 
#    0.000    0.000    0.000    0.000    0.000    0.000 
#
# Total GULP energy -66999.845190 kJ/mol
# GULP energy per Si atom -5583.320432 kJ/mol
# Density = 2.401137 g / cm^3
# Si number density = 24.066148 Si / 1000 Ang^3
#
#
#
# Elastic Constant Matrix: (Units=GPa)
#
#
# Indices 1 2 3 4 5 6 
#
# 1 71.6247 24.3864 6.1893 15.4852 -3.2657 -30.6824
# 2 24.3864 120.3672 -0.4354 32.3800 3.0066 -30.9395
# 3 6.1893 -0.4354 68.1950 3.9779 3.6750 -1.9215
# 4 15.4852 32.3800 3.9779 42.1176 -5.7733 -8.8205
# 5 -3.2657 3.0066 3.6750 -5.7733 40.1791 15.4157
# 6 -30.6824 -30.9395 -1.9215 -8.8205 15.4157 30.5315
#
#
#
# Elastic Compliance Matrix: (Units=1/GPa)
#
#
# Indices 1 2 3 4 5 6 
#
# 1 0.033631 0.009600 0.000110 -0.011948 -0.018715 0.049529
# 2 0.009600 0.018690 0.001759 -0.013337 -0.015166 0.032502
# 3 0.000110 0.001759 0.015096 -0.002477 -0.003319 0.003803
# 4 -0.011948 -0.013337 -0.002477 0.035853 0.013994 -0.022386
# 5 -0.018715 -0.015166 -0.003319 0.013994 0.047698 -0.054425
# 6 0.049529 0.032502 0.003803 -0.022386 -0.054425 0.136716
#
#
# Mechanical properties :
#
#
# Convention : Reuss Voigt Hill
#
# Bulk Modulus (GPa) = 11.06753 35.60750 23.33751
# Shear Modulus (GPa) = 16.95692 37.90209 27.42950
#
# Velocity S-wave (km/s) = 2.65730 3.97282 3.37969
# Velocity P-wave (km/s) = 3.74484 5.98934 4.99480
#
# Compressibility (1/GPa) = 0.09035443
#
# Stress axis : x y z
#
# Youngs Moduli (GPa) = 29.73468 53.50320 66.24461
#
# Poissons Ratio (x) = -0.51361 -0.00729
# Poissons Ratio (y) = -0.28544 -0.11654
# Poissons Ratio (z) = -0.00327 -0.09412
#
# Static dielectric constant tensor:
#      x y z
#    x 2.022460 -0.088550 -0.030380 
#    y -0.088550 1.940040 0.057280 
#    z -0.030380 0.057280 2.001860 
# 
# From -- ./inp_files/170977.got.cif
#   From: 2010.05.17/outbox.cif.g08.bks.cpg/sg2_86_cif.got.tgz:170977.got - 2010.06.03 11:33:40.
