data_PCOD9004236
_publ_section_title
;
Structure prediction by ZEFSAII (Michael W. Deem and Ramdas Pophale) SiO2 
 PCOD9004236
Probable space group: P -1
;
_chemical_formula_sum "Si O2"
_cell_formula_units_Z 14
_cell_length_a 11.283639
_cell_length_b 12.070233
_cell_length_c 12.880328
_cell_angle_alpha 147.450746
_cell_angle_beta 128.329388
_cell_angle_gamma 68.694160
_cell_volume 685.544394
_symmetry_space_group_name_H-M "P -1"
_symmetry_group_IT_number 2
_symmetry_cell_setting 'triclinic'
loop_
_space_group_symop_operation_xyz
x,y,z
-x,-y,-z
loop_
_atom_site_type_symbol
_atom_site_label
_atom_site_fract_x
_atom_site_fract_y
_atom_site_fract_z
Si Si1 0.909211 0.634083 0.192282
Si Si2 0.514172 0.901055 0.541483
Si Si3 0.227293 0.535254 0.664473
Si Si4 0.178825 0.847370 0.346717
Si Si5 0.549798 0.569449 0.961795
Si Si6 0.032129 0.441557 0.300959
Si Si7 0.862616 0.985639 0.764861
O O1 0.986514 0.584951 0.301562
O O2 0.047618 0.806364 0.332680
O O3 0.855212 0.396076 0.915294
O O4 0.746667 0.688607 0.161869
O O5 0.368414 0.929998 0.549311
O O6 0.477916 0.645430 0.295330
O O7 0.500000 0.000000 0.500000
O O8 0.704381 0.005138 0.750807
O O9 0.409498 0.641545 0.893514
O O10 0.107010 0.606543 0.725570
O O11 0.199441 0.568321 0.553929
O O12 0.155465 0.264638 0.423033
O O13 0.156732 0.987225 0.347608
O O14 0.500000 0.500000 0.000000
O O15 0.014830 0.201909 0.055387
#
# Coordination Sequence:
#
# PCOD9004236 Si02
#       7
#     2   2   2   2   2   2   2
#     4   9  16  29  50  72  99 129 163 195 249 288
#     4   8  15  26  46  71  94 118 157 201 242 281
#     4  10  20  31  49  75 100 123 169 201 239 295
#     4   8  15  28  49  74  97 127 161 205 239 289
#     4  10  17  28  47  71  97 122 159 207 238 278
#     4  10  19  32  50  72  99 134 155 203 249 283
#     4   9  17  31  51  72  98 125 165 204 241 282
#
# _framework density 20.421726
#
# number of rings (size 3 to 8) (size 9 to 14) (size 15 to 20)
#    0.000    2.857    1.429    1.286    0.000    0.000 
#    0.000    0.714    0.000   23.143    0.000    4.000 
#    0.000    0.000    0.000    0.000    0.000    0.000 
#
# Total GULP energy -77973.968892 kJ/mol
# GULP energy per Si atom -5569.569207 kJ/mol
# Density = 2.037525 g / cm^3
# Si number density = 20.421726 Si / 1000 Ang^3
#
#
#
# Elastic Constant Matrix: (Units=GPa)
#
#
# Indices 1 2 3 4 5 6 
#
# 1 103.6481 25.9547 34.3036 -11.6448 18.9105 8.7266
# 2 25.9547 57.4623 40.5692 -13.3259 11.1969 -0.2452
# 3 34.3036 40.5692 98.4312 -29.2969 3.8206 -0.4953
# 4 -11.6448 -13.3259 -29.2969 28.3737 -7.7672 -4.4683
# 5 18.9105 11.1969 3.8206 -7.7672 27.5465 3.8080
# 6 8.7266 -0.2452 -0.4953 -4.4683 3.8080 22.7226
#
#
#
# Elastic Compliance Matrix: (Units=1/GPa)
#
#
# Indices 1 2 3 4 5 6 
#
# 1 0.013029 -0.002049 -0.004255 -0.002808 -0.007707 -0.004379
# 2 -0.002049 0.027179 -0.010395 -0.000863 -0.008740 0.002148
# 3 -0.004255 -0.010395 0.020989 0.018086 0.008772 0.004066
# 4 -0.002808 -0.000863 0.018086 0.058021 0.014691 0.010411
# 5 -0.007707 -0.008740 0.008772 0.014691 0.048370 -0.002160
# 6 -0.004379 0.002148 0.004066 0.010411 -0.002160 0.048212
#
#
# Mechanical properties :
#
#
# Convention : Reuss Voigt Hill
#
# Bulk Modulus (GPa) = 35.97088 51.24407 43.60747
# Shear Modulus (GPa) = 19.34503 26.30951 22.82727
#
# Velocity S-wave (km/s) = 3.08113 3.59320 3.34697
# Velocity P-wave (km/s) = 5.50546 6.50862 6.02794
#
# Compressibility (1/GPa) = 0.02780026
#
# Stress axis : x y z
#
# Youngs Moduli (GPa) = 76.75369 36.79297 47.64288
#
# Poissons Ratio (x) = 0.07539 0.20270
# Poissons Ratio (y) = 0.15727 0.49524
# Poissons Ratio (z) = 0.32656 0.38246
#
# Static dielectric constant tensor:
#      x y z
#    x 1.740740 -0.050700 0.005370 
#    y -0.050700 1.741130 -0.011150 
#    z 0.005370 -0.011150 1.815660 
# 
# From -- ./inp_files/176591.got.cif
#   From: 2010.05.17/outbox.cif.g08.bks.cpg/sg2_89_cif.got.tgz:176591.got - 2010.06.03 11:33:40.
