data_PCOD9004087
_publ_section_title
;
Structure prediction by ZEFSAII (Michael W. Deem and Ramdas Pophale) SiO2 
 PCOD9004087
Probable space group: P -1
;
_chemical_formula_sum "Si O2"
_cell_formula_units_Z 14
_cell_length_a 11.787725
_cell_length_b 18.590171
_cell_length_c 15.130615
_cell_angle_alpha 147.990816
_cell_angle_beta 26.438591
_cell_angle_gamma 153.077708
_cell_volume 647.880545
_symmetry_space_group_name_H-M "P -1"
_symmetry_group_IT_number 2
_symmetry_cell_setting 'triclinic'
loop_
_space_group_symop_operation_xyz
x,y,z
-x,-y,-z
loop_
_atom_site_type_symbol
_atom_site_label
_atom_site_fract_x
_atom_site_fract_y
_atom_site_fract_z
Si Si1 0.275009 0.768698 0.222425
Si Si2 0.692913 0.663594 0.849430
Si Si3 0.810769 0.833101 0.516704
Si Si4 0.150922 0.860182 0.577391
Si Si5 0.473010 0.306114 0.606139
Si Si6 0.125035 0.973514 0.166618
Si Si7 0.797717 0.122580 0.165862
O O1 0.148148 0.744469 0.384283
O O2 0.036045 0.780467 0.340159
O O3 0.591718 0.948429 0.176647
O O4 0.389905 0.649511 0.008861
O O5 0.621799 0.485457 0.726836
O O6 0.954630 0.761397 0.695311
O O7 0.845815 0.775883 0.947455
O O8 0.581124 0.698234 0.466307
O O9 0.000000 0.000000 0.500000
O O10 0.694134 0.886205 0.738103
O O11 0.500000 0.000000 0.500000
O O12 0.008825 0.949311 0.722604
O O13 0.150677 0.182260 0.751585
O O14 0.672906 0.230334 0.396838
O O15 0.264571 0.915677 0.935284
#
# Coordination Sequence:
#
# PCOD9004087 Si02
#       7
#     2   2   2   2   2   2   2
#     4  11  21  38  64  89 119 159 211 247 287 364
#     4  12  25  37  62  97 126 154 195 256 315 349
#     4   9  19  42  63  86 118 164 207 248 286 357
#     4  11  19  36  61  89 119 159 200 246 296 361
#     4  11  24  43  58  90 131 156 198 257 300 354
#     4  10  21  37  64  88 112 164 211 239 291 361
#     4  12  21  38  65  91 117 163 204 244 303 365
#
# _framework density 21.608922
#
# number of rings (size 3 to 8) (size 9 to 14) (size 15 to 20)
#    0.000    1.143    7.143    1.714    0.000    2.857 
#    0.000    2.857    0.000    0.000    0.000    0.000 
#    0.000    0.000    0.000    0.000    0.000    0.000 
#
# Total GULP energy -78128.783714 kJ/mol
# GULP energy per Si atom -5580.627408 kJ/mol
# Density = 2.155974 g / cm^3
# Si number density = 21.608922 Si / 1000 Ang^3
#
#
#
# Elastic Constant Matrix: (Units=GPa)
#
#
# Indices 1 2 3 4 5 6 
#
# 1 73.1449 -11.2230 10.1048 -4.6779 11.3154 3.0058
# 2 -11.2230 29.8898 6.9671 5.2598 11.9982 -3.9429
# 3 10.1048 6.9671 80.4903 3.8187 9.8120 -16.0167
# 4 -4.6779 5.2598 3.8187 23.2360 -5.4691 1.9226
# 5 11.3154 11.9982 9.8120 -5.4691 36.2922 -0.3715
# 6 3.0058 -3.9429 -16.0167 1.9226 -0.3715 21.1955
#
#
#
# Elastic Compliance Matrix: (Units=1/GPa)
#
#
# Indices 1 2 3 4 5 6 
#
# 1 0.016819 0.009686 -0.002522 -0.000009 -0.007793 -0.002625
# 2 0.009686 0.049553 -0.000505 -0.014926 -0.021428 0.008441
# 3 -0.002522 -0.000505 0.016056 -0.005035 -0.004016 0.012783
# 4 -0.000009 -0.014926 -0.005035 0.051432 0.013936 -0.011001
# 5 -0.007793 -0.021428 -0.004016 0.013936 0.040187 -0.006475
# 6 -0.002625 0.008441 0.012783 -0.011001 -0.006475 0.059666
#
#
# Mechanical properties :
#
#
# Convention : Reuss Voigt Hill
#
# Bulk Modulus (GPa) = 10.44426 21.69145 16.06785
# Shear Modulus (GPa) = 19.81688 27.98980 23.90334
#
# Velocity S-wave (km/s) = 3.03160 3.60292 3.32954
# Velocity P-wave (km/s) = 4.13497 5.23144 4.71518
#
# Compressibility (1/GPa) = 0.09574639
#
# Stress axis : x y z
#
# Youngs Moduli (GPa) = 59.45702 20.18057 62.28091
#
# Poissons Ratio (x) = -0.19548 0.15706
# Poissons Ratio (y) = -0.57592 0.03147
# Poissons Ratio (z) = 0.14994 0.01020
#
# Static dielectric constant tensor:
#      x y z
#    x 1.835920 0.033070 0.025020 
#    y 0.033070 1.717510 -0.008260 
#    z 0.025020 -0.008260 1.887240 
# 
# From -- ./inp_files/181010.got.cif
#   From: 2010.05.17/outbox.cif.g08.bks.cpg/sg2_91_cif.got.tgz:181010.got - 2010.06.03 11:33:40.
