data_PCOD9004089
_publ_section_title
;
Structure prediction by ZEFSAII (Michael W. Deem and Ramdas Pophale) SiO2 
 PCOD9004089
Probable space group: P -1
;
_chemical_formula_sum "Si O2"
_cell_formula_units_Z 12
_cell_length_a 9.568764
_cell_length_b 16.135486
_cell_length_c 9.719983
_cell_angle_alpha 47.485369
_cell_angle_beta 41.814086
_cell_angle_gamma 35.081861
_cell_volume 566.510357
_symmetry_space_group_name_H-M "P -1"
_symmetry_group_IT_number 2
_symmetry_cell_setting 'triclinic'
loop_
_space_group_symop_operation_xyz
x,y,z
-x,-y,-z
loop_
_atom_site_type_symbol
_atom_site_label
_atom_site_fract_x
_atom_site_fract_y
_atom_site_fract_z
Si Si1 0.447025 0.206398 0.682054
Si Si2 0.900227 0.328193 0.792794
Si Si3 0.633669 0.353890 0.226269
Si Si4 0.688297 0.932604 0.654537
Si Si5 0.066885 0.355832 0.051343
Si Si6 0.131815 0.060160 0.762742
O O1 0.622635 0.250133 0.448506
O O2 0.182052 0.283610 0.690396
O O3 0.611383 0.034302 0.729258
O O4 0.319451 0.270666 0.853410
O O5 0.672953 0.499400 0.741075
O O6 0.957408 0.232158 0.727229
O O7 0.782397 0.287316 0.045397
O O8 0.803082 0.397678 0.119560
O O9 0.857158 0.765051 0.757962
O O10 0.829621 0.962573 0.402904
O O11 0.416096 0.984246 0.718591
O O12 0.000000 0.500000 0.000000
O O13 0.000000 0.000000 0.000000
#
# Coordination Sequence:
#
# PCOD9004089 Si02
#       6
#     2   2   2   2   2   2
#     4  10  21  41  64  84 118 162 199 252 294 348
#     4   9  20  37  59  94 116 151 205 247 292 358
#     4  10  21  38  62  88 121 159 197 245 306 350
#     4  10  23  41  59  91 122 154 205 244 295 358
#     4  11  26  40  58  91 126 160 199 244 297 362
#     4  10  21  37  64  88 119 158 197 250 298 348
#
# _framework density 21.182313000000001
#
# number of rings (size 3 to 8) (size 9 to 14) (size 15 to 20)
#    0.000    2.000    0.000    2.000    4.667    2.667 
#    6.000    0.000    0.000    0.000    0.000    0.000 
#    0.000    0.000    0.000    0.000    0.000    0.000 
#
# Total GULP energy -67035.676419 kJ/mol
# GULP energy per Si atom -5586.306368 kJ/mol
# Density = 2.113410 g / cm^3
# Si number density = 21.182313 Si / 1000 Ang^3
#
#
#
# Elastic Constant Matrix: (Units=GPa)
#
#
# Indices 1 2 3 4 5 6 
#
# 1 23.0653 27.7193 16.1450 3.3581 3.8521 16.6351
# 2 27.7193 88.0782 23.4089 -3.7167 3.1753 20.0729
# 3 16.1450 23.4089 113.1944 -5.0959 -1.8037 14.6845
# 4 3.3581 -3.7167 -5.0959 29.3067 2.6256 3.0669
# 5 3.8521 3.1753 -1.8037 2.6256 24.5468 4.4225
# 6 16.6351 20.0729 14.6845 3.0669 4.4225 28.3177
#
#
#
# Elastic Compliance Matrix: (Units=1/GPa)
#
#
# Indices 1 2 3 4 5 6 
#
# 1 0.108204 -0.023229 -0.005789 -0.011455 -0.005613 -0.041980
# 2 -0.023229 0.019009 -0.000344 0.004982 0.000682 -0.000296
# 3 -0.005789 -0.000344 0.010152 0.002448 0.001828 -0.002171
# 4 -0.011455 0.004982 0.002448 0.036877 -0.002304 -0.001706
# 5 -0.005613 0.000682 0.001828 -0.002304 0.042733 -0.004558
# 6 -0.041980 -0.000296 -0.002171 -0.001706 -0.004558 0.062207
#
#
# Mechanical properties :
#
#
# Convention : Reuss Voigt Hill
#
# Bulk Modulus (GPa) = 12.71592 39.87603 26.29598
# Shear Modulus (GPa) = 13.73178 26.90521 20.31850
#
# Velocity S-wave (km/s) = 2.54887 3.56782 3.10049
# Velocity P-wave (km/s) = 3.83124 5.98652 5.02578
#
# Compressibility (1/GPa) = 0.07864156
#
# Stress axis : x y z
#
# Youngs Moduli (GPa) = 9.24178 52.60799 98.50133
#
# Poissons Ratio (x) = 1.22201 0.57020
# Poissons Ratio (y) = 0.21467 0.03392
# Poissons Ratio (z) = 0.05350 0.01811
#
# Static dielectric constant tensor:
#      x y z
#    x 1.748820 -0.009130 0.007560 
#    y -0.009130 1.763690 0.028110 
#    z 0.007560 0.028110 1.766760 
# 
# From -- ./inp_files/26550.got.cif
#   From: 2010.05.17/outbox.cif.g08.bks.cpg/sg2_14_cif.got.tgz:26550.got - 2010.06.03 11:33:40.
