data_PCOD9004720
_publ_section_title
;
Structure prediction by ZEFSAII (Michael W. Deem and Ramdas Pophale) SiO2 
 PCOD9004720
Probable space group: P -1
;
_chemical_formula_sum "Si O2"
_cell_formula_units_Z 16
_cell_length_a 24.415938
_cell_length_b 6.034394
_cell_length_c 18.505634
_cell_angle_alpha 72.045492
_cell_angle_beta 16.221222
_cell_angle_gamma 66.664444
_cell_volume 671.161083
_symmetry_space_group_name_H-M "P -1"
_symmetry_group_IT_number 2
_symmetry_cell_setting 'triclinic'
loop_
_space_group_symop_operation_xyz
x,y,z
-x,-y,-z
loop_
_atom_site_type_symbol
_atom_site_label
_atom_site_fract_x
_atom_site_fract_y
_atom_site_fract_z
Si Si1 0.315216 0.951139 0.069764
Si Si2 0.970488 0.260416 0.151848
Si Si3 0.626583 0.429858 0.771844
Si Si4 0.364448 0.855256 0.340791
Si Si5 0.974786 0.619814 0.313933
Si Si6 0.037232 0.232642 0.519090
Si Si7 0.779354 0.399408 0.232336
Si Si8 0.312212 0.735232 0.794291
O O1 0.132871 0.896548 0.265175
O O2 0.498570 0.680583 0.864559
O O3 0.234620 0.037164 0.244884
O O4 0.421481 0.148913 0.893004
O O5 0.755706 0.318628 0.462340
O O6 0.892087 0.222373 0.174419
O O7 0.164344 0.027597 0.964505
O O8 0.052870 0.484490 0.018788
O O9 0.600233 0.206603 0.782756
O O10 0.867899 0.412504 0.471341
O O11 0.500000 0.500000 0.000000
O O12 0.187529 0.133073 0.545796
O O13 0.965498 0.706599 0.399781
O O14 0.196388 0.573760 0.999118
O O15 0.000000 0.500000 0.500000
O O16 0.708500 0.285523 0.264032
O O17 0.440261 0.373949 0.487968
#
# Coordination Sequence:
#
# PCOD9004720 Si02
#       8
#     2   2   2   2   2   2   2   2
#     4  10  22  36  54  81 112 150 194 235 284 345
#     4  10  21  39  61  87 118 154 193 244 297 354
#     4  11  20  35  58  80 110 152 192 236 288 343
#     4  10  21  38  58  84 115 150 195 242 291 348
#     4  10  22  37  57  84 113 149 195 241 291 349
#     4  11  22  38  56  80 118 155 193 242 290 340
#     4  10  21  38  63  87 115 154 195 237 303 364
#     4  10  21  39  59  87 119 149 193 247 295 355
#
# _framework density 23.839282999999998
#
# number of rings (size 3 to 8) (size 9 to 14) (size 15 to 20)
#    0.000    1.750    0.000    4.500    0.000    5.000 
#    0.000    8.750    0.000    0.000    0.000    0.000 
#    0.000    0.000    0.000    0.000    0.000    0.000 
#
# Total GULP energy -89240.321061 kJ/mol
# GULP energy per Si atom -5577.520066 kJ/mol
# Density = 2.378502 g / cm^3
# Si number density = 23.839283 Si / 1000 Ang^3
#
#
#
# Elastic Constant Matrix: (Units=GPa)
#
#
# Indices 1 2 3 4 5 6 
#
# 1 64.4343 11.5179 18.4722 -7.3297 -7.8030 3.9085
# 2 11.5179 50.5222 33.3596 5.8168 -6.8441 -2.8849
# 3 18.4722 33.3596 132.6830 -25.5348 -17.1241 -0.1827
# 4 -7.3297 5.8168 -25.5348 30.8396 8.8238 -6.5681
# 5 -7.8030 -6.8441 -17.1241 8.8238 26.4805 -5.8235
# 6 3.9085 -2.8849 -0.1827 -6.5681 -5.8235 33.5315
#
#
#
# Elastic Compliance Matrix: (Units=1/GPa)
#
#
# Indices 1 2 3 4 5 6 
#
# 1 0.017071 -0.003723 -0.000480 0.003428 0.002344 -0.001234
# 2 -0.003723 0.029225 -0.009018 -0.015370 0.005949 0.000922
# 3 -0.000480 -0.009018 0.012390 0.011673 0.002089 0.001997
# 4 0.003428 -0.015370 0.011673 0.050228 -0.010763 0.006311
# 5 0.002344 0.005949 0.002089 -0.010763 0.046289 0.006181
# 6 -0.001234 0.000922 0.001997 0.006311 0.006181 0.032366
#
#
# Mechanical properties :
#
#
# Convention : Reuss Voigt Hill
#
# Bulk Modulus (GPa) = 31.01354 41.59322 36.30338
# Shear Modulus (GPa) = 22.24596 30.45631 26.35113
#
# Velocity S-wave (km/s) = 3.05809 3.57819 3.32831
# Velocity P-wave (km/s) = 5.05043 5.87847 5.48011
#
# Compressibility (1/GPa) = 0.03224398
#
# Stress axis : x y z
#
# Youngs Moduli (GPa) = 58.57727 34.21741 80.71056
#
# Poissons Ratio (x) = 0.12737 0.03875
# Poissons Ratio (y) = 0.21805 0.72789
# Poissons Ratio (z) = 0.02813 0.30859
#
# Static dielectric constant tensor:
#      x y z
#    x 1.956720 -0.016100 -0.008390 
#    y -0.016100 1.988470 -0.041440 
#    z -0.008390 -0.041440 1.992410 
# 
# From -- ./inp_files/564424.got.cif
#   From: 2010.05.17/outbox.cif.g08.bks.cpg/sg2_283_cif.got.tgz:564424.got - 2010.06.03 11:33:40.
