data_PCOD9004683
_publ_section_title
;
Structure prediction by ZEFSAII (Michael W. Deem and Ramdas Pophale) SiO2 
 PCOD9004683
Probable space group: P -1
;
_chemical_formula_sum "Si O2"
_cell_formula_units_Z 16
_cell_length_a 13.434837
_cell_length_b 12.391594
_cell_length_c 8.794497
_cell_angle_alpha 112.564393
_cell_angle_beta 125.250872
_cell_angle_gamma 33.135910
_cell_volume 637.096284
_symmetry_space_group_name_H-M "P -1"
_symmetry_group_IT_number 2
_symmetry_cell_setting 'triclinic'
loop_
_space_group_symop_operation_xyz
x,y,z
-x,-y,-z
loop_
_atom_site_type_symbol
_atom_site_label
_atom_site_fract_x
_atom_site_fract_y
_atom_site_fract_z
Si Si1 0.063458 0.704504 0.204213
Si Si2 0.845552 0.683342 0.842365
Si Si3 0.913921 0.043683 0.117149
Si Si4 0.363643 0.602363 0.781677
Si Si5 0.468337 0.656361 0.622121
Si Si6 0.628442 0.027791 0.439534
Si Si7 0.956219 0.412137 0.553561
Si Si8 0.495745 0.744470 0.262195
O O1 0.292351 0.485511 0.232293
O O2 0.044509 0.675632 0.345899
O O3 0.049693 0.853522 0.240884
O O4 0.897204 0.774827 0.982105
O O5 0.598263 0.850004 0.740262
O O6 0.922774 0.564108 0.688488
O O7 0.000000 0.500000 0.000000
O O8 0.868666 0.201878 0.246613
O O9 0.690366 0.150651 0.954609
O O10 0.000000 0.000000 0.000000
O O11 0.382737 0.693326 0.732865
O O12 0.454849 0.413965 0.683931
O O13 0.500000 0.500000 0.000000
O O14 0.500000 0.500000 0.500000
O O15 0.348849 0.860127 0.553452
O O16 0.591825 0.085353 0.616249
O O17 0.825114 0.791862 0.444531
O O18 0.743356 0.570922 0.346528
#
# Coordination Sequence:
#
# PCOD9004683 Si02
#       8
#     2   2   2   2   2   2   2   2
#     4  11  21  40  63  94 127 167 209 272 322 379
#     4   9  19  40  60  93 129 159 214 275 319 372
#     4  11  25  40  63  93 128 174 216 255 329 393
#     4  10  21  38  57  88 131 169 208 257 314 385
#     4  12  21  37  63  98 134 164 213 266 321 386
#     4  11  21  38  65  92 126 171 208 268 325 378
#     4  10  21  38  66  92 122 164 217 264 326 371
#     4  10  21  42  58  90 130 164 208 268 309 387
#
# _framework density 25.113941000000001
#
# number of rings (size 3 to 8) (size 9 to 14) (size 15 to 20)
#    0.000    1.500    5.000    2.250    1.750    2.000 
#    2.250    5.000    0.000    1.500    0.000    0.000 
#    0.000    0.000    0.000    0.000    0.000    0.000 
#
# Total GULP energy -89165.549506 kJ/mol
# GULP energy per Si atom -5572.846844 kJ/mol
# Density = 2.505678 g / cm^3
# Si number density = 25.113941 Si / 1000 Ang^3
#
#
#
# Elastic Constant Matrix: (Units=GPa)
#
#
# Indices 1 2 3 4 5 6 
#
# 1 74.7109 41.7322 22.5368 -0.7086 -9.6883 4.1044
# 2 41.7322 175.6818 42.2862 -2.2306 -1.1327 -27.9071
# 3 22.5368 42.2862 99.0745 -16.9636 20.2546 -18.7714
# 4 -0.7086 -2.2306 -16.9636 40.9826 -2.5114 0.4807
# 5 -9.6883 -1.1327 20.2546 -2.5114 39.0137 -8.2115
# 6 4.1044 -27.9071 -18.7714 0.4807 -8.2115 46.7871
#
#
#
# Elastic Compliance Matrix: (Units=1/GPa)
#
#
# Indices 1 2 3 4 5 6 
#
# 1 0.017970 -0.003861 -0.004765 -0.001465 0.005726 -0.004771
# 2 -0.003861 0.007773 -0.001911 -0.000415 0.001162 0.004417
# 3 -0.004765 -0.001911 0.015346 0.005629 -0.008008 0.003972
# 4 -0.001465 -0.000415 0.005629 0.026587 -0.001240 0.001648
# 5 0.005726 0.001162 -0.008008 -0.001240 0.031703 0.002555
# 6 -0.004771 0.004417 0.003972 0.001648 0.002555 0.026451
#
#
# Mechanical properties :
#
#
# Convention : Reuss Voigt Hill
#
# Bulk Modulus (GPa) = 49.96395 62.50861 56.23628
# Shear Modulus (GPa) = 32.55688 41.55082 37.05385
#
# Velocity S-wave (km/s) = 3.60442 4.07196 3.84530
# Velocity P-wave (km/s) = 6.10414 6.85943 6.49278
#
# Compressibility (1/GPa) = 0.02001443
#
# Stress axis : x y z
#
# Youngs Moduli (GPa) = 55.64859 128.64778 65.16186
#
# Poissons Ratio (x) = 0.49675 0.31050
# Poissons Ratio (y) = 0.21488 0.12454
# Poissons Ratio (z) = 0.26517 0.24587
#
# Static dielectric constant tensor:
#      x y z
#    x 2.102130 0.049840 0.074870 
#    y 0.049840 2.054510 0.022330 
#    z 0.074870 0.022330 2.085750 
# 
# From -- ./inp_files/315676.got.cif
#   From: 2010.05.17/outbox.cif.g08.bks.cpg/sg2_158_cif.got.tgz:315676.got - 2010.06.03 11:33:40.
