data_PCOD9004563
_publ_section_title
;
Structure prediction by ZEFSAII (Michael W. Deem and Ramdas Pophale) SiO2 
 PCOD9004563
Probable space group: P -1
;
_chemical_formula_sum "Si O2"
_cell_formula_units_Z 16
_cell_length_a 11.896134
_cell_length_b 9.671398
_cell_length_c 8.059739
_cell_angle_alpha 50.984339
_cell_angle_beta 64.404103
_cell_angle_gamma 57.082750
_cell_volume 599.037546
_symmetry_space_group_name_H-M "P -1"
_symmetry_group_IT_number 2
_symmetry_cell_setting 'triclinic'
loop_
_space_group_symop_operation_xyz
x,y,z
-x,-y,-z
loop_
_atom_site_type_symbol
_atom_site_label
_atom_site_fract_x
_atom_site_fract_y
_atom_site_fract_z
Si Si1 0.417833 0.643791 0.741936
Si Si2 0.602190 0.015269 0.280908
Si Si3 0.774539 0.168140 0.522809
Si Si4 0.668428 0.827220 0.836910
Si Si5 0.824877 0.685245 0.181701
Si Si6 0.012438 0.052869 0.195055
Si Si7 0.688243 0.550915 0.780490
Si Si8 0.058767 0.656955 0.404450
O O1 0.353884 0.828320 0.770228
O O2 0.351553 0.652188 0.599833
O O3 0.575615 0.601707 0.671540
O O4 0.388355 0.485948 0.984506
O O5 0.494829 0.098426 0.133802
O O6 0.500000 0.000000 0.500000
O O7 0.721223 0.826988 0.276478
O O8 0.848317 0.108115 0.695465
O O9 0.710000 0.008907 0.663524
O O10 0.896042 0.142529 0.337396
O O11 0.731806 0.710719 0.715148
O O12 0.742710 0.716117 0.038062
O O13 0.881283 0.459704 0.371558
O O14 0.940314 0.775999 0.019375
O O15 0.969636 0.885407 0.268010
O O16 0.816700 0.376415 0.772445
O O17 0.000000 0.500000 0.500000
#
# Coordination Sequence:
#
# PCOD9004563 Si02
#       8
#     2   2   2   2   2   2   2   2
#     4  10  21  37  70  88 124 173 210 266 325 376
#     4  11  20  38  67  95 129 173 213 264 323 389
#     4  10  21  42  68  91 126 177 211 265 330 374
#     4  10  21  40  66  94 129 167 216 267 319 391
#     4  11  25  42  66  98 129 173 214 266 331 375
#     4  10  25  45  63  97 133 167 222 264 318 397
#     4  10  23  41  60 101 127 163 223 263 323 392
#     4  12  27  43  64  97 132 169 216 273 320 388
#
# _framework density 26.709508
#
# number of rings (size 3 to 8) (size 9 to 14) (size 15 to 20)
#    0.000    1.500    1.250    3.375    5.250    0.500 
#    0.000    3.125    0.000    0.000    0.000    0.000 
#    0.000    0.000    0.000    0.000    0.000    0.000 
#
# Total GULP energy -89200.804803 kJ/mol
# GULP energy per Si atom -5575.050300 kJ/mol
# Density = 2.664872 g / cm^3
# Si number density = 26.709508 Si / 1000 Ang^3
#
#
#
# Elastic Constant Matrix: (Units=GPa)
#
#
# Indices 1 2 3 4 5 6 
#
# 1 102.2220 -15.5291 2.3233 4.9531 28.1574 -3.1949
# 2 -15.5291 84.8119 -11.2260 1.8946 -20.4024 1.3020
# 3 2.3233 -11.2260 79.3944 -22.8851 -15.4744 -2.8703
# 4 4.9531 1.8946 -22.8851 39.2231 6.0041 -0.0785
# 5 28.1574 -20.4024 -15.4744 6.0041 51.7621 -1.9598
# 6 -3.1949 1.3020 -2.8703 -0.0785 -1.9598 22.0674
#
#
#
# Elastic Compliance Matrix: (Units=1/GPa)
#
#
# Indices 1 2 3 4 5 6 
#
# 1 0.011831 0.000304 -0.002067 -0.001686 -0.006707 0.000824
# 2 0.000304 0.013755 0.003217 0.000225 0.006199 0.000202
# 3 -0.002067 0.003217 0.017086 0.009079 0.006536 0.002346
# 4 -0.001686 0.000225 0.009079 0.030971 0.000167 0.001049
# 5 -0.006707 0.006199 0.006536 0.000167 0.027419 0.001949
# 6 0.000824 0.000202 0.002346 0.001049 0.001949 0.045905
#
#
# Mechanical properties :
#
#
# Convention : Reuss Voigt Hill
#
# Bulk Modulus (GPa) = 21.93890 24.17387 23.05639
# Shear Modulus (GPa) = 31.39663 42.00119 36.69891
#
# Velocity S-wave (km/s) = 3.43225 3.96980 3.71077
# Velocity P-wave (km/s) = 4.89274 5.48477 5.19719
#
# Compressibility (1/GPa) = 0.04558114
#
# Stress axis : x y z
#
# Youngs Moduli (GPa) = 84.52597 72.69838 58.52643
#
# Poissons Ratio (x) = -0.02212 0.12095
# Poissons Ratio (y) = -0.02572 -0.18826
# Poissons Ratio (z) = 0.17468 -0.23384
#
# Static dielectric constant tensor:
#      x y z
#    x 2.459650 0.182460 0.115230 
#    y 0.182460 2.195530 -0.111310 
#    z 0.115230 -0.111310 2.214040 
# 
# From -- ./inp_files/256227.got.cif
#   From: 2010.05.17/outbox.cif.g08.bks.cpg/sg2_129_cif.got.tgz:256227.got - 2010.06.03 11:33:40.
