data_PCOD9004197
_publ_section_title
;
Structure prediction by ZEFSAII (Michael W. Deem and Ramdas Pophale) SiO2 
 PCOD9004197
Probable space group: P -1
;
_chemical_formula_sum "Si O2"
_cell_formula_units_Z 14
_cell_length_a 5.244180
_cell_length_b 15.918345
_cell_length_c 6.799768
_cell_angle_alpha 65.196469
_cell_angle_beta 105.886870
_cell_angle_gamma 107.565970
_cell_volume 484.093720
_symmetry_space_group_name_H-M "P -1"
_symmetry_group_IT_number 2
_symmetry_cell_setting 'triclinic'
loop_
_space_group_symop_operation_xyz
x,y,z
-x,-y,-z
loop_
_atom_site_type_symbol
_atom_site_label
_atom_site_fract_x
_atom_site_fract_y
_atom_site_fract_z
Si Si1 0.048618 0.549984 0.679243
Si Si2 0.834987 0.693215 0.160773
Si Si3 0.266816 0.645300 0.128911
Si Si4 0.554013 0.842937 0.948143
Si Si5 0.466852 0.130297 0.644599
Si Si6 0.900289 0.023206 0.737416
Si Si7 0.338956 0.333548 0.303316
O O1 0.370422 0.592172 0.732674
O O2 0.000000 0.500000 0.500000
O O3 0.918252 0.453568 0.867368
O O4 0.872766 0.626005 0.641295
O O5 0.805608 0.796131 0.111262
O O6 0.796909 0.682615 0.926289
O O7 0.563987 0.625517 0.249112
O O8 0.132134 0.677520 0.265984
O O9 0.350084 0.745947 0.930356
O O10 0.677491 0.925788 0.747433
O O11 0.454011 0.875798 0.099526
O O12 0.722032 0.103091 0.617473
O O13 0.398951 0.232216 0.480760
O O14 0.178182 0.054369 0.646104
O O15 0.000000 0.000000 0.000000
#
# Coordination Sequence:
#
# PCOD9004197 Si02
#       7
#     2   2   2   2   2   2   2
#     4  12  26  42  68  95 126 165 212 260 320 368
#     4  10  24  40  64  90 129 170 207 251 319 366
#     4  10  23  39  65  89 124 165 215 247 322 361
#     4   9  22  38  65  88 127 156 214 260 304 373
#     4  11  23  38  65  93 125 167 207 262 319 356
#     4  10  21  37  64  97 122 161 214 259 312 369
#     4  12  26  44  63  93 136 161 211 262 307 383
#
# _framework density 28.920020999999998
#
# number of rings (size 3 to 8) (size 9 to 14) (size 15 to 20)
#    0.857    0.571    0.000    5.571    8.000    3.429 
#    0.000    1.429    0.000    0.000    0.000    0.000 
#    0.000    0.000    0.000    0.000    0.000    0.000 
#
# Total GULP energy -78187.074715 kJ/mol
# GULP energy per Si atom -5584.791051 kJ/mol
# Density = 2.885420 g / cm^3
# Si number density = 28.920021 Si / 1000 Ang^3
#
#
#
# Elastic Constant Matrix: (Units=GPa)
#
#
# Indices 1 2 3 4 5 6 
#
# 1 202.5804 33.4678 18.1333 -14.1668 -11.2980 16.9986
# 2 33.4678 127.5806 23.9463 -29.3679 8.1444 45.5966
# 3 18.1333 23.9463 89.7432 3.6487 6.0834 12.9309
# 4 -14.1668 -29.3679 3.6487 56.6780 -1.9174 8.4688
# 5 -11.2980 8.1444 6.0834 -1.9174 35.9078 -7.1669
# 6 16.9986 45.5966 12.9309 8.4688 -7.1669 67.2743
#
#
#
# Elastic Compliance Matrix: (Units=1/GPa)
#
#
# Indices 1 2 3 4 5 6 
#
# 1 0.005406 -0.000976 -0.000951 0.001041 0.002052 -0.000434
# 2 -0.000976 0.014897 -0.002205 0.009106 -0.005043 -0.011110
# 3 -0.000951 -0.002205 0.012236 -0.002154 -0.002101 -0.000569
# 4 0.001041 0.009106 -0.002154 0.024079 -0.001935 -0.009258
# 5 0.002052 -0.005043 -0.002101 -0.001935 0.031264 0.006878
# 6 -0.000434 -0.011110 -0.000569 -0.009258 0.006878 0.024512
#
#
# Mechanical properties :
#
#
# Convention : Reuss Voigt Hill
#
# Bulk Modulus (GPa) = 41.19545 63.44434 52.31989
# Shear Modulus (GPa) = 38.83517 54.92912 46.88215
#
# Velocity S-wave (km/s) = 3.66846 4.36288 4.03065
# Velocity P-wave (km/s) = 5.67618 6.88223 6.30809
#
# Compressibility (1/GPa) = 0.02427453
#
# Stress axis : x y z
#
# Youngs Moduli (GPa) = 184.96694 67.12816 81.72935
#
# Poissons Ratio (x) = 0.06551 0.07772
# Poissons Ratio (y) = 0.18051 0.18024
# Poissons Ratio (z) = 0.17588 0.14804
#
# Static dielectric constant tensor:
#      x y z
#    x 2.351460 0.019130 -0.025430 
#    y 0.019130 2.312820 -0.000220 
#    z -0.025430 -0.000220 2.442950 
# 
# From -- ./inp_files/134127.got.cif
#   From: 2010.05.17/outbox.cif.g08.bks.cpg/sg2_68_cif.got.tgz:134127.got - 2010.06.03 11:33:40.
