data_PCOD9004942
_publ_section_title
;
Structure prediction by ZEFSAII (Michael W. Deem and Ramdas Pophale) SiO2 
 PCOD9004942
Probable space group: P -1
;
_chemical_formula_sum "Si O2"
_cell_formula_units_Z 16
_cell_length_a 8.873750
_cell_length_b 8.097730
_cell_length_c 11.425800
_cell_angle_alpha 69.967625
_cell_angle_beta 76.748832
_cell_angle_gamma 96.127404
_cell_volume 735.247869
_symmetry_space_group_name_H-M "P -1"
_symmetry_group_IT_number 2
_symmetry_cell_setting 'triclinic'
loop_
_space_group_symop_operation_xyz
x,y,z
-x,-y,-z
loop_
_atom_site_type_symbol
_atom_site_label
_atom_site_fract_x
_atom_site_fract_y
_atom_site_fract_z
Si Si1 0.854829 0.385627 0.131028
Si Si2 0.947055 0.092770 0.343602
Si Si3 0.819228 0.903812 0.074096
Si Si4 0.080304 0.369806 0.725448
Si Si5 0.737766 0.450121 0.794748
Si Si6 0.401935 0.810068 0.942970
Si Si7 0.130288 0.291749 0.475959
Si Si8 0.748128 0.808869 0.852994
O O1 0.892015 0.199464 0.219705
O O2 0.834509 0.483874 0.232188
O O3 0.699987 0.332707 0.092967
O O4 0.000000 0.500000 0.000000
O O5 0.996410 0.227971 0.413290
O O6 0.113082 0.054662 0.272144
O O7 0.838767 0.906364 0.448891
O O8 0.836311 0.792474 0.213529
O O9 0.695229 0.032775 0.070568
O O10 0.780508 0.793293 0.987993
O O11 0.000000 0.000000 0.000000
O O12 0.088264 0.378445 0.582709
O O13 0.895822 0.364926 0.790534
O O14 0.739393 0.554840 0.646637
O O15 0.747151 0.618009 0.839952
O O16 0.603180 0.291896 0.906169
O O17 0.580483 0.864131 0.856629
#
# Coordination Sequence:
#
# PCOD9004942 Si02
#       8
#     2   2   2   2   2   2   2   2
#     4  12  20  37  61  94 122 158 210 256 308 354
#     4  10  21  38  66  90 124 160 208 261 299 368
#     4  12  23  38  64  93 123 159 206 260 304 363
#     4  12  21  35  63  91 124 153 209 267 292 356
#     4  11  22  38  62  92 123 165 203 257 298 369
#     4  12  24  39  63  94 130 160 195 259 324 371
#     4  10  21  38  59  96 120 160 213 257 297 349
#     4  11  23  41  61  95 127 161 196 252 331 370
#
# _framework density 21.761372000000001
#
# number of rings (size 3 to 8) (size 9 to 14) (size 15 to 20)
#    0.000    0.750    5.000    4.875    0.000    0.000 
#    0.000    0.000    0.000   25.500    0.000    0.000 
#    0.000    0.000    0.000    0.000    0.000    0.000 
#
# Total GULP energy -89240.317611 kJ/mol
# GULP energy per Si atom -5577.519851 kJ/mol
# Density = 2.171184 g / cm^3
# Si number density = 21.761372 Si / 1000 Ang^3
#
#
#
# Elastic Constant Matrix: (Units=GPa)
#
#
# Indices 1 2 3 4 5 6 
#
# 1 73.9118 21.3143 40.5075 2.2876 -2.2950 -6.7436
# 2 21.3143 81.7237 45.0382 11.9466 3.1327 -12.6962
# 3 40.5075 45.0382 131.8274 5.1514 20.7467 -7.8132
# 4 2.2876 11.9466 5.1514 54.6666 -1.3330 13.0094
# 5 -2.2950 3.1327 20.7467 -1.3330 25.9758 1.3721
# 6 -6.7436 -12.6962 -7.8132 13.0094 1.3721 25.1796
#
#
#
# Elastic Compliance Matrix: (Units=1/GPa)
#
#
# Indices 1 2 3 4 5 6 
#
# 1 0.017441 -0.001250 -0.005775 -0.000247 0.006183 0.002039
# 2 -0.001250 0.017635 -0.004979 -0.005663 0.000927 0.009887
# 3 -0.005775 -0.004979 0.012691 -0.000245 -0.010088 0.000557
# 4 -0.000247 -0.005663 -0.000245 0.023241 0.002850 -0.015160
# 5 0.006183 0.000927 -0.010088 0.002850 0.047403 -0.005063
# 6 0.002039 0.009887 0.000557 -0.015160 -0.005063 0.053528
#
#
# Mechanical properties :
#
#
# Convention : Reuss Voigt Hill
#
# Bulk Modulus (GPa) = 42.09004 55.68698 48.88851
# Shear Modulus (GPa) = 24.52585 33.20459 28.86522
#
# Velocity S-wave (km/s) = 3.36078 3.91045 3.64599
# Velocity P-wave (km/s) = 5.86885 6.78485 6.34341
#
# Compressibility (1/GPa) = 0.02375859
#
# Stress axis : x y z
#
# Youngs Moduli (GPa) = 57.33722 56.70605 78.79343
#
# Poissons Ratio (x) = 0.07091 0.45499
# Poissons Ratio (y) = 0.07170 0.39233
# Poissons Ratio (z) = 0.33110 0.28235
#
# Static dielectric constant tensor:
#      x y z
#    x 1.777080 -0.005500 0.028980 
#    y -0.005500 1.925750 -0.048270 
#    z 0.028980 -0.048270 1.842100 
# 
# From -- ./inp_files/378243.got.cif
#   From: 2010.05.17/outbox.cif.g08.bks.cpg/sg2_190_cif.got.tgz:378243.got - 2010.06.03 11:33:40.
