data_PCOD9004729
_publ_section_title
;
Structure prediction by ZEFSAII (Michael W. Deem and Ramdas Pophale) SiO2 
 PCOD9004729
Probable space group: P -1
;
_chemical_formula_sum "Si O2"
_cell_formula_units_Z 16
_cell_length_a 14.434536
_cell_length_b 9.371636
_cell_length_c 13.768129
_cell_angle_alpha 44.109056
_cell_angle_beta 50.186842
_cell_angle_gamma 29.198521
_cell_volume 631.902227
_symmetry_space_group_name_H-M "P -1"
_symmetry_group_IT_number 2
_symmetry_cell_setting 'triclinic'
loop_
_space_group_symop_operation_xyz
x,y,z
-x,-y,-z
loop_
_atom_site_type_symbol
_atom_site_label
_atom_site_fract_x
_atom_site_fract_y
_atom_site_fract_z
Si Si1 0.442637 0.923329 0.859810
Si Si2 0.694972 0.137635 0.504488
Si Si3 0.259186 0.368585 0.030049
Si Si4 0.777876 0.991713 0.875669
Si Si5 0.241120 0.551435 0.273505
Si Si6 0.031083 0.596130 0.242655
Si Si7 0.188398 0.598205 0.758669
Si Si8 0.315955 0.096931 0.563680
O O1 0.597103 0.747065 0.927945
O O2 0.559275 0.723165 0.783639
O O3 0.334757 0.280269 0.749961
O O4 0.295283 0.961469 0.989354
O O5 0.500000 0.500000 0.500000
O O6 0.835329 0.147061 0.392998
O O7 0.811199 0.796278 0.646584
O O8 0.644419 0.122848 0.438010
O O9 0.063701 0.608176 0.103190
O O10 0.301379 0.082477 0.103207
O O11 0.261573 0.504627 0.866441
O O12 0.733751 0.288640 0.751835
O O13 0.001909 0.705538 0.844868
O O14 0.087125 0.723618 0.206703
O O15 0.181855 0.436000 0.433478
O O16 0.816790 0.812608 0.305857
O O17 0.500000 0.000000 0.500000
#
# Coordination Sequence:
#
# PCOD9004729 Si02
#       8
#     2   2   2   2   2   2   2   2
#     4  10  21  38  58  85 119 156 193 240 297 353
#     4  11  23  42  66  89 118 161 203 242 296 359
#     4  10  22  38  62  88 118 155 197 244 293 347
#     4  11  21  36  60  89 117 152 196 246 294 348
#     4  10  21  40  60  82 118 160 196 241 299 354
#     4  10  22  44  62  84 123 163 197 243 299 356
#     4  11  21  37  62  90 117 152 197 245 292 349
#     4  11  24  39  60  89 121 157 200 249 298 352
#
# _framework density 25.320374000000001
#
# number of rings (size 3 to 8) (size 9 to 14) (size 15 to 20)
#    0.000    1.500    0.000    8.625    0.000    6.000 
#    0.000    7.500    0.000    0.000    0.000    0.875 
#    0.000    0.000    0.000    0.000    0.000    0.000 
#
# Total GULP energy -89301.447915 kJ/mol
# GULP energy per Si atom -5581.340495 kJ/mol
# Density = 2.526274 g / cm^3
# Si number density = 25.320374 Si / 1000 Ang^3
#
#
#
# Elastic Constant Matrix: (Units=GPa)
#
#
# Indices 1 2 3 4 5 6 
#
# 1 37.0409 11.7665 -0.8964 -1.4758 0.0967 -19.5709
# 2 11.7665 123.1046 8.4035 22.6617 1.4258 -4.0034
# 3 -0.8964 8.4035 61.2321 7.4104 -18.8650 3.1023
# 4 -1.4758 22.6617 7.4104 47.2390 0.6832 -15.2750
# 5 0.0967 1.4258 -18.8650 0.6832 20.2410 4.7211
# 6 -19.5709 -4.0034 3.1023 -15.2750 4.7211 37.9996
#
#
#
# Elastic Compliance Matrix: (Units=1/GPa)
#
#
# Indices 1 2 3 4 5 6 
#
# 1 0.045890 -0.005635 -0.006146 0.015455 -0.013401 0.031420
# 2 -0.005635 0.009679 -0.000374 -0.006174 0.000222 -0.004361
# 3 -0.006146 -0.000374 0.026570 -0.008559 0.027975 -0.012290
# 4 0.015455 -0.006174 -0.008559 0.033702 -0.014193 0.023319
# 5 -0.013401 0.000222 0.027975 -0.014193 0.081845 -0.025036
# 6 0.031420 -0.004361 -0.012290 0.023319 -0.025036 0.055526
#
#
# Mechanical properties :
#
#
# Convention : Reuss Voigt Hill
#
# Bulk Modulus (GPa) = 17.29203 28.88054 23.08629
# Shear Modulus (GPa) = 16.84639 34.56950 25.70795
#
# Velocity S-wave (km/s) = 2.58220 3.69898 3.18984
# Velocity P-wave (km/s) = 3.96667 5.44740 4.76490
#
# Compressibility (1/GPa) = 0.05783011
#
# Stress axis : x y z
#
# Youngs Moduli (GPa) = 21.79116 103.31144 37.63626
#
# Poissons Ratio (x) = 0.58212 0.23130
# Poissons Ratio (y) = 0.12279 0.01409
# Poissons Ratio (z) = 0.13392 0.03868
#
# Static dielectric constant tensor:
#      x y z
#    x 2.026130 -0.082870 0.052840 
#    y -0.082870 2.149470 -0.082600 
#    z 0.052840 -0.082600 2.055650 
# 
# From -- ./inp_files/318059.got.cif
#   From: 2010.05.17/outbox.cif.g08.bks.cpg/sg2_160_cif.got.tgz:318059.got - 2010.06.03 11:33:40.
