data_PCOD9004650
_publ_section_title
;
Structure prediction by ZEFSAII (Michael W. Deem and Ramdas Pophale) SiO2 
 PCOD9004650
Probable space group: P -1
;
_chemical_formula_sum "Si O2"
_cell_formula_units_Z 14
_cell_length_a 8.047574
_cell_length_b 9.123631
_cell_length_c 11.517498
_cell_angle_alpha 116.008376
_cell_angle_beta 124.581898
_cell_angle_gamma 54.434032
_cell_volume 558.887507
_symmetry_space_group_name_H-M "P -1"
_symmetry_group_IT_number 2
_symmetry_cell_setting 'triclinic'
loop_
_space_group_symop_operation_xyz
x,y,z
-x,-y,-z
loop_
_atom_site_type_symbol
_atom_site_label
_atom_site_fract_x
_atom_site_fract_y
_atom_site_fract_z
Si Si1 0.990337 0.402716 0.842368
Si Si2 0.179752 0.989667 0.825798
Si Si3 0.916646 0.335614 0.368533
Si Si4 0.601747 0.607696 0.154666
Si Si5 0.233627 0.827958 0.564638
Si Si6 0.291017 0.324623 0.359525
Si Si7 0.753261 0.008263 0.893819
O O1 0.780287 0.523108 0.718089
O O2 0.020689 0.202291 0.815542
O O3 0.201017 0.380571 0.838286
O O4 0.000000 0.500000 0.000000
O O5 0.322360 0.902308 0.735973
O O6 0.048555 0.864176 0.733612
O O7 0.318201 0.965125 0.989200
O O8 0.136054 0.357853 0.425071
O O9 0.711643 0.484711 0.266849
O O10 0.841549 0.318568 0.463438
O O11 0.413927 0.810296 0.176142
O O12 0.500000 0.500000 0.000000
O O13 0.443668 0.750808 0.535528
O O14 0.000000 0.000000 0.500000
O O15 0.242660 0.170300 0.221155
O O16 0.000000 0.000000 0.000000
#
# Coordination Sequence:
#
# PCOD9004650 Si02
#       7
#     2   2   2   2   2   2   2
#     4  11  23  33  57  92 125 161 195 238 314 375
#     4  10  21  38  56  89 127 151 204 248 295 368
#     4   9  22  40  56  91 121 154 206 250 299 372
#     4  11  21  33  54  83 128 162 190 245 295 372
#     4  10  23  43  65  84 117 165 216 261 299 343
#     4  11  22  38  62  91 124 164 196 251 313 368
#     4  12  20  34  59  92 131 159 193 241 316 380
#
# _framework density 25.049765000000001
#
# number of rings (size 3 to 8) (size 9 to 14) (size 15 to 20)
#    0.857    0.571    4.286    1.714    4.000    1.714 
#    0.000    0.714    0.000    7.714    0.000    0.000 
#    0.000    0.000    0.000    0.000    0.000    0.000 
#
# Total GULP energy -78297.935678 kJ/mol
# GULP energy per Si atom -5592.709691 kJ/mol
# Density = 2.499275 g / cm^3
# Si number density = 25.049765 Si / 1000 Ang^3
#
#
#
# Elastic Constant Matrix: (Units=GPa)
#
#
# Indices 1 2 3 4 5 6 
#
# 1 120.3971 17.9329 36.1126 -33.1634 9.2981 -4.7471
# 2 17.9329 150.9162 38.6816 -32.1576 3.5362 28.3915
# 3 36.1126 38.6816 89.1762 -5.3370 -2.4562 6.6846
# 4 -33.1634 -32.1576 -5.3370 58.8314 -3.4124 -1.6926
# 5 9.2981 3.5362 -2.4562 -3.4124 37.1157 1.2955
# 6 -4.7471 28.3915 6.6846 -1.6926 1.2955 40.7220
#
#
#
# Elastic Compliance Matrix: (Units=1/GPa)
#
#
# Indices 1 2 3 4 5 6 
#
# 1 0.011783 0.001021 -0.005035 0.006632 -0.002837 0.001854
# 2 0.001021 0.009753 -0.003911 0.005342 -0.000751 -0.005793
# 3 -0.005035 -0.003911 0.014841 -0.003510 0.002311 -0.000516
# 4 0.006632 0.005342 -0.003510 0.023285 -0.000213 -0.001400
# 5 -0.002837 -0.000751 0.002311 -0.000213 0.027896 -0.001083
# 6 0.001854 -0.005793 -0.000516 -0.001400 -0.001083 0.028873
#
#
# Mechanical properties :
#
#
# Convention : Reuss Voigt Hill
#
# Bulk Modulus (GPa) = 48.71281 60.66040 54.68661
# Shear Modulus (GPa) = 35.93958 45.18465 40.56212
#
# Velocity S-wave (km/s) = 3.79189 4.25172 4.02837
# Velocity P-wave (km/s) = 6.21771 6.95495 6.59664
#
# Compressibility (1/GPa) = 0.02052848
#
# Stress axis : x y z
#
# Youngs Moduli (GPa) = 84.86807 102.53462 67.37969
#
# Poissons Ratio (x) = -0.10472 0.33924
# Poissons Ratio (y) = -0.08667 0.26351
# Poissons Ratio (z) = 0.42729 0.40099
#
# Static dielectric constant tensor:
#      x y z
#    x 2.104550 -0.055210 -0.063940 
#    y -0.055210 2.020920 0.045550 
#    z -0.063940 0.045550 1.991150 
# 
# From -- ./inp_files/206194.got.cif
#   From: 2010.05.17/outbox.cif.g08.bks.cpg/sg2_104_cif.got.tgz:206194.got - 2010.06.03 11:33:40.
