data_PCOD9004999
_publ_section_title
;
Structure prediction by ZEFSAII (Michael W. Deem and Ramdas Pophale) SiO2 
 PCOD9004999
Probable space group: P -1
;
_chemical_formula_sum "Si O2"
_cell_formula_units_Z 14
_cell_length_a 12.048182
_cell_length_b 13.275194
_cell_length_c 13.070327
_cell_angle_alpha 145.704170
_cell_angle_beta 143.289488
_cell_angle_gamma 35.841041
_cell_volume 632.148311
_symmetry_space_group_name_H-M "P -1"
_symmetry_group_IT_number 2
_symmetry_cell_setting 'triclinic'
loop_
_space_group_symop_operation_xyz
x,y,z
-x,-y,-z
loop_
_atom_site_type_symbol
_atom_site_label
_atom_site_fract_x
_atom_site_fract_y
_atom_site_fract_z
Si Si1 0.400030 0.249153 0.022977
Si Si2 0.021564 0.180508 0.613333
Si Si3 0.327653 0.179240 0.461356
Si Si4 0.002117 0.821601 0.640048
Si Si5 0.802908 0.906725 0.928909
Si Si6 0.544902 0.547401 0.338154
Si Si7 0.314669 0.377695 0.290877
O O1 0.197546 0.220392 0.831555
O O2 0.594291 0.070098 0.964896
O O3 0.384237 0.454469 0.135036
O O4 0.428585 0.264902 0.178564
O O5 0.080858 0.127523 0.493636
O O6 0.815782 0.390113 0.636732
O O7 0.000000 0.000000 0.500000
O O8 0.250182 0.120026 0.249343
O O9 0.432597 0.320271 0.623930
O O10 0.132476 0.256348 0.457377
O O11 0.500000 0.000000 0.500000
O O12 0.231454 0.643680 0.653196
O O13 0.027867 0.008830 0.864080
O O14 0.841957 0.707282 0.852744
O O15 0.532359 0.651677 0.525734
#
# Coordination Sequence:
#
# PCOD9004999 Si02
#       7
#     2   2   2   2   2   2   2
#     4  11  21  38  60  88 119 152 195 245 286 340
#     4  11  24  39  59  90 121 152 192 241 294 345
#     4  11  22  38  60  88 116 149 195 248 291 335
#     4  10  21  41  60  82 119 159 192 236 288 348
#     4  10  22  39  61  88 115 156 200 235 287 351
#     4   9  22  39  59  84 114 156 199 234 288 350
#     4  10  21  38  60  86 119 156 191 235 293 351
#
# _framework density 22.146702000000001
#
# number of rings (size 3 to 8) (size 9 to 14) (size 15 to 20)
#    0.000    1.714    0.000    3.857    0.000    6.857 
#    0.000    7.857    0.000    0.000    0.000    0.000 
#    0.000    0.000    0.000    0.000    0.000    0.000 
#
# Total GULP energy -78295.118434 kJ/mol
# GULP energy per Si atom -5592.508460 kJ/mol
# Density = 2.209630 g / cm^3
# Si number density = 22.146702 Si / 1000 Ang^3
#
#
#
# Elastic Constant Matrix: (Units=GPa)
#
#
# Indices 1 2 3 4 5 6 
#
# 1 131.7123 25.9620 46.6590 5.1823 -1.8485 37.1497
# 2 25.9620 60.7999 19.9093 11.3045 4.0888 39.3816
# 3 46.6590 19.9093 91.4841 17.9169 16.8310 26.8739
# 4 5.1823 11.3045 17.9169 20.2539 7.1877 13.6727
# 5 -1.8485 4.0888 16.8310 7.1877 45.3402 10.3027
# 6 37.1497 39.3816 26.8739 13.6727 10.3027 40.5998
#
#
#
# Elastic Compliance Matrix: (Units=1/GPa)
#
#
# Indices 1 2 3 4 5 6 
#
# 1 0.013294 0.006553 -0.005153 0.008811 0.004854 -0.019308
# 2 0.006553 0.049943 0.000256 0.007286 0.007937 -0.059078
# 3 -0.005153 0.000256 0.017050 -0.011005 -0.004362 -0.002007
# 4 0.008811 0.007286 -0.011005 0.075327 -0.000644 -0.033050
# 5 0.004854 0.007937 -0.004362 -0.000644 0.026861 -0.015853
# 6 -0.019308 -0.059078 -0.002007 -0.033050 -0.015853 0.116085
#
#
# Mechanical properties :
#
#
# Convention : Reuss Voigt Hill
#
# Bulk Modulus (GPa) = 11.96178 52.11744 32.03961
# Shear Modulus (GPa) = 15.47436 34.00317 24.73876
#
# Velocity S-wave (km/s) = 2.64620 3.92262 3.34584
# Velocity P-wave (km/s) = 3.84049 6.64077 5.42444
#
# Compressibility (1/GPa) = 0.08359957
#
# Stress axis : x y z
#
# Youngs Moduli (GPa) = 75.22466 20.02263 58.64952
#
# Poissons Ratio (x) = -0.13120 0.30221
# Poissons Ratio (y) = -0.49292 -0.01503
# Poissons Ratio (z) = 0.38762 -0.00513
#
# Static dielectric constant tensor:
#      x y z
#    x 1.872400 -0.015970 0.034470 
#    y -0.015970 1.818260 0.045600 
#    z 0.034470 0.045600 1.836360 
# 
# From -- ./inp_files/201732.got.cif
#   From: 2010.05.17/outbox.cif.g08.bks.cpg/sg2_101_cif.got.tgz:201732.got - 2010.06.03 11:33:40.
