data_PCOD9004054
_publ_section_title
;
Structure prediction by ZEFSAII (Michael W. Deem and Ramdas Pophale) SiO2 
 PCOD9004054
Probable space group: P -1
;
_chemical_formula_sum "Si O2"
_cell_formula_units_Z 16
_cell_length_a 9.241027
_cell_length_b 17.696533
_cell_length_c 13.143044
_cell_angle_alpha 145.080701
_cell_angle_beta 142.485657
_cell_angle_gamma 41.998999
_cell_volume 722.203671
_symmetry_space_group_name_H-M "P -1"
_symmetry_group_IT_number 2
_symmetry_cell_setting 'triclinic'
loop_
_space_group_symop_operation_xyz
x,y,z
-x,-y,-z
loop_
_atom_site_type_symbol
_atom_site_label
_atom_site_fract_x
_atom_site_fract_y
_atom_site_fract_z
Si Si1 0.085881 0.388032 0.057366
Si Si2 0.650650 0.651997 0.160154
Si Si3 0.806230 0.210034 0.572713
Si Si4 0.176500 0.071523 0.475716
Si Si5 0.452970 0.198565 0.541109
Si Si6 0.965376 0.120313 0.194459
Si Si7 0.576381 0.603248 0.577028
Si Si8 0.570095 0.377370 0.195240
O O1 0.241823 0.332101 0.185068
O O2 0.286388 0.414899 0.118282
O O3 0.885611 0.523798 0.133205
O O4 0.951750 0.290960 0.815392
O O5 0.735766 0.788688 0.328184
O O6 0.550068 0.677199 0.246610
O O7 0.443882 0.637984 0.949663
O O8 0.589855 0.191678 0.503889
O O9 0.664564 0.293742 0.489338
O O10 0.001212 0.084690 0.490707
O O11 0.027729 0.064415 0.281479
O O12 0.403501 0.940196 0.473612
O O13 0.172514 0.198123 0.370443
O O14 0.707680 0.233448 0.163872
O O15 0.000000 0.000000 0.000000
O O16 0.500000 0.500000 0.500000
O O17 0.684453 0.498668 0.429946
#
# Coordination Sequence:
#
# PCOD9004054 Si02
#       8
#     2   2   2   2   2   2   2   2
#     4  11  22  39  69 102 127 169 218 277 332 380
#     4  11  20  40  69  94 126 170 230 270 321 387
#     4  12  24  44  66  98 141 170 214 276 333 397
#     4  11  21  42  68  91 125 177 229 265 317 395
#     4  11  26  43  62  95 134 179 215 269 342 385
#     4  11  23  42  67  97 128 171 227 276 316 390
#     4  10  21  37  63  99 127 163 219 264 320 382
#     4  11  19  37  66  99 125 162 227 278 315 378
#
# _framework density 22.154413999999999
#
# number of rings (size 3 to 8) (size 9 to 14) (size 15 to 20)
#    0.000    1.000    2.500    8.250    0.000    0.500 
#    4.500    1.875    0.000    0.000    0.000    0.000 
#    0.000    0.000    0.000    0.000    0.000    0.000 
#
# Total GULP energy -89412.276896 kJ/mol
# GULP energy per Si atom -5588.267306 kJ/mol
# Density = 2.210399 g / cm^3
# Si number density = 22.154414 Si / 1000 Ang^3
#
#
#
# Elastic Constant Matrix: (Units=GPa)
#
#
# Indices 1 2 3 4 5 6 
#
# 1 90.1481 -2.7210 3.1300 0.2871 -16.4645 -12.8000
# 2 -2.7210 79.9099 13.9992 -9.5491 -4.5190 -25.0321
# 3 3.1300 13.9992 122.7470 -16.9403 -34.5773 -1.0867
# 4 0.2871 -9.5491 -16.9403 30.4157 -6.5673 -11.8814
# 5 -16.4645 -4.5190 -34.5773 -6.5673 26.5231 5.7528
# 6 -12.8000 -25.0321 -1.0867 -11.8814 5.7528 27.1679
#
#
#
# Elastic Compliance Matrix: (Units=1/GPa)
#
#
# Indices 1 2 3 4 5 6 
#
# 1 0.019260 0.010926 0.009103 0.023438 0.026240 0.024200
# 2 0.010926 0.031524 0.007451 0.036425 0.020910 0.045994
# 3 0.009103 0.007451 0.022786 0.030211 0.040483 0.016705
# 4 0.023438 0.036425 0.030211 0.106239 0.069630 0.077531
# 5 0.026240 0.020910 0.040483 0.069630 0.119231 0.038452
# 6 0.024200 0.045994 0.016705 0.077531 0.038452 0.117021
#
#
# Mechanical properties :
#
#
# Convention : Reuss Voigt Hill
#
# Bulk Modulus (GPa) = 7.78023 35.73572 21.75797
# Shear Modulus (GPa) = 12.37791 35.38110 23.87951
#
# Velocity S-wave (km/s) = 2.36627 4.00061 3.28665
# Velocity P-wave (km/s) = 3.31438 6.12415 4.92393
#
# Compressibility (1/GPa) = 0.12853098
#
# Stress axis : x y z
#
# Youngs Moduli (GPa) = 51.91998 31.72189 43.88623
#
# Poissons Ratio (x) = -0.34661 -0.39951
# Poissons Ratio (y) = -0.56730 -0.32698
# Poissons Ratio (z) = -0.47264 -0.23635
#
# Static dielectric constant tensor:
#      x y z
#    x 1.866320 0.031810 -0.024040 
#    y 0.031810 1.826980 -0.015090 
#    z -0.024040 -0.015090 1.862880 
# 
# From -- ./inp_files/304212.got.cif
#   From: 2010.05.17/outbox.cif.g08.bks.cpg/sg2_153_cif.got.tgz:304212.got - 2010.06.03 11:33:40.
