data_PCOD9004121
_publ_section_title
;
Structure prediction by ZEFSAII (Michael W. Deem and Ramdas Pophale) SiO2 
 PCOD9004121
Probable space group: P -1
;
_chemical_formula_sum "Si O2"
_cell_formula_units_Z 16
_cell_length_a 10.212718
_cell_length_b 14.327982
_cell_length_c 8.521864
_cell_angle_alpha 85.613823
_cell_angle_beta 63.980787
_cell_angle_gamma 45.261528
_cell_volume 741.416114
_symmetry_space_group_name_H-M "P -1"
_symmetry_group_IT_number 2
_symmetry_cell_setting 'triclinic'
loop_
_space_group_symop_operation_xyz
x,y,z
-x,-y,-z
loop_
_atom_site_type_symbol
_atom_site_label
_atom_site_fract_x
_atom_site_fract_y
_atom_site_fract_z
Si Si1 0.951325 0.625892 0.727101
Si Si2 0.032130 0.373222 0.616902
Si Si3 0.413854 0.426419 0.643697
Si Si4 0.446101 0.127601 0.567536
Si Si5 0.295234 0.828094 0.712929
Si Si6 0.820468 0.141518 0.869848
Si Si7 0.556872 0.772119 0.139252
Si Si8 0.337252 0.592182 0.216451
O O1 0.862249 0.704631 0.596843
O O2 0.015517 0.489274 0.657964
O O3 0.175770 0.564546 0.679164
O O4 0.762458 0.712304 0.943212
O O5 0.182272 0.259704 0.687934
O O6 0.798379 0.438127 0.709226
O O7 0.587180 0.306599 0.438192
O O8 0.373042 0.355538 0.786896
O O9 0.530142 0.446336 0.691026
O O10 0.543184 0.160248 0.395720
O O11 0.525077 0.116997 0.699912
O O12 0.500000 0.000000 0.500000
O O13 0.253627 0.815301 0.914520
O O14 0.058413 0.978555 0.757962
O O15 0.638645 0.164936 0.878906
O O16 0.812371 0.245814 0.772710
O O17 0.500000 0.500000 0.000000
#
# Coordination Sequence:
#
# PCOD9004121 Si02
#       8
#     2   2   2   2   2   2   2   2
#     4  11  22  40  66  90 124 161 209 246 306 373
#     4  11  23  39  62  92 123 164 197 259 305 358
#     4  10  22  39  65  89 122 165 203 253 300 371
#     4  11  23  39  62  90 127 160 207 251 308 364
#     4  10  21  42  64  90 117 169 208 248 306 364
#     4  10  22  41  65  87 124 159 211 255 301 370
#     4  10  21  37  64  92 116 164 206 251 300 369
#     4  11  25  39  60  93 127 160 203 257 308 357
#
# _framework density 21.580324000000001
#
# number of rings (size 3 to 8) (size 9 to 14) (size 15 to 20)
#    0.000    1.500    2.500    3.375    5.250    6.000 
#    0.000    3.750    0.000    0.000    0.000    0.000 
#    0.000    0.000    0.000    0.000    0.000    0.000 
#
# Total GULP energy -89381.756647 kJ/mol
# GULP energy per Si atom -5586.359790 kJ/mol
# Density = 2.153121 g / cm^3
# Si number density = 21.580324 Si / 1000 Ang^3
#
#
#
# Elastic Constant Matrix: (Units=GPa)
#
#
# Indices 1 2 3 4 5 6 
#
# 1 102.8008 16.7583 9.1799 -3.3926 5.7732 -24.4663
# 2 16.7583 38.5209 -11.4112 -0.2996 8.0868 -15.2046
# 3 9.1799 -11.4112 76.1990 -6.8848 -6.5472 -11.3431
# 4 -3.3926 -0.2996 -6.8848 21.9970 -1.8898 -2.0174
# 5 5.7732 8.0868 -6.5472 -1.8898 25.8425 0.3996
# 6 -24.4663 -15.2046 -11.3431 -2.0174 0.3996 37.0759
#
#
#
# Elastic Compliance Matrix: (Units=1/GPa)
#
#
# Indices 1 2 3 4 5 6 
#
# 1 0.011989 -0.002261 -0.000756 0.002031 -0.002120 0.006886
# 2 -0.002261 0.037908 0.007948 0.003390 -0.009355 0.016771
# 3 -0.000756 0.007948 0.016333 0.006027 0.002136 0.008062
# 4 0.002031 0.003390 0.006027 0.048662 0.003460 0.007185
# 5 -0.002120 -0.009355 0.002136 0.003460 0.042966 -0.004857
# 6 0.006886 0.016771 0.008062 0.007185 -0.004857 0.041303
#
#
# Mechanical properties :
#
#
# Convention : Reuss Voigt Hill
#
# Bulk Modulus (GPa) = 13.14197 27.39717 20.26957
# Shear Modulus (GPa) = 23.29225 30.51601 26.90413
#
# Velocity S-wave (km/s) = 3.28888 3.76449 3.53469
# Velocity P-wave (km/s) = 4.53049 5.62300 5.10605
#
# Compressibility (1/GPa) = 0.07609208
#
# Stress axis : x y z
#
# Youngs Moduli (GPa) = 83.41252 26.37965 61.22506
#
# Poissons Ratio (x) = 0.05964 0.04632
# Poissons Ratio (y) = 0.18857 -0.48664
# Poissons Ratio (z) = 0.06310 -0.20967
#
# Static dielectric constant tensor:
#      x y z
#    x 1.768170 0.011930 -0.013210 
#    y 0.011930 1.831860 -0.079480 
#    z -0.013210 -0.079480 1.867430 
# 
# From -- ./inp_files/189260.got.cif
#   From: 2010.05.17/outbox.cif.g08.bks.cpg/sg2_95_cif.got.tgz:189260.got - 2010.06.03 11:33:40.
