data_PCOD9004626
_publ_section_title
;
Structure prediction by ZEFSAII (Michael W. Deem and Ramdas Pophale) SiO2 
 PCOD9004626
Probable space group: P -1
;
_chemical_formula_sum "Si O2"
_cell_formula_units_Z 14
_cell_length_a 8.257897
_cell_length_b 6.500616
_cell_length_c 15.912573
_cell_angle_alpha 114.153134
_cell_angle_beta 111.876120
_cell_angle_gamma 55.358872
_cell_volume 630.005844
_symmetry_space_group_name_H-M "P -1"
_symmetry_group_IT_number 2
_symmetry_cell_setting 'triclinic'
loop_
_space_group_symop_operation_xyz
x,y,z
-x,-y,-z
loop_
_atom_site_type_symbol
_atom_site_label
_atom_site_fract_x
_atom_site_fract_y
_atom_site_fract_z
Si Si1 0.816087 0.605498 0.693610
Si Si2 0.413590 0.683624 0.433434
Si Si3 0.727313 0.271650 0.012690
Si Si4 0.115779 0.617303 0.094222
Si Si5 0.216993 0.264690 0.483974
Si Si6 0.618117 0.891140 0.867001
Si Si7 0.172799 0.332564 0.814313
O O1 0.699152 0.443606 0.657437
O O2 0.762898 0.737734 0.614447
O O3 0.743700 0.805748 0.790263
O O4 0.054397 0.411025 0.716693
O O5 0.500000 0.500000 0.500000
O O6 0.607446 0.690017 0.435442
O O7 0.258573 0.983114 0.473240
O O8 0.842124 0.217038 0.936533
O O9 0.696605 0.023807 0.973145
O O10 0.500000 0.500000 0.000000
O O11 0.820108 0.408081 0.111723
O O12 0.329570 0.380509 0.125530
O O13 0.973089 0.727279 0.165044
O O14 0.000000 0.500000 0.000000
O O15 0.000000 0.500000 0.500000
O O16 0.393020 0.092291 0.829770
#
# Coordination Sequence:
#
# PCOD9004626 Si02
#       7
#     2   2   2   2   2   2   2
#     4  10  22  37  57  89 120 150 195 247 298 356
#     4   9  21  41  61  87 121 151 189 242 300 362
#     4   9  19  36  56  79 112 158 201 237 285 338
#     4   9  19  34  53  78 105 145 202 246 287 344
#     4  10  22  41  67  91 115 156 199 239 301 374
#     4  10  21  38  56  79 120 160 194 248 299 341
#     4   9  20  36  55  82 115 157 202 245 292 343
#
# _framework density 22.222017000000001
#
# number of rings (size 3 to 8) (size 9 to 14) (size 15 to 20)
#    0.000    2.571    0.000    0.000    0.000   19.429 
#    0.000   10.000    0.000    0.000    0.000    0.000 
#    0.000    0.000    0.000    0.000    0.000    0.000 
#
# Total GULP energy -77981.427639 kJ/mol
# GULP energy per Si atom -5570.101974 kJ/mol
# Density = 2.217144 g / cm^3
# Si number density = 22.222017 Si / 1000 Ang^3
#
#
#
# Elastic Constant Matrix: (Units=GPa)
#
#
# Indices 1 2 3 4 5 6 
#
# 1 52.6087 30.3067 16.2657 2.9429 18.0180 -21.5144
# 2 30.3067 134.0563 24.9788 -5.2516 15.6265 -28.8392
# 3 16.2657 24.9788 73.5821 -5.5108 27.8957 -6.9930
# 4 2.9429 -5.2516 -5.5108 33.7492 -1.3717 3.6285
# 5 18.0180 15.6265 27.8957 -1.3717 34.3197 -5.6180
# 6 -21.5144 -28.8392 -6.9930 3.6285 -5.6180 39.3080
#
#
#
# Elastic Compliance Matrix: (Units=1/GPa)
#
#
# Indices 1 2 3 4 5 6 
#
# 1 0.030816 -0.002753 -0.000116 -0.005103 -0.012831 0.013463
# 2 -0.002753 0.009621 -0.001917 0.000859 -0.000515 0.005058
# 3 -0.000116 -0.001917 0.020305 0.002429 -0.015522 -0.000301
# 4 -0.005103 0.000859 0.002429 0.031121 0.000823 -0.004486
# 5 -0.012831 -0.000515 -0.015522 0.000823 0.048210 -0.003347
# 6 0.013463 0.005058 -0.000301 -0.004486 -0.003347 0.036402
#
#
# Mechanical properties :
#
#
# Convention : Reuss Voigt Hill
#
# Bulk Modulus (GPa) = 19.54308 44.81663 32.17985
# Shear Modulus (GPa) = 24.61800 34.05514 29.33657
#
# Velocity S-wave (km/s) = 3.33200 3.91896 3.63734
# Velocity P-wave (km/s) = 4.85969 6.37880 5.67035
#
# Compressibility (1/GPa) = 0.05116900
#
# Stress axis : x y z
#
# Youngs Moduli (GPa) = 32.45096 103.94025 49.24953
#
# Poissons Ratio (x) = 0.28615 0.00570
# Poissons Ratio (y) = 0.08934 0.09443
# Poissons Ratio (z) = 0.00376 0.19929
#
# Static dielectric constant tensor:
#      x y z
#    x 1.865780 0.009600 0.007450 
#    y 0.009600 1.868130 -0.010270 
#    z 0.007450 -0.010270 1.851700 
# 
# From -- ./inp_files/529727.got.cif
#   From: 2010.05.17/outbox.cif.g08.bks.cpg/sg2_265_cif.got.tgz:529727.got - 2010.06.03 11:33:40.
