data_PCOD9004318
_publ_section_title
;
Structure prediction by ZEFSAII (Michael W. Deem and Ramdas Pophale) SiO2 
 PCOD9004318
Probable space group: P -1
;
_chemical_formula_sum "Si O2"
_cell_formula_units_Z 16
_cell_length_a 15.547031
_cell_length_b 9.153320
_cell_length_c 11.556657
_cell_angle_alpha 130.255491
_cell_angle_beta 110.349197
_cell_angle_gamma 41.340481
_cell_volume 797.637018
_symmetry_space_group_name_H-M "P -1"
_symmetry_group_IT_number 2
_symmetry_cell_setting 'triclinic'
loop_
_space_group_symop_operation_xyz
x,y,z
-x,-y,-z
loop_
_atom_site_type_symbol
_atom_site_label
_atom_site_fract_x
_atom_site_fract_y
_atom_site_fract_z
Si Si1 0.218387 0.096120 0.546951
Si Si2 0.489765 0.828786 0.176733
Si Si3 0.344299 0.128281 0.841334
Si Si4 0.049141 0.711276 0.410058
Si Si5 0.763949 0.813760 0.933881
Si Si6 0.658791 0.360976 0.188417
Si Si7 0.535128 0.527458 0.655736
Si Si8 0.283621 0.325760 0.510150
O O1 0.270820 0.117360 0.700948
O O2 0.241970 0.212588 0.515164
O O3 0.071168 0.235123 0.568400
O O4 0.314873 0.766515 0.397413
O O5 0.617305 0.728856 0.120878
O O6 0.556911 0.548049 0.130236
O O7 0.369457 0.990285 0.110674
O O8 0.419781 0.064704 0.367339
O O9 0.493776 0.810357 0.775455
O O10 0.265553 0.228299 0.975230
O O11 0.116373 0.488692 0.222866
O O12 0.166884 0.544854 0.474935
O O13 0.000000 0.000000 0.500000
O O14 0.778740 0.022574 0.055568
O O15 0.567777 0.412548 0.273909
O O16 0.701913 0.505737 0.321347
O O17 0.500000 0.500000 0.500000
#
# Coordination Sequence:
#
# PCOD9004318 Si02
#       8
#     2   2   2   2   2   2   2   2
#     4  11  21  41  64  93 127 167 215 256 309 367
#     4  11  20  38  66 100 133 161 203 254 329 376
#     4  10  21  37  65  96 130 161 207 259 320 374
#     4  11  28  45  65  87 121 173 220 263 307 368
#     4  10  25  42  60  92 134 166 207 262 312 377
#     4  11  20  39  66  98 127 163 200 260 327 373
#     4   9  19  31  60  97 125 155 196 260 307 369
#     4  11  22  40  66  96 127 164 215 257 304 384
#
# _framework density 20.059248
#
# number of rings (size 3 to 8) (size 9 to 14) (size 15 to 20)
#    0.000    1.500    2.500    3.000    8.750    0.500 
#    0.000    1.875    0.000    0.000    0.000    0.000 
#    0.000    0.000    0.000    0.000    0.000    0.000 
#
# Total GULP energy -89284.285705 kJ/mol
# GULP energy per Si atom -5580.267857 kJ/mol
# Density = 2.001359 g / cm^3
# Si number density = 20.059248 Si / 1000 Ang^3
#
#
#
# Elastic Constant Matrix: (Units=GPa)
#
#
# Indices 1 2 3 4 5 6 
#
# 1 57.1351 23.0356 21.4401 2.1465 -2.5812 15.9275
# 2 23.0356 87.9382 35.7945 8.5539 -9.1182 21.5869
# 3 21.4401 35.7945 85.8174 14.3382 -6.0041 12.6153
# 4 2.1465 8.5539 14.3382 30.0413 -0.8581 -5.2737
# 5 -2.5812 -9.1182 -6.0041 -0.8581 20.4966 -4.0877
# 6 15.9275 21.5869 12.6153 -5.2737 -4.0877 35.7951
#
#
#
# Elastic Compliance Matrix: (Units=1/GPa)
#
#
# Indices 1 2 3 4 5 6 
#
# 1 0.021759 -0.002671 -0.003252 -0.000512 -0.000837 -0.007096
# 2 -0.002671 0.016333 -0.004188 -0.003616 0.004106 -0.007249
# 3 -0.003252 -0.004188 0.015748 -0.006457 0.001602 -0.002346
# 4 -0.000512 -0.003616 -0.006457 0.039282 0.000172 0.010491
# 5 -0.000837 0.004106 0.001602 0.000172 0.051635 0.003254
# 6 -0.007096 -0.007249 -0.002346 0.010491 0.003254 0.038210
#
#
# Mechanical properties :
#
#
# Convention : Reuss Voigt Hill
#
# Bulk Modulus (GPa) = 29.74658 43.49235 36.61947
# Shear Modulus (GPa) = 23.32131 27.30796 25.31464
#
# Velocity S-wave (km/s) = 3.41342 3.69367 3.55631
# Velocity P-wave (km/s) = 5.51333 6.31822 5.92945
#
# Compressibility (1/GPa) = 0.03361731
#
# Stress axis : x y z
#
# Youngs Moduli (GPa) = 45.95749 61.22537 63.50119
#
# Poissons Ratio (x) = 0.16355 0.20650
# Poissons Ratio (y) = 0.12277 0.26595
# Poissons Ratio (z) = 0.14945 0.25642
#
# Static dielectric constant tensor:
#      x y z
#    x 1.652400 -0.005270 0.006260 
#    y -0.005270 1.704030 -0.016390 
#    z 0.006260 -0.016390 1.743480 
# 
# From -- ./inp_files/179190.got.cif
#   From: 2010.05.17/outbox.cif.g08.bks.cpg/sg2_90_cif.got.tgz:179190.got - 2010.06.03 11:33:40.
