data_PCOD9004949
_publ_section_title
;
Structure prediction by ZEFSAII (Michael W. Deem and Ramdas Pophale) SiO2 
 PCOD9004949
Probable space group: P -1
;
_chemical_formula_sum "Si O2"
_cell_formula_units_Z 16
_cell_length_a 8.191365
_cell_length_b 11.621965
_cell_length_c 10.753359
_cell_angle_alpha 131.686817
_cell_angle_beta 60.118473
_cell_angle_gamma 116.127998
_cell_volume 653.401500
_symmetry_space_group_name_H-M "P -1"
_symmetry_group_IT_number 2
_symmetry_cell_setting 'triclinic'
loop_
_space_group_symop_operation_xyz
x,y,z
-x,-y,-z
loop_
_atom_site_type_symbol
_atom_site_label
_atom_site_fract_x
_atom_site_fract_y
_atom_site_fract_z
Si Si1 0.151043 0.834312 0.430786
Si Si2 0.119944 0.830399 0.727763
Si Si3 0.736870 0.640737 0.435980
Si Si4 0.300413 0.505229 0.141285
Si Si5 0.334273 0.551833 0.441301
Si Si6 0.711145 0.917515 0.952835
Si Si7 0.307837 0.913890 0.172534
Si Si8 0.938875 0.386433 0.056030
O O1 0.174764 0.888065 0.605159
O O2 0.241823 0.676277 0.270940
O O3 0.248391 0.941098 0.357095
O O4 0.924771 0.771399 0.448327
O O5 0.170544 0.657482 0.592643
O O6 0.230691 0.929070 0.869440
O O7 0.898548 0.839692 0.833530
O O8 0.539865 0.662521 0.462764
O O9 0.687992 0.591954 0.560251
O O10 0.790416 0.476728 0.246999
O O11 0.325127 0.484488 0.260815
O O12 0.126298 0.384813 0.065032
O O13 0.500000 0.500000 0.000000
O O14 0.678063 0.954059 0.845222
O O15 0.506697 0.847761 0.038825
O O16 0.145445 0.780581 0.084344
O O17 0.000000 0.500000 0.000000
#
# Coordination Sequence:
#
# PCOD9004949 Si02
#       8
#     2   2   2   2   2   2   2   2
#     4  10  23  41  66  97 136 168 221 271 334 396
#     4  10  23  48  64  98 127 174 226 288 323 388
#     4  10  21  38  62 101 132 180 208 263 338 406
#     4  10  21  38  60 100 138 172 205 261 333 403
#     4  10  22  38  65  96 138 173 218 268 328 400
#     4  10  25  46  71  91 128 178 235 271 337 371
#     4  11  23  44  69 100 127 182 221 277 318 409
#     4  11  20  38  64  94 134 166 213 258 329 403
#
# _framework density 24.487241000000001
#
# number of rings (size 3 to 8) (size 9 to 14) (size 15 to 20)
#    0.000    1.750    2.500    1.500    0.000   10.500 
#    9.000    0.000    0.000    0.000    0.000    0.000 
#    0.000    0.000    0.000    0.000    0.000    0.000 
#
# Total GULP energy -89572.638098 kJ/mol
# GULP energy per Si atom -5598.289881 kJ/mol
# Density = 2.443151 g / cm^3
# Si number density = 24.487241 Si / 1000 Ang^3
#
#
#
# Elastic Constant Matrix: (Units=GPa)
#
#
# Indices 1 2 3 4 5 6 
#
# 1 128.5040 28.1456 58.8500 -24.1555 -0.5363 8.0165
# 2 28.1456 63.7056 34.1881 -29.0376 4.3101 -2.8212
# 3 58.8500 34.1881 122.3945 -26.4315 4.5452 1.3001
# 4 -24.1555 -29.0376 -26.4315 39.4491 -3.1127 1.4353
# 5 -0.5363 4.3101 4.5452 -3.1127 55.6680 -9.6989
# 6 8.0165 -2.8212 1.3001 1.4353 -9.6989 26.1784
#
#
#
# Elastic Compliance Matrix: (Units=1/GPa)
#
#
# Indices 1 2 3 4 5 6 
#
# 1 0.010723 -0.001340 -0.004113 0.002956 0.000126 -0.003339
# 2 -0.001340 0.025120 -0.003027 0.015524 -0.000451 0.002250
# 3 -0.004113 -0.003027 0.011669 0.003026 -0.000594 -0.000033
# 4 0.002956 0.015524 0.003026 0.040713 0.000614 -0.001387
# 5 0.000126 -0.000451 -0.000594 0.000614 0.019313 0.007064
# 6 -0.003339 0.002250 -0.000033 -0.001387 0.007064 0.042159
#
#
# Mechanical properties :
#
#
# Convention : Reuss Voigt Hill
#
# Bulk Modulus (GPa) = 32.72957 61.88574 47.30765
# Shear Modulus (GPa) = 28.27399 37.15379 32.71389
#
# Velocity S-wave (km/s) = 3.40169 3.89944 3.65904
# Velocity P-wave (km/s) = 5.36876 6.75290 6.10022
#
# Compressibility (1/GPa) = 0.03055341
#
# Stress axis : x y z
#
# Youngs Moduli (GPa) = 93.25607 39.80923 85.69489
#
# Poissons Ratio (x) = 0.05333 0.35243
# Poissons Ratio (y) = 0.12492 0.25942
# Poissons Ratio (z) = 0.38353 0.12051
#
# Static dielectric constant tensor:
#      x y z
#    x 1.952590 -0.031640 0.051170 
#    y -0.031640 1.974640 0.022960 
#    z 0.051170 0.022960 2.008900 
# 
# From -- ./inp_files/399555.got.cif
#   From: 2010.05.17/outbox.cif.g08.bks.cpg/sg2_200_cif.got.tgz:399555.got - 2010.06.03 11:33:40.
