data_PCOD9004905
_publ_section_title
;
Structure prediction by ZEFSAII (Michael W. Deem and Ramdas Pophale) SiO2 
 PCOD9004905
Probable space group: P -1
;
_chemical_formula_sum "Si O2"
_cell_formula_units_Z 14
_cell_length_a 12.289905
_cell_length_b 10.934542
_cell_length_c 8.765725
_cell_angle_alpha 41.143381
_cell_angle_beta 78.669361
_cell_angle_gamma 102.233006
_cell_volume 630.735727
_symmetry_space_group_name_H-M "P -1"
_symmetry_group_IT_number 2
_symmetry_cell_setting 'triclinic'
loop_
_space_group_symop_operation_xyz
x,y,z
-x,-y,-z
loop_
_atom_site_type_symbol
_atom_site_label
_atom_site_fract_x
_atom_site_fract_y
_atom_site_fract_z
Si Si1 0.258816 0.540721 0.189452
Si Si2 0.497273 0.492541 0.189058
Si Si3 0.506271 0.291682 0.641158
Si Si4 0.290110 0.801390 0.213207
Si Si5 0.017278 0.609074 0.640266
Si Si6 0.780173 0.717336 0.839187
Si Si7 0.053302 0.818391 0.766704
O O1 0.373641 0.509450 0.247507
O O2 0.290939 0.753616 0.078033
O O3 0.260684 0.504983 0.039262
O O4 0.099165 0.373815 0.417995
O O5 0.476507 0.280313 0.480072
O O6 0.500000 0.500000 0.000000
O O7 0.654683 0.678379 0.002533
O O8 0.500000 0.500000 0.500000
O O9 0.644904 0.315850 0.609398
O O10 0.391843 0.064316 0.965244
O O11 0.143609 0.702310 0.410201
O O12 0.061452 0.736720 0.670925
O O13 0.950998 0.349438 0.951447
O O14 0.909123 0.786073 0.838368
O O15 0.830757 0.918787 0.513438
#
# Coordination Sequence:
#
# PCOD9004905 Si02
#       7
#     2   2   2   2   2   2   2
#     4  10  21  39  56  90 129 159 208 261 304 387
#     4  10  21  40  64  92 126 165 215 262 318 372
#     4  11  24  43  67  92 128 167 217 263 312 387
#     4  11  24  42  66  91 130 169 210 260 326 375
#     4  10  21  38  59  89 127 166 206 263 316 376
#     4   9  19  36  62  87 120 165 212 266 313 368
#     4   9  19  37  60  89 123 159 220 261 309 377
#
# _framework density 22.196301999999999
#
# number of rings (size 3 to 8) (size 9 to 14) (size 15 to 20)
#    0.000    2.000    1.429    1.286    2.000    3.429 
#    2.571    5.000    0.000    0.000    0.000    0.000 
#    0.000    0.000    0.000    0.000    0.000    0.000 
#
# Total GULP energy -77939.211128 kJ/mol
# GULP energy per Si atom -5567.086509 kJ/mol
# Density = 2.214578 g / cm^3
# Si number density = 22.196302 Si / 1000 Ang^3
#
#
#
# Elastic Constant Matrix: (Units=GPa)
#
#
# Indices 1 2 3 4 5 6 
#
# 1 168.1969 29.9682 59.6048 5.6565 -33.8181 -25.8673
# 2 29.9682 74.0375 20.2676 -1.5265 -7.3357 -13.0552
# 3 59.6048 20.2676 81.9596 -1.8813 -11.6790 -20.3828
# 4 5.6565 -1.5265 -1.8813 20.7663 -2.6384 2.5191
# 5 -33.8181 -7.3357 -11.6790 -2.6384 33.3088 9.1131
# 6 -25.8673 -13.0552 -20.3828 2.5191 9.1131 20.4257
#
#
#
# Elastic Compliance Matrix: (Units=1/GPa)
#
#
# Indices 1 2 3 4 5 6 
#
# 1 0.010089 -0.001346 -0.005059 -0.002953 0.006789 0.004203
# 2 -0.001346 0.015614 -0.001112 0.000506 -0.000252 0.007215
# 3 -0.005059 -0.001112 0.019034 0.001223 -0.002072 0.012650
# 4 -0.002953 0.000506 0.001223 0.050940 0.004439 -0.010458
# 5 0.006789 -0.000252 -0.002072 0.004439 0.039743 -0.011910
# 6 0.004203 0.007215 0.012650 -0.010458 -0.011910 0.078119
#
#
# Mechanical properties :
#
#
# Convention : Reuss Voigt Hill
#
# Bulk Modulus (GPa) = 33.66778 60.43058 47.04918
# Shear Modulus (GPa) = 20.96669 29.19040 25.07855
#
# Velocity S-wave (km/s) = 3.07677 3.63037 3.36497
# Velocity P-wave (km/s) = 5.27477 6.69757 6.02829
#
# Compressibility (1/GPa) = 0.02970199
#
# Stress axis : x y z
#
# Youngs Moduli (GPa) = 99.12018 64.04659 52.53668
#
# Poissons Ratio (x) = 0.08619 0.26580
# Poissons Ratio (y) = 0.13339 0.05843
# Poissons Ratio (z) = 0.50149 0.07123
#
# Static dielectric constant tensor:
#      x y z
#    x 1.864350 0.018660 0.020020 
#    y 0.018660 1.950390 0.032410 
#    z 0.020020 0.032410 1.839600 
# 
# From -- ./inp_files/255772.got.cif
#   From: 2010.05.17/outbox.cif.g08.bks.cpg/sg2_128_cif.got.tgz:255772.got - 2010.06.03 11:33:40.
