data_PCOD9004641
_publ_section_title
;
Structure prediction by ZEFSAII (Michael W. Deem and Ramdas Pophale) SiO2 
 PCOD9004641
Probable space group: P -1
;
_chemical_formula_sum "Si O2"
_cell_formula_units_Z 16
_cell_length_a 11.351770
_cell_length_b 11.799477
_cell_length_c 5.301450
_cell_angle_alpha 97.075073
_cell_angle_beta 83.573339
_cell_angle_gamma 107.780427
_cell_volume 668.956360
_symmetry_space_group_name_H-M "P -1"
_symmetry_group_IT_number 2
_symmetry_cell_setting 'triclinic'
loop_
_space_group_symop_operation_xyz
x,y,z
-x,-y,-z
loop_
_atom_site_type_symbol
_atom_site_label
_atom_site_fract_x
_atom_site_fract_y
_atom_site_fract_z
Si Si1 0.619853 0.954654 0.647593
Si Si2 0.099883 0.648618 0.237162
Si Si3 0.476814 0.853745 0.148666
Si Si4 0.163456 0.559059 0.698043
Si Si5 0.968289 0.841330 0.212122
Si Si6 0.643099 0.584355 0.495438
Si Si7 0.429618 0.359768 0.966938
Si Si8 0.859311 0.885485 0.744227
O O1 0.579585 0.914716 0.359560
O O2 0.734176 0.915572 0.710143
O O3 0.634352 0.095694 0.721844
O O4 0.512668 0.894421 0.862339
O O5 0.157089 0.651989 0.503759
O O6 0.969513 0.542193 0.270609
O O7 0.060337 0.760400 0.172626
O O8 0.182953 0.614629 0.988644
O O9 0.475417 0.717053 0.106712
O O10 0.265056 0.495574 0.570238
O O11 0.896171 0.814700 0.485716
O O12 0.881020 0.826682 0.985278
O O13 0.043863 0.980955 0.235272
O O14 0.500000 0.500000 0.500000
O O15 0.649893 0.661620 0.765382
O O16 0.654375 0.662044 0.264512
O O17 0.500000 0.500000 0.000000
#
# Coordination Sequence:
#
# PCOD9004641 Si02
#       8
#     2   2   2   2   2   2   2   2
#     4  10  21  38  59  88 118 158 201 243 302 353
#     4  10  21  38  60  86 113 159 195 245 299 354
#     4  10  21  38  60  85 123 156 200 248 288 365
#     4  10  21  38  58  84 122 150 203 243 288 363
#     4  10  21  38  60  85 119 147 196 249 305 357
#     4  10  21  38  56  84 122 160 194 249 296 359
#     4  10  21  38  59  83 123 158 198 247 299 358
#     4  10  21  38  58  87 118 147 195 252 297 363
#
# _framework density 23.917850999999999
#
# number of rings (size 3 to 8) (size 9 to 14) (size 15 to 20)
#    0.000    2.000    0.000    3.000    0.000    3.000 
#    9.000    0.000    0.000    0.000    0.000    0.000 
#    0.000    0.000    0.000    0.000    0.000    0.000 
#
# Total GULP energy -89383.121951 kJ/mol
# GULP energy per Si atom -5586.445122 kJ/mol
# Density = 2.386341 g / cm^3
# Si number density = 23.917851 Si / 1000 Ang^3
#
#
#
# Elastic Constant Matrix: (Units=GPa)
#
#
# Indices 1 2 3 4 5 6 
#
# 1 85.6742 24.5528 44.7820 1.7992 3.0377 -26.7796
# 2 24.5528 120.4633 41.2940 9.4439 0.2320 -31.9720
# 3 44.7820 41.2940 193.3891 -8.4404 15.9708 -15.7442
# 4 1.7992 9.4439 -8.4404 39.9070 -16.0320 -2.7537
# 5 3.0377 0.2320 15.9708 -16.0320 27.7493 0.3087
# 6 -26.7796 -31.9720 -15.7442 -2.7537 0.3087 43.5429
#
#
#
# Elastic Compliance Matrix: (Units=1/GPa)
#
#
# Indices 1 2 3 4 5 6 
#
# 1 0.016002 0.000206 -0.003016 -0.001100 -0.000752 0.008838
# 2 0.000206 0.011094 -0.001873 -0.002819 -0.000748 0.007422
# 3 -0.003016 -0.001873 0.006478 0.000700 -0.002969 -0.000823
# 4 -0.001100 -0.002819 0.000700 0.033581 0.019148 -0.000506
# 5 -0.000752 -0.000748 -0.002969 0.019148 0.048910 -0.001221
# 6 0.008838 0.007422 -0.000823 -0.000506 -0.001221 0.033530
#
#
# Mechanical properties :
#
#
# Convention : Reuss Voigt Hill
#
# Bulk Modulus (GPa) = 41.31154 68.97602 55.14378
# Shear Modulus (GPa) = 29.93465 41.49969 35.71717
#
# Velocity S-wave (km/s) = 3.54158 4.16996 3.86855
# Velocity P-wave (km/s) = 5.83382 7.21707 6.56200
#
# Compressibility (1/GPa) = 0.02420631
#
# Stress axis : x y z
#
# Youngs Moduli (GPa) = 62.49341 90.13962 154.36700
#
# Poissons Ratio (x) = -0.01853 0.46553
# Poissons Ratio (y) = -0.01285 0.28920
# Poissons Ratio (z) = 0.18847 0.16887
#
# Static dielectric constant tensor:
#      x y z
#    x 1.918090 -0.046600 -0.221930 
#    y -0.046600 1.884520 0.015400 
#    z -0.221930 0.015400 2.394090 
# 
# From -- ./inp_files/70455.got.cif
#   From: 2010.05.17/outbox.cif.g08.bks.cpg/sg2_36_cif.got.tgz:70455.got - 2010.06.03 11:33:40.
