data_PCOD9004160
_publ_section_title
;
Structure prediction by ZEFSAII (Michael W. Deem and Ramdas Pophale) SiO2 
 PCOD9004160
Probable space group: P -1
;
_chemical_formula_sum "Si O2"
_cell_formula_units_Z 16
_cell_length_a 9.807973
_cell_length_b 8.161805
_cell_length_c 12.503810
_cell_angle_alpha 129.424437
_cell_angle_beta 76.793617
_cell_angle_gamma 89.602102
_cell_volume 737.198422
_symmetry_space_group_name_H-M "P -1"
_symmetry_group_IT_number 2
_symmetry_cell_setting 'triclinic'
loop_
_space_group_symop_operation_xyz
x,y,z
-x,-y,-z
loop_
_atom_site_type_symbol
_atom_site_label
_atom_site_fract_x
_atom_site_fract_y
_atom_site_fract_z
Si Si1 0.952606 0.373309 0.796136
Si Si2 0.310667 0.798368 0.159094
Si Si3 0.355041 0.531669 0.671561
Si Si4 0.619595 0.725661 0.660090
Si Si5 0.071559 0.854802 0.831895
Si Si6 0.561828 0.595061 0.169281
Si Si7 0.182482 0.226944 0.863470
Si Si8 0.903613 0.547788 0.643756
O O1 0.852294 0.212826 0.790638
O O2 0.944790 0.396888 0.678863
O O3 0.105585 0.300711 0.795110
O O4 0.887309 0.603974 0.961086
O O5 0.403137 0.664495 0.182745
O O6 0.347138 0.034539 0.243908
O O7 0.365792 0.647972 0.983970
O O8 0.460134 0.702157 0.709561
O O9 0.357739 0.381896 0.505540
O O10 0.192871 0.656760 0.768284
O O11 0.419042 0.392942 0.703972
O O12 0.738337 0.579979 0.654890
O O13 0.942625 0.772725 0.765614
O O14 0.152053 0.994603 0.799335
O O15 0.000000 0.000000 0.000000
O O16 0.654385 0.752668 0.163614
O O17 0.000000 0.500000 0.500000
#
# Coordination Sequence:
#
# PCOD9004160 Si02
#       8
#     2   2   2   2   2   2   2   2
#     4  10  21  39  63  92 128 165 209 267 321 378
#     4  10  22  41  64  94 126 166 216 270 327 378
#     4  11  25  44  65  94 131 175 220 265 323 391
#     4  11  25  44  65  91 135 177 215 263 324 398
#     4  12  24  42  70  99 130 174 220 269 325 387
#     4  10  22  40  65  94 128 163 218 274 317 382
#     4  10  21  37  64  94 125 164 213 264 320 380
#     4  12  24  43  65  96 138 171 216 271 324 386
#
# _framework density 21.703789
#
# number of rings (size 3 to 8) (size 9 to 14) (size 15 to 20)
#    0.000    1.250    2.500    3.000    5.250    1.000 
#    2.250    1.250    0.000    0.000    0.000    0.000 
#    0.000    0.000    0.000    0.000    0.000    0.000 
#
# Total GULP energy -89418.181268 kJ/mol
# GULP energy per Si atom -5588.636329 kJ/mol
# Density = 2.165439 g / cm^3
# Si number density = 21.703789 Si / 1000 Ang^3
#
#
#
# Elastic Constant Matrix: (Units=GPa)
#
#
# Indices 1 2 3 4 5 6 
#
# 1 96.5362 -2.8080 19.3490 -3.6592 12.0465 -0.3653
# 2 -2.8080 61.3291 4.0003 -6.4740 9.9777 6.4528
# 3 19.3490 4.0003 54.1080 -20.8665 17.5009 -6.1349
# 4 -3.6592 -6.4740 -20.8665 26.1995 -1.2536 20.5957
# 5 12.0465 9.9777 17.5009 -1.2536 33.1795 1.1391
# 6 -0.3653 6.4528 -6.1349 20.5957 1.1391 39.3891
#
#
#
# Elastic Compliance Matrix: (Units=1/GPa)
#
#
# Indices 1 2 3 4 5 6 
#
# 1 0.011425 0.000970 -0.003993 -0.001671 -0.002406 0.000268
# 2 0.000970 0.021108 0.008153 0.021855 -0.009717 -0.013326
# 3 -0.003993 0.008153 0.043906 0.051978 -0.021472 -0.021092
# 4 -0.001671 0.021855 0.051978 0.134742 -0.026053 -0.065201
# 5 -0.002406 -0.009717 -0.021472 -0.026053 0.043913 0.010578
# 6 0.000268 -0.013326 -0.021092 -0.065201 0.010578 0.058074
#
#
# Mechanical properties :
#
#
# Convention : Reuss Voigt Hill
#
# Bulk Modulus (GPa) = 11.53410 28.11732 19.82571
# Shear Modulus (GPa) = 15.06895 32.51574 23.79234
#
# Velocity S-wave (km/s) = 2.63782 3.87481 3.31453
# Velocity P-wave (km/s) = 3.82143 5.74473 4.87879
#
# Compressibility (1/GPa) = 0.08669947
#
# Stress axis : x y z
#
# Youngs Moduli (GPa) = 87.52481 47.37498 22.77615
#
# Poissons Ratio (x) = -0.04597 0.09095
# Poissons Ratio (y) = -0.08494 -0.18569
# Poissons Ratio (z) = 0.34949 -0.38624
#
# Static dielectric constant tensor:
#      x y z
#    x 1.753020 0.005640 -0.009530 
#    y 0.005640 1.820880 -0.001610 
#    z -0.009530 -0.001610 1.749650 
# 
# From -- ./inp_files/261810.got.cif
#   From: 2010.05.17/outbox.cif.g08.bks.cpg/sg2_131_cif.got.tgz:261810.got - 2010.06.03 11:33:40.
