data_PCOD9004238
_publ_section_title
;
Structure prediction by ZEFSAII (Michael W. Deem and Ramdas Pophale) SiO2 
 PCOD9004238
Probable space group: P -1
;
_chemical_formula_sum "Si O2"
_cell_formula_units_Z 16
_cell_length_a 11.352484
_cell_length_b 11.619134
_cell_length_c 18.549615
_cell_angle_alpha 147.678098
_cell_angle_beta 134.426625
_cell_angle_gamma 30.951836
_cell_volume 670.128729
_symmetry_space_group_name_H-M "P -1"
_symmetry_group_IT_number 2
_symmetry_cell_setting 'triclinic'
loop_
_space_group_symop_operation_xyz
x,y,z
-x,-y,-z
loop_
_atom_site_type_symbol
_atom_site_label
_atom_site_fract_x
_atom_site_fract_y
_atom_site_fract_z
Si Si1 0.006491 0.139431 0.371939
Si Si2 0.852368 0.563226 0.076272
Si Si3 0.216678 0.782324 0.423134
Si Si4 0.272862 0.023731 0.878515
Si Si5 0.537193 0.317018 0.085791
Si Si6 0.191696 0.321971 0.200544
Si Si7 0.384329 0.244430 0.398449
Si Si8 0.544516 0.132937 0.652318
O O1 0.826856 0.484392 0.499265
O O2 0.141029 0.941159 0.396934
O O3 0.191875 0.040978 0.341041
O O4 0.855946 0.078941 0.248302
O O5 0.709221 0.873478 0.135845
O O6 0.924449 0.553681 0.182838
O O7 0.698162 0.495407 0.960395
O O8 0.091791 0.321821 0.008031
O O9 0.268469 0.480626 0.281732
O O10 0.432814 0.726326 0.513185
O O11 0.000000 0.000000 0.500000
O O12 0.478285 0.775720 0.889752
O O13 0.592845 0.516633 0.224913
O O14 0.712924 0.999010 0.952245
O O15 0.271228 0.281731 0.294685
O O16 0.495845 0.945988 0.331118
O O17 0.500000 0.000000 0.500000
#
# Coordination Sequence:
#
# PCOD9004238 Si02
#       8
#     2   2   2   2   2   2   2   2
#     4  12  24  44  76 106 146 189 241 300 362 427
#     4  10  21  40  62 100 146 180 230 292 363 428
#     4  12  26  47  73 111 148 189 240 300 371 437
#     4  10  21  37  65 103 138 184 230 292 364 422
#     4  11  25  42  71 101 146 192 241 298 360 427
#     4  11  26  43  70 109 144 188 240 299 368 433
#     4  12  28  46  75 106 145 201 245 294 359 430
#     4  12  26  51  74 105 147 195 251 295 353 435
#
# _framework density 23.876010000000001
#
# number of rings (size 3 to 8) (size 9 to 14) (size 15 to 20)
#    0.000    0.750    5.000    1.875    3.500    0.500 
#    0.000    0.625    0.000    0.000    0.000    0.000 
#    0.000    0.000    0.000    0.000    0.000    0.000 
#
# Total GULP energy -89455.832886 kJ/mol
# GULP energy per Si atom -5590.989555 kJ/mol
# Density = 2.382167 g / cm^3
# Si number density = 23.876010 Si / 1000 Ang^3
#
#
#
# Elastic Constant Matrix: (Units=GPa)
#
#
# Indices 1 2 3 4 5 6 
#
# 1 57.3276 18.9870 31.5807 0.6986 4.2920 13.5187
# 2 18.9870 118.8376 59.2968 -25.2587 0.8594 25.6942
# 3 31.5807 59.2968 160.3469 -0.3475 14.4103 10.1284
# 4 0.6986 -25.2587 -0.3475 66.4997 1.3391 -6.1004
# 5 4.2920 0.8594 14.4103 1.3391 28.3460 7.2364
# 6 13.5187 25.6942 10.1284 -6.1004 7.2364 37.0197
#
#
#
# Elastic Compliance Matrix: (Units=1/GPa)
#
#
# Indices 1 2 3 4 5 6 
#
# 1 0.021135 -0.000298 -0.003668 -0.000983 0.000445 -0.006757
# 2 -0.000298 0.013434 -0.004745 0.004271 0.003884 -0.007972
# 3 -0.003668 -0.004745 0.008936 -0.001366 -0.004505 0.002844
# 4 -0.000983 0.004271 -0.001366 0.016720 -0.000221 0.000566
# 5 0.000445 0.003884 -0.004505 -0.000221 0.039805 -0.009443
# 6 -0.006757 -0.007972 0.002844 0.000566 -0.009443 0.036174
#
#
# Mechanical properties :
#
#
# Convention : Reuss Voigt Hill
#
# Bulk Modulus (GPa) = 38.34008 61.80456 50.07232
# Shear Modulus (GPa) = 30.80357 41.48292 36.14325
#
# Velocity S-wave (km/s) = 3.59576 4.17277 3.89497
# Velocity P-wave (km/s) = 5.77340 7.01127 6.42223
#
# Compressibility (1/GPa) = 0.02608237
#
# Stress axis : x y z
#
# Youngs Moduli (GPa) = 47.31553 74.43964 111.90756
#
# Poissons Ratio (x) = 0.02219 0.41044
# Poissons Ratio (y) = 0.01410 0.53104
# Poissons Ratio (z) = 0.17354 0.35324
#
# Static dielectric constant tensor:
#      x y z
#    x 1.903480 -0.020350 -0.023660 
#    y -0.020350 1.970280 0.017390 
#    z -0.023660 0.017390 1.950780 
# 
# From -- ./inp_files/595159.got.cif
#   From: 2010.05.17/outbox.cif.g08.bks.cpg/sg2_298_cif.got.tgz:595159.got - 2010.06.03 11:33:40.
