data_PCOD9004229
_publ_section_title
;
Structure prediction by ZEFSAII (Michael W. Deem and Ramdas Pophale) SiO2 
 PCOD9004229
Probable space group: P -1
;
_chemical_formula_sum "Si O2"
_cell_formula_units_Z 14
_cell_length_a 11.681099
_cell_length_b 21.963152
_cell_length_c 16.711408
_cell_angle_alpha 161.925646
_cell_angle_beta 27.175581
_cell_angle_gamma 152.252090
_cell_volume 583.686821
_symmetry_space_group_name_H-M "P -1"
_symmetry_group_IT_number 2
_symmetry_cell_setting 'triclinic'
loop_
_space_group_symop_operation_xyz
x,y,z
-x,-y,-z
loop_
_atom_site_type_symbol
_atom_site_label
_atom_site_fract_x
_atom_site_fract_y
_atom_site_fract_z
Si Si1 0.177189 0.914536 0.845017
Si Si2 0.064748 0.386967 0.014471
Si Si3 0.795485 0.991961 0.786093
Si Si4 0.747674 0.567287 0.209494
Si Si5 0.527431 0.346382 0.219408
Si Si6 0.662905 0.225996 0.584063
Si Si7 0.833923 0.885907 0.152846
O O1 0.336415 0.806712 0.552385
O O2 0.994044 0.783865 0.864550
O O3 0.351549 0.115688 0.032410
O O4 0.000000 0.000000 0.000000
O O5 0.813561 0.334615 0.048470
O O6 0.109053 0.580607 0.287140
O O7 0.985592 0.189441 0.872492
O O8 0.285971 0.454746 0.892482
O O9 0.953343 0.970154 0.740630
O O10 0.779673 0.801265 0.501670
O O11 0.500000 0.000000 0.000000
O O12 0.523996 0.443764 0.255144
O O13 0.000000 0.500000 0.000000
O O14 0.500000 0.500000 0.500000
O O15 0.393398 0.244887 0.812702
O O16 0.711598 0.027866 0.349695
#
# Coordination Sequence:
#
# PCOD9004229 Si02
#       7
#     2   2   2   2   2   2   2
#     4  10  21  37  65 100 135 172 230 295 344 397
#     4  11  24  41  64  99 136 176 227 282 352 416
#     4  12  25  44  67 102 146 182 221 291 363 421
#     4  10  23  40  70  98 132 177 238 281 334 408
#     4  11  21  39  68  99 134 177 235 288 338 409
#     4  10  23  42  71  98 137 180 241 291 338 415
#     4  10  22  41  69  96 138 183 235 282 345 412
#
# _framework density 23.985465000000001
#
# number of rings (size 3 to 8) (size 9 to 14) (size 15 to 20)
#    0.000    1.429    0.000    6.429   10.000    0.571 
#    2.571    0.714    0.000    0.000    0.000    0.000 
#    0.000    0.000    0.000    0.000    0.000    0.000 
#
# Total GULP energy -78091.701586 kJ/mol
# GULP energy per Si atom -5577.978685 kJ/mol
# Density = 2.393087 g / cm^3
# Si number density = 23.985465 Si / 1000 Ang^3
#
#
#
# Elastic Constant Matrix: (Units=GPa)
#
#
# Indices 1 2 3 4 5 6 
#
# 1 64.5784 26.7853 20.5768 -17.4311 26.8192 4.9110
# 2 26.7853 118.1951 52.9172 -24.3433 23.5082 -19.5794
# 3 20.5768 52.9172 108.9587 -20.0012 37.5868 -13.2982
# 4 -17.4311 -24.3433 -20.0012 35.4251 -9.8218 10.1397
# 5 26.8192 23.5082 37.5868 -9.8218 37.6257 -3.9008
# 6 4.9110 -19.5794 -13.2982 10.1397 -3.9008 47.2740
#
#
#
# Elastic Compliance Matrix: (Units=1/GPa)
#
#
# Indices 1 2 3 4 5 6 
#
# 1 0.026622 -0.003118 0.004137 0.009835 -0.019277 -0.006593
# 2 -0.003118 0.012423 -0.004427 0.003556 0.000171 0.003475
# 3 0.004137 -0.004427 0.016796 0.003987 -0.015890 0.000295
# 4 0.009835 0.003556 0.003987 0.038716 -0.003839 -0.007048
# 5 -0.019277 0.000171 -0.015890 -0.003839 0.055393 0.002998
# 6 -0.006593 0.003475 0.000295 -0.007048 0.002998 0.025120
#
#
# Mechanical properties :
#
#
# Convention : Reuss Voigt Hill
#
# Bulk Modulus (GPa) = 20.39735 54.69898 37.54816
# Shear Modulus (GPa) = 25.22372 36.82849 31.02611
#
# Velocity S-wave (km/s) = 3.24640 3.92273 3.60048
# Velocity P-wave (km/s) = 4.75128 6.58572 5.74223
#
# Compressibility (1/GPa) = 0.04902598
#
# Stress axis : x y z
#
# Youngs Moduli (GPa) = 37.56332 80.49524 59.53860
#
# Poissons Ratio (x) = 0.25097 -0.24633
# Poissons Ratio (y) = 0.11711 0.26357
# Poissons Ratio (z) = -0.15541 0.35634
#
# Static dielectric constant tensor:
#      x y z
#    x 1.964270 -0.082480 -0.007270 
#    y -0.082480 2.147380 -0.161800 
#    z -0.007270 -0.161800 1.935850 
# 
# From -- ./inp_files/155297.got.cif
#   From: 2010.05.17/outbox.cif.g08.bks.cpg/sg2_78_cif.got.tgz:155297.got - 2010.06.03 11:33:40.
