data_PCOD9004450
_publ_section_title
;
Structure prediction by ZEFSAII (Michael W. Deem and Ramdas Pophale) SiO2 
 PCOD9004450
Probable space group: P -1
;
_chemical_formula_sum "Si O2"
_cell_formula_units_Z 16
_cell_length_a 8.267623
_cell_length_b 15.517024
_cell_length_c 9.390884
_cell_angle_alpha 141.795910
_cell_angle_beta 93.234712
_cell_angle_gamma 95.850886
_cell_volume 722.729775
_symmetry_space_group_name_H-M "P -1"
_symmetry_group_IT_number 2
_symmetry_cell_setting 'triclinic'
loop_
_space_group_symop_operation_xyz
x,y,z
-x,-y,-z
loop_
_atom_site_type_symbol
_atom_site_label
_atom_site_fract_x
_atom_site_fract_y
_atom_site_fract_z
Si Si1 0.110973 0.314781 0.192201
Si Si2 0.995655 0.655275 0.265086
Si Si3 0.614279 0.885833 0.349252
Si Si4 0.366443 0.715177 0.916468
Si Si5 0.604018 0.586083 0.487445
Si Si6 0.603791 0.646034 0.264637
Si Si7 0.173271 0.640302 0.545385
Si Si8 0.107152 0.853945 0.259174
O O1 0.256418 0.294072 0.275558
O O2 0.168825 0.469952 0.317847
O O3 0.968442 0.338033 0.322913
O O4 0.046122 0.191077 0.915845
O O5 0.802871 0.655124 0.289533
O O6 0.116386 0.684020 0.446380
O O7 0.061537 0.771460 0.297126
O O8 0.000000 0.500000 0.000000
O O9 0.579277 0.777146 0.338352
O O10 0.500000 0.000000 0.500000
O O11 0.802052 0.981320 0.496037
O O12 0.549343 0.789730 0.081948
O O13 0.320530 0.546863 0.736797
O O14 0.334458 0.720945 0.752113
O O15 0.241837 0.786015 0.092008
O O16 0.500000 0.500000 0.500000
O O17 0.535108 0.643727 0.418951
O O18 0.500000 0.500000 0.000000
#
# Coordination Sequence:
#
# PCOD9004450 Si02
#       8
#     2   2   2   2   2   2   2   2
#     4   9  17  34  56  87 123 165 208 258 327 385
#     4  12  23  37  65 107 133 166 227 280 330 401
#     4  10  23  45  69  91 138 184 218 270 348 397
#     4   9  19  41  63  89 128 178 214 273 327 399
#     4  11  22  37  62  95 130 166 220 279 332 385
#     4  12  26  42  68  99 136 172 228 284 328 393
#     4   9  17  33  61  86 128 165 210 267 326 376
#     4  10  21  37  67  91 127 178 218 259 340 399
#
# _framework density 22.138286999999998
#
# number of rings (size 3 to 8) (size 9 to 14) (size 15 to 20)
#    0.000    1.750    3.750    1.500    3.500    0.500 
#    0.000    1.250    5.500    0.000    0.000    0.000 
#    0.000    0.000    0.000    0.000    0.000    0.000 
#
# Total GULP energy -89302.491521 kJ/mol
# GULP energy per Si atom -5581.405720 kJ/mol
# Density = 2.208790 g / cm^3
# Si number density = 22.138287 Si / 1000 Ang^3
#
#
#
# Elastic Constant Matrix: (Units=GPa)
#
#
# Indices 1 2 3 4 5 6 
#
# 1 61.1469 37.7121 46.1978 -12.6791 23.9934 -8.4604
# 2 37.7121 163.0069 83.5299 -21.3308 28.8693 -8.2498
# 3 46.1978 83.5299 143.9152 -24.8892 40.7762 -2.9679
# 4 -12.6791 -21.3308 -24.8892 40.6091 -11.1122 5.6703
# 5 23.9934 28.8693 40.7762 -11.1122 60.3498 -5.3321
# 6 -8.4604 -8.2498 -2.9679 5.6703 -5.3321 31.5998
#
#
#
# Elastic Compliance Matrix: (Units=1/GPa)
#
#
# Indices 1 2 3 4 5 6 
#
# 1 0.023967 -0.001721 -0.005011 0.001623 -0.004630 0.004424
# 2 -0.001721 0.009058 -0.004355 0.001284 -0.000364 0.001203
# 3 -0.005011 -0.004355 0.012771 0.003185 -0.004193 -0.002558
# 4 0.001623 0.001284 0.003185 0.028713 0.001538 -0.003824
# 5 -0.004630 -0.000364 -0.004193 0.001538 0.021849 0.001683
# 6 0.004424 0.001203 -0.002558 -0.003824 0.001683 0.033874
#
#
# Mechanical properties :
#
#
# Convention : Reuss Voigt Hill
#
# Bulk Modulus (GPa) = 42.33360 78.10539 60.21949
# Shear Modulus (GPa) = 31.19558 39.88703 35.54130
#
# Velocity S-wave (km/s) = 3.75790 4.24927 4.01112
# Velocity P-wave (km/s) = 6.16384 7.70924 6.97945
#
# Compressibility (1/GPa) = 0.02362190
#
# Stress axis : x y z
#
# Youngs Moduli (GPa) = 41.72468 110.40312 78.30343
#
# Poissons Ratio (x) = 0.18996 0.39238
# Poissons Ratio (y) = 0.07179 0.34101
# Poissons Ratio (z) = 0.20908 0.48080
#
# Static dielectric constant tensor:
#      x y z
#    x 2.035660 -0.016880 0.005390 
#    y -0.016880 1.796290 -0.010150 
#    z 0.005390 -0.010150 1.848080 
# 
# From -- ./inp_files/209394.got.cif
#   From: 2010.05.17/outbox.cif.g08.bks.cpg/sg2_105_cif.got.tgz:209394.got - 2010.06.03 11:33:40.
