data_PCOD9004749
_publ_section_title
;
Structure prediction by ZEFSAII (Michael W. Deem and Ramdas Pophale) SiO2 
 PCOD9004749
Probable space group: P -1
;
_chemical_formula_sum "Si O2"
_cell_formula_units_Z 12
_cell_length_a 5.304051
_cell_length_b 8.510371
_cell_length_c 13.577880
_cell_angle_alpha 70.597760
_cell_angle_beta 57.187616
_cell_angle_gamma 90.703866
_cell_volume 471.344471
_symmetry_space_group_name_H-M "P -1"
_symmetry_group_IT_number 2
_symmetry_cell_setting 'triclinic'
loop_
_space_group_symop_operation_xyz
x,y,z
-x,-y,-z
loop_
_atom_site_type_symbol
_atom_site_label
_atom_site_fract_x
_atom_site_fract_y
_atom_site_fract_z
Si Si1 0.520445 0.668675 0.520322
Si Si2 0.750667 0.272147 0.135304
Si Si3 0.176037 0.290288 0.337844
Si Si4 0.670756 0.749215 0.060056
Si Si5 0.215468 0.979009 0.640423
Si Si6 0.849477 0.159908 0.923938
O O1 0.500000 0.500000 0.500000
O O2 0.713171 0.687511 0.577834
O O3 0.724039 0.826085 0.379632
O O4 0.156415 0.667528 0.614323
O O5 0.491120 0.373882 0.194708
O O6 0.689138 0.182836 0.059893
O O7 0.122871 0.347135 0.030028
O O8 0.742272 0.142633 0.254763
O O9 0.086792 0.100280 0.344128
O O10 0.309334 0.727587 0.135599
O O11 0.798443 0.753643 0.142427
O O12 0.788761 0.956417 0.960014
O O13 0.500000 0.000000 0.500000
#
# Coordination Sequence:
#
# PCOD9004749 Si02
#       6
#     2   2   2   2   2   2
#     4  11  24  37  49  66  98 136 170 203 246 287
#     4  10  17  28  48  73  96 123 167 196 244 279
#     4  11  20  35  52  72  93 129 167 209 241 285
#     4   8  15  26  39  64  99 124 146 188 248 288
#     4  10  20  33  51  72  98 127 167 207 240 286
#     4   8  15  25  40  64  98 126 145 188 246 289
#
# _framework density 25.459085999999999
#
# number of rings (size 3 to 8) (size 9 to 14) (size 15 to 20)
#    1.000    1.333    3.333    2.000    2.333    0.000 
#    0.000    0.000    0.000    0.000    0.000    0.000 
#    0.000   10.667    0.000    3.000    0.000    0.000 
#
# Total GULP energy -66804.291329 kJ/mol
# GULP energy per Si atom -5567.024277 kJ/mol
# Density = 2.540114 g / cm^3
# Si number density = 25.459086 Si / 1000 Ang^3
#
#
#
# Elastic Constant Matrix: (Units=GPa)
#
#
# Indices 1 2 3 4 5 6 
#
# 1 224.5767 39.3357 33.3283 8.1397 -13.0228 5.2103
# 2 39.3357 80.8078 21.5620 3.8366 -5.9498 3.6716
# 3 33.3283 21.5620 89.7626 -8.5562 -13.8654 14.1002
# 4 8.1397 3.8366 -8.5562 31.9488 5.1981 -12.6536
# 5 -13.0228 -5.9498 -13.8654 5.1981 25.1246 17.0259
# 6 5.2103 3.6716 14.1002 -12.6536 17.0259 33.9454
#
#
#
# Elastic Compliance Matrix: (Units=1/GPa)
#
#
# Indices 1 2 3 4 5 6 
#
# 1 0.005540 -0.001561 0.000218 -0.005314 0.008464 -0.006999
# 2 -0.001561 0.014613 -0.001165 -0.005702 0.007891 -0.006941
# 3 0.000218 -0.001165 0.019760 -0.011199 0.032400 -0.028541
# 4 -0.005314 -0.005702 -0.011199 0.067634 -0.068907 0.065858
# 5 0.008464 0.007891 0.032400 -0.068907 0.160853 -0.121976
# 6 -0.006999 -0.006941 -0.028541 0.065858 -0.121976 0.128867
#
#
# Mechanical properties :
#
#
# Convention : Reuss Voigt Hill
#
# Bulk Modulus (GPa) = 28.65567 64.84434 46.75001
# Shear Modulus (GPa) = 12.07980 38.26516 25.17248
#
# Velocity S-wave (km/s) = 2.18062 3.88107 3.14784
# Velocity P-wave (km/s) = 4.19763 6.75344 5.62268
#
# Compressibility (1/GPa) = 0.03489710
#
# Stress axis : x y z
#
# Youngs Moduli (GPa) = 180.51474 68.43228 50.60810
#
# Poissons Ratio (x) = 0.10685 -0.01106
# Poissons Ratio (y) = 0.28185 0.05895
# Poissons Ratio (z) = -0.03944 0.07971
#
# Static dielectric constant tensor:
#      x y z
#    x 2.092860 -0.065310 -0.045370 
#    y -0.065310 2.296440 -0.079180 
#    z -0.045370 -0.079180 2.046480 
# 
# From -- ./inp_files/36219.got.cif
#   From: 2010.05.17/outbox.cif.g08.bks.cpg/sg2_19_cif.got.tgz:36219.got - 2010.06.03 11:33:40.
