data_PCOD9004532
_publ_section_title
;
Structure prediction by ZEFSAII (Michael W. Deem and Ramdas Pophale) SiO2 
 PCOD9004532
Probable space group: P -1
;
_chemical_formula_sum "Si O2"
_cell_formula_units_Z 15
_cell_length_a 5.255128
_cell_length_b 7.403867
_cell_length_c 16.072736
_cell_angle_alpha 93.589752
_cell_angle_beta 110.590706
_cell_angle_gamma 67.462853
_cell_volume 538.817217
_symmetry_space_group_name_H-M "P -1"
_symmetry_group_IT_number 2
_symmetry_cell_setting 'triclinic'
loop_
_space_group_symop_operation_xyz
x,y,z
-x,-y,-z
loop_
_atom_site_type_symbol
_atom_site_label
_atom_site_fract_x
_atom_site_fract_y
_atom_site_fract_z
Si Si1 0.592503 0.724839 0.323250
Si Si2 0.828689 0.853859 0.547616
Si Si3 0.611431 0.766896 0.025698
Si Si4 0.000000 0.500000 0.500000
Si Si5 0.803592 0.191064 0.155416
Si Si6 0.206882 0.779858 0.130750
Si Si7 0.122961 0.421619 0.306192
Si Si8 0.338269 0.905142 0.696180
O O1 0.667102 0.607221 0.414111
O O2 0.343708 0.705163 0.234684
O O3 0.894199 0.639596 0.300085
O O4 0.519366 0.956253 0.324892
O O5 0.027036 0.719011 0.493448
O O6 0.840630 0.656816 0.594226
O O7 0.024157 0.944207 0.621794
O O8 0.500000 0.000000 0.500000
O O9 0.458930 0.737669 0.090741
O O10 0.959938 0.698151 0.074280
O O11 0.469002 0.691359 0.931420
O O12 0.500000 0.000000 0.000000
O O13 0.692336 0.077746 0.208628
O O14 0.943841 0.319298 0.227141
O O15 0.046557 0.018552 0.126053
O O16 0.446676 0.318322 0.304332
#
# Coordination Sequence:
#
# PCOD9004532 Si02
#       8
#     2   2   2   1   2   2   2   2
#     4  11  23  44  68  97 136 177 231 283 350 407
#     4  10  23  42  64  95 131 172 228 284 348 411
#     4  10  21  37  69 104 137 180 238 283 348 420
#     4  10  24  42  66  94 136 176 222 296 336 418
#     4  10  21  40  67  99 137 177 226 281 347 412
#     4  11  22  40  68 104 136 186 232 289 346 419
#     4  10  23  41  62  99 132 174 226 282 345 409
#     4  11  23  42  70  97 132 183 223 286 341 420
#
# _framework density 27.838753000000001
#
# number of rings (size 3 to 8) (size 9 to 14) (size 15 to 20)
#    0.000    1.600    1.333    4.000    3.733    3.200 
#   12.000    4.000    0.000    0.000    0.000    0.000 
#    0.000    0.000    0.000    0.000    0.000    0.000 
#
# Total GULP energy -83801.365876 kJ/mol
# GULP energy per Si atom -5586.757725 kJ/mol
# Density = 2.777539 g / cm^3
# Si number density = 27.838753 Si / 1000 Ang^3
#
#
#
# Elastic Constant Matrix: (Units=GPa)
#
#
# Indices 1 2 3 4 5 6 
#
# 1 114.8425 18.1467 57.6699 -3.3225 17.6284 -12.7790
# 2 18.1467 117.3512 33.5766 -7.2089 6.4989 -6.0541
# 3 57.6699 33.5766 226.5881 -8.0317 41.1525 6.9408
# 4 -3.3225 -7.2089 -8.0317 31.0362 -6.7398 9.0024
# 5 17.6284 6.4989 41.1525 -6.7398 45.8412 -9.3730
# 6 -12.7790 -6.0541 6.9408 9.0024 -9.3730 24.8964
#
#
#
# Elastic Compliance Matrix: (Units=1/GPa)
#
#
# Indices 1 2 3 4 5 6 
#
# 1 0.011039 -0.000607 -0.002918 -0.001782 -0.000406 0.006823
# 2 -0.000607 0.009150 -0.001364 0.001258 0.000782 0.002133
# 3 -0.002918 -0.001364 0.006658 0.001725 -0.005730 -0.006467
# 4 -0.001782 0.001258 0.001725 0.037151 0.001572 -0.013931
# 5 -0.000406 0.000782 -0.005730 0.001572 0.029730 0.012204
# 6 0.006823 0.002133 -0.006467 -0.013931 0.012204 0.055622
#
#
# Mechanical properties :
#
#
# Convention : Reuss Voigt Hill
#
# Bulk Modulus (GPa) = 58.58809 75.28537 66.93673
# Shear Modulus (GPa) = 30.33662 43.64732 36.99197
#
# Velocity S-wave (km/s) = 3.30468 3.96392 3.64922
# Velocity P-wave (km/s) = 5.97097 6.93198 6.46934
#
# Compressibility (1/GPa) = 0.01706831
#
# Stress axis : x y z
#
# Youngs Moduli (GPa) = 90.58887 109.29404 150.19459
#
# Poissons Ratio (x) = 0.06635 0.43826
# Poissons Ratio (y) = 0.05499 0.20488
# Poissons Ratio (z) = 0.26434 0.14909
#
# Static dielectric constant tensor:
#      x y z
#    x 1.720360 0.555820 0.574850 
#    y 0.555820 1.563650 -0.535470 
#    z 0.574850 -0.535470 1.660060 
# 
# From -- ./inp_files/548193.got.cif
#   From: 2010.05.17/outbox.cif.g08.bks.cpg/sg2_275_cif.got.tgz:548193.got - 2010.06.03 11:33:40.
