data_PCOD9004300
_publ_section_title
;
Structure prediction by ZEFSAII (Michael W. Deem and Ramdas Pophale) SiO2 
 PCOD9004300
Probable space group: P -1
;
_chemical_formula_sum "Si O2"
_cell_formula_units_Z 16
_cell_length_a 8.582217
_cell_length_b 14.496455
_cell_length_c 9.404057
_cell_angle_alpha 49.128900
_cell_angle_beta 60.434251
_cell_angle_gamma 80.148420
_cell_volume 748.747475
_symmetry_space_group_name_H-M "P -1"
_symmetry_group_IT_number 2
_symmetry_cell_setting 'triclinic'
loop_
_space_group_symop_operation_xyz
x,y,z
-x,-y,-z
loop_
_atom_site_type_symbol
_atom_site_label
_atom_site_fract_x
_atom_site_fract_y
_atom_site_fract_z
Si Si1 0.159500 0.646611 0.878504
Si Si2 0.285728 0.435734 0.195303
Si Si3 0.195128 0.028799 0.299821
Si Si4 0.772212 0.699755 0.913174
Si Si5 0.736456 0.635450 0.394648
Si Si6 0.326436 0.544978 0.641602
Si Si7 0.966254 0.919304 0.953396
Si Si8 0.322002 0.906829 0.616010
O O1 0.206195 0.606636 0.739862
O O2 0.312650 0.760008 0.760163
O O3 0.970838 0.692798 0.897331
O O4 0.166188 0.530376 0.094207
O O5 0.228116 0.314764 0.240990
O O6 0.255914 0.400673 0.407827
O O7 0.500000 0.500000 0.000000
O O8 0.280927 0.174541 0.144331
O O9 0.301400 0.943094 0.423654
O O10 0.157203 0.018199 0.161255
O O11 0.000000 0.000000 0.500000
O O12 0.641720 0.575139 0.161284
O O13 0.525625 0.637289 0.446620
O O14 0.762807 0.520681 0.396498
O O15 0.867541 0.772407 0.170918
O O16 0.153390 0.922704 0.777144
O O17 0.000000 0.000000 0.000000
O O18 0.500000 0.000000 0.500000
#
# Coordination Sequence:
#
# PCOD9004300 Si02
#       8
#     2   2   2   2   2   2   2   2
#     4  11  22  42  64  96 134 167 231 270 323 399
#     4  11  23  36  65  99 125 175 224 263 333 397
#     4  10  21  43  68  91 126 180 224 260 334 401
#     4  11  20  41  65  92 129 172 226 264 325 404
#     4  11  22  40  62  99 135 170 218 272 337 392
#     4  10  21  37  65  94 131 172 208 282 333 378
#     4  11  25  43  69  99 137 177 222 274 334 401
#     4  11  26  44  72  99 130 174 230 282 324 399
#
# _framework density 21.369019999999999
#
# number of rings (size 3 to 8) (size 9 to 14) (size 15 to 20)
#    0.000    1.250    6.250    1.500    7.000    0.000 
#    0.000    7.500    0.000    0.000    0.000    0.000 
#    0.000    0.000    0.000    0.000    0.000    0.000 
#
# Total GULP energy -89292.217464 kJ/mol
# GULP energy per Si atom -5580.763592 kJ/mol
# Density = 2.132038 g / cm^3
# Si number density = 21.369020 Si / 1000 Ang^3
#
#
#
# Elastic Constant Matrix: (Units=GPa)
#
#
# Indices 1 2 3 4 5 6 
#
# 1 71.3235 30.1959 47.4096 8.3444 -4.0594 27.2626
# 2 30.1959 125.0797 54.0065 17.3296 13.5170 41.1340
# 3 47.4096 54.0065 104.9904 16.4797 -4.3470 21.1699
# 4 8.3444 17.3296 16.4797 39.2577 20.1341 7.0810
# 5 -4.0594 13.5170 -4.3470 20.1341 33.8014 4.8380
# 6 27.2626 41.1340 21.1699 7.0810 4.8380 43.1290
#
#
#
# Elastic Compliance Matrix: (Units=1/GPa)
#
#
# Indices 1 2 3 4 5 6 
#
# 1 0.024733 0.002216 -0.009114 -0.002081 0.004068 -0.013389
# 2 0.002216 0.014522 -0.006404 0.000453 -0.004971 -0.011625
# 3 -0.009114 -0.006404 0.017646 -0.007110 0.007464 0.003537
# 4 -0.002081 0.000453 -0.007110 0.042253 -0.026573 0.000417
# 5 0.004068 -0.004971 0.007464 -0.026573 0.049229 -0.002654
# 6 -0.013389 -0.011625 0.003537 0.000417 -0.002654 0.041230
#
#
# Mechanical properties :
#
#
# Convention : Reuss Voigt Hill
#
# Bulk Modulus (GPa) = 33.00472 62.73528 47.87000
# Shear Modulus (GPa) = 22.09297 34.55641 28.32469
#
# Velocity S-wave (km/s) = 3.21889 4.02571 3.64469
# Velocity P-wave (km/s) = 5.41236 7.14355 6.33735
#
# Compressibility (1/GPa) = 0.03029870
#
# Stress axis : x y z
#
# Youngs Moduli (GPa) = 40.43144 68.85960 56.67021
#
# Poissons Ratio (x) = -0.15259 0.51647
# Poissons Ratio (y) = -0.08959 0.36290
# Poissons Ratio (z) = 0.36848 0.44096
#
# Static dielectric constant tensor:
#      x y z
#    x 1.831150 0.012090 -0.047350 
#    y 0.012090 1.804240 -0.002290 
#    z -0.047350 -0.002290 1.836980 
# 
# From -- ./inp_files/199443.got.cif
#   From: 2010.05.17/outbox.cif.g08.bks.cpg/sg2_100_cif.got.tgz:199443.got - 2010.06.03 11:33:40.
