data_PCOD9004726
_publ_section_title
;
Structure prediction by ZEFSAII (Michael W. Deem and Ramdas Pophale) SiO2 
 PCOD9004726
Probable space group: P -1
;
_chemical_formula_sum "Si O2"
_cell_formula_units_Z 14
_cell_length_a 14.524691
_cell_length_b 10.588023
_cell_length_c 5.166215
_cell_angle_alpha 88.230577
_cell_angle_beta 72.383833
_cell_angle_gamma 76.183281
_cell_volume 734.595736
_symmetry_space_group_name_H-M "P -1"
_symmetry_group_IT_number 2
_symmetry_cell_setting 'triclinic'
loop_
_space_group_symop_operation_xyz
x,y,z
-x,-y,-z
loop_
_atom_site_type_symbol
_atom_site_label
_atom_site_fract_x
_atom_site_fract_y
_atom_site_fract_z
Si Si1 0.488387 0.839594 0.233231
Si Si2 0.813886 0.389288 0.408068
Si Si3 0.019246 0.406900 0.240566
Si Si4 0.232497 0.337948 0.249454
Si Si5 0.341714 0.490373 0.817911
Si Si6 0.613228 0.392023 0.724541
Si Si7 0.609616 0.880265 0.627056
O O1 0.452069 0.707181 0.282886
O O2 0.566549 0.851890 0.389612
O O3 0.397606 0.966212 0.351980
O O4 0.532477 0.853935 0.911962
O O5 0.930933 0.331339 0.319128
O O6 0.794067 0.532136 0.555637
O O7 0.769395 0.419518 0.155254
O O8 0.732395 0.322779 0.608426
O O9 0.000000 0.500000 0.500000
O O10 0.133163 0.328366 0.182579
O O11 0.000000 0.500000 0.000000
O O12 0.285285 0.215068 0.383933
O O13 0.314354 0.366445 0.976565
O O14 0.399161 0.551781 0.980828
O O15 0.392848 0.495938 0.496453
#
# Coordination Sequence:
#
# PCOD9004726 Si02
#       7
#     2   2   2   2   2   2   2
#     4  10  21  40  52  72  93 134 176 207 249 284
#     4   8  18  30  48  77 103 129 157 191 245 304
#     4  10  17  28  48  73 104 133 156 190 242 302
#     4  10  19  33  51  77 107 127 163 206 249 287
#     4   9  17  29  49  74 101 128 158 193 245 297
#     4   9  17  32  53  68  99 130 166 199 241 299
#     4  10  23  35  56  72  97 129 172 214 243 290
#
# _framework density 19.0581
#
# number of rings (size 3 to 8) (size 9 to 14) (size 15 to 20)
#    0.857    1.714    1.429    0.857    2.000    0.000 
#    0.000   10.000    0.000    0.857    0.000    1.000 
#    0.000    0.429    0.000    0.000    0.000    0.000 
#
# Total GULP energy -77944.127831 kJ/mol
# GULP energy per Si atom -5567.437702 kJ/mol
# Density = 1.901472 g / cm^3
# Si number density = 19.058100 Si / 1000 Ang^3
#
#
#
# Elastic Constant Matrix: (Units=GPa)
#
#
# Indices 1 2 3 4 5 6 
#
# 1 99.6897 17.5355 5.0720 2.4619 2.1423 -10.5347
# 2 17.5355 61.2972 7.7866 2.5548 3.0960 -10.0455
# 3 5.0720 7.7866 85.8477 -4.9248 19.5031 2.7657
# 4 2.4619 2.5548 -4.9248 18.0135 -2.8543 4.1149
# 5 2.1423 3.0960 19.5031 -2.8543 30.6146 -3.4680
# 6 -10.5347 -10.0455 2.7657 4.1149 -3.4680 20.0979
#
#
#
# Elastic Compliance Matrix: (Units=1/GPa)
#
#
# Indices 1 2 3 4 5 6 
#
# 1 0.011078 -0.002063 -0.000882 -0.002662 0.000371 0.005506
# 2 -0.002063 0.019015 -0.002292 -0.005246 0.000310 0.009866
# 3 -0.000882 -0.002292 0.014440 0.004323 -0.009189 -0.006066
# 4 -0.002662 -0.005246 0.004323 0.061972 0.001816 -0.016987
# 5 0.000371 0.000310 -0.009189 0.001816 0.039544 0.008066
# 6 0.005506 0.009866 -0.006066 -0.016987 0.008066 0.063279
#
#
# Mechanical properties :
#
#
# Convention : Reuss Voigt Hill
#
# Bulk Modulus (GPa) = 29.35982 34.18030 31.77006
# Shear Modulus (GPa) = 21.63059 28.17455 24.90257
#
# Velocity S-wave (km/s) = 3.37260 3.84910 3.61870
# Velocity P-wave (km/s) = 5.53216 6.14230 5.84520
#
# Compressibility (1/GPa) = 0.03406015
#
# Stress axis : x y z
#
# Youngs Moduli (GPa) = 90.26528 52.58985 69.25413
#
# Poissons Ratio (x) = 0.10847 0.06106
# Poissons Ratio (y) = 0.18619 0.15874
# Poissons Ratio (z) = 0.07959 0.12054
#
# Static dielectric constant tensor:
#      x y z
#    x 1.751060 -0.057200 -0.039830 
#    y -0.057200 1.666930 0.016460 
#    z -0.039830 0.016460 1.719450 
# 
# From -- ./inp_files/92435.got.cif
#   From: 2010.05.17/outbox.cif.g08.bks.cpg/sg2_47_cif.got.tgz:92435.got - 2010.06.03 11:33:40.
