data_PCOD9004331
_publ_section_title
;
Structure prediction by ZEFSAII (Michael W. Deem and Ramdas Pophale) SiO2 
 PCOD9004331
Probable space group: P -1
;
_chemical_formula_sum "Si O2"
_cell_formula_units_Z 16
_cell_length_a 9.093029
_cell_length_b 12.039205
_cell_length_c 11.680722
_cell_angle_alpha 46.688102
_cell_angle_beta 119.720306
_cell_angle_gamma 103.684461
_cell_volume 797.129833
_symmetry_space_group_name_H-M "P -1"
_symmetry_group_IT_number 2
_symmetry_cell_setting 'triclinic'
loop_
_space_group_symop_operation_xyz
x,y,z
-x,-y,-z
loop_
_atom_site_type_symbol
_atom_site_label
_atom_site_fract_x
_atom_site_fract_y
_atom_site_fract_z
Si Si1 0.965567 0.268877 0.617699
Si Si2 0.813500 0.732042 0.503721
Si Si3 0.405386 0.674325 0.028487
Si Si4 0.189490 0.907362 0.160422
Si Si5 0.186045 0.412044 0.785950
Si Si6 0.676256 0.418703 0.680880
Si Si7 0.475429 0.002731 0.850373
Si Si8 0.086584 0.562328 0.876927
O O1 0.099994 0.205232 0.617735
O O2 0.077481 0.305693 0.744913
O O3 0.831431 0.158084 0.675079
O O4 0.863756 0.425373 0.414830
O O5 0.788004 0.553401 0.604740
O O6 0.950253 0.709459 0.674983
O O7 0.631320 0.842256 0.356579
O O8 0.608244 0.629934 0.112562
O O9 0.362680 0.609843 0.181838
O O10 0.379583 0.859972 0.887776
O O11 0.269534 0.612211 0.938443
O O12 0.245244 0.748748 0.221129
O O13 0.335418 0.009366 0.121964
O O14 0.000000 0.000000 0.000000
O O15 0.126415 0.437964 0.876418
O O16 0.500000 0.500000 0.500000
O O17 0.500000 0.000000 0.000000
O O18 0.000000 0.500000 0.000000
#
# Coordination Sequence:
#
# PCOD9004331 Si02
#       8
#     2   2   2   2   2   2   2   2
#     4  10  21  37  65  98 130 162 213 284 337 389
#     4  11  23  43  68  96 134 172 225 270 333 399
#     4  12  24  40  65  92 134 172 223 269 329 400
#     4  12  23  35  61  99 138 165 209 273 351 387
#     4  10  21  40  65  95 130 166 220 276 335 386
#     4  12  21  38  69  97 126 173 220 275 331 396
#     4  12  24  41  63  97 136 173 212 277 344 397
#     4  11  24  42  65  96 127 181 226 269 320 400
#
# _framework density 20.072012999999998
#
# number of rings (size 3 to 8) (size 9 to 14) (size 15 to 20)
#    0.000    0.750    3.750    6.375    0.000    0.500 
#    0.000    0.000    0.000    3.750    0.000    0.000 
#    0.000    0.000    0.000    0.000    0.000    0.000 
#
# Total GULP energy -89237.815193 kJ/mol
# GULP energy per Si atom -5577.363450 kJ/mol
# Density = 2.002633 g / cm^3
# Si number density = 20.072013 Si / 1000 Ang^3
#
#
#
# Elastic Constant Matrix: (Units=GPa)
#
#
# Indices 1 2 3 4 5 6 
#
# 1 113.7440 14.8402 25.8481 17.9412 -7.6476 -1.0857
# 2 14.8402 46.7252 24.9663 12.8549 2.6308 1.1957
# 3 25.8481 24.9663 91.7391 7.2550 13.9664 -10.0790
# 4 17.9412 12.8549 7.2550 29.8360 -0.2368 2.6440
# 5 -7.6476 2.6308 13.9664 -0.2368 54.1730 -1.3269
# 6 -1.0857 1.1957 -10.0790 2.6440 -1.3269 30.6558
#
#
#
# Elastic Compliance Matrix: (Units=1/GPa)
#
#
# Indices 1 2 3 4 5 6 
#
# 1 0.010474 -0.000517 -0.002708 -0.005405 0.002180 0.000061
# 2 -0.000517 0.028089 -0.007044 -0.009849 0.000273 -0.002568
# 3 -0.002708 -0.007044 0.014614 0.000658 -0.003688 0.004767
# 4 -0.005405 -0.009849 0.000658 0.041127 -0.000352 -0.003153
# 5 0.002180 0.000273 -0.003688 -0.000352 0.019697 -0.000263
# 6 0.000061 -0.002568 0.004767 -0.003153 -0.000263 0.034550
#
#
# Mechanical properties :
#
#
# Convention : Reuss Voigt Hill
#
# Bulk Modulus (GPa) = 30.63719 42.61306 36.62512
# Shear Modulus (GPa) = 27.78259 35.36989 31.57624
#
# Velocity S-wave (km/s) = 3.72445 4.20235 3.97060
# Velocity P-wave (km/s) = 5.81310 6.69496 6.26955
#
# Compressibility (1/GPa) = 0.03264007
#
# Stress axis : x y z
#
# Youngs Moduli (GPa) = 95.47182 35.60060 68.42950
#
# Poissons Ratio (x) = 0.01840 0.18532
# Poissons Ratio (y) = 0.04934 0.48199
# Poissons Ratio (z) = 0.25856 0.25076
#
# Static dielectric constant tensor:
#      x y z
#    x 1.780120 -0.009160 0.043180 
#    y -0.009160 1.779480 -0.034350 
#    z 0.043180 -0.034350 1.809030 
# 
# From -- ./inp_files/392168.got.cif
#   From: 2010.05.17/outbox.cif.g08.bks.cpg/sg2_197_cif.got.tgz:392168.got - 2010.06.03 11:33:40.
