data_PCOD9004523
_publ_section_title
;
Structure prediction by ZEFSAII (Michael W. Deem and Ramdas Pophale) SiO2 
 PCOD9004523
Probable space group: P -1
;
_chemical_formula_sum "Si O2"
_cell_formula_units_Z 16
_cell_length_a 5.456817
_cell_length_b 7.795320
_cell_length_c 25.061192
_cell_angle_alpha 36.338604
_cell_angle_beta 93.251257
_cell_angle_gamma 96.701378
_cell_volume 626.114461
_symmetry_space_group_name_H-M "P -1"
_symmetry_group_IT_number 2
_symmetry_cell_setting 'triclinic'
loop_
_space_group_symop_operation_xyz
x,y,z
-x,-y,-z
loop_
_atom_site_type_symbol
_atom_site_label
_atom_site_fract_x
_atom_site_fract_y
_atom_site_fract_z
Si Si1 0.973441 0.024309 0.747789
Si Si2 0.898509 0.146797 0.035249
Si Si3 0.537923 0.797608 0.459786
Si Si4 0.596482 0.410282 0.258815
Si Si5 0.302064 0.712254 0.894168
Si Si6 0.628156 0.458755 0.881573
Si Si7 0.974229 0.390905 0.465944
Si Si8 0.871590 0.300160 0.784970
O O1 0.998565 0.311036 0.641401
O O2 0.843914 0.104913 0.780838
O O3 0.827250 0.728379 0.796401
O O4 0.236127 0.939944 0.791666
O O5 0.710270 0.136694 0.086386
O O6 0.749033 0.171919 0.972355
O O7 0.077769 0.908780 0.112577
O O8 0.075372 0.453624 0.958883
O O9 0.500000 0.500000 0.500000
O O10 0.796721 0.791310 0.495083
O O11 0.296960 0.786787 0.496800
O O12 0.551345 0.063295 0.351867
O O13 0.582008 0.542595 0.165640
O O14 0.366253 0.535635 0.252725
O O15 0.866035 0.498727 0.265093
O O16 0.526195 0.563669 0.910644
O O17 0.000000 0.500000 0.500000
#
# Coordination Sequence:
#
# PCOD9004523 Si02
#       8
#     2   2   2   2   2   2   2   2
#     4  10  24  42  69 103 133 186 229 277 341 404
#     4   9  21  41  62  99 135 185 226 280 336 395
#     4  10  22  42  67  96 131 169 214 283 335 395
#     4  12  28  46  68 103 141 178 224 287 344 406
#     4   9  20  37  67 100 135 171 241 285 323 395
#     4  11  23  38  75  97 134 178 247 283 320 397
#     4  10  21  37  69 100 128 160 220 285 333 388
#     4  11  28  47  66  96 151 184 217 276 354 413
#
# _framework density 25.554431000000001
#
# number of rings (size 3 to 8) (size 9 to 14) (size 15 to 20)
#    0.000    1.750    0.000    3.375   14.000    1.000 
#    0.000    3.750    0.000    0.000    0.000    0.000 
#    0.000    0.000    0.000    0.000    0.000    0.000 
#
# Total GULP energy -89496.896598 kJ/mol
# GULP energy per Si atom -5593.556037 kJ/mol
# Density = 2.549627 g / cm^3
# Si number density = 25.554431 Si / 1000 Ang^3
#
#
#
# Elastic Constant Matrix: (Units=GPa)
#
#
# Indices 1 2 3 4 5 6 
#
# 1 153.4674 12.0367 35.1543 -2.4545 7.4731 -0.7161
# 2 12.0367 36.9250 -11.3896 -5.5042 -1.3108 -1.8328
# 3 35.1543 -11.3896 165.1217 -8.2161 29.9751 6.1372
# 4 -2.4545 -5.5042 -8.2161 28.6164 -1.0179 -0.7271
# 5 7.4731 -1.3108 29.9751 -1.0179 29.4325 -7.1079
# 6 -0.7161 -1.8328 6.1372 -0.7271 -7.1079 34.1106
#
#
#
# Elastic Compliance Matrix: (Units=1/GPa)
#
#
# Indices 1 2 3 4 5 6 
#
# 1 0.007142 -0.002919 -0.001730 -0.000443 -0.000132 0.000267
# 2 -0.002919 0.029966 0.003077 0.006401 -0.000593 0.001008
# 3 -0.001730 0.003077 0.008460 0.002482 -0.008716 -0.003156
# 4 -0.000443 0.006401 0.002482 0.036838 -0.000730 0.000521
# 5 -0.000132 -0.000593 -0.008716 -0.000730 0.045490 0.010997
# 6 0.000267 0.001008 -0.003156 0.000521 0.010997 0.032247
#
#
# Mechanical properties :
#
#
# Convention : Reuss Voigt Hill
#
# Bulk Modulus (GPa) = 23.57166 47.45745 35.51455
# Shear Modulus (GPa) = 28.18056 39.74609 33.96333
#
# Velocity S-wave (km/s) = 3.32439 3.94807 3.64958
# Velocity P-wave (km/s) = 4.89690 6.27650 5.62912
#
# Compressibility (1/GPa) = 0.04242383
#
# Stress axis : x y z
#
# Youngs Moduli (GPa) = 140.01987 33.37132 118.20750
#
# Poissons Ratio (x) = 0.09742 0.20448
# Poissons Ratio (y) = 0.40874 -0.36375
# Poissons Ratio (z) = 0.24221 -0.10269
#
# Static dielectric constant tensor:
#      x y z
#    x 2.721660 0.050320 -0.015350 
#    y 0.050320 2.019810 0.002100 
#    z -0.015350 0.002100 1.951930 
# 
# From -- ./inp_files/76223.got.cif
#   From: 2010.05.17/outbox.cif.g08.bks.cpg/sg2_39_cif.got.tgz:76223.got - 2010.06.03 11:33:40.
