data_PCOD9004863
_publ_section_title
;
Structure prediction by ZEFSAII (Michael W. Deem and Ramdas Pophale) SiO2 
 PCOD9004863
Probable space group: P -1
;
_chemical_formula_sum "Si O2"
_cell_formula_units_Z 15
_cell_length_a 6.261640
_cell_length_b 14.654432
_cell_length_c 7.925876
_cell_angle_alpha 84.842846
_cell_angle_beta 58.258584
_cell_angle_gamma 73.187213
_cell_volume 590.332145
_symmetry_space_group_name_H-M "P -1"
_symmetry_group_IT_number 2
_symmetry_cell_setting 'triclinic'
loop_
_space_group_symop_operation_xyz
x,y,z
-x,-y,-z
loop_
_atom_site_type_symbol
_atom_site_label
_atom_site_fract_x
_atom_site_fract_y
_atom_site_fract_z
Si Si1 0.823858 0.617591 0.261152
Si Si2 0.248961 0.000521 0.717098
Si Si3 0.594946 0.310277 0.279641
Si Si4 0.000000 0.500000 0.500000
Si Si5 0.467118 0.487511 0.818762
Si Si6 0.122272 0.856966 0.573845
Si Si7 0.594869 0.834554 0.814193
Si Si8 0.304801 0.177967 0.831657
O O1 0.653756 0.651254 0.498502
O O2 0.676161 0.587241 0.172213
O O3 0.870215 0.716637 0.166847
O O4 0.999907 0.520353 0.288358
O O5 0.067529 0.958883 0.676212
O O6 0.361721 0.922642 0.828813
O O7 0.500000 0.000000 0.500000
O O8 0.170268 0.103249 0.817670
O O9 0.680863 0.403571 0.190584
O O10 0.798849 0.226814 0.305831
O O11 0.478920 0.261915 0.184098
O O12 0.259513 0.539288 0.394235
O O13 0.500000 0.500000 0.000000
O O14 0.394893 0.839952 0.361043
O O15 0.858259 0.843486 0.606388
O O16 0.651276 0.839218 0.985994
#
# Coordination Sequence:
#
# PCOD9004863 Si02
#       8
#     2   2   2   1   2   2   2   2
#     4  10  22  41  61  87 121 158 198 244 299 353
#     4   9  20  40  57  84 122 150 192 246 289 351
#     4   9  20  38  57  85 120 148 193 245 286 354
#     4  10  22  40  62  84 118 160 194 240 296 352
#     4  11  23  39  61  88 118 154 199 249 298 350
#     4   9  21  39  60  82 116 156 188 239 298 348
#     4  11  21  37  62  87 114 157 196 236 299 348
#     4  10  21  38  59  87 119 148 199 251 283 349
#
# _framework density 25.409427999999998
#
# number of rings (size 3 to 8) (size 9 to 14) (size 15 to 20)
#    0.000    2.133    0.000    3.600    0.000   10.667 
#    0.000   12.000    0.000    0.000    0.000    0.000 
#    0.000    0.000    0.000    0.000    0.000    0.000 
#
# Total GULP energy -83542.817885 kJ/mol
# GULP energy per Si atom -5569.521192 kJ/mol
# Density = 2.535159 g / cm^3
# Si number density = 25.409428 Si / 1000 Ang^3
#
#
#
# Elastic Constant Matrix: (Units=GPa)
#
#
# Indices 1 2 3 4 5 6 
#
# 1 1152.7315 1633.7726 77.2465 71.5757 417.5726 -502.9514
# 2 1633.7726 2520.1628 111.9886 99.1158 638.2955 -730.7615
# 3 77.2465 111.9886 91.7811 7.4048 36.1140 -43.0493
# 4 71.5757 99.1158 7.4048 32.5243 22.5352 -22.0740
# 5 417.5726 638.2955 36.1140 22.5352 214.0812 -199.3211
# 6 -502.9514 -730.7615 -43.0493 -22.0740 -199.3211 261.6465
#
#
#
# Elastic Compliance Matrix: (Units=1/GPa)
#
#
# Indices 1 2 3 4 5 6 
#
# 1 0.014006 -0.006444 0.000491 -0.005724 0.001201 0.009440
# 2 -0.006444 0.005912 0.000336 -0.000361 -0.004171 0.000971
# 3 0.000491 0.000336 0.012012 -0.002140 -0.001156 0.002798
# 4 -0.005724 -0.000361 -0.002140 0.038723 0.000196 -0.008948
# 5 0.001201 -0.004171 -0.001156 0.000196 0.020915 0.006419
# 6 0.009440 0.000971 0.002798 -0.008948 0.006419 0.029274
#
#
# Mechanical properties :
#
#
# Convention : Reuss Voigt Hill
#
# Bulk Modulus (GPa) = 48.31759 823.41007 435.86383
# Shear Modulus (GPa) = 35.97806 231.09493 133.53650
#
# Velocity S-wave (km/s) = 3.76697 9.54704 7.25727
# Velocity P-wave (km/s) = 6.16255 21.12554 15.56061
#
# Compressibility (1/GPa) = 0.02069640
#
# Stress axis : x y z
#
# Youngs Moduli (GPa) = 71.39591 169.16115 83.25063
#
# Poissons Ratio (x) = 1.09006 -0.04087
# Poissons Ratio (y) = 0.46007 -0.02799
# Poissons Ratio (z) = -0.03505 -0.05687
#
# Static dielectric constant tensor:
#      x y z
#    x 2.150780 -0.163430 -0.050410 
#    y -0.163430 2.099080 -0.021020 
#    z -0.050410 -0.021020 2.062220 
# 
# From -- ./inp_files/41636.got.cif
#   From: 2010.05.17/outbox.cif.g08.bks.cpg/sg2_21_cif.got.tgz:41636.got - 2010.06.03 11:33:40.
