data_PCOD9004454
_publ_section_title
;
Structure prediction by ZEFSAII (Michael W. Deem and Ramdas Pophale) SiO2 
 PCOD9004454
Probable space group: P -1
;
_chemical_formula_sum "Si O2"
_cell_formula_units_Z 14
_cell_length_a 5.605456
_cell_length_b 14.499194
_cell_length_c 21.128026
_cell_angle_alpha 25.074407
_cell_angle_beta 73.449426
_cell_angle_gamma 88.325845
_cell_volume 576.413634
_symmetry_space_group_name_H-M "P -1"
_symmetry_group_IT_number 2
_symmetry_cell_setting 'triclinic'
loop_
_space_group_symop_operation_xyz
x,y,z
-x,-y,-z
loop_
_atom_site_type_symbol
_atom_site_label
_atom_site_fract_x
_atom_site_fract_y
_atom_site_fract_z
Si Si1 0.205211 0.298235 0.773036
Si Si2 0.391430 0.695395 0.064833
Si Si3 0.386685 0.336488 0.384942
Si Si4 0.178213 0.567419 0.032988
Si Si5 0.753457 0.905730 0.708533
Si Si6 0.485861 0.719748 0.724514
Si Si7 0.791088 0.300873 0.693615
O O1 0.321338 0.510215 0.688953
O O2 0.519266 0.337659 0.704029
O O3 0.009679 0.331153 0.715608
O O4 0.000000 0.000000 0.000000
O O5 0.619164 0.000051 0.869950
O O6 0.328150 0.548768 0.227511
O O7 0.149258 0.635397 0.066615
O O8 0.515686 0.545327 0.111971
O O9 0.434939 0.202170 0.403755
O O10 0.076812 0.127430 0.573088
O O11 0.240816 0.349082 0.145041
O O12 0.832012 0.404383 0.140814
O O13 0.463859 0.832603 0.816360
O O14 0.722138 0.957389 0.604635
O O15 0.000000 0.500000 0.500000
#
# Coordination Sequence:
#
# PCOD9004454 Si02
#       7
#     2   2   2   2   2   2   2
#     4  12  26  50  76 107 147 188 244 303 362 432
#     4   9  23  41  67  93 139 176 235 284 362 414
#     4  10  23  42  67  99 138 181 237 287 353 424
#     4  10  21  37  67  92 138 181 228 286 355 422
#     4  10  21  41  58 100 136 179 232 287 346 421
#     4   9  20  40  65  94 132 185 226 287 350 424
#     4  12  28  50  75 107 146 189 242 305 367 431
#
# _framework density 24.288111000000001
#
# number of rings (size 3 to 8) (size 9 to 14) (size 15 to 20)
#    0.857    0.857    1.429    1.714    6.000    0.571 
#    2.571    0.000    0.000    0.000    0.000    0.000 
#    0.000    0.000    0.000    0.000    0.000    0.000 
#
# Total GULP energy -78008.323225 kJ/mol
# GULP energy per Si atom -5572.023087 kJ/mol
# Density = 2.423283 g / cm^3
# Si number density = 24.288111 Si / 1000 Ang^3
#
#
#
# Elastic Constant Matrix: (Units=GPa)
#
#
# Indices 1 2 3 4 5 6 
#
# 1 93.1461 37.2411 16.3519 9.2697 -17.5866 4.2128
# 2 37.2411 76.9767 26.5954 -7.9077 -11.4041 18.6791
# 3 16.3519 26.5954 87.2308 5.7580 -14.0702 -0.6322
# 4 9.2697 -7.9077 5.7580 36.0836 -0.9936 -11.8215
# 5 -17.5866 -11.4041 -14.0702 -0.9936 36.6027 4.7257
# 6 4.2128 18.6791 -0.6322 -11.8215 4.7257 38.6525
#
#
#
# Elastic Compliance Matrix: (Units=1/GPa)
#
#
# Indices 1 2 3 4 5 6 
#
# 1 0.015042 -0.007159 0.000551 -0.005541 0.005122 -0.000492
# 2 -0.007159 0.021055 -0.005057 0.004585 0.002381 -0.008367
# 3 0.000551 -0.005057 0.013703 -0.002921 0.003715 0.001260
# 4 -0.005541 0.004585 -0.002921 0.033448 -0.002596 0.008888
# 5 0.005122 0.002381 0.003715 -0.002596 0.032712 -0.006442
# 6 -0.000492 -0.008367 0.001260 0.008888 -0.006442 0.033495
#
#
# Mechanical properties :
#
#
# Convention : Reuss Voigt Hill
#
# Bulk Modulus (GPa) = 37.77534 46.41448 42.09491
# Shear Modulus (GPa) = 27.53170 34.07877 30.80523
#
# Velocity S-wave (km/s) = 3.37047 3.74987 3.56522
# Velocity P-wave (km/s) = 5.54378 6.15631 5.85806
#
# Compressibility (1/GPa) = 0.02647230
#
# Stress axis : x y z
#
# Youngs Moduli (GPa) = 66.48069 47.49360 72.97447
#
# Poissons Ratio (x) = 0.34000 -0.04023
# Poissons Ratio (y) = 0.47592 0.36901
# Poissons Ratio (z) = -0.03665 0.24016
#
# Static dielectric constant tensor:
#      x y z
#    x 2.080190 0.115550 -0.093750 
#    y 0.115550 2.040770 -0.053090 
#    z -0.093750 -0.053090 1.590020 
# 
# From -- ./inp_files/126094.got.cif
#   From: 2010.05.17/outbox.cif.g08.bks.cpg/sg2_64_cif.got.tgz:126094.got - 2010.06.03 11:33:40.
