data_PCOD9004868
_publ_section_title
;
Structure prediction by ZEFSAII (Michael W. Deem and Ramdas Pophale) SiO2 
 PCOD9004868
Probable space group: P -1
;
_chemical_formula_sum "Si O2"
_cell_formula_units_Z 16
_cell_length_a 11.479671
_cell_length_b 9.214218
_cell_length_c 8.225075
_cell_angle_alpha 87.838769
_cell_angle_beta 95.698485
_cell_angle_gamma 121.338997
_cell_volume 739.314463
_symmetry_space_group_name_H-M "P -1"
_symmetry_group_IT_number 2
_symmetry_cell_setting 'triclinic'
loop_
_space_group_symop_operation_xyz
x,y,z
-x,-y,-z
loop_
_atom_site_type_symbol
_atom_site_label
_atom_site_fract_x
_atom_site_fract_y
_atom_site_fract_z
Si Si1 0.590797 0.823268 0.435035
Si Si2 0.418077 0.760174 0.740453
Si Si3 0.795781 0.042786 0.688172
Si Si4 0.716128 0.721443 0.920412
Si Si5 0.020916 0.282356 0.931019
Si Si6 0.398288 0.874514 0.175440
Si Si7 0.442177 0.437698 0.781618
Si Si8 0.180970 0.680526 0.888114
O O1 0.492545 0.800014 0.574500
O O2 0.742864 0.965862 0.506013
O O3 0.515113 0.853450 0.274575
O O4 0.593636 0.657813 0.389685
O O5 0.401188 0.580254 0.789781
O O6 0.269688 0.740518 0.733139
O O7 0.520739 0.922973 0.858997
O O8 0.742457 0.877223 0.804546
O O9 0.715458 0.140045 0.712656
O O10 0.948801 0.167399 0.767403
O O11 0.606043 0.546362 0.823245
O O12 0.859295 0.738812 0.980205
O O13 0.638512 0.698541 0.081531
O O14 0.084388 0.478556 0.883834
O O15 0.906250 0.241533 0.056203
O O16 0.303713 0.740030 0.033604
#
# Coordination Sequence:
#
# PCOD9004868 Si02
#       8
#     2   2   2   2   2   2   2   2
#     4  11  23  37  60  90 124 157 192 246 306 351
#     4  11  20  38  60  93 122 150 192 253 300 352
#     4  10  21  38  60  86 122 160 201 237 294 360
#     4  11  21  38  62  89 120 153 197 249 296 348
#     4  10  21  38  59  87 120 159 200 243 291 347
#     4  10  21  38  62  91 120 153 196 255 301 344
#     4  11  23  37  63  94 121 150 194 254 305 348
#     4  10  21  38  64  87 116 157 203 245 292 352
#
# _framework density 21.641670000000001
#
# number of rings (size 3 to 8) (size 9 to 14) (size 15 to 20)
#    0.000    1.500    3.750    3.375    1.750    2.000 
#    0.000    0.625    0.000   21.750    0.000    0.000 
#    0.000    0.000    0.000    0.000    0.000    0.000 
#
# Total GULP energy -89179.423767 kJ/mol
# GULP energy per Si atom -5573.713985 kJ/mol
# Density = 2.159241 g / cm^3
# Si number density = 21.641670 Si / 1000 Ang^3
#
#
#
# Elastic Constant Matrix: (Units=GPa)
#
#
# Indices 1 2 3 4 5 6 
#
# 1 107.6660 22.9063 33.2538 17.2083 20.3074 10.1429
# 2 22.9063 83.1457 43.9637 26.4818 4.8495 5.0314
# 3 33.2538 43.9637 73.2587 30.4580 7.0530 3.1836
# 4 17.2083 26.4818 30.4580 40.5168 -2.0265 6.1461
# 5 20.3074 4.8495 7.0530 -2.0265 33.9793 1.3233
# 6 10.1429 5.0314 3.1836 6.1461 1.3233 29.6440
#
#
#
# Elastic Compliance Matrix: (Units=1/GPa)
#
#
# Indices 1 2 3 4 5 6 
#
# 1 0.012388 -0.000098 -0.003917 -0.002116 -0.006583 -0.003069
# 2 -0.000098 0.018476 -0.008632 -0.005448 -0.001073 -0.000998
# 3 -0.003917 -0.008632 0.026103 -0.012877 -0.002722 0.002793
# 4 -0.002116 -0.005448 -0.012877 0.040036 0.007321 -0.005596
# 5 -0.006583 -0.001073 -0.002722 0.007321 0.034532 -0.000332
# 6 -0.003069 -0.000998 0.002793 -0.005596 -0.000332 0.035828
#
#
# Mechanical properties :
#
#
# Convention : Reuss Voigt Hill
#
# Bulk Modulus (GPa) = 31.57264 51.59089 41.58176
# Shear Modulus (GPa) = 24.60465 31.75779 28.18122
#
# Velocity S-wave (km/s) = 3.37547 3.83487 3.61248
# Velocity P-wave (km/s) = 5.46006 6.59536 6.05438
#
# Compressibility (1/GPa) = 0.03167300
#
# Stress axis : x y z
#
# Youngs Moduli (GPa) = 80.72521 54.12348 38.31002
#
# Poissons Ratio (x) = 0.00529 0.15007
# Poissons Ratio (y) = 0.00789 0.33068
# Poissons Ratio (z) = 0.31623 0.46718
#
# Static dielectric constant tensor:
#      x y z
#    x 1.829310 -0.004970 -0.034950 
#    y -0.004970 1.822480 -0.018850 
#    z -0.034950 -0.018850 1.851900 
# 
# From -- ./inp_files/244124.got.cif
#   From: 2010.05.17/outbox.cif.g08.bks.cpg/sg2_123_cif.got.tgz:244124.got - 2010.06.03 11:33:40.
