data_PCOD9004631
_publ_section_title
;
Structure prediction by ZEFSAII (Michael W. Deem and Ramdas Pophale) SiO2 
 PCOD9004631
Probable space group: P -1
;
_chemical_formula_sum "Si O2"
_cell_formula_units_Z 10
_cell_length_a 11.948968
_cell_length_b 15.400560
_cell_length_c 4.995727
_cell_angle_alpha 74.278112
_cell_angle_beta 98.039965
_cell_angle_gamma 153.040972
_cell_volume 390.146082
_symmetry_space_group_name_H-M "P -1"
_symmetry_group_IT_number 2
_symmetry_cell_setting 'triclinic'
loop_
_space_group_symop_operation_xyz
x,y,z
-x,-y,-z
loop_
_atom_site_type_symbol
_atom_site_label
_atom_site_fract_x
_atom_site_fract_y
_atom_site_fract_z
Si Si1 0.729936 0.259784 0.089288
Si Si2 0.628910 0.492807 0.539192
Si Si3 0.982586 0.133676 0.963833
Si Si4 0.393060 0.032463 0.650093
Si Si5 0.637675 0.748621 0.853701
O O1 0.524153 0.154346 0.315092
O O2 0.730953 0.155318 0.258505
O O3 0.619564 0.187118 0.814772
O O4 0.000000 0.500000 0.000000
O O5 0.500000 0.500000 0.500000
O O6 0.461799 0.314839 0.425831
O O7 0.599596 0.429459 0.873276
O O8 0.897729 0.702198 0.316893
O O9 0.206674 0.234278 0.085872
O O10 0.813012 0.051909 0.209885
O O11 0.829993 0.958136 0.863983
#
# Coordination Sequence:
#
# PCOD9004631 Si02
#       5
#     2   2   2   2   2
#     4  10  22  43  61  84 116 146 187 245 295 343
#     4  10  21  38  56  81 118 159 193 231 278 329
#     4  10  22  38  59  86 119 152 193 238 276 338
#     4  10  23  38  62  89 111 148 195 235 289 345
#     4  10  23  37  56  85 121 158 191 228 281 335
#
# _framework density 25.631423999999999
#
# number of rings (size 3 to 8) (size 9 to 14) (size 15 to 20)
#    0.000    2.000    0.000    3.000    0.000   18.400 
#    0.000    0.000    0.000    0.000    0.000    0.000 
#    0.000    0.000    0.000    0.000    0.000    0.000 
#
# Total GULP energy -56115.598105 kJ/mol
# GULP energy per Si atom -5611.559810 kJ/mol
# Density = 2.557309 g / cm^3
# Si number density = 25.631424 Si / 1000 Ang^3
#
#
#
# Elastic Constant Matrix: (Units=GPa)
#
#
# Indices 1 2 3 4 5 6 
#
# 1 64.3551 32.9346 34.3634 -7.9051 -15.9307 4.7539
# 2 32.9346 157.6692 47.1895 -20.2846 -9.8318 -23.4095
# 3 34.3634 47.1895 111.4736 -1.1292 -11.9539 -7.9440
# 4 -7.9051 -20.2846 -1.1292 47.9082 -0.7845 -6.2592
# 5 -15.9307 -9.8318 -11.9539 -0.7845 38.7594 4.0707
# 6 4.7539 -23.4095 -7.9440 -6.2592 4.0707 16.0595
#
#
#
# Elastic Compliance Matrix: (Units=1/GPa)
#
#
# Indices 1 2 3 4 5 6 
#
# 1 0.026062 -0.006824 -0.005812 -0.001655 0.009636 -0.023624
# 2 -0.006824 0.012376 -0.001718 0.006979 -0.002422 0.022545
# 3 -0.005812 -0.001718 0.011850 -0.000789 0.000322 0.004689
# 4 -0.001655 0.006979 -0.000789 0.026228 -0.000796 0.020697
# 5 0.009636 -0.002422 0.000322 -0.000796 0.030734 -0.014324
# 6 -0.023624 0.022545 0.004689 0.020697 -0.014324 0.116142
#
#
# Mechanical properties :
#
#
# Convention : Reuss Voigt Hill
#
# Bulk Modulus (GPa) = 46.33887 62.49699 54.41793
# Shear Modulus (GPa) = 19.28320 35.14611 27.21466
#
# Velocity S-wave (km/s) = 2.74583 3.70700 3.26201
# Velocity P-wave (km/s) = 5.30763 6.53899 5.95522
#
# Compressibility (1/GPa) = 0.02158016
#
# Stress axis : x y z
#
# Youngs Moduli (GPa) = 38.37053 80.80062 84.38584
#
# Poissons Ratio (x) = 0.55137 0.49047
# Poissons Ratio (y) = 0.26184 0.14497
# Poissons Ratio (z) = 0.22302 0.13881
#
# Static dielectric constant tensor:
#      x y z
#    x 2.082670 -0.004050 0.026370 
#    y -0.004050 1.989690 -0.016470 
#    z 0.026370 -0.016470 1.977100 
# 
# From -- ./inp_files/77868.got.cif
#   From: 2010.05.17/outbox.cif.g08.bks.cpg/sg2_39_cif.got.tgz:77868.got - 2010.06.03 11:33:40.
