data_PCOD9004088
_publ_section_title
;
Structure prediction by ZEFSAII (Michael W. Deem and Ramdas Pophale) SiO2 
 PCOD9004088
Probable space group: P -1
;
_chemical_formula_sum "Si O2"
_cell_formula_units_Z 14
_cell_length_a 16.599213
_cell_length_b 9.748375
_cell_length_c 13.209507
_cell_angle_alpha 33.910035
_cell_angle_beta 135.419993
_cell_angle_gamma 112.138069
_cell_volume 700.571375
_symmetry_space_group_name_H-M "P -1"
_symmetry_group_IT_number 2
_symmetry_cell_setting 'triclinic'
loop_
_space_group_symop_operation_xyz
x,y,z
-x,-y,-z
loop_
_atom_site_type_symbol
_atom_site_label
_atom_site_fract_x
_atom_site_fract_y
_atom_site_fract_z
Si Si1 0.609223 0.500841 0.197135
Si Si2 0.845743 0.441363 0.814807
Si Si3 0.840972 0.038276 0.213331
Si Si4 0.659818 0.793496 0.243787
Si Si5 0.132275 0.700891 0.718588
Si Si6 0.844003 0.903008 0.666847
Si Si7 0.427978 0.269679 0.193092
O O1 0.671614 0.596165 0.280778
O O2 0.483944 0.479900 0.139181
O O3 0.724514 0.174781 0.457479
O O4 0.557613 0.731759 0.915639
O O5 0.748156 0.593499 0.539612
O O6 0.806390 0.688251 0.714423
O O7 0.831654 0.191051 0.006033
O O8 0.007678 0.294033 0.026302
O O9 0.847403 0.233578 0.189026
O O10 0.721073 0.987318 0.152951
O O11 0.989566 0.735809 0.546604
O O12 0.500000 0.000000 0.000000
O O13 0.127679 0.952063 0.492158
O O14 0.268320 0.408806 0.984135
O O15 0.500000 0.000000 0.500000
#
# Coordination Sequence:
#
# PCOD9004088 Si02
#       7
#     2   2   2   2   2   2   2
#     4  10  24  40  60  89 128 162 195 255 313 352
#     4  10  22  38  66  91 118 160 211 249 296 367
#     4  10  21  37  64  88 117 160 205 251 303 349
#     4  12  26  41  58  90 133 163 194 254 314 368
#     4   9  18  37  61  92 115 151 211 257 287 352
#     4   9  19  41  64  92 118 157 212 256 293 356
#     4  10  22  38  62  89 119 160 207 245 297 370
#
# _framework density 19.983689999999999
#
# number of rings (size 3 to 8) (size 9 to 14) (size 15 to 20)
#    0.000    2.000    1.429    0.857    8.000    2.286 
#    0.000    6.429    0.000    0.000    0.000    0.000 
#    0.000    0.000    0.000    0.000    0.000    0.000 
#
# Total GULP energy -78104.290193 kJ/mol
# GULP energy per Si atom -5578.877871 kJ/mol
# Density = 1.993821 g / cm^3
# Si number density = 19.983690 Si / 1000 Ang^3
#
#
#
# Elastic Constant Matrix: (Units=GPa)
#
#
# Indices 1 2 3 4 5 6 
#
# 1 80.9038 32.5281 53.8540 7.2744 3.2969 11.4821
# 2 32.5281 82.3222 49.7568 21.6083 -0.5943 0.1328
# 3 53.8540 49.7568 148.5576 22.9662 -14.1989 0.9607
# 4 7.2744 21.6083 22.9662 29.2267 -4.0499 5.9613
# 5 3.2969 -0.5943 -14.1989 -4.0499 40.3027 0.1141
# 6 11.4821 0.1328 0.9607 5.9613 0.1141 24.2437
#
#
#
# Elastic Compliance Matrix: (Units=1/GPa)
#
#
# Indices 1 2 3 4 5 6 
#
# 1 0.020107 -0.005520 -0.006624 0.005987 -0.003428 -0.010686
# 2 -0.005520 0.019085 -0.002720 -0.011932 -0.001440 0.005558
# 3 -0.006624 -0.002720 0.011233 -0.005448 0.003900 0.004028
# 4 0.005987 -0.011932 -0.005448 0.049149 0.002395 -0.014651
# 5 -0.003428 -0.001440 0.003900 0.002395 0.026684 0.000762
# 6 -0.010686 0.005558 0.004028 -0.014651 0.000762 0.049718
#
#
# Mechanical properties :
#
#
# Convention : Reuss Voigt Hill
#
# Bulk Modulus (GPa) = 48.31751 64.89572 56.60662
# Shear Modulus (GPa) = 23.51791 30.46426 26.99108
#
# Velocity S-wave (km/s) = 3.43425 3.90866 3.67911
# Velocity P-wave (km/s) = 6.32111 7.27427 6.81438
#
# Compressibility (1/GPa) = 0.02069643
#
# Stress axis : x y z
#
# Youngs Moduli (GPa) = 49.73307 52.39623 89.02453
#
# Poissons Ratio (x) = 0.28923 0.58973
# Poissons Ratio (y) = 0.27453 0.24216
# Poissons Ratio (z) = 0.32945 0.14252
#
# Static dielectric constant tensor:
#      x y z
#    x 1.742370 -0.010730 0.024130 
#    y -0.010730 1.679550 -0.019520 
#    z 0.024130 -0.019520 1.740480 
# 
# From -- ./inp_files/277296.got.cif
#   From: 2010.05.17/outbox.cif.g08.bks.cpg/sg2_139_cif.got.tgz:277296.got - 2010.06.03 11:33:40.
