data_PCOD9004717
_publ_section_title
;
Structure prediction by ZEFSAII (Michael W. Deem and Ramdas Pophale) SiO2 
 PCOD9004717
Probable space group: P -1
;
_chemical_formula_sum "Si O2"
_cell_formula_units_Z 16
_cell_length_a 9.381596
_cell_length_b 19.692190
_cell_length_c 8.067427
_cell_angle_alpha 122.371779
_cell_angle_beta 55.863746
_cell_angle_gamma 146.580549
_cell_volume 672.049089
_symmetry_space_group_name_H-M "P -1"
_symmetry_group_IT_number 2
_symmetry_cell_setting 'triclinic'
loop_
_space_group_symop_operation_xyz
x,y,z
-x,-y,-z
loop_
_atom_site_type_symbol
_atom_site_label
_atom_site_fract_x
_atom_site_fract_y
_atom_site_fract_z
Si Si1 0.939019 0.732128 0.612271
Si Si2 0.981395 0.896593 0.364048
Si Si3 0.361007 0.178499 0.241477
Si Si4 0.349619 0.911472 0.323920
Si Si5 0.369794 0.586676 0.799732
Si Si6 0.103406 0.943767 0.980088
Si Si7 0.127742 0.542898 0.242064
Si Si8 0.201649 0.696989 0.634078
O O1 0.102823 0.775770 0.391772
O O2 0.067794 0.722911 0.659667
O O3 0.620097 0.617187 0.653311
O O4 0.989001 0.841902 0.786370
O O5 0.236863 0.943878 0.333086
O O6 0.973889 0.869038 0.141566
O O7 0.752854 0.797369 0.519089
O O8 0.000000 0.000000 0.500000
O O9 0.531481 0.286999 0.138388
O O10 0.562241 0.199803 0.256478
O O11 0.115755 0.044264 0.139069
O O12 0.500000 0.000000 0.500000
O O13 0.576214 0.949450 0.119553
O O14 0.119981 0.492034 0.714002
O O15 0.267659 0.551043 0.006924
O O16 0.304428 0.670254 0.392945
O O17 0.012509 0.432841 0.293609
#
# Coordination Sequence:
#
# PCOD9004717 Si02
#       8
#     2   2   2   2   2   2   2   2
#     4  11  24  39  61  97 128 161 205 248 311 370
#     4  10  21  38  58  83 121 173 208 243 287 356
#     4  10  22  40  62  91 126 168 209 240 305 371
#     4  10  22  39  55  86 129 163 203 252 289 355
#     4  10  21  43  66  91 120 157 208 263 313 363
#     4  10  24  38  59  90 134 167 200 244 293 375
#     4   9  22  45  68  87 119 155 211 270 310 365
#     4  10  23  41  65  91 119 163 204 259 316 366
#
# _framework density 23.807784000000002
#
# number of rings (size 3 to 8) (size 9 to 14) (size 15 to 20)
#    0.000    2.000    1.250    0.375   12.250    1.500 
#    2.250    0.000    0.000    0.000    0.000    0.000 
#    0.000    0.000    0.000    0.000    0.000    0.000 
#
# Total GULP energy -89217.321340 kJ/mol
# GULP energy per Si atom -5576.082584 kJ/mol
# Density = 2.375360 g / cm^3
# Si number density = 23.807784 Si / 1000 Ang^3
#
#
#
# Elastic Constant Matrix: (Units=GPa)
#
#
# Indices 1 2 3 4 5 6 
#
# 1 73.9231 19.3217 6.2696 -4.2233 -5.3508 -15.8114
# 2 19.3217 56.3930 28.0996 4.3348 9.1382 4.9629
# 3 6.2696 28.0996 100.4714 -18.0472 11.6633 -1.5092
# 4 -4.2233 4.3348 -18.0472 49.5158 8.5472 6.6890
# 5 -5.3508 9.1382 11.6633 8.5472 28.2164 -2.1553
# 6 -15.8114 4.9629 -1.5092 6.6890 -2.1553 37.1481
#
#
#
# Elastic Compliance Matrix: (Units=1/GPa)
#
#
# Indices 1 2 3 4 5 6 
#
# 1 0.018127 -0.008405 0.000618 0.000127 0.006570 0.009222
# 2 -0.008405 0.025889 -0.006620 -0.003262 -0.006797 -0.007112
# 3 0.000618 -0.006620 0.013539 0.006445 -0.005270 0.000231
# 4 0.000127 -0.003262 0.006445 0.025064 -0.009505 -0.004313
# 5 0.006570 -0.006797 -0.005270 -0.009505 0.044540 0.007786
# 6 0.009222 -0.007112 0.000231 -0.004313 0.007786 0.033032
#
#
# Mechanical properties :
#
#
# Convention : Reuss Voigt Hill
#
# Bulk Modulus (GPa) = 34.79201 37.57436 36.18318
# Shear Modulus (GPa) = 25.17810 34.78251 29.98031
#
# Velocity S-wave (km/s) = 3.25554 3.82641 3.55246
# Velocity P-wave (km/s) = 5.36440 5.94462 5.66195
#
# Compressibility (1/GPa) = 0.02874223
#
# Stress axis : x y z
#
# Youngs Moduli (GPa) = 55.16572 38.62639 73.86140
#
# Poissons Ratio (x) = 0.32465 -0.04566
# Poissons Ratio (y) = 0.46366 0.48895
# Poissons Ratio (z) = -0.03411 0.25570
#
# Static dielectric constant tensor:
#      x y z
#    x 1.989350 -0.010190 0.017810 
#    y -0.010190 2.002280 0.037010 
#    z 0.017810 0.037010 1.894490 
# 
# From -- ./inp_files/223763.got.cif
#   From: 2010.05.17/outbox.cif.g08.bks.cpg/sg2_112_cif.got.tgz:223763.got - 2010.06.03 11:33:40.
