data_PCOD9004510
_publ_section_title
;
Structure prediction by ZEFSAII (Michael W. Deem and Ramdas Pophale) SiO2 
 PCOD9004510
Probable space group: P -1
;
_chemical_formula_sum "Si O2"
_cell_formula_units_Z 16
_cell_length_a 8.920630
_cell_length_b 9.458940
_cell_length_c 15.113561
_cell_angle_alpha 48.176017
_cell_angle_beta 85.044430
_cell_angle_gamma 114.098032
_cell_volume 737.137918
_symmetry_space_group_name_H-M "P -1"
_symmetry_group_IT_number 2
_symmetry_cell_setting 'triclinic'
loop_
_space_group_symop_operation_xyz
x,y,z
-x,-y,-z
loop_
_atom_site_type_symbol
_atom_site_label
_atom_site_fract_x
_atom_site_fract_y
_atom_site_fract_z
Si Si1 0.193872 0.839756 0.147398
Si Si2 0.113767 0.611576 0.540338
Si Si3 0.999056 0.086620 0.561316
Si Si4 0.217504 0.185455 0.144644
Si Si5 0.583298 0.551213 0.572003
Si Si6 0.529886 0.931693 0.432660
Si Si7 0.399568 0.043645 0.873599
Si Si8 0.377405 0.705165 0.871048
O O1 0.388144 0.871796 0.145931
O O2 0.008286 0.571733 0.296531
O O3 0.168325 0.003342 0.143306
O O4 0.240380 0.926311 0.007921
O O5 0.331268 0.710939 0.485411
O O6 0.000000 0.500000 0.500000
O O7 0.149568 0.858447 0.456529
O O8 0.199200 0.349206 0.466910
O O9 0.000000 0.000000 0.500000
O O10 0.929197 0.916704 0.722222
O O11 0.415160 0.239054 0.147990
O O12 0.240991 0.415312 0.009469
O O13 0.500000 0.500000 0.500000
O O14 0.622441 0.798875 0.497773
O O15 0.442580 0.291778 0.736051
O O16 0.500000 0.000000 0.500000
O O17 0.627340 0.171274 0.268149
O O18 0.339911 0.836797 0.892003
#
# Coordination Sequence:
#
# PCOD9004510 Si02
#       8
#     2   2   2   2   2   2   2   2
#     4  10  21  37  68  95 123 165 226 275 307 373
#     4  12  21  44  70  94 126 170 230 271 304 382
#     4  12  25  40  67 101 129 167 226 270 313 380
#     4  10  22  38  66  94 129 167 221 270 316 377
#     4  12  25  43  67  95 135 174 211 269 332 386
#     4  12  26  43  65  96 138 174 208 265 338 391
#     4  10  21  40  63  98 126 168 218 271 322 375
#     4  10  21  41  62  93 131 172 211 266 328 382
#
# _framework density 21.705572
#
# number of rings (size 3 to 8) (size 9 to 14) (size 15 to 20)
#    0.000    1.000    5.000    2.250    3.500    1.000 
#    0.000    2.500    0.000    0.000    0.000    0.000 
#    0.000    0.000    0.000    0.000    0.000    0.000 
#
# Total GULP energy -89157.121696 kJ/mol
# GULP energy per Si atom -5572.320106 kJ/mol
# Density = 2.165617 g / cm^3
# Si number density = 21.705572 Si / 1000 Ang^3
#
#
#
# Elastic Constant Matrix: (Units=GPa)
#
#
# Indices 1 2 3 4 5 6 
#
# 1 30.1328 17.0098 16.1693 4.6742 10.4755 -14.3426
# 2 17.0098 100.3266 57.3014 18.1871 10.5176 -18.8738
# 3 16.1693 57.3014 213.5735 7.1522 21.3606 -24.5426
# 4 4.6742 18.1871 7.1522 32.8548 -6.8661 -0.0822
# 5 10.4755 10.5176 21.3606 -6.8661 33.3083 -9.5343
# 6 -14.3426 -18.8738 -24.5426 -0.0822 -9.5343 36.5578
#
#
#
# Elastic Compliance Matrix: (Units=1/GPa)
#
#
# Indices 1 2 3 4 5 6 
#
# 1 0.046397 -0.002846 0.000237 -0.007424 -0.011396 0.013904
# 2 -0.002846 0.014297 -0.002701 -0.007396 -0.002315 0.003831
# 3 0.000237 -0.002701 0.005878 -0.000333 -0.002489 0.001995
# 4 -0.007424 -0.007396 -0.000333 0.038082 0.011637 -0.003834
# 5 -0.011396 -0.002315 -0.002489 0.011637 0.039164 0.002903
# 6 0.013904 0.003831 0.001995 -0.003834 0.002903 0.036874
#
#
# Mechanical properties :
#
#
# Convention : Reuss Voigt Hill
#
# Bulk Modulus (GPa) = 17.87214 58.33266 38.10240
# Shear Modulus (GPa) = 23.81388 37.44766 30.63077
#
# Velocity S-wave (km/s) = 3.31589 4.15813 3.76066
# Velocity P-wave (km/s) = 4.78664 7.07009 6.03731
#
# Compressibility (1/GPa) = 0.05595301
#
# Stress axis : x y z
#
# Youngs Moduli (GPa) = 21.55310 69.94703 170.11744
#
# Poissons Ratio (x) = 0.19904 -0.04031
# Poissons Ratio (y) = 0.06133 0.45946
# Poissons Ratio (z) = -0.00511 0.18892
#
# Static dielectric constant tensor:
#      x y z
#    x 1.870140 -0.006240 0.015520 
#    y -0.006240 1.821940 0.030010 
#    z 0.015520 0.030010 1.820360 
# 
# From -- ./inp_files/494381.got.cif
#   From: 2010.05.17/outbox.cif.g08.bks.cpg/sg2_248_cif.got.tgz:494381.got - 2010.06.03 11:33:40.
