data_PCOD9004808
_publ_section_title
;
Structure prediction by ZEFSAII (Michael W. Deem and Ramdas Pophale) SiO2 
 PCOD9004808
Probable space group: P -1
;
_chemical_formula_sum "Si O2"
_cell_formula_units_Z 14
_cell_length_a 11.433633
_cell_length_b 8.359172
_cell_length_c 5.446940
_cell_angle_alpha 86.124387
_cell_angle_beta 101.037573
_cell_angle_gamma 101.842327
_cell_volume 499.872647
_symmetry_space_group_name_H-M "P -1"
_symmetry_group_IT_number 2
_symmetry_cell_setting 'triclinic'
loop_
_space_group_symop_operation_xyz
x,y,z
-x,-y,-z
loop_
_atom_site_type_symbol
_atom_site_label
_atom_site_fract_x
_atom_site_fract_y
_atom_site_fract_z
Si Si1 0.250111 0.998774 0.052469
Si Si2 0.456139 0.172298 0.428863
Si Si3 0.557923 0.193761 0.964765
Si Si4 0.032547 0.866054 0.709786
Si Si5 0.806192 0.570518 0.747283
Si Si6 0.766742 0.676098 0.210052
Si Si7 0.045178 0.659782 0.339904
O O1 0.315497 0.101716 0.299420
O O2 0.310321 0.842585 0.041676
O O3 0.265943 0.144590 0.840009
O O4 0.107078 0.926846 0.979318
O O5 0.500000 0.000000 0.500000
O O6 0.498905 0.259634 0.694056
O O7 0.274889 0.421971 0.046458
O O8 0.525234 0.260611 0.207626
O O9 0.500000 0.000000 0.000000
O O10 0.114393 0.784478 0.556844
O O11 0.912692 0.733835 0.741722
O O12 0.000000 0.000000 0.500000
O O13 0.737839 0.578233 0.460387
O O14 0.873355 0.416413 0.809801
O O15 0.914282 0.702859 0.228212
O O16 0.000000 0.500000 0.500000
#
# Coordination Sequence:
#
# PCOD9004808 Si02
#       7
#     2   2   2   2   2   2   2
#     4  10  17  28  48  74  99 123 159 201 247 281
#     4   8  16  30  44  63  94 126 149 188 244 299
#     4   8  16  30  44  63  94 126 149 188 244 299
#     4  10  17  33  47  74 104 128 160 205 240 278
#     4  10  21  35  48  62  99 140 166 193 229 280
#     4  10  19  31  49  68  90 128 166 200 232 277
#     4   8  17  34  48  62  95 138 167 193 229 279
#
# _framework density 28.007135999999999
#
# number of rings (size 3 to 8) (size 9 to 14) (size 15 to 20)
#    0.000    3.429    2.857    0.429    0.000    5.143 
#    0.000    0.000    0.000    0.000    0.000    0.000 
#    0.000  267.429    0.000    0.000    0.000    0.000 
#
# Total GULP energy -78041.689920 kJ/mol
# GULP energy per Si atom -5574.406423 kJ/mol
# Density = 2.794339 g / cm^3
# Si number density = 28.007136 Si / 1000 Ang^3
#
#
#
# Elastic Constant Matrix: (Units=GPa)
#
#
# Indices 1 2 3 4 5 6 
#
# 1 92.7090 29.9989 62.0892 -3.8541 -3.9174 -3.4486
# 2 29.9989 77.7343 33.7061 -3.9697 13.4987 -15.3352
# 3 62.0892 33.7061 227.1059 -10.5081 -28.7164 -7.3185
# 4 -3.8541 -3.9697 -10.5081 27.1635 -10.8082 2.8874
# 5 -3.9174 13.4987 -28.7164 -10.8082 57.2379 -4.8562
# 6 -3.4486 -15.3352 -7.3185 2.8874 -4.8562 31.0642
#
#
#
# Elastic Compliance Matrix: (Units=1/GPa)
#
#
# Indices 1 2 3 4 5 6 
#
# 1 0.014386 -0.004451 -0.003249 0.000424 0.000370 -0.001348
# 2 -0.004451 0.017605 -0.001884 -0.001570 -0.005096 0.007102
# 3 -0.003249 -0.001884 0.006243 0.003218 0.004005 0.000507
# 4 0.000424 -0.001570 0.003218 0.042019 0.009749 -0.002351
# 5 0.000370 -0.005096 0.004005 0.009749 0.022641 0.001102
# 6 -0.001348 0.007102 0.000507 -0.002351 0.001102 0.036058
#
#
# Mechanical properties :
#
#
# Convention : Reuss Voigt Hill
#
# Bulk Modulus (GPa) = 52.45378 72.12640 62.29009
# Shear Modulus (GPa) = 30.39948 41.21010 35.80479
#
# Velocity S-wave (km/s) = 3.29814 3.84006 3.57937
# Velocity P-wave (km/s) = 5.76828 6.74316 6.27468
#
# Compressibility (1/GPa) = 0.01906440
#
# Stress axis : x y z
#
# Youngs Moduli (GPa) = 69.51127 56.80257 160.18350
#
# Poissons Ratio (x) = 0.25284 0.52051
# Poissons Ratio (y) = 0.30941 0.30178
# Poissons Ratio (z) = 0.22588 0.10701
#
# Static dielectric constant tensor:
#      x y z
#    x 2.642820 -0.137100 -0.160170 
#    y -0.137100 2.320460 0.137800 
#    z -0.160170 0.137800 2.476620 
# 
# From -- ./inp_files/209934.got.cif
#   From: 2010.05.17/outbox.cif.g08.bks.cpg/sg2_105_cif.got.tgz:209934.got - 2010.06.03 11:33:40.
