data_PCOD9004481
_publ_section_title
;
Structure prediction by ZEFSAII (Michael W. Deem and Ramdas Pophale) SiO2 
 PCOD9004481
Probable space group: P -1
;
_chemical_formula_sum "Si O2"
_cell_formula_units_Z 14
_cell_length_a 9.220747
_cell_length_b 18.058172
_cell_length_c 12.554607
_cell_angle_alpha 27.612306
_cell_angle_beta 144.079706
_cell_angle_gamma 133.367079
_cell_volume 564.726690
_symmetry_space_group_name_H-M "P -1"
_symmetry_group_IT_number 2
_symmetry_cell_setting 'triclinic'
loop_
_space_group_symop_operation_xyz
x,y,z
-x,-y,-z
loop_
_atom_site_type_symbol
_atom_site_label
_atom_site_fract_x
_atom_site_fract_y
_atom_site_fract_z
Si Si1 0.950229 0.851104 0.279212
Si Si2 0.708369 0.886901 0.875006
Si Si3 0.646235 0.462075 0.245479
Si Si4 0.926876 0.821683 0.661027
Si Si5 0.270452 0.707737 0.831521
Si Si6 0.021488 0.301500 0.921047
Si Si7 0.616485 0.167960 0.745518
O O1 0.061907 0.723845 0.594660
O O2 0.810918 0.802140 0.153480
O O3 0.191661 0.940584 0.276522
O O4 0.758425 0.990779 0.040343
O O5 0.418818 0.866621 0.721000
O O6 0.831104 0.810335 0.938320
O O7 0.909526 0.527080 0.295144
O O8 0.671446 0.282658 0.532579
O O9 0.500000 0.500000 0.000000
O O10 0.480838 0.566069 0.103932
O O11 0.675261 0.838288 0.421621
O O12 0.133913 0.710658 0.859080
O O13 0.882807 0.740555 0.851002
O O14 0.000000 0.000000 0.500000
O O15 0.740911 0.256756 0.802882
#
# Coordination Sequence:
#
# PCOD9004481 Si02
#       7
#     2   2   2   2   2   2   2
#     4  10  21  37  67  99 129 165 225 281 327 379
#     4   9  20  36  63  95 125 162 222 274 324 373
#     4  11  24  46  72  95 132 174 228 281 331 385
#     4  12  25  43  66 100 142 179 216 267 336 404
#     4  11  25  41  65  97 134 176 217 270 331 396
#     4  10  23  43  70  95 132 175 223 275 331 391
#     4  11  24  43  67 101 134 176 221 277 331 393
#
# _framework density 24.790755000000001
#
# number of rings (size 3 to 8) (size 9 to 14) (size 15 to 20)
#    0.000    1.429    1.429    3.429    6.000    5.143 
#    0.000    0.714    0.000    0.000    0.000    0.000 
#    0.000    0.000    0.000    0.000    0.000    0.000 
#
# Total GULP energy -78327.058181 kJ/mol
# GULP energy per Si atom -5594.789870 kJ/mol
# Density = 2.473433 g / cm^3
# Si number density = 24.790755 Si / 1000 Ang^3
#
#
#
# Elastic Constant Matrix: (Units=GPa)
#
#
# Indices 1 2 3 4 5 6 
#
# 1 106.9492 34.8339 25.7347 2.7890 2.3419 -16.2697
# 2 34.8339 79.6703 20.0979 23.3521 12.8113 2.4376
# 3 25.7347 20.0979 86.2782 9.3797 -4.3021 -10.5009
# 4 2.7890 23.3521 9.3797 46.0039 -2.8710 0.5502
# 5 2.3419 12.8113 -4.3021 -2.8710 38.1180 8.3629
# 6 -16.2697 2.4376 -10.5009 0.5502 8.3629 40.7315
#
#
#
# Elastic Compliance Matrix: (Units=1/GPa)
#
#
# Indices 1 2 3 4 5 6 
#
# 1 0.012382 -0.005816 -0.002038 0.002569 0.000125 0.004708
# 2 -0.005816 0.019655 -0.002463 -0.009507 -0.006664 -0.002638
# 3 -0.002038 -0.002463 0.013292 -0.001250 0.001832 0.002401
# 4 0.002569 -0.009507 -0.001250 0.026972 0.004951 -0.000108
# 5 0.000125 -0.006664 0.001832 0.004951 0.030220 -0.005351
# 6 0.004708 -0.002638 0.002401 -0.000108 -0.005351 0.028308
#
#
# Mechanical properties :
#
#
# Convention : Reuss Voigt Hill
#
# Bulk Modulus (GPa) = 40.49895 48.24785 44.37340
# Shear Modulus (GPa) = 31.30947 37.78611 34.54779
#
# Velocity S-wave (km/s) = 3.55766 3.90834 3.73711
# Velocity P-wave (km/s) = 5.76608 6.31436 6.04643
#
# Compressibility (1/GPa) = 0.02469200
#
# Stress axis : x y z
#
# Youngs Moduli (GPa) = 80.76492 50.87763 75.23482
#
# Poissons Ratio (x) = 0.29593 0.15335
# Poissons Ratio (y) = 0.46976 0.18534
# Poissons Ratio (z) = 0.16462 0.12533
#
# Static dielectric constant tensor:
#      x y z
#    x 1.950210 0.024470 -0.002050 
#    y 0.024470 2.028370 -0.005160 
#    z -0.002050 -0.005160 1.992360 
# 
# From -- ./inp_files/402767.got.cif
#   From: 2010.05.17/outbox.cif.g08.bks.cpg/sg2_202_cif.got.tgz:402767.got - 2010.06.03 11:33:40.
