data_PCOD9004801
_publ_section_title
;
Structure prediction by ZEFSAII (Michael W. Deem and Ramdas Pophale) SiO2 
 PCOD9004801
Probable space group: P -1
;
_chemical_formula_sum "Si O2"
_cell_formula_units_Z 16
_cell_length_a 7.567448
_cell_length_b 20.612120
_cell_length_c 15.867851
_cell_angle_alpha 21.091288
_cell_angle_beta 55.808798
_cell_angle_gamma 55.845883
_cell_volume 730.985882
_symmetry_space_group_name_H-M "P -1"
_symmetry_group_IT_number 2
_symmetry_cell_setting 'triclinic'
loop_
_space_group_symop_operation_xyz
x,y,z
-x,-y,-z
loop_
_atom_site_type_symbol
_atom_site_label
_atom_site_fract_x
_atom_site_fract_y
_atom_site_fract_z
Si Si1 0.824860 0.172062 0.827208
Si Si2 0.519991 0.053157 0.740522
Si Si3 0.113970 0.118154 0.259985
Si Si4 0.305997 0.452804 0.548202
Si Si5 0.043226 0.778004 0.006645
Si Si6 0.119923 0.507028 0.871089
Si Si7 0.393769 0.433060 0.353149
Si Si8 0.096071 0.850032 0.358154
O O1 0.854122 0.356744 0.643735
O O2 0.825492 0.211929 0.679696
O O3 0.606266 0.104246 0.000083
O O4 0.000000 0.000000 0.000000
O O5 0.360223 0.242015 0.549591
O O6 0.700121 0.095898 0.708634
O O7 0.653460 0.985847 0.703457
O O8 0.121625 0.317455 0.052941
O O9 0.000000 0.000000 0.500000
O O10 0.985761 0.150557 0.167524
O O11 0.500000 0.500000 0.500000
O O12 0.385365 0.406592 0.488698
O O13 0.170150 0.304635 0.803794
O O14 0.230117 0.611146 0.162449
O O15 0.064847 0.961715 0.830765
O O16 0.369908 0.533166 0.781446
O O17 0.017843 0.681356 0.632859
O O18 0.000000 0.500000 0.000000
#
# Coordination Sequence:
#
# PCOD9004801 Si02
#       8
#     2   2   2   2   2   2   2   2
#     4  12  22  34  54  88 122 153 192 241 288 341
#     4  10  21  38  59  83 117 159 194 234 291 353
#     4  11  23  43  65  86 114 154 201 245 294 360
#     4  12  22  36  60  90 123 163 198 237 294 361
#     4  11  22  39  61  91 123 156 197 249 297 345
#     4  11  23  43  65  86 114 154 201 245 294 360
#     4  11  22  39  61  91 123 156 197 249 297 345
#     4  10  21  38  59  83 117 159 194 234 291 353
#
# _framework density 21.888248000000001
#
# number of rings (size 3 to 8) (size 9 to 14) (size 15 to 20)
#    0.000    1.000    0.000   10.500    0.000    0.000 
#    0.000    6.250    0.000    0.000    0.000    0.000 
#    0.000    0.000    0.000    0.000    0.000    0.000 
#
# Total GULP energy -89523.454773 kJ/mol
# GULP energy per Si atom -5595.215923 kJ/mol
# Density = 2.183843 g / cm^3
# Si number density = 21.888248 Si / 1000 Ang^3
#
#
#
# Elastic Constant Matrix: (Units=GPa)
#
#
# Indices 1 2 3 4 5 6 
#
# 1 26.6978 20.0675 11.0547 6.6929 11.5346 -4.2891
# 2 20.0675 188.0976 76.6750 -1.5856 6.8616 3.8983
# 3 11.0547 76.6750 138.1174 -3.2310 16.1553 12.8883
# 4 6.6929 -1.5856 -3.2310 69.6856 -1.8781 4.6751
# 5 11.5346 6.8616 16.1553 -1.8781 27.3213 -17.8463
# 6 -4.2891 3.8983 12.8883 4.6751 -17.8463 28.1016
#
#
#
# Elastic Compliance Matrix: (Units=1/GPa)
#
#
# Indices 1 2 3 4 5 6 
#
# 1 0.053149 -0.005785 0.003528 -0.005135 -0.030932 -0.011493
# 2 -0.005785 0.007604 -0.004843 0.000394 0.006094 0.004088
# 3 0.003528 -0.004843 0.013675 0.000847 -0.019993 -0.017899
# 4 -0.005135 0.000394 0.000847 0.015139 0.000277 -0.003569
# 5 -0.030932 0.006094 -0.019993 0.000277 0.106454 0.071162
# 6 -0.011493 0.004088 -0.017899 -0.003569 0.071162 0.087260
#
#
# Mechanical properties :
#
#
# Convention : Reuss Voigt Hill
#
# Bulk Modulus (GPa) = 16.60381 63.16748 39.88564
# Shear Modulus (GPa) = 15.74516 41.36274 28.55395
#
# Velocity S-wave (km/s) = 2.68497 4.35181 3.61575
# Velocity P-wave (km/s) = 4.14901 7.36021 5.97440
#
# Compressibility (1/GPa) = 0.06022716
#
# Stress axis : x y z
#
# Youngs Moduli (GPa) = 18.81509 131.50530 73.12452
#
# Poissons Ratio (x) = 0.76078 -0.25799
# Poissons Ratio (y) = 0.10885 0.35418
# Poissons Ratio (z) = -0.06638 0.63695
#
# Static dielectric constant tensor:
#      x y z
#    x 1.889770 -0.027270 0.042620 
#    y -0.027270 1.803970 -0.091770 
#    z 0.042620 -0.091770 1.794170 
# 
# From -- ./inp_files/223253.got.cif
#   From: 2010.05.17/outbox.cif.g08.bks.cpg/sg2_112_cif.got.tgz:223253.got - 2010.06.03 11:33:40.
