data_PCOD9004445
_publ_section_title
;
Structure prediction by ZEFSAII (Michael W. Deem and Ramdas Pophale) SiO2 
 PCOD9004445
Probable space group: P -1
;
_chemical_formula_sum "Si O2"
_cell_formula_units_Z 12
_cell_length_a 7.758596
_cell_length_b 8.863357
_cell_length_c 10.074789
_cell_angle_alpha 122.340629
_cell_angle_beta 96.593073
_cell_angle_gamma 107.286796
_cell_volume 525.736379
_symmetry_space_group_name_H-M "P -1"
_symmetry_group_IT_number 2
_symmetry_cell_setting 'triclinic'
loop_
_space_group_symop_operation_xyz
x,y,z
-x,-y,-z
loop_
_atom_site_type_symbol
_atom_site_label
_atom_site_fract_x
_atom_site_fract_y
_atom_site_fract_z
Si Si1 0.730944 0.604514 0.333163
Si Si2 0.525447 0.846049 0.524947
Si Si3 0.425797 0.982636 0.836949
Si Si4 0.306940 0.410825 0.248823
Si Si5 0.232859 0.248528 0.877946
Si Si6 0.998751 0.803540 0.659607
O O1 0.693497 0.795798 0.460745
O O2 0.527337 0.430975 0.279468
O O3 0.749140 0.615231 0.182180
O O4 0.837829 0.731333 0.724708
O O5 0.344711 0.633121 0.394096
O O6 0.500000 0.000000 0.500000
O O7 0.543932 0.925687 0.712201
O O8 0.406882 0.180198 0.876244
O O9 0.203491 0.821771 0.737762
O O10 0.500000 0.000000 0.000000
O O11 0.917679 0.651632 0.458716
O O12 0.228811 0.347061 0.064071
O O13 0.056345 0.034482 0.741627
#
# Coordination Sequence:
#
# PCOD9004445 Si02
#       6
#     2   2   2   2   2   2
#     4  10  21  37  67  89 128 162 207 244 309 369
#     4  10  21  40  61  89 126 166 200 250 313 359
#     4  10  23  38  61  89 128 163 203 253 310 358
#     4  10  22  37  65  95 124 160 208 253 303 371
#     4  10  21  38  63  94 124 164 208 246 305 370
#     4  10  22  39  63  95 123 163 206 254 304 370
#
# _framework density 22.825129
#
# number of rings (size 3 to 8) (size 9 to 14) (size 15 to 20)
#    2.000    0.000    1.667    2.000    2.333    0.667 
#    0.000    0.000    0.000   12.000    0.000    0.000 
#    0.000    0.000    0.000    0.000    0.000    0.000 
#
# Total GULP energy -66922.961456 kJ/mol
# GULP energy per Si atom -5576.913455 kJ/mol
# Density = 2.277318 g / cm^3
# Si number density = 22.825129 Si / 1000 Ang^3
#
#
#
# Elastic Constant Matrix: (Units=GPa)
#
#
# Indices 1 2 3 4 5 6 
#
# 1 48.2101 16.2550 13.0546 -3.6638 25.5009 9.1614
# 2 16.2550 75.8253 20.3603 -10.7254 6.1511 17.2311
# 3 13.0546 20.3603 136.4421 -26.6426 10.0204 -1.5110
# 4 -3.6638 -10.7254 -26.6426 38.7260 -1.6202 1.3745
# 5 25.5009 6.1511 10.0204 -1.6202 43.1698 6.2801
# 6 9.1614 17.2311 -1.5110 1.3745 6.2801 23.0142
#
#
#
# Elastic Compliance Matrix: (Units=1/GPa)
#
#
# Indices 1 2 3 4 5 6 
#
# 1 0.032874 -0.003976 -0.001181 0.000644 -0.017772 -0.005376
# 2 -0.003976 0.017775 -0.001828 0.003833 0.002229 -0.012683
# 3 -0.001181 -0.001828 0.008879 0.005351 -0.001258 0.002445
# 4 0.000644 0.003833 0.005351 0.030772 -0.000357 -0.004515
# 5 -0.017772 0.002229 -0.001258 -0.000357 0.034204 -0.003989
# 6 -0.005376 -0.012683 0.002445 -0.004515 -0.003989 0.056606
#
#
# Mechanical properties :
#
#
# Convention : Reuss Voigt Hill
#
# Bulk Modulus (GPa) = 21.94930 39.97970 30.96450
# Shear Modulus (GPa) = 23.77954 35.03583 29.40769
#
# Velocity S-wave (km/s) = 3.23122 3.92212 3.59331
# Velocity P-wave (km/s) = 4.85368 6.16963 5.55079
#
# Compressibility (1/GPa) = 0.04555954
#
# Stress axis : x y z
#
# Youngs Moduli (GPa) = 30.41914 56.25960 112.62217
#
# Poissons Ratio (x) = 0.22368 0.13296
# Poissons Ratio (y) = 0.12094 0.20585
# Poissons Ratio (z) = 0.03591 0.10283
#
# Static dielectric constant tensor:
#      x y z
#    x 1.954760 -0.051880 0.067490 
#    y -0.051880 1.881130 0.025170 
#    z 0.067490 0.025170 1.865770 
# 
# From -- ./inp_files/166615.got.cif
#   From: 2010.05.17/outbox.cif.g08.bks.cpg/sg2_84_cif.got.tgz:166615.got - 2010.06.03 11:33:40.
