data_PCOD9004666
_publ_section_title
;
Structure prediction by ZEFSAII (Michael W. Deem and Ramdas Pophale) SiO2 
 PCOD9004666
Probable space group: P -1
;
_chemical_formula_sum "Si O2"
_cell_formula_units_Z 10
_cell_length_a 14.592211
_cell_length_b 13.777808
_cell_length_c 8.952508
_cell_angle_alpha 35.792457
_cell_angle_beta 23.604449
_cell_angle_gamma 33.590897
_cell_volume 389.337176
_symmetry_space_group_name_H-M "P -1"
_symmetry_group_IT_number 2
_symmetry_cell_setting 'triclinic'
loop_
_space_group_symop_operation_xyz
x,y,z
-x,-y,-z
loop_
_atom_site_type_symbol
_atom_site_label
_atom_site_fract_x
_atom_site_fract_y
_atom_site_fract_z
Si Si1 0.183110 0.066102 0.795976
Si Si2 0.007522 0.127129 0.462999
Si Si3 0.635168 0.107137 0.556244
Si Si4 0.230413 0.412924 0.377097
Si Si5 0.302562 0.498560 0.500333
O O1 0.257641 0.205953 0.602963
O O2 0.345573 0.008750 0.476714
O O3 0.182088 0.895420 0.102467
O O4 0.886722 0.154069 0.094459
O O5 0.273266 0.024598 0.273092
O O6 0.914338 0.335886 0.303072
O O7 0.000000 0.000000 0.500000
O O8 0.415043 0.300226 0.650095
O O9 0.214401 0.489405 0.473241
O O10 0.000000 0.500000 0.500000
O O11 0.463442 0.442466 0.922672
#
# Coordination Sequence:
#
# PCOD9004666 Si02
#       5
#     2   2   2   2   2
#     4   9  18  36  57  84 120 141 182 252 275 327
#     4  10  21  38  57  83 120 155 193 238 280 343
#     4   9  19  38  56  89 113 142 199 236 277 347
#     4  11  19  34  61  93 116 143 196 243 286 345
#     4  11  22  34  61  87 113 159 186 234 303 330
#
# _framework density 25.684678999999999
#
# number of rings (size 3 to 8) (size 9 to 14) (size 15 to 20)
#    1.200    0.800    2.000    3.600    0.000    4.000 
#    0.000    1.000    0.000    8.400    0.000    0.000 
#    0.000    0.000    0.000    0.000    0.000    0.000 
#
# Total GULP energy -55903.727234 kJ/mol
# GULP energy per Si atom -5590.372723 kJ/mol
# Density = 2.562622 g / cm^3
# Si number density = 25.684679 Si / 1000 Ang^3
#
#
#
# Elastic Constant Matrix: (Units=GPa)
#
#
# Indices 1 2 3 4 5 6 
#
# 1 126.1471 70.1797 4.3764 5.1685 -32.1652 -17.3609
# 2 70.1797 231.7656 24.9345 -0.5043 -13.6851 -26.8517
# 3 4.3764 24.9345 69.4512 -1.4248 -17.6867 -20.2898
# 4 5.1685 -0.5043 -1.4248 37.3295 -1.8413 -6.1301
# 5 -32.1652 -13.6851 -17.6867 -1.8413 43.9336 -3.4381
# 6 -17.3609 -26.8517 -20.2898 -6.1301 -3.4381 54.2850
#
#
#
# Elastic Compliance Matrix: (Units=1/GPa)
#
#
# Indices 1 2 3 4 5 6 
#
# 1 0.012957 -0.003213 0.004460 -0.000344 0.010647 0.004857
# 2 -0.003213 0.005526 -0.001790 0.000557 -0.001248 0.001021
# 3 0.004460 -0.001790 0.020490 0.002231 0.011770 0.009197
# 4 -0.000344 0.000557 0.002231 0.027746 0.002317 0.004279
# 5 0.010647 -0.001248 0.011770 0.002317 0.035763 0.009714
# 6 0.004857 0.001021 0.009197 0.004279 0.009714 0.025016
#
#
# Mechanical properties :
#
#
# Convention : Reuss Voigt Hill
#
# Bulk Modulus (GPa) = 26.39281 69.59389 47.99335
# Shear Modulus (GPa) = 35.40777 48.96784 42.18780
#
# Velocity S-wave (km/s) = 3.71692 4.37109 4.05721
# Velocity P-wave (km/s) = 5.35898 7.25462 6.37762
#
# Compressibility (1/GPa) = 0.03788911
#
# Stress axis : x y z
#
# Youngs Moduli (GPa) = 77.17727 180.96756 48.80391
#
# Poissons Ratio (x) = 0.58139 -0.21768
# Poissons Ratio (y) = 0.24795 0.08734
# Poissons Ratio (z) = -0.34423 0.32386
#
# Static dielectric constant tensor:
#      x y z
#    x 1.974580 -0.075580 -0.023450 
#    y -0.075580 2.045860 0.058170 
#    z -0.023450 0.058170 2.196110 
# 
# From -- ./inp_files/148931.got.cif
#   From: 2010.05.17/outbox.cif.g08.bks.cpg/sg2_75_cif.got.tgz:148931.got - 2010.06.03 11:33:40.
