data_PCOD9004154
_publ_section_title
;
Structure prediction by ZEFSAII (Michael W. Deem and Ramdas Pophale) SiO2 
 PCOD9004154
Probable space group: P -1
;
_chemical_formula_sum "Si O2"
_cell_formula_units_Z 16
_cell_length_a 17.208348
_cell_length_b 11.573264
_cell_length_c 9.274592
_cell_angle_alpha 125.679711
_cell_angle_beta 40.423737
_cell_angle_gamma 147.798610
_cell_volume 628.266356
_symmetry_space_group_name_H-M "P -1"
_symmetry_group_IT_number 2
_symmetry_cell_setting 'triclinic'
loop_
_space_group_symop_operation_xyz
x,y,z
-x,-y,-z
loop_
_atom_site_type_symbol
_atom_site_label
_atom_site_fract_x
_atom_site_fract_y
_atom_site_fract_z
Si Si1 0.287079 0.034757 0.512518
Si Si2 0.430380 0.343738 0.793913
Si Si3 0.185617 0.606513 0.739150
Si Si4 0.193173 0.639261 0.409404
Si Si5 0.716599 0.011597 0.074511
Si Si6 0.738554 0.848626 0.657826
Si Si7 0.157526 0.323316 0.086409
Si Si8 0.102306 0.266819 0.792892
O O1 0.310057 0.888125 0.401373
O O2 0.064582 0.865129 0.716485
O O3 0.400518 0.230243 0.607019
O O4 0.341660 0.137692 0.353255
O O5 0.591980 0.604562 0.751447
O O6 0.442156 0.234512 0.820000
O O7 0.244113 0.270432 0.011352
O O8 0.165915 0.583449 0.577346
O O9 0.205236 0.473831 0.694143
O O10 0.000000 0.500000 0.000000
O O11 0.327449 0.862738 0.763300
O O12 0.254632 0.552701 0.178130
O O13 0.000000 0.500000 0.500000
O O14 0.786232 0.011723 0.825216
O O15 0.895704 0.142777 0.017781
O O16 0.893330 0.881122 0.400772
O O17 0.189898 0.334475 0.877309
#
# Coordination Sequence:
#
# PCOD9004154 Si02
#       8
#     2   2   2   2   2   2   2   2
#     4  11  21  41  65  90 120 162 208 251 303 356
#     4  12  23  45  61  87 129 163 208 251 307 357
#     4  10  21  38  63  92 125 155 201 260 303 358
#     4  10  21  37  64  94 120 157 204 256 306 356
#     4  11  23  42  64  89 124 163 202 251 310 365
#     4  12  27  38  64  92 125 166 203 256 300 366
#     4  11  23  39  68  93 121 160 205 259 303 361
#     4  11  23  41  63  96 124 156 207 256 305 361
#
# _framework density 25.466906000000002
#
# number of rings (size 3 to 8) (size 9 to 14) (size 15 to 20)
#    0.000    1.000    3.750    4.500   10.500    0.000 
#    0.000    2.500    0.000    0.000    0.000    0.000 
#    0.000    0.000    0.000    0.000    0.000    0.000 
#
# Total GULP energy -89584.557663 kJ/mol
# GULP energy per Si atom -5599.034854 kJ/mol
# Density = 2.540894 g / cm^3
# Si number density = 25.466906 Si / 1000 Ang^3
#
#
#
# Elastic Constant Matrix: (Units=GPa)
#
#
# Indices 1 2 3 4 5 6 
#
# 1 82.8622 35.6625 29.7835 5.0516 6.6573 -18.1575
# 2 35.6625 97.0845 23.4433 16.1331 2.7754 -24.7538
# 3 29.7835 23.4433 75.3145 17.2534 21.2113 2.9433
# 4 5.0516 16.1331 17.2534 53.9223 6.6653 0.6507
# 5 6.6573 2.7754 21.2113 6.6653 34.2075 -13.9589
# 6 -18.1575 -24.7538 2.9433 0.6507 -13.9589 45.2358
#
#
#
# Elastic Compliance Matrix: (Units=1/GPa)
#
#
# Indices 1 2 3 4 5 6 
#
# 1 0.017236 -0.002989 -0.007625 0.001103 0.004293 0.007088
# 2 -0.002989 0.015662 -0.005328 -0.003744 0.007454 0.010072
# 3 -0.007625 -0.005328 0.024168 -0.003071 -0.017771 -0.012989
# 4 0.001103 -0.003744 -0.003071 0.020972 -0.003192 -0.002693
# 5 0.004293 0.007454 -0.017771 -0.003192 0.048386 0.021936
# 6 0.007088 0.010072 -0.012989 -0.002693 0.021936 0.038116
#
#
# Mechanical properties :
#
#
# Convention : Reuss Voigt Hill
#
# Bulk Modulus (GPa) = 39.71155 48.11555 43.91355
# Shear Modulus (GPa) = 24.41203 37.76459 31.08831
#
# Velocity S-wave (km/s) = 3.09945 3.85501 3.49769
# Velocity P-wave (km/s) = 5.33255 6.22488 5.79591
#
# Compressibility (1/GPa) = 0.02518159
#
# Stress axis : x y z
#
# Youngs Moduli (GPa) = 58.01746 63.84870 41.37772
#
# Poissons Ratio (x) = 0.19085 0.31548
# Poissons Ratio (y) = 0.17342 0.22048
# Poissons Ratio (z) = 0.44235 0.34022
#
# Static dielectric constant tensor:
#      x y z
#    x 1.973490 -0.015630 -0.036790 
#    y -0.015630 2.096540 -0.043900 
#    z -0.036790 -0.043900 2.035400 
# 
# From -- ./inp_files/207806.got.cif
#   From: 2010.05.17/outbox.cif.g08.bks.cpg/sg2_104_cif.got.tgz:207806.got - 2010.06.03 11:33:40.
