data_PCOD9004355
_publ_section_title
;
Structure prediction by ZEFSAII (Michael W. Deem and Ramdas Pophale) SiO2 
 PCOD9004355
Probable space group: P -1
;
_chemical_formula_sum "Si O2"
_cell_formula_units_Z 14
_cell_length_a 5.306178
_cell_length_b 21.673037
_cell_length_c 22.067332
_cell_angle_alpha 19.137130
_cell_angle_beta 116.601799
_cell_angle_gamma 125.063219
_cell_volume 636.919261
_symmetry_space_group_name_H-M "P -1"
_symmetry_group_IT_number 2
_symmetry_cell_setting 'triclinic'
loop_
_space_group_symop_operation_xyz
x,y,z
-x,-y,-z
loop_
_atom_site_type_symbol
_atom_site_label
_atom_site_fract_x
_atom_site_fract_y
_atom_site_fract_z
Si Si1 0.191297 0.588077 0.713007
Si Si2 0.466408 0.903739 0.759893
Si Si3 0.579967 0.678206 0.093304
Si Si4 0.658118 0.897533 0.023526
Si Si5 0.714055 0.531209 0.555002
Si Si6 0.707944 0.312337 0.600265
Si Si7 0.691063 0.633523 0.955876
O O1 0.244507 0.446811 0.798062
O O2 0.807742 0.490777 0.777614
O O3 0.366818 0.841299 0.476910
O O4 0.333630 0.534916 0.838008
O O5 0.538962 0.773475 0.836531
O O6 0.076549 0.794562 0.831664
O O7 0.603338 0.848080 0.886805
O O8 0.710869 0.806020 0.051549
O O9 0.568890 0.080976 0.831284
O O10 0.384802 0.705050 0.213202
O O11 0.000000 0.000000 0.000000
O O12 0.500000 0.500000 0.500000
O O13 0.570225 0.632438 0.491898
O O14 0.093239 0.679500 0.444681
O O15 0.000000 0.500000 0.500000
O O16 0.500000 0.500000 0.000000
#
# Coordination Sequence:
#
# PCOD9004355 Si02
#       7
#     2   2   2   2   2   2   2
#     4  10  22  45  63  87 130 168 208 245 301 373
#     4  10  21  41  64  88 135 173 201 247 302 363
#     4  10  25  41  59  90 116 167 215 256 307 378
#     4  12  24  42  65  87 119 155 206 277 329 366
#     4  10  22  39  56  82 111 141 181 243 314 380
#     4  10  22  40  57  82 113 142 182 245 321 383
#     4  10  21  37  66 105 132 159 207 250 290 356
#
# _framework density 21.980810000000002
#
# number of rings (size 3 to 8) (size 9 to 14) (size 15 to 20)
#    0.000    1.714    2.857    1.286    0.000    9.143 
#    0.000    0.000    0.000    0.000    0.000    0.000 
#    0.000    0.000    0.000    0.000    0.000    0.000 
#
# Total GULP energy -78323.006187 kJ/mol
# GULP energy per Si atom -5594.500442 kJ/mol
# Density = 2.193078 g / cm^3
# Si number density = 21.980810 Si / 1000 Ang^3
#
#
#
# Elastic Constant Matrix: (Units=GPa)
#
#
# Indices 1 2 3 4 5 6 
#
# 1 103.5683 -9.2182 33.5430 0.4681 -5.8521 -16.2780
# 2 -9.2182 120.5057 31.2817 4.3791 0.3483 -21.3209
# 3 33.5430 31.2817 214.3519 9.5660 -0.8165 -4.7816
# 4 0.4681 4.3791 9.5660 16.3218 -3.7538 4.9771
# 5 -5.8521 0.3483 -0.8165 -3.7538 24.1071 -2.0514
# 6 -16.2780 -21.3209 -4.7816 4.9771 -2.0514 24.1370
#
#
#
# Elastic Compliance Matrix: (Units=1/GPa)
#
#
# Indices 1 2 3 4 5 6 
#
# 1 0.012909 0.003896 -0.002149 -0.003200 0.003586 0.012686
# 2 0.003896 0.011759 -0.001726 -0.006328 0.000928 0.014056
# 3 -0.002149 -0.001726 0.005320 -0.002318 -0.000806 -0.001511
# 4 -0.003200 -0.006328 -0.002318 0.073309 0.008730 -0.022581
# 5 0.003586 0.000928 -0.000806 0.008730 0.044098 0.005026
# 6 0.012686 0.014056 -0.001511 -0.022581 0.005026 0.067186
#
#
# Mechanical properties :
#
#
# Convention : Reuss Voigt Hill
#
# Bulk Modulus (GPa) = 33.30120 61.07098 47.18609
# Shear Modulus (GPa) = 22.26675 38.43450 30.35062
#
# Velocity S-wave (km/s) = 3.18623 4.18610 3.71991
# Velocity P-wave (km/s) = 5.35902 7.15602 6.32170
#
# Compressibility (1/GPa) = 0.03002895
#
# Stress axis : x y z
#
# Youngs Moduli (GPa) = 77.46356 85.04416 187.96522
#
# Poissons Ratio (x) = -0.33132 0.40398
# Poissons Ratio (y) = -0.30179 0.32446
# Poissons Ratio (z) = 0.16649 0.14680
#
# Static dielectric constant tensor:
#      x y z
#    x 1.996680 -0.052890 0.164800 
#    y -0.052890 1.808480 -0.017730 
#    z 0.164800 -0.017730 2.015050 
# 
# From -- ./inp_files/111996.got.cif
#   From: 2010.05.17/outbox.cif.g08.bks.cpg/sg2_56_cif.got.tgz:111996.got - 2010.06.03 11:33:40.
