data_PCOD9004809
_publ_section_title
;
Structure prediction by ZEFSAII (Michael W. Deem and Ramdas Pophale) SiO2 
 PCOD9004809
Probable space group: P -1
;
_chemical_formula_sum "Si O2"
_cell_formula_units_Z 12
_cell_length_a 5.356757
_cell_length_b 15.691906
_cell_length_c 7.888101
_cell_angle_alpha 115.694371
_cell_angle_beta 125.151564
_cell_angle_gamma 72.561906
_cell_volume 487.400536
_symmetry_space_group_name_H-M "P -1"
_symmetry_group_IT_number 2
_symmetry_cell_setting 'triclinic'
loop_
_space_group_symop_operation_xyz
x,y,z
-x,-y,-z
loop_
_atom_site_type_symbol
_atom_site_label
_atom_site_fract_x
_atom_site_fract_y
_atom_site_fract_z
Si Si1 0.078321 0.817966 0.063221
Si Si2 0.067235 0.777652 0.656106
Si Si3 0.868305 0.984595 0.622688
Si Si4 0.475544 0.525142 0.789272
Si Si5 0.951969 0.421944 0.659673
Si Si6 0.358487 0.264184 0.949729
O O1 0.009290 0.930174 0.143382
O O2 0.949905 0.774081 0.802195
O O3 0.961714 0.769983 0.145097
O O4 0.442490 0.794626 0.163158
O O5 0.981641 0.881024 0.641114
O O6 0.969712 0.690118 0.431574
O O7 0.429729 0.762368 0.822572
O O8 0.500000 0.000000 0.500000
O O9 0.000000 0.000000 0.500000
O O10 0.740543 0.449958 0.761993
O O11 0.263463 0.550812 0.563977
O O12 0.617476 0.624634 0.971447
O O13 0.239494 0.485463 0.796871
#
# Coordination Sequence:
#
# PCOD9004809 Si02
#       6
#     2   2   2   2   2   2
#     4  10  21  38  59  84 112 151 186 236 283 333
#     4   9  23  36  61  84 117 147 192 230 284 329
#     4  12  27  42  59  82 113 152 193 237 286 337
#     4   9  16  27  45  87 122 136 168 227 285 323
#     4   9  17  26  49  79 123 140 171 222 286 321
#     4   9  19  32  60  86 120 142 184 229 288 326
#
# _framework density 24.620405000000002
#
# number of rings (size 3 to 8) (size 9 to 14) (size 15 to 20)
#    1.000    1.333    0.000    2.500    9.333    0.667 
#    0.000    0.000    0.000    0.000    0.000   23.333 
#    0.000    0.000    0.000    0.000    0.000    0.000 
#
# Total GULP energy -67098.343802 kJ/mol
# GULP energy per Si atom -5591.528650 kJ/mol
# Density = 2.456437 g / cm^3
# Si number density = 24.620405 Si / 1000 Ang^3
#
#
#
# Elastic Constant Matrix: (Units=GPa)
#
#
# Indices 1 2 3 4 5 6 
#
# 1 172.0207 53.0183 29.9550 13.7752 -43.0396 9.1155
# 2 53.0183 192.4398 26.7403 21.3080 -23.4548 -2.7053
# 3 29.9550 26.7403 72.1420 33.1059 -4.9930 -4.4164
# 4 13.7752 21.3080 33.1059 57.2542 -1.1382 -4.3767
# 5 -43.0396 -23.4548 -4.9930 -1.1382 33.9424 0.7574
# 6 9.1155 -2.7053 -4.4164 -4.3767 0.7574 26.1202
#
#
#
# Elastic Compliance Matrix: (Units=1/GPa)
#
#
# Indices 1 2 3 4 5 6 
#
# 1 0.009713 -0.000896 -0.003015 -0.000370 0.011340 -0.004383
# 2 -0.000896 0.006094 -0.001036 -0.001362 0.002867 0.000457
# 3 -0.003015 -0.001036 0.020336 -0.010482 -0.001958 0.002684
# 4 -0.000370 -0.001362 -0.010482 0.024258 -0.002191 0.002344
# 5 0.011340 0.002867 -0.001958 -0.002191 0.045587 -0.005681
# 6 -0.004383 0.000457 0.002684 0.002344 -0.005681 0.040873
#
#
# Mechanical properties :
#
#
# Convention : Reuss Voigt Hill
#
# Bulk Modulus (GPa) = 38.09386 72.89218 55.49302
# Shear Modulus (GPa) = 30.21075 45.25595 37.73335
#
# Velocity S-wave (km/s) = 3.50674 4.29201 3.91910
# Velocity P-wave (km/s) = 5.64822 7.36427 6.56258
#
# Compressibility (1/GPa) = 0.02625095
#
# Stress axis : x y z
#
# Youngs Moduli (GPa) = 102.95014 164.10359 49.17360
#
# Poissons Ratio (x) = 0.14699 0.14826
# Poissons Ratio (y) = 0.09221 0.05092
# Poissons Ratio (z) = 0.31039 0.16993
#
# Static dielectric constant tensor:
#      x y z
#    x 1.882770 -0.028620 0.057250 
#    y -0.028620 1.945420 -0.092200 
#    z 0.057250 -0.092200 2.089730 
# 
# From -- ./inp_files/133496.got.cif
#   From: 2010.05.17/outbox.cif.g08.bks.cpg/sg2_67_cif.got.tgz:133496.got - 2010.06.03 11:33:40.
