data_PCOD9004892
_publ_section_title
;
Structure prediction by ZEFSAII (Michael W. Deem and Ramdas Pophale) SiO2 
 PCOD9004892
Probable space group: P -1
;
_chemical_formula_sum "Si O2"
_cell_formula_units_Z 12
_cell_length_a 13.198276
_cell_length_b 9.175035
_cell_length_c 17.516450
_cell_angle_alpha 33.229381
_cell_angle_beta 156.639276
_cell_angle_gamma 139.213177
_cell_volume 460.336157
_symmetry_space_group_name_H-M "P -1"
_symmetry_group_IT_number 2
_symmetry_cell_setting 'triclinic'
loop_
_space_group_symop_operation_xyz
x,y,z
-x,-y,-z
loop_
_atom_site_type_symbol
_atom_site_label
_atom_site_fract_x
_atom_site_fract_y
_atom_site_fract_z
Si Si1 0.529806 0.690502 0.083302
Si Si2 0.485149 0.724146 0.215585
Si Si3 0.746853 0.833655 0.703336
Si Si4 0.966814 0.353570 0.330592
Si Si5 0.708879 0.115718 0.396271
Si Si6 0.862724 0.961316 0.002633
O O1 0.611034 0.966922 0.981363
O O2 0.227986 0.674672 0.861829
O O3 0.651409 0.419511 0.252160
O O4 0.579254 0.702152 0.201948
O O5 0.315418 0.472383 0.216108
O O6 0.732567 0.673460 0.461889
O O7 0.500000 0.000000 0.500000
O O8 0.802551 0.956440 0.605323
O O9 0.885266 0.151935 0.428820
O O10 0.911901 0.651937 0.192886
O O11 0.439038 0.997748 0.237422
O O12 0.015623 0.138116 0.088651
O O13 0.000000 0.000000 0.000000
#
# Coordination Sequence:
#
# PCOD9004892 Si02
#       6
#     2   2   2   2   2   2
#     4  10  21  38  59  89 118 152 197 241 293 345
#     4  11  22  38  63  88 117 155 195 244 292 349
#     4  12  20  38  59  89 118 154 202 237 284 359
#     4  11  22  38  61  90 118 153 198 246 291 345
#     4  11  23  38  63  90 116 154 198 246 293 339
#     4  11  19  34  59  85 116 150 198 240 279 340
#
# _framework density 26.067907000000002
#
# number of rings (size 3 to 8) (size 9 to 14) (size 15 to 20)
#    0.000    1.000    5.000    3.500    0.000    4.000 
#    0.000    0.833    0.000   18.000    0.000    0.000 
#    0.000    0.000    0.000    0.000    0.000    0.000 
#
# Total GULP energy -67311.542936 kJ/mol
# GULP energy per Si atom -5609.295245 kJ/mol
# Density = 2.600858 g / cm^3
# Si number density = 26.067907 Si / 1000 Ang^3
#
#
#
# Elastic Constant Matrix: (Units=GPa)
#
#
# Indices 1 2 3 4 5 6 
#
# 1 67.9614 18.2867 22.0112 14.6931 -15.1905 1.9941
# 2 18.2867 196.2956 73.5284 24.3636 -17.5086 -16.0203
# 3 22.0112 73.5284 87.8932 16.9154 -18.7402 -15.0579
# 4 14.6931 24.3636 16.9154 49.1669 -1.5066 -2.4340
# 5 -15.1905 -17.5086 -18.7402 -1.5066 40.3525 -6.6984
# 6 1.9941 -16.0203 -15.0579 -2.4340 -6.6984 52.2046
#
#
#
# Elastic Compliance Matrix: (Units=1/GPa)
#
#
# Indices 1 2 3 4 5 6 
#
# 1 0.017689 0.000390 -0.002996 -0.004340 0.005115 -0.000966
# 2 0.000390 0.007584 -0.005816 -0.001818 0.000777 0.000650
# 3 -0.002996 -0.005816 0.019583 -0.002543 0.006119 0.004645
# 4 -0.004340 -0.001818 -0.002543 0.023306 -0.002799 -0.000398
# 5 0.005115 0.000777 0.006119 -0.002799 0.030714 0.005619
# 6 -0.000966 0.000650 0.004645 -0.000398 0.005619 0.021434
#
#
# Mechanical properties :
#
#
# Convention : Reuss Voigt Hill
#
# Bulk Modulus (GPa) = 35.69717 64.42251 50.05984
# Shear Modulus (GPa) = 34.13152 44.23305 39.18228
#
# Velocity S-wave (km/s) = 3.62239 4.12374 3.88117
# Velocity P-wave (km/s) = 5.58742 6.88772 6.27136
#
# Compressibility (1/GPa) = 0.02801342
#
# Stress axis : x y z
#
# Youngs Moduli (GPa) = 56.53073 131.84856 51.06493
#
# Poissons Ratio (x) = -0.05148 0.15301
# Poissons Ratio (y) = -0.02207 0.29698
# Poissons Ratio (z) = 0.16939 0.76680
#
# Static dielectric constant tensor:
#      x y z
#    x 2.049340 -0.004520 0.058800 
#    y -0.004520 1.997480 -0.003660 
#    z 0.058800 -0.003660 2.023980 
# 
# From -- ./inp_files/597978.got.cif
#   From: 2010.05.17/outbox.cif.g08.bks.cpg/sg2_299_cif.got.tgz:597978.got - 2010.06.03 11:33:40.
