data_PCOD9004382
_publ_section_title
;
Structure prediction by ZEFSAII (Michael W. Deem and Ramdas Pophale) SiO2 
 PCOD9004382
Probable space group: P -1
;
_chemical_formula_sum "Si O2"
_cell_formula_units_Z 16
_cell_length_a 9.162707
_cell_length_b 11.716306
_cell_length_c 11.632473
_cell_angle_alpha 88.628019
_cell_angle_beta 62.622476
_cell_angle_gamma 40.741636
_cell_volume 599.673397
_symmetry_space_group_name_H-M "P -1"
_symmetry_group_IT_number 2
_symmetry_cell_setting 'triclinic'
loop_
_space_group_symop_operation_xyz
x,y,z
-x,-y,-z
loop_
_atom_site_type_symbol
_atom_site_label
_atom_site_fract_x
_atom_site_fract_y
_atom_site_fract_z
Si Si1 0.832754 0.872219 0.960148
Si Si2 0.832380 0.088096 0.826260
Si Si3 0.462653 0.949536 0.398004
Si Si4 0.358481 0.767634 0.359659
Si Si5 0.658926 0.560579 0.821377
Si Si6 0.102799 0.339221 0.225580
Si Si7 0.954291 0.831668 0.161786
Si Si8 0.785471 0.395730 0.542824
O O1 0.951823 0.678659 0.882023
O O2 0.899549 0.916240 0.824828
O O3 0.013176 0.813728 0.005902
O O4 0.466871 0.091798 0.109602
O O5 0.630202 0.229885 0.783538
O O6 0.109566 0.014801 0.746786
O O7 0.635193 0.232587 0.006376
O O8 0.514137 0.784268 0.364968
O O9 0.697057 0.885644 0.240491
O O10 0.500000 0.000000 0.500000
O O11 0.116709 0.171276 0.480591
O O12 0.393439 0.619698 0.400257
O O13 0.000000 0.000000 0.500000
O O14 0.887198 0.532457 0.758749
O O15 0.628749 0.558745 0.697446
O O16 0.793992 0.373185 0.843545
O O17 0.882056 0.410085 0.396244
#
# Coordination Sequence:
#
# PCOD9004382 Si02
#       8
#     2   2   2   2   2   2   2   2
#     4  10  22  39  65  92 126 166 216 269 309 369
#     4  11  23  43  64  95 128 168 218 252 325 382
#     4  11  21  37  62  98 124 157 217 267 310 364
#     4  10  21  37  66  93 122 171 208 263 311 382
#     4  11  24  39  65  94 131 172 204 262 324 384
#     4  10  22  40  63  94 127 168 214 259 319 381
#     4  12  22  39  64  97 126 161 213 271 309 370
#     4  11  20  41  65  89 126 173 213 251 316 387
#
# _framework density 26.681187999999999
#
# number of rings (size 3 to 8) (size 9 to 14) (size 15 to 20)
#    0.000    1.250    3.750    3.375    3.500    0.500 
#    0.000    0.000    0.000    1.500    0.000    0.000 
#    0.000    0.000    0.000    0.000    0.000    0.000 
#
# Total GULP energy -89440.514925 kJ/mol
# GULP energy per Si atom -5590.032183 kJ/mol
# Density = 2.662046 g / cm^3
# Si number density = 26.681188 Si / 1000 Ang^3
#
#
#
# Elastic Constant Matrix: (Units=GPa)
#
#
# Indices 1 2 3 4 5 6 
#
# 1 216.4545 33.6043 53.0503 -20.6370 -4.3913 22.6297
# 2 33.6043 70.1747 17.4523 -18.7379 3.3889 9.5609
# 3 53.0503 17.4523 120.1010 -13.8549 3.3865 8.9611
# 4 -20.6370 -18.7379 -13.8549 38.1365 0.9493 -1.6995
# 5 -4.3913 3.3889 3.3865 0.9493 42.1404 -3.9515
# 6 22.6297 9.5609 8.9611 -1.6995 -3.9515 37.1221
#
#
#
# Elastic Compliance Matrix: (Units=1/GPa)
#
#
# Indices 1 2 3 4 5 6 
#
# 1 0.005764 -0.001554 -0.001977 0.001510 0.000616 -0.002501
# 2 -0.001554 0.017727 -0.000719 0.007510 -0.002010 -0.003315
# 3 -0.001977 -0.000719 0.009643 0.002064 -0.001059 -0.000956
# 4 0.001510 0.007510 0.002064 0.031424 -0.001515 -0.002076
# 5 0.000616 -0.002010 -0.001059 -0.001515 0.024349 0.002920
# 6 -0.002501 -0.003315 -0.000956 -0.002076 0.002920 0.029763
#
#
# Mechanical properties :
#
#
# Convention : Reuss Voigt Hill
#
# Bulk Modulus (GPa) = 40.59341 68.32710 54.46025
# Shear Modulus (GPa) = 36.93264 43.65469 40.29367
#
# Velocity S-wave (km/s) = 3.72455 4.04934 3.89033
# Velocity P-wave (km/s) = 5.80893 6.89399 6.37459
#
# Compressibility (1/GPa) = 0.02463454
#
# Stress axis : x y z
#
# Youngs Moduli (GPa) = 173.50224 56.41038 103.69987
#
# Poissons Ratio (x) = 0.08766 0.20497
# Poissons Ratio (y) = 0.26963 0.07458
# Poissons Ratio (z) = 0.34293 0.04057
#
# Static dielectric constant tensor:
#      x y z
#    x 2.229190 0.142320 -0.110430 
#    y 0.142320 1.684370 -0.064330 
#    z -0.110430 -0.064330 2.363740 
# 
# From -- ./inp_files/262025.got.cif
#   From: 2010.05.17/outbox.cif.g08.bks.cpg/sg2_132_cif.got.tgz:262025.got - 2010.06.03 11:33:40.
