data_PCOD9004753
_publ_section_title
;
Structure prediction by ZEFSAII (Michael W. Deem and Ramdas Pophale) SiO2 
 PCOD9004753
Probable space group: P -1
;
_chemical_formula_sum "Si O2"
_cell_formula_units_Z 16
_cell_length_a 18.364718
_cell_length_b 7.808547
_cell_length_c 16.467670
_cell_angle_alpha 76.032234
_cell_angle_beta 157.065269
_cell_angle_gamma 117.489756
_cell_volume 691.489820
_symmetry_space_group_name_H-M "P -1"
_symmetry_group_IT_number 2
_symmetry_cell_setting 'triclinic'
loop_
_space_group_symop_operation_xyz
x,y,z
-x,-y,-z
loop_
_atom_site_type_symbol
_atom_site_label
_atom_site_fract_x
_atom_site_fract_y
_atom_site_fract_z
Si Si1 0.987727 0.829148 0.069201
Si Si2 0.785078 0.883696 0.144223
Si Si3 0.718629 0.511570 0.694377
Si Si4 0.103941 0.939113 0.937605
Si Si5 0.399665 0.833223 0.519131
Si Si6 0.719265 0.371285 0.408405
Si Si7 0.770356 0.216827 0.189542
Si Si8 0.257139 0.925748 0.648466
O O1 0.245768 0.917067 0.350938
O O2 0.863558 0.841465 0.018686
O O3 0.874289 0.600003 0.927386
O O4 0.000000 0.000000 0.000000
O O5 0.009448 0.888297 0.392097
O O6 0.874106 0.043297 0.137684
O O7 0.746663 0.996047 0.165592
O O8 0.512391 0.662055 0.863134
O O9 0.500000 0.500000 0.500000
O O10 0.630557 0.286936 0.582774
O O11 0.866900 0.711798 0.756856
O O12 0.325209 0.966555 0.200310
O O13 0.304592 0.654679 0.516403
O O14 0.698333 0.158854 0.377453
O O15 0.981075 0.581379 0.620779
O O16 0.781378 0.227295 0.296715
O O17 0.523981 0.166799 0.913329
#
# Coordination Sequence:
#
# PCOD9004753 Si02
#       8
#     2   2   2   2   2   2   2   2
#     4  10  22  40  60  85 113 152 196 242 295 351
#     4  10  21  38  60  87 118 159 199 242 292 355
#     4  11  22  40  59  86 116 149 195 246 294 353
#     4  10  22  41  59  83 119 153 193 246 297 348
#     4  11  22  41  62  83 119 155 193 246 299 347
#     4  10  22  38  60  89 120 154 200 242 296 351
#     4  10  21  38  58  89 123 157 196 246 289 349
#     4  10  21  38  60  86 124 158 197 241 293 348
#
# _framework density 23.138445999999998
#
# number of rings (size 3 to 8) (size 9 to 14) (size 15 to 20)
#    0.000    1.750    1.250    2.625    0.000    3.500 
#    6.750    0.000    0.000    0.000    0.000    0.000 
#    0.000    0.000    0.000    0.000    0.000    0.000 
#
# Total GULP energy -89307.227913 kJ/mol
# GULP energy per Si atom -5581.701745 kJ/mol
# Density = 2.308578 g / cm^3
# Si number density = 23.138446 Si / 1000 Ang^3
#
#
#
# Elastic Constant Matrix: (Units=GPa)
#
#
# Indices 1 2 3 4 5 6 
#
# 1 100.8892 5.8848 28.1232 3.8689 6.5051 -6.6534
# 2 5.8848 21.0241 32.7673 -1.9551 -6.7285 2.0102
# 3 28.1232 32.7673 200.2081 -20.7325 21.1762 18.2580
# 4 3.8689 -1.9551 -20.7325 37.1466 5.3646 19.1219
# 5 6.5051 -6.7285 21.1762 5.3646 39.0851 10.9532
# 6 -6.6534 2.0102 18.2580 19.1219 10.9532 29.6313
#
#
#
# Elastic Compliance Matrix: (Units=1/GPa)
#
#
# Indices 1 2 3 4 5 6 
#
# 1 0.012053 -0.001121 -0.003123 -0.008374 -0.002444 0.011014
# 2 -0.001121 0.080418 -0.016641 -0.009262 0.023838 0.001712
# 3 -0.003123 -0.016641 0.011417 0.013343 -0.006802 -0.012703
# 4 -0.008374 -0.009262 0.013343 0.059173 -0.002449 -0.046754
# 5 -0.002444 0.023838 -0.006802 -0.002449 0.036933 -0.010046
# 6 0.011014 0.001712 -0.012703 -0.046754 -0.010046 0.077817
#
#
# Mechanical properties :
#
#
# Convention : Reuss Voigt Hill
#
# Bulk Modulus (GPa) = 16.09819 50.63022 33.36421
# Shear Modulus (GPa) = 14.69352 38.19568 26.44460
#
# Velocity S-wave (km/s) = 2.52271 4.06734 3.38433
# Velocity P-wave (km/s) = 3.93165 6.63224 5.45181
#
# Compressibility (1/GPa) = 0.06211879
#
# Stress axis : x y z
#
# Youngs Moduli (GPa) = 82.96892 12.43495 87.59190
#
# Poissons Ratio (x) = 0.01394 0.27351
# Poissons Ratio (y) = 0.09300 1.45762
# Poissons Ratio (z) = 0.25908 0.20693
#
# Static dielectric constant tensor:
#      x y z
#    x 1.821070 -0.025930 -0.018430 
#    y -0.025930 1.909910 0.069930 
#    z -0.018430 0.069930 1.954630 
# 
# From -- ./inp_files/575546.got.cif
#   From: 2010.05.17/outbox.cif.g08.bks.cpg/sg2_288_cif.got.tgz:575546.got - 2010.06.03 11:33:40.
