data_PCOD9004941
_publ_section_title
;
Structure prediction by ZEFSAII (Michael W. Deem and Ramdas Pophale) SiO2 
 PCOD9004941
Probable space group: P -1
;
_chemical_formula_sum "Si O2"
_cell_formula_units_Z 16
_cell_length_a 14.392554
_cell_length_b 6.947777
_cell_length_c 16.124464
_cell_angle_alpha 69.036341
_cell_angle_beta 27.759538
_cell_angle_gamma 60.477625
_cell_volume 641.178437
_symmetry_space_group_name_H-M "P -1"
_symmetry_group_IT_number 2
_symmetry_cell_setting 'triclinic'
loop_
_space_group_symop_operation_xyz
x,y,z
-x,-y,-z
loop_
_atom_site_type_symbol
_atom_site_label
_atom_site_fract_x
_atom_site_fract_y
_atom_site_fract_z
Si Si1 0.177240 0.312931 0.212315
Si Si2 0.231244 0.034405 0.662809
Si Si3 0.574806 0.497829 0.137851
Si Si4 0.227892 0.413992 0.883162
Si Si5 0.342895 0.346317 0.628078
Si Si6 0.746610 0.723905 0.553116
Si Si7 0.775812 0.002711 0.639928
Si Si8 0.036185 0.174668 0.181548
O O1 0.305155 0.137693 0.209380
O O2 0.961121 0.498631 0.397046
O O3 0.111753 0.170226 0.216524
O O4 0.300103 0.446486 0.046240
O O5 0.210193 0.195222 0.731751
O O6 0.316926 0.145218 0.503867
O O7 0.417346 0.791967 0.576410
O O8 0.025792 0.008582 0.787728
O O9 0.728879 0.427715 0.108237
O O10 0.445656 0.341115 0.250736
O O11 0.390820 0.740343 0.272734
O O12 0.388647 0.346370 0.689705
O O13 0.000000 0.500000 0.000000
O O14 0.217688 0.212665 0.977111
O O15 0.184533 0.592645 0.684433
O O16 0.804192 0.876264 0.549943
O O17 0.000000 0.000000 0.500000
#
# Coordination Sequence:
#
# PCOD9004941 Si02
#       8
#     2   2   2   2   2   2   2   2
#     4  11  24  47  70 100 141 181 229 286 348 407
#     4  11  23  36  63  95 128 175 224 274 340 408
#     4  11  26  48  71 101 143 185 229 289 344 412
#     4   9  21  41  67  94 133 177 222 277 341 397
#     4  10  21  38  59  94 129 172 228 272 337 403
#     4  12  26  46  69 105 141 181 231 287 349 411
#     4  12  25  47  76 104 138 183 233 286 347 416
#     4  10  21  42  62  90 131 176 217 282 338 396
#
# _framework density 24.954051
#
# number of rings (size 3 to 8) (size 9 to 14) (size 15 to 20)
#    0.000    1.250    2.500    2.625    1.750    5.000 
#    9.000    0.000    0.000    0.000    0.000    0.000 
#    0.000    0.000    0.000    0.000    0.000    0.000 
#
# Total GULP energy -89499.829975 kJ/mol
# GULP energy per Si atom -5593.739373 kJ/mol
# Density = 2.489725 g / cm^3
# Si number density = 24.954051 Si / 1000 Ang^3
#
#
#
# Elastic Constant Matrix: (Units=GPa)
#
#
# Indices 1 2 3 4 5 6 
#
# 1 102.2411 19.1248 17.1437 2.0821 6.3115 14.8659
# 2 19.1248 75.8329 14.7103 -8.0898 -8.4978 15.3216
# 3 17.1437 14.7103 91.4597 -19.5593 -13.7991 17.4200
# 4 2.0821 -8.0898 -19.5593 33.8413 1.1947 -5.9370
# 5 6.3115 -8.4978 -13.7991 1.1947 42.2605 -8.6064
# 6 14.8659 15.3216 17.4200 -5.9370 -8.6064 36.7155
#
#
#
# Elastic Compliance Matrix: (Units=1/GPa)
#
#
# Indices 1 2 3 4 5 6 
#
# 1 0.011466 -0.002405 -0.002231 -0.003132 -0.003638 -0.003940
# 2 -0.002405 0.015272 -0.000222 0.002836 0.002407 -0.004271
# 3 -0.002231 -0.000222 0.014302 0.007573 0.004006 -0.003626
# 4 -0.003132 0.002836 0.007573 0.035198 0.003109 0.002912
# 5 -0.003638 0.002407 0.004006 0.003109 0.027010 0.005402
# 6 -0.003940 -0.004271 -0.003626 0.002912 0.005402 0.034072
#
#
# Mechanical properties :
#
#
# Convention : Reuss Voigt Hill
#
# Bulk Modulus (GPa) = 31.92440 41.27681 36.60061
# Shear Modulus (GPa) = 31.75054 37.13380 34.44217
#
# Velocity S-wave (km/s) = 3.57089 3.86176 3.71917
# Velocity P-wave (km/s) = 5.46101 6.03832 5.75691
#
# Compressibility (1/GPa) = 0.03132400
#
# Stress axis : x y z
#
# Youngs Moduli (GPa) = 87.21490 65.48057 69.91891
#
# Poissons Ratio (x) = 0.15746 0.15598
# Poissons Ratio (y) = 0.20973 0.01555
# Poissons Ratio (z) = 0.19456 0.01456
#
# Static dielectric constant tensor:
#      x y z
#    x 1.970560 0.005040 0.004750 
#    y 0.005040 2.004080 -0.006570 
#    z 0.004750 -0.006570 2.067060 
# 
# From -- ./inp_files/571625.got.cif
#   From: 2010.05.17/outbox.cif.g08.bks.cpg/sg2_286_cif.got.tgz:571625.got - 2010.06.03 11:33:40.
