data_PCOD9004769
_publ_section_title
;
Structure prediction by ZEFSAII (Michael W. Deem and Ramdas Pophale) SiO2 
 PCOD9004769
Probable space group: P -1
;
_chemical_formula_sum "Si O2"
_cell_formula_units_Z 16
_cell_length_a 9.162291
_cell_length_b 17.982067
_cell_length_c 9.959181
_cell_angle_alpha 89.812880
_cell_angle_beta 43.810780
_cell_angle_gamma 64.941444
_cell_volume 901.488312
_symmetry_space_group_name_H-M "P -1"
_symmetry_group_IT_number 2
_symmetry_cell_setting 'triclinic'
loop_
_space_group_symop_operation_xyz
x,y,z
-x,-y,-z
loop_
_atom_site_type_symbol
_atom_site_label
_atom_site_fract_x
_atom_site_fract_y
_atom_site_fract_z
Si Si1 0.796274 0.952636 0.755973
Si Si2 0.127306 0.772378 0.079672
Si Si3 0.896600 0.964316 0.379656
Si Si4 0.900164 0.467164 0.683549
Si Si5 0.694619 0.247309 0.539848
Si Si6 0.422573 0.167618 0.626729
Si Si7 0.549921 0.703842 0.570910
Si Si8 0.636173 0.368368 0.827983
O O1 0.825394 0.949842 0.575476
O O2 0.003512 0.846024 0.670358
O O3 0.901817 0.009632 0.738254
O O4 0.500000 0.000000 0.000000
O O5 0.212013 0.701380 0.146614
O O6 0.026311 0.871575 0.207766
O O7 0.879234 0.792214 0.162128
O O8 0.375797 0.728878 0.817345
O O9 0.627672 0.056077 0.495439
O O10 0.769908 0.419580 0.711974
O O11 0.000000 0.500000 0.500000
O O12 0.155360 0.389163 0.601697
O O13 0.667805 0.553847 0.925639
O O14 0.523237 0.207128 0.668411
O O15 0.589353 0.301728 0.468128
O O16 0.657839 0.310064 0.686719
O O17 0.445512 0.209914 0.473381
#
# Coordination Sequence:
#
# PCOD9004769 Si02
#       8
#     2   2   2   2   2   2   2   2
#     4  10  21  38  58  90 129 160 202 255 290 349
#     4  12  21  38  65  90 123 165 200 249 302 353
#     4  10  22  36  60  92 123 166 210 234 297 360
#     4  11  23  43  65  93 117 153 204 256 308 367
#     4   9  21  44  58  89 125 159 200 246 301 357
#     4   9  22  40  57  87 133 157 201 249 289 357
#     4  10  23  41  59  89 126 153 204 250 301 358
#     4  11  22  41  69  88 119 158 200 255 306 361
#
# _framework density 17.748429000000002
#
# number of rings (size 3 to 8) (size 9 to 14) (size 15 to 20)
#    0.750    1.000    3.750    0.375    1.750    3.000 
#    2.250    0.625    0.000    0.000    0.000    0.000 
#    0.000    0.000    0.000    0.000    0.000    0.000 
#
# Total GULP energy -89212.801003 kJ/mol
# GULP energy per Si atom -5575.800063 kJ/mol
# Density = 1.770803 g / cm^3
# Si number density = 17.748429 Si / 1000 Ang^3
#
#
#
# Elastic Constant Matrix: (Units=GPa)
#
#
# Indices 1 2 3 4 5 6 
#
# 1 84.7131 40.1034 68.1805 21.3967 -10.1538 -7.1762
# 2 40.1034 81.0728 39.1905 11.2110 -6.8096 -12.4767
# 3 68.1805 39.1905 104.2891 16.5960 -19.7776 5.2676
# 4 21.3967 11.2110 16.5960 31.3289 -0.6196 -1.4619
# 5 -10.1538 -6.8096 -19.7776 -0.6196 21.9796 6.6257
# 6 -7.1762 -12.4767 5.2676 -1.4619 6.6257 34.1702
#
#
#
# Elastic Compliance Matrix: (Units=1/GPa)
#
#
# Indices 1 2 3 4 5 6 
#
# 1 0.031873 -0.004169 -0.019571 -0.009624 -0.007215 0.009176
# 2 -0.004169 0.017526 -0.004591 -0.000732 -0.002672 0.006719
# 3 -0.019571 -0.004591 0.028563 -0.000389 0.019440 -0.013976
# 4 -0.009624 -0.000732 -0.000389 0.038891 -0.003990 0.000209
# 5 -0.007215 -0.002672 0.019440 -0.003990 0.064173 -0.018102
# 6 0.009176 0.006719 -0.013976 0.000209 -0.018102 0.039319
#
#
# Mechanical properties :
#
#
# Convention : Reuss Voigt Hill
#
# Bulk Modulus (GPa) = 46.94393 62.78040 54.86216
# Shear Modulus (GPa) = 17.59902 25.66910 21.63406
#
# Velocity S-wave (km/s) = 3.15236 3.80712 3.49510
# Velocity P-wave (km/s) = 6.30530 7.40099 6.87501
#
# Compressibility (1/GPa) = 0.02130201
#
# Stress axis : x y z
#
# Youngs Moduli (GPa) = 31.37469 57.05665 35.00999
#
# Poissons Ratio (x) = 0.23785 0.68519
# Poissons Ratio (y) = 0.13079 0.16071
# Poissons Ratio (z) = 0.61404 0.26192
#
# Static dielectric constant tensor:
#      x y z
#    x 1.614840 -0.003540 -0.012380 
#    y -0.003540 1.614670 -0.008480 
#    z -0.012380 -0.008480 1.556990 
# 
# From -- ./inp_files/217608.got.cif
#   From: 2010.05.17/outbox.cif.g08.bks.cpg/sg2_109_cif.got.tgz:217608.got - 2010.06.03 11:33:40.
