data_PCOD9004133
_publ_section_title
;
Structure prediction by ZEFSAII (Michael W. Deem and Ramdas Pophale) SiO2 
 PCOD9004133
Probable space group: P -1
;
_chemical_formula_sum "Si O2"
_cell_formula_units_Z 16
_cell_length_a 21.080016
_cell_length_b 16.213625
_cell_length_c 11.169859
_cell_angle_alpha 33.619376
_cell_angle_beta 34.605475
_cell_angle_gamma 19.145608
_cell_volume 679.167377
_symmetry_space_group_name_H-M "P -1"
_symmetry_group_IT_number 2
_symmetry_cell_setting 'triclinic'
loop_
_space_group_symop_operation_xyz
x,y,z
-x,-y,-z
loop_
_atom_site_type_symbol
_atom_site_label
_atom_site_fract_x
_atom_site_fract_y
_atom_site_fract_z
Si Si1 0.625369 0.544435 0.058962
Si Si2 0.930196 0.737507 0.115744
Si Si3 0.718377 0.696881 0.550171
Si Si4 0.848190 0.435221 0.409641
Si Si5 0.315186 0.308789 0.896450
Si Si6 0.705312 0.347780 0.402246
Si Si7 0.354610 0.668550 0.137581
Si Si8 0.218838 0.042837 0.177363
O O1 0.778362 0.306841 0.203839
O O2 0.503912 0.562404 0.140757
O O3 0.451923 0.810909 0.087531
O O4 0.717751 0.568678 0.803863
O O5 0.852626 0.691514 0.374525
O O6 0.856652 0.800911 0.014981
O O7 0.160639 0.463483 0.060035
O O8 0.812380 0.017933 0.994845
O O9 0.786357 0.555298 0.490206
O O10 0.500000 0.000000 0.500000
O O11 0.761580 0.622269 0.204464
O O12 0.761276 0.360749 0.628015
O O13 0.083093 0.215174 0.295011
O O14 0.341252 0.458015 0.683319
O O15 0.500000 0.000000 0.000000
O O16 0.500000 0.500000 0.500000
O O17 0.818845 0.096649 0.602403
O O18 0.500000 0.500000 0.000000
#
# Coordination Sequence:
#
# PCOD9004133 Si02
#       8
#     2   2   2   2   2   2   2   2
#     4  10  21  37  64  92 126 167 202 257 324 378
#     4  10  22  39  65  93 126 168 216 264 316 375
#     4  12  22  40  62  93 130 168 207 256 321 389
#     4  11  23  37  67  94 120 159 222 269 311 377
#     4  11  25  41  62  95 129 169 214 269 320 373
#     4  10  21  39  65  88 126 164 207 258 323 373
#     4  11  19  38  64  95 123 159 213 262 315 375
#     4   9  19  38  63  93 116 158 213 267 309 367
#
# _framework density 23.558257999999999
#
# number of rings (size 3 to 8) (size 9 to 14) (size 15 to 20)
#    0.000    1.500    3.750    3.000    1.750    7.500 
#    0.000    1.250    2.750    0.000    0.000    0.000 
#    0.000    0.000    0.000    0.000    0.000    0.000 
#
# Total GULP energy -89179.074541 kJ/mol
# GULP energy per Si atom -5573.692159 kJ/mol
# Density = 2.350464 g / cm^3
# Si number density = 23.558258 Si / 1000 Ang^3
#
#
#
# Elastic Constant Matrix: (Units=GPa)
#
#
# Indices 1 2 3 4 5 6 
#
# 1 61.1698 21.1755 20.7590 4.0923 8.4092 16.6018
# 2 21.1755 103.1844 41.5904 30.0378 -2.9681 23.9955
# 3 20.7590 41.5904 170.5123 14.6469 4.7487 8.9831
# 4 4.0923 30.0378 14.6469 42.9242 7.5443 2.1858
# 5 8.4092 -2.9681 4.7487 7.5443 36.0889 6.9515
# 6 16.6018 23.9955 8.9831 2.1858 6.9515 33.5110
#
#
#
# Elastic Compliance Matrix: (Units=1/GPa)
#
#
# Indices 1 2 3 4 5 6 
#
# 1 0.020009 -0.002255 -0.001507 0.001168 -0.003498 -0.007245
# 2 -0.002255 0.017459 -0.002568 -0.011769 0.006950 -0.011370
# 3 -0.001507 -0.002568 0.006666 -0.000230 -0.000881 0.000996
# 4 0.001168 -0.011769 -0.000230 0.032785 -0.009557 0.007754
# 5 -0.003498 0.006950 -0.000881 -0.009557 0.032987 -0.009226
# 6 -0.007245 -0.011370 0.000996 0.007754 -0.009226 0.042713
#
#
# Mechanical properties :
#
#
# Convention : Reuss Voigt Hill
#
# Bulk Modulus (GPa) = 31.77094 55.76847 43.76970
# Shear Modulus (GPa) = 28.44628 39.26095 33.85362
#
# Velocity S-wave (km/s) = 3.47866 4.08677 3.79491
# Velocity P-wave (km/s) = 5.44520 6.78180 6.14992
#
# Compressibility (1/GPa) = 0.03147531
#
# Stress axis : x y z
#
# Youngs Moduli (GPa) = 49.97760 57.27666 150.00856
#
# Poissons Ratio (x) = 0.12914 0.22611
# Poissons Ratio (y) = 0.11268 0.38516
# Poissons Ratio (z) = 0.07533 0.14706
#
# Static dielectric constant tensor:
#      x y z
#    x 1.991130 -0.043600 -0.077670 
#    y -0.043600 2.055490 -0.025950 
#    z -0.077670 -0.025950 2.030010 
# 
# From -- ./inp_files/475410.got.cif
#   From: 2010.05.17/outbox.cif.g08.bks.cpg/sg2_238_cif.got.tgz:475410.got - 2010.06.03 11:33:40.
