data_PCOD9004079
_publ_section_title
;
Structure prediction by ZEFSAII (Michael W. Deem and Ramdas Pophale) SiO2 
 PCOD9004079
Probable space group: P -1
;
_chemical_formula_sum "Si O2"
_cell_formula_units_Z 16
_cell_length_a 7.619255
_cell_length_b 7.885929
_cell_length_c 14.372117
_cell_angle_alpha 107.141591
_cell_angle_beta 126.749462
_cell_angle_gamma 88.408406
_cell_volume 648.622873
_symmetry_space_group_name_H-M "P -1"
_symmetry_group_IT_number 2
_symmetry_cell_setting 'triclinic'
loop_
_space_group_symop_operation_xyz
x,y,z
-x,-y,-z
loop_
_atom_site_type_symbol
_atom_site_label
_atom_site_fract_x
_atom_site_fract_y
_atom_site_fract_z
Si Si1 0.244305 0.347929 0.749274
Si Si2 0.685948 0.724501 0.555574
Si Si3 0.886474 0.047273 0.374625
Si Si4 0.884780 0.776505 0.980079
Si Si5 0.399134 0.717679 0.290569
Si Si6 0.836063 0.378549 0.499660
Si Si7 0.724498 0.937258 0.787111
Si Si8 0.892901 0.498707 0.091417
O O1 0.428144 0.377117 0.729702
O O2 0.001073 0.344101 0.627607
O O3 0.250566 0.483073 0.859496
O O4 0.229304 0.138179 0.740512
O O5 0.498107 0.766381 0.432243
O O6 0.687702 0.513566 0.510431
O O7 0.688004 0.788962 0.671353
O O8 0.915842 0.842904 0.606686
O O9 0.741164 0.193229 0.385676
O O10 0.000000 0.000000 0.500000
O O11 0.705301 0.836670 0.864527
O O12 0.072788 0.695781 0.965988
O O13 0.804131 0.614092 0.000367
O O14 0.017088 0.951102 0.104364
O O15 0.151471 0.601200 0.203083
O O16 0.387136 0.898941 0.258978
O O17 0.000000 0.500000 0.500000
#
# Coordination Sequence:
#
# PCOD9004079 Si02
#       8
#     2   2   2   2   2   2   2   2
#     4  11  20  38  61  89 121 166 198 239 312 361
#     4  11  19  36  58  93 128 158 197 243 310 373
#     4   9  16  30  51  79 122 165 186 227 289 362
#     4   9  20  44  61  85 120 156 220 255 280 357
#     4  11  22  38  59  97 130 148 196 254 303 375
#     4   9  17  32  54  81 127 165 189 230 290 367
#     4  10  21  37  64  85 119 168 199 253 305 342
#     4  10  22  41  68  87 116 166 203 252 306 348
#
# _framework density 24.667649000000001
#
# number of rings (size 3 to 8) (size 9 to 14) (size 15 to 20)
#    0.000    2.000    3.750    2.625    0.000    0.000 
#    2.250    7.500    0.000    0.000    0.000    0.000 
#    0.000    0.000    0.000    0.000    0.000    0.000 
#
# Total GULP energy -89402.730189 kJ/mol
# GULP energy per Si atom -5587.670637 kJ/mol
# Density = 2.461150 g / cm^3
# Si number density = 24.667649 Si / 1000 Ang^3
#
#
#
# Elastic Constant Matrix: (Units=GPa)
#
#
# Indices 1 2 3 4 5 6 
#
# 1 94.9294 9.2379 22.6951 8.2386 -4.3533 -12.3150
# 2 9.2379 104.5325 33.2837 -1.6230 2.0804 -11.2856
# 3 22.6951 33.2837 135.8915 -5.3977 -9.0550 -11.5226
# 4 8.2386 -1.6230 -5.3977 50.3561 0.1282 1.6529
# 5 -4.3533 2.0804 -9.0550 0.1282 30.2234 8.3342
# 6 -12.3150 -11.2856 -11.5226 1.6529 8.3342 23.5074
#
#
#
# Elastic Compliance Matrix: (Units=1/GPa)
#
#
# Indices 1 2 3 4 5 6 
#
# 1 0.011842 0.000059 -0.001622 -0.002296 -0.000353 0.005724
# 2 0.000059 0.010951 -0.002454 -0.000080 -0.002891 0.005116
# 3 -0.001622 -0.002454 0.008526 0.001051 0.002120 0.001326
# 4 -0.002296 -0.000080 0.001051 0.020420 0.000553 -0.002358
# 5 -0.000353 -0.002891 0.002120 0.000553 0.037713 -0.013943
# 6 0.005724 0.005116 0.001326 -0.002358 -0.013943 0.053754
#
#
# Mechanical properties :
#
#
# Convention : Reuss Voigt Hill
#
# Bulk Modulus (GPa) = 42.94435 51.75409 47.34922
# Shear Modulus (GPa) = 31.44635 38.82651 35.13643
#
# Velocity S-wave (km/s) = 3.57431 3.97165 3.77821
# Velocity P-wave (km/s) = 5.87207 6.48522 6.18625
#
# Compressibility (1/GPa) = 0.02328595
#
# Stress axis : x y z
#
# Youngs Moduli (GPa) = 84.44741 91.31383 117.28607
#
# Poissons Ratio (x) = -0.00540 0.19018
# Poissons Ratio (y) = -0.00499 0.28784
# Poissons Ratio (z) = 0.13693 0.22410
#
# Static dielectric constant tensor:
#      x y z
#    x 1.922050 -0.018520 -0.068250 
#    y -0.018520 1.996610 0.007960 
#    z -0.068250 0.007960 1.875650 
# 
# From -- ./inp_files/493505.got.cif
#   From: 2010.05.17/outbox.cif.g08.bks.cpg/sg2_247_cif.got.tgz:493505.got - 2010.06.03 11:33:40.
