data_PCOD9004142
_publ_section_title
;
Structure prediction by ZEFSAII (Michael W. Deem and Ramdas Pophale) SiO2 
 PCOD9004142
Probable space group: P -1
;
_chemical_formula_sum "Si O2"
_cell_formula_units_Z 14
_cell_length_a 7.210975
_cell_length_b 8.216122
_cell_length_c 14.782948
_cell_angle_alpha 96.607760
_cell_angle_beta 46.184075
_cell_angle_gamma 75.246541
_cell_volume 555.302111
_symmetry_space_group_name_H-M "P -1"
_symmetry_group_IT_number 2
_symmetry_cell_setting 'triclinic'
loop_
_space_group_symop_operation_xyz
x,y,z
-x,-y,-z
loop_
_atom_site_type_symbol
_atom_site_label
_atom_site_fract_x
_atom_site_fract_y
_atom_site_fract_z
Si Si1 0.688600 0.015150 0.855332
Si Si2 0.670221 0.362540 0.575975
Si Si3 0.605084 0.075097 0.208837
Si Si4 0.076729 0.756982 0.118668
Si Si5 0.919967 0.405493 0.322383
Si Si6 0.445891 0.454008 0.185645
Si Si7 0.538973 0.057880 0.589453
O O1 0.508963 0.030715 0.827032
O O2 0.762422 0.182865 0.855969
O O3 0.966233 0.812179 0.748571
O O4 0.500000 0.000000 0.000000
O O5 0.643375 0.399936 0.694217
O O6 0.752199 0.147172 0.522670
O O7 0.868794 0.418417 0.449261
O O8 0.363984 0.480699 0.633663
O O9 0.417802 0.102902 0.365432
O O10 0.937995 0.941846 0.113383
O O11 0.553708 0.263075 0.193414
O O12 0.772872 0.779407 0.259070
O O13 0.294071 0.585139 0.974604
O O14 0.171055 0.464313 0.223923
O O15 0.500000 0.000000 0.500000
#
# Coordination Sequence:
#
# PCOD9004142 Si02
#       7
#     2   2   2   2   2   2   2
#     4  11  19  37  66 100 120 156 217 259 306 360
#     4  11  24  42  61  88 131 171 201 257 319 375
#     4   9  22  37  66  95 123 164 206 261 308 366
#     4  10  21  37  64  93 127 160 206 264 303 370
#     4  10  23  38  64  92 123 165 214 261 303 371
#     4  11  21  39  65  97 118 159 217 260 310 364
#     4  10  24  44  62  90 129 173 207 249 322 377
#
# _framework density 25.211499
#
# number of rings (size 3 to 8) (size 9 to 14) (size 15 to 20)
#    0.857    0.857    2.857    2.571    6.000    0.571 
#    2.571    4.286    0.000    0.000    0.000    0.000 
#    0.000    0.000    0.000    0.000    0.000    0.000 
#
# Total GULP energy -78242.697806 kJ/mol
# GULP energy per Si atom -5588.764129 kJ/mol
# Density = 2.515412 g / cm^3
# Si number density = 25.211499 Si / 1000 Ang^3
#
#
#
# Elastic Constant Matrix: (Units=GPa)
#
#
# Indices 1 2 3 4 5 6 
#
# 1 57.2463 -1.0099 2.4573 6.1077 18.7602 -7.9230
# 2 -1.0099 42.6410 6.8317 5.7695 -0.0345 2.6554
# 3 2.4573 6.8317 76.9772 -21.4614 13.4647 -7.5096
# 4 6.1077 5.7695 -21.4614 33.6933 2.7132 -3.4440
# 5 18.7602 -0.0345 13.4647 2.7132 44.1562 5.2464
# 6 -7.9230 2.6554 -7.5096 -3.4440 5.2464 36.2214
#
#
#
# Elastic Compliance Matrix: (Units=1/GPa)
#
#
# Indices 1 2 3 4 5 6 
#
# 1 0.021861 0.000149 0.001233 -0.001723 -0.010313 0.006356
# 2 0.000149 0.025787 -0.005590 -0.008653 0.002695 -0.004230
# 3 0.001233 -0.005590 0.019729 0.014724 -0.008325 0.007375
# 4 -0.001723 -0.008653 0.014724 0.042304 -0.007362 0.008399
# 5 -0.010313 0.002695 -0.008325 -0.007362 0.031137 -0.009389
# 6 0.006356 -0.004230 0.007375 0.008399 -0.009389 0.032996
#
#
# Mechanical properties :
#
#
# Convention : Reuss Voigt Hill
#
# Bulk Modulus (GPa) = 16.96046 21.49143 19.22594
# Shear Modulus (GPa) = 24.76672 34.05319 29.40995
#
# Velocity S-wave (km/s) = 3.13766 3.67918 3.41915
# Velocity P-wave (km/s) = 4.45740 5.15669 4.81974
#
# Compressibility (1/GPa) = 0.05896068
#
# Stress axis : x y z
#
# Youngs Moduli (GPa) = 45.74276 38.77916 50.68807
#
# Poissons Ratio (x) = -0.00579 -0.06247
# Poissons Ratio (y) = -0.00683 0.28334
# Poissons Ratio (z) = -0.05638 0.21677
#
# Static dielectric constant tensor:
#      x y z
#    x 1.993510 -0.047490 0.008880 
#    y -0.047490 1.999820 -0.013350 
#    z 0.008880 -0.013350 2.031120 
# 
# From -- ./inp_files/555403.got.cif
#   From: 2010.05.17/outbox.cif.g08.bks.cpg/sg2_278_cif.got.tgz:555403.got - 2010.06.03 11:33:40.
