data_PCOD9004461
_publ_section_title
;
Structure prediction by ZEFSAII (Michael W. Deem and Ramdas Pophale) SiO2 
 PCOD9004461
Probable space group: P -1
;
_chemical_formula_sum "Si O2"
_cell_formula_units_Z 16
_cell_length_a 8.390538
_cell_length_b 13.929419
_cell_length_c 8.550019
_cell_angle_alpha 48.909967
_cell_angle_beta 83.962196
_cell_angle_gamma 84.373852
_cell_volume 748.404691
_symmetry_space_group_name_H-M "P -1"
_symmetry_group_IT_number 2
_symmetry_cell_setting 'triclinic'
loop_
_space_group_symop_operation_xyz
x,y,z
-x,-y,-z
loop_
_atom_site_type_symbol
_atom_site_label
_atom_site_fract_x
_atom_site_fract_y
_atom_site_fract_z
Si Si1 0.954913 0.059292 0.185837
Si Si2 0.037636 0.380610 0.515618
Si Si3 0.648475 0.598741 0.707641
Si Si4 0.768191 0.774797 0.077559
Si Si5 0.616475 0.059454 0.297127
Si Si6 0.533178 0.654776 0.010873
Si Si7 0.161933 0.839197 0.249657
Si Si8 0.532697 0.854895 0.266547
O O1 0.806173 0.052524 0.325467
O O2 0.872947 0.118086 0.971950
O O3 0.036434 0.924266 0.274251
O O4 0.104444 0.146181 0.117416
O O5 0.160994 0.409138 0.334795
O O6 0.133216 0.284135 0.725296
O O7 0.000000 0.500000 0.500000
O O8 0.880717 0.307268 0.563868
O O9 0.602212 0.628338 0.859224
O O10 0.575284 0.717443 0.488307
O O11 0.574788 0.464414 0.810403
O O12 0.629697 0.858453 0.089785
O O13 0.680003 0.671269 0.096510
O O14 0.562878 0.208022 0.122322
O O15 0.500000 0.000000 0.500000
O O16 0.594278 0.964800 0.254571
O O17 0.343425 0.860915 0.252708
#
# Coordination Sequence:
#
# PCOD9004461 Si02
#       8
#     2   2   2   2   2   2   2   2
#     4  10  21  40  61  98 127 157 208 269 321 363
#     4  10  23  39  63  94 129 165 208 260 316 367
#     4  10  24  44  63  91 135 171 208 261 317 381
#     4  10  23  40  68  96 124 163 212 268 312 377
#     4  12  24  41  67  90 130 172 212 257 320 382
#     4  11  24  43  66  91 127 173 214 258 318 377
#     4  10  21  37  67  94 128 160 205 271 315 368
#     4  11  22  42  68  99 125 166 216 260 319 377
#
# _framework density 21.378807999999999
#
# number of rings (size 3 to 8) (size 9 to 14) (size 15 to 20)
#    0.000    1.500    1.250    4.500    7.000    2.500 
#    2.250    1.875    0.000    0.000    0.000    0.000 
#    0.000    0.000    0.000    0.000    0.000    0.000 
#
# Total GULP energy -89412.946069 kJ/mol
# GULP energy per Si atom -5588.309129 kJ/mol
# Density = 2.133015 g / cm^3
# Si number density = 21.378808 Si / 1000 Ang^3
#
#
#
# Elastic Constant Matrix: (Units=GPa)
#
#
# Indices 1 2 3 4 5 6 
#
# 1 121.7422 48.8166 29.3934 -0.0664 -46.9441 -0.0773
# 2 48.8166 99.2311 29.1957 -26.7475 -28.1718 8.5818
# 3 29.3934 29.1957 71.8423 -18.6936 -30.0091 0.8760
# 4 -0.0664 -26.7475 -18.6936 30.9375 6.7299 -8.3941
# 5 -46.9441 -28.1718 -30.0091 6.7299 33.6749 -2.7493
# 6 -0.0773 8.5818 0.8760 -8.3941 -2.7493 41.9998
#
#
#
# Elastic Compliance Matrix: (Units=1/GPa)
#
#
# Indices 1 2 3 4 5 6 
#
# 1 0.021013 -0.005304 0.003978 -0.008335 0.030176 0.001349
# 2 -0.005304 0.018014 0.001082 0.014891 0.005634 -0.000368
# 3 0.003978 0.001082 0.026630 0.011857 0.028093 0.003440
# 4 -0.008335 0.014891 0.011857 0.054143 0.001204 0.007595
# 5 0.030176 0.005634 0.028093 0.001204 0.101697 0.005216
# 6 0.001349 -0.000368 0.003440 0.007595 0.005216 0.025675
#
#
# Mechanical properties :
#
#
# Convention : Reuss Voigt Hill
#
# Bulk Modulus (GPa) = 15.34468 56.40300 35.87384
# Shear Modulus (GPa) = 18.56102 33.68309 26.12206
#
# Velocity S-wave (km/s) = 2.94972 3.97361 3.49931
# Velocity P-wave (km/s) = 4.33523 6.89149 5.75703
#
# Compressibility (1/GPa) = 0.06516916
#
# Stress axis : x y z
#
# Youngs Moduli (GPa) = 47.58994 55.51362 37.55134
#
# Poissons Ratio (x) = 0.29444 -0.14938
# Poissons Ratio (y) = 0.25241 -0.04064
# Poissons Ratio (z) = -0.18931 -0.06008
#
# Static dielectric constant tensor:
#      x y z
#    x 1.783920 -0.020110 -0.004350 
#    y -0.020110 1.779500 -0.029830 
#    z -0.004350 -0.029830 1.852460 
# 
# From -- ./inp_files/184077.got.cif
#   From: 2010.05.17/outbox.cif.g08.bks.cpg/sg2_93_cif.got.tgz:184077.got - 2010.06.03 11:33:40.
