data_PCOD9004774
_publ_section_title
;
Structure prediction by ZEFSAII (Michael W. Deem and Ramdas Pophale) SiO2 
 PCOD9004774
Probable space group: P -1
;
_chemical_formula_sum "Si O2"
_cell_formula_units_Z 16
_cell_length_a 9.602606
_cell_length_b 9.366872
_cell_length_c 14.328918
_cell_angle_alpha 97.851411
_cell_angle_beta 120.935985
_cell_angle_gamma 44.507585
_cell_volume 716.006315
_symmetry_space_group_name_H-M "P -1"
_symmetry_group_IT_number 2
_symmetry_cell_setting 'triclinic'
loop_
_space_group_symop_operation_xyz
x,y,z
-x,-y,-z
loop_
_atom_site_type_symbol
_atom_site_label
_atom_site_fract_x
_atom_site_fract_y
_atom_site_fract_z
Si Si1 0.324259 0.413328 0.813789
Si Si2 0.040729 0.302216 0.992094
Si Si3 0.449859 0.974792 0.253073
Si Si4 0.574656 0.470842 0.767072
Si Si5 0.754561 0.272046 0.607213
Si Si6 0.906783 0.917467 0.726784
Si Si7 0.692408 0.104803 0.079349
Si Si8 0.714213 0.060095 0.297343
O O1 0.344831 0.243371 0.758775
O O2 0.471210 0.413184 0.789739
O O3 0.058870 0.666955 0.750772
O O4 0.470618 0.305502 0.952968
O O5 0.771626 0.415103 0.897346
O O6 0.195588 0.116098 0.947594
O O7 0.000000 0.500000 0.000000
O O8 0.195305 0.154418 0.122442
O O9 0.355221 0.945734 0.303924
O O10 0.556308 0.062487 0.309110
O O11 0.719388 0.333026 0.710473
O O12 0.357013 0.727396 0.686560
O O13 0.500000 0.500000 0.500000
O O14 0.825702 0.055142 0.617310
O O15 0.995829 0.172453 0.629814
O O16 0.108278 0.894712 0.842677
O O17 0.626219 0.106851 0.162526
#
# Coordination Sequence:
#
# PCOD9004774 Si02
#       8
#     2   2   2   2   2   2   2   2
#     4  11  22  36  64  92 134 176 211 249 312 385
#     4  11  21  34  58  95 137 178 205 241 312 382
#     4  11  24  36  60  97 139 171 199 255 321 382
#     4  12  21  42  66  93 130 168 221 261 309 388
#     4  11  25  47  72  92 117 164 227 283 320 370
#     4  11  21  39  62  91 126 166 218 263 315 377
#     4  10  21  38  58  91 138 177 216 249 297 385
#     4  11  24  42  62 100 132 168 215 263 315 380
#
# _framework density 22.346170000000001
#
# number of rings (size 3 to 8) (size 9 to 14) (size 15 to 20)
#    0.000    1.000    7.500    1.125    1.750    6.500 
#    0.000    0.625    0.000    1.500    0.000    0.000 
#    0.000    0.000    0.000    0.000    0.000    0.000 
#
# Total GULP energy -89224.250638 kJ/mol
# GULP energy per Si atom -5576.515665 kJ/mol
# Density = 2.229531 g / cm^3
# Si number density = 22.346170 Si / 1000 Ang^3
#
#
#
# Elastic Constant Matrix: (Units=GPa)
#
#
# Indices 1 2 3 4 5 6 
#
# 1 76.9077 -3.1927 1.0320 2.4175 8.6948 0.4843
# 2 -3.1927 103.6195 11.1818 -31.7259 2.5320 0.4222
# 3 1.0320 11.1818 59.4019 -36.3785 2.9550 2.3848
# 4 2.4175 -31.7259 -36.3785 35.2753 -4.1191 2.3456
# 5 8.6948 2.5320 2.9550 -4.1191 9.3934 -11.3410
# 6 0.4843 0.4222 2.3848 2.3456 -11.3410 33.5136
#
#
#
# Elastic Compliance Matrix: (Units=1/GPa)
#
#
# Indices 1 2 3 4 5 6 
#
# 1 0.016543 -0.000820 -0.003157 -0.007854 -0.028546 -0.009115
# 2 -0.000820 0.019175 0.019928 0.038281 0.001494 -0.003822
# 3 -0.003157 0.019928 0.068254 0.089546 0.002819 -0.010376
# 4 -0.007854 0.038281 0.089546 0.159585 0.028975 -0.008105
# 5 -0.028546 0.001494 0.002819 0.028975 0.240232 0.079460
# 6 -0.009115 -0.003822 -0.010376 -0.008105 0.079460 0.058213
#
#
# Mechanical properties :
#
#
# Convention : Reuss Voigt Hill
#
# Bulk Modulus (GPa) = 7.35977 28.66347 18.01162
# Shear Modulus (GPa) = 8.68977 31.03035 19.86006
#
# Velocity S-wave (km/s) = 1.97412 3.73046 2.98442
# Velocity P-wave (km/s) = 2.91494 5.60446 4.46693
#
# Compressibility (1/GPa) = 0.13587389
#
# Stress axis : x y z
#
# Youngs Moduli (GPa) = 60.45029 52.15170 14.65122
#
# Poissons Ratio (x) = 0.04274 0.04625
# Poissons Ratio (y) = 0.04954 -0.29197
# Poissons Ratio (z) = 0.19083 -1.03926
#
# Static dielectric constant tensor:
#      x y z
#    x 1.841260 -0.040120 -0.012640 
#    y -0.040120 1.916460 0.015980 
#    z -0.012640 0.015980 1.837560 
# 
# From -- ./inp_files/557263.got.cif
#   From: 2010.05.17/outbox.cif.g08.bks.cpg/sg2_279_cif.got.tgz:557263.got - 2010.06.03 11:33:40.
