data_PCOD9004012
_publ_section_title
;
Structure prediction by ZEFSAII (Michael W. Deem and Ramdas Pophale) SiO2 
 PCOD9004012
Probable space group: P -1
;
_chemical_formula_sum "Si O2"
_cell_formula_units_Z 16
_cell_length_a 17.400114
_cell_length_b 9.707782
_cell_length_c 19.914515
_cell_angle_alpha 38.908900
_cell_angle_beta 20.056072
_cell_angle_gamma 39.778543
_cell_volume 713.459792
_symmetry_space_group_name_H-M "P -1"
_symmetry_group_IT_number 2
_symmetry_cell_setting 'triclinic'
loop_
_space_group_symop_operation_xyz
x,y,z
-x,-y,-z
loop_
_atom_site_type_symbol
_atom_site_label
_atom_site_fract_x
_atom_site_fract_y
_atom_site_fract_z
Si Si1 0.008563 0.384394 0.723563
Si Si2 0.988171 0.003154 0.780254
Si Si3 0.481575 0.113584 0.123642
Si Si4 0.463543 0.447508 0.889485
Si Si5 0.647002 0.316803 0.648254
Si Si6 0.213175 0.298814 0.402063
Si Si7 0.755857 0.983675 0.237020
Si Si8 0.392715 0.726381 0.629272
O O1 0.123565 0.602266 0.544455
O O2 0.192952 0.207584 0.676728
O O3 0.789855 0.436036 0.930150
O O4 0.956321 0.238444 0.758821
O O5 0.151764 0.801279 0.760219
O O6 0.118587 0.073214 0.581539
O O7 0.729845 0.975200 0.991514
O O8 0.360437 0.266370 0.225350
O O9 0.323241 0.936530 0.302230
O O10 0.520537 0.264126 0.970886
O O11 0.492251 0.344558 0.831625
O O12 0.622982 0.631441 0.701104
O O13 0.526711 0.475761 0.625933
O O14 0.000000 0.500000 0.500000
O O15 0.557212 0.884484 0.399719
O O16 0.663915 0.197722 0.275605
O O17 0.000000 0.000000 0.000000
#
# Coordination Sequence:
#
# PCOD9004012 Si02
#       8
#     2   2   2   2   2   2   2   2
#     4  10  21  37  63  94 128 164 213 262 316 378
#     4  11  22  41  67  97 127 174 220 263 314 385
#     4  12  27  42  65  99 130 169 219 264 328 387
#     4  12  23  41  69  94 124 175 216 263 324 386
#     4  11  25  44  62  97 137 168 208 273 325 375
#     4  12  24  43  69  94 129 168 219 272 317 382
#     4   9  17  31  57  92 124 163 213 260 305 369
#     4   9  21  37  60  93 131 168 212 260 317 377
#
# _framework density 22.425930999999999
#
# number of rings (size 3 to 8) (size 9 to 14) (size 15 to 20)
#    0.000    1.250    3.750    3.000    1.750    2.000 
#    0.000    0.625    0.000    0.000    0.000    0.000 
#    0.000    0.000    0.000    0.000    0.000    0.000 
#
# Total GULP energy -89256.729811 kJ/mol
# GULP energy per Si atom -5578.545613 kJ/mol
# Density = 2.237489 g / cm^3
# Si number density = 22.425931 Si / 1000 Ang^3
#
#
#
# Elastic Constant Matrix: (Units=GPa)
#
#
# Indices 1 2 3 4 5 6 
#
# 1 52.8918 11.5180 -1.0147 2.2173 6.0674 -7.8641
# 2 11.5180 47.1101 0.6093 -2.8301 0.3585 -2.0981
# 3 -1.0147 0.6093 85.9874 10.2733 4.8153 7.4765
# 4 2.2173 -2.8301 10.2733 38.0276 -0.3046 -8.6407
# 5 6.0674 0.3585 4.8153 -0.3046 28.1226 -2.7925
# 6 -7.8641 -2.0981 7.4765 -8.6407 -2.7925 23.7155
#
#
#
# Elastic Compliance Matrix: (Units=1/GPa)
#
#
# Indices 1 2 3 4 5 6 
#
# 1 0.021349 -0.004935 0.000011 -0.000266 -0.003944 0.006078
# 2 -0.004935 0.022662 -0.000730 0.002557 0.001093 0.001659
# 3 0.000011 -0.000730 0.012943 -0.005008 -0.002890 -0.006306
# 4 -0.000266 0.002557 -0.005008 0.030891 0.002534 0.013270
# 5 -0.003944 0.001093 -0.002890 0.002534 0.037417 0.005029
# 6 0.006078 0.001659 -0.006306 0.013270 0.005029 0.051744
#
#
# Mechanical properties :
#
#
# Convention : Reuss Voigt Hill
#
# Bulk Modulus (GPa) = 21.90741 23.13492 22.52117
# Shear Modulus (GPa) = 24.56647 29.63158 27.09903
#
# Velocity S-wave (km/s) = 3.31335 3.63892 3.47995
# Velocity P-wave (km/s) = 4.94244 5.29096 5.11966
#
# Compressibility (1/GPa) = 0.04564666
#
# Stress axis : x y z
#
# Youngs Moduli (GPa) = 46.84130 44.12667 77.25972
#
# Poissons Ratio (x) = 0.21776 -0.00085
# Poissons Ratio (y) = 0.23116 0.05638
# Poissons Ratio (z) = -0.00052 0.03220
#
# Static dielectric constant tensor:
#      x y z
#    x 1.905080 -0.057940 0.002010 
#    y -0.057940 1.852270 -0.066610 
#    z 0.002010 -0.066610 1.916780 
# 
# From -- ./inp_files/592076.got.cif
#   From: 2010.05.17/outbox.cif.g08.bks.cpg/sg2_297_cif.got.tgz:592076.got - 2010.06.03 11:33:40.
