data_PCOD9004457
_publ_section_title
;
Structure prediction by ZEFSAII (Michael W. Deem and Ramdas Pophale) SiO2 
 PCOD9004457
Probable space group: P -1
;
_chemical_formula_sum "Si O2"
_cell_formula_units_Z 16
_cell_length_a 12.558141
_cell_length_b 20.911273
_cell_length_c 8.222080
_cell_angle_alpha 35.342255
_cell_angle_beta 31.798981
_cell_angle_gamma 38.919484
_cell_volume 632.191953
_symmetry_space_group_name_H-M "P -1"
_symmetry_group_IT_number 2
_symmetry_cell_setting 'triclinic'
loop_
_space_group_symop_operation_xyz
x,y,z
-x,-y,-z
loop_
_atom_site_type_symbol
_atom_site_label
_atom_site_fract_x
_atom_site_fract_y
_atom_site_fract_z
Si Si1 0.857891 0.661463 0.718977
Si Si2 0.367876 0.133389 0.903263
Si Si3 0.126996 0.018150 0.958653
Si Si4 0.696310 0.622678 0.525858
Si Si5 0.905263 0.396920 0.154294
Si Si6 0.633169 0.397714 0.242160
Si Si7 0.020235 0.803260 0.950637
Si Si8 0.462410 0.148538 0.124642
O O1 0.929579 0.713793 0.357423
O O2 0.624354 0.731840 0.920975
O O3 0.877252 0.529298 0.951563
O O4 0.007181 0.673799 0.651554
O O5 0.419114 0.248824 0.523354
O O6 0.145956 0.139197 0.093487
O O7 0.391210 0.157905 0.011470
O O8 0.500000 0.000000 0.000000
O O9 0.979874 0.097018 0.123671
O O10 0.305707 0.080119 0.546968
O O11 0.288710 0.905364 0.062009
O O12 0.000000 0.000000 0.000000
O O13 0.923127 0.631901 0.154892
O O14 0.596220 0.589901 0.556464
O O15 0.691057 0.515205 0.868127
O O16 0.693759 0.383963 0.379034
O O17 0.768550 0.280498 0.221990
#
# Coordination Sequence:
#
# PCOD9004457 Si02
#       8
#     2   2   2   2   2   2   2   2
#     4  10  21  37  67  93 124 177 209 261 333 387
#     4  12  23  42  69  95 129 175 220 269 322 386
#     4  10  23  43  63  90 131 172 213 267 325 386
#     4  11  23  41  67  94 134 165 218 272 328 383
#     4  11  20  41  65  92 132 167 215 269 330 386
#     4  11  23  42  68 100 127 171 219 277 326 384
#     4  11  21  41  66  95 130 168 221 270 326 384
#     4  10  21  43  62  91 128 169 220 262 321 389
#
# _framework density 25.308769999999999
#
# number of rings (size 3 to 8) (size 9 to 14) (size 15 to 20)
#    0.000    1.250    5.000    1.125    0.000    1.000 
#   11.250    3.750    0.000    0.000    0.000    0.000 
#    0.000    0.000    0.000    0.000    0.000    0.000 
#
# Total GULP energy -89405.947960 kJ/mol
# GULP energy per Si atom -5587.871748 kJ/mol
# Density = 2.525117 g / cm^3
# Si number density = 25.308770 Si / 1000 Ang^3
#
#
#
# Elastic Constant Matrix: (Units=GPa)
#
#
# Indices 1 2 3 4 5 6 
#
# 1 143.8864 24.4428 16.9773 -1.4529 -11.7295 -10.5389
# 2 24.4428 150.8814 16.4531 -32.1359 2.3254 3.1488
# 3 16.9773 16.4531 71.9175 -20.8224 0.3162 -11.9856
# 4 -1.4529 -32.1359 -20.8224 20.8684 -3.9352 4.4042
# 5 -11.7295 2.3254 0.3162 -3.9352 30.4841 -0.7740
# 6 -10.5389 3.1488 -11.9856 4.4042 -0.7740 37.0939
#
#
#
# Elastic Compliance Matrix: (Units=1/GPa)
#
#
# Indices 1 2 3 4 5 6 
#
# 1 0.007969 -0.002275 -0.002584 -0.005527 0.002613 0.002333
# 2 -0.002275 0.011264 0.003759 0.021741 0.000958 -0.002949
# 3 -0.002584 0.003759 0.022059 0.027412 0.002102 0.002864
# 4 -0.005527 0.021741 0.027412 0.111896 0.010181 -0.007632
# 5 0.002613 0.000958 0.002102 0.010181 0.035051 0.000863
# 6 0.002333 -0.002949 0.002864 -0.007632 0.000863 0.029721
#
#
# Mechanical properties :
#
#
# Convention : Reuss Voigt Hill
#
# Bulk Modulus (GPa) = 25.58003 53.60351 39.59177
# Shear Modulus (GPa) = 21.44170 38.27676 29.85923
#
# Velocity S-wave (km/s) = 2.91383 3.89317 3.43854
# Velocity P-wave (km/s) = 4.63138 6.43699 5.60734
#
# Compressibility (1/GPa) = 0.03909299
#
# Stress axis : x y z
#
# Youngs Moduli (GPa) = 125.48052 88.78024 45.33246
#
# Poissons Ratio (x) = 0.20201 0.11712
# Poissons Ratio (y) = 0.28552 -0.17042
# Poissons Ratio (z) = 0.32418 -0.33375
#
# Static dielectric constant tensor:
#      x y z
#    x 1.982350 -0.005200 0.013940 
#    y -0.005200 2.072960 -0.035070 
#    z 0.013940 -0.035070 2.035020 
# 
# From -- ./inp_files/282671.got.cif
#   From: 2010.05.17/outbox.cif.g08.bks.cpg/sg2_142_cif.got.tgz:282671.got - 2010.06.03 11:33:40.
