data_PCOD9004873
_publ_section_title
;
Structure prediction by ZEFSAII (Michael W. Deem and Ramdas Pophale) SiO2 
 PCOD9004873
Probable space group: P -1
;
_chemical_formula_sum "Si O2"
_cell_formula_units_Z 14
_cell_length_a 8.578809
_cell_length_b 9.334442
_cell_length_c 10.982793
_cell_angle_alpha 119.249767
_cell_angle_beta 87.441616
_cell_angle_gamma 129.782026
_cell_volume 540.536187
_symmetry_space_group_name_H-M "P -1"
_symmetry_group_IT_number 2
_symmetry_cell_setting 'triclinic'
loop_
_space_group_symop_operation_xyz
x,y,z
-x,-y,-z
loop_
_atom_site_type_symbol
_atom_site_label
_atom_site_fract_x
_atom_site_fract_y
_atom_site_fract_z
Si Si1 0.156530 0.458922 0.682134
Si Si2 0.185296 0.368645 0.908738
Si Si3 0.838156 0.498026 0.771223
Si Si4 0.695828 0.878591 0.111536
Si Si5 0.624608 0.947021 0.902968
Si Si6 0.527723 0.007023 0.692545
Si Si7 0.319775 0.495256 0.456239
O O1 0.093025 0.333933 0.762255
O O2 0.422243 0.675642 0.766250
O O3 0.127847 0.353966 0.508109
O O4 0.040761 0.548927 0.727838
O O5 0.167420 0.162074 0.847807
O O6 0.117912 0.408065 0.053601
O O7 0.445317 0.617956 0.996174
O O8 0.655098 0.216875 0.681284
O O9 0.761990 0.580395 0.712147
O O10 0.653680 0.007904 0.247151
O O11 0.774324 0.978898 0.014122
O O12 0.693074 0.075536 0.825848
O O13 0.500000 0.000000 0.000000
O O14 0.421180 0.755927 0.554021
O O15 0.500000 0.500000 0.500000
#
# Coordination Sequence:
#
# PCOD9004873 Si02
#       7
#     2   2   2   2   2   2   2
#     4  10  21  38  59  87 123 158 190 245 307 347
#     4   9  18  30  60  90 118 143 197 240 291 346
#     4  11  22  38  61  91 122 153 193 250 306 348
#     4   8  15  29  55  88 115 149 191 244 281 340
#     4   8  15  30  55  84 111 154 191 231 280 356
#     4   9  19  35  60  83 116 152 205 239 292 349
#     4  11  25  40  63  85 114 162 209 241 286 363
#
# _framework density 25.900207000000002
#
# number of rings (size 3 to 8) (size 9 to 14) (size 15 to 20)
#    0.000    2.571    0.000    2.143   10.000    0.000 
#    0.000    0.714    9.429    8.571    0.000    0.000 
#    0.000    0.000    0.000    0.000    0.000    0.000 
#
# Total GULP energy -78171.128494 kJ/mol
# GULP energy per Si atom -5583.652035 kJ/mol
# Density = 2.584126 g / cm^3
# Si number density = 25.900207 Si / 1000 Ang^3
#
#
#
# Elastic Constant Matrix: (Units=GPa)
#
#
# Indices 1 2 3 4 5 6 
#
# 1 89.5661 50.6228 43.6508 -24.8492 -6.6463 -22.7626
# 2 50.6228 135.5396 60.3771 -45.9856 -3.9895 -12.5200
# 3 43.6508 60.3771 119.9673 -34.5398 1.5969 -7.6916
# 4 -24.8492 -45.9856 -34.5398 64.5764 -11.0228 -1.1092
# 5 -6.6463 -3.9895 1.5969 -11.0228 41.5302 -9.2761
# 6 -22.7626 -12.5200 -7.6916 -1.1092 -9.2761 46.2816
#
#
#
# Elastic Compliance Matrix: (Units=1/GPa)
#
#
# Indices 1 2 3 4 5 6 
#
# 1 0.018428 -0.002817 -0.003529 0.004375 0.005990 0.009020
# 2 -0.002817 0.012394 -0.003215 0.006591 0.003107 0.002214
# 3 -0.003529 -0.003215 0.011949 0.002594 -0.000805 -0.000719
# 4 0.004375 0.006591 0.002594 0.024971 0.009390 0.006846
# 5 0.005990 0.003107 -0.000805 0.009390 0.030072 0.009905
# 6 0.009020 0.002214 -0.000719 0.006846 0.009905 0.028672
#
#
# Mechanical properties :
#
#
# Convention : Reuss Voigt Hill
#
# Bulk Modulus (GPa) = 42.28333 72.70827 57.49580
# Shear Modulus (GPa) = 32.57552 43.17247 37.87400
#
# Velocity S-wave (km/s) = 3.55030 4.08717 3.82816
# Velocity P-wave (km/s) = 5.75909 7.09977 6.46428
#
# Compressibility (1/GPa) = 0.02364998
#
# Stress axis : x y z
#
# Youngs Moduli (GPa) = 54.26643 80.68378 83.68808
#
# Poissons Ratio (x) = 0.22725 0.29536
# Poissons Ratio (y) = 0.15284 0.26902
# Poissons Ratio (z) = 0.19152 0.25937
#
# Static dielectric constant tensor:
#      x y z
#    x 2.041310 0.051570 0.039630 
#    y 0.051570 2.094960 0.009980 
#    z 0.039630 0.009980 2.159730 
# 
# From -- ./inp_files/376936.got.cif
#   From: 2010.05.17/outbox.cif.g08.bks.cpg/sg2_189_cif.got.tgz:376936.got - 2010.06.03 11:33:40.
