data_PCOD9004762
_publ_section_title
;
Structure prediction by ZEFSAII (Michael W. Deem and Ramdas Pophale) SiO2 
 PCOD9004762
Probable space group: P -1
;
_chemical_formula_sum "Si O2"
_cell_formula_units_Z 16
_cell_length_a 24.953045
_cell_length_b 22.628886
_cell_length_c 14.246833
_cell_angle_alpha 30.229585
_cell_angle_beta 149.096730
_cell_angle_gamma 169.006702
_cell_volume 768.250561
_symmetry_space_group_name_H-M "P -1"
_symmetry_group_IT_number 2
_symmetry_cell_setting 'triclinic'
loop_
_space_group_symop_operation_xyz
x,y,z
-x,-y,-z
loop_
_atom_site_type_symbol
_atom_site_label
_atom_site_fract_x
_atom_site_fract_y
_atom_site_fract_z
Si Si1 0.390821 0.127265 0.065655
Si Si2 0.393669 0.783274 0.572624
Si Si3 0.231255 0.574050 0.947228
Si Si4 0.254963 0.119341 0.249549
Si Si5 0.390393 0.417691 0.293184
Si Si6 0.247204 0.851892 0.576698
Si Si7 0.247284 0.355673 0.369335
Si Si8 0.150016 0.148881 0.871058
O O1 0.570549 0.289509 0.205556
O O2 0.540679 0.224948 0.065643
O O3 0.391141 0.266901 0.861231
O O4 0.074831 0.749519 0.119006
O O5 0.079174 0.477231 0.488360
O O6 0.500000 0.000000 0.500000
O O7 0.580801 0.969213 0.506857
O O8 0.292170 0.770734 0.801132
O O9 0.194910 0.439465 0.160302
O O10 0.540455 0.489388 0.194653
O O11 0.311505 0.042488 0.461465
O O12 0.195044 0.085453 0.095795
O O13 0.985527 0.889704 0.214366
O O14 0.361104 0.441058 0.320668
O O15 0.527248 0.434901 0.496804
O O16 0.091245 0.115278 0.207298
O O17 0.000000 0.000000 0.500000
#
# Coordination Sequence:
#
# PCOD9004762 Si02
#       8
#     2   2   2   2   2   2   2   2
#     4  11  21  33  52  84 115 152 190 225 289 366
#     4  12  21  33  53  83 121 156 193 227 286 370
#     4  11  21  35  54  79 119 154 184 232 291 353
#     4  10  23  40  60  87 117 155 208 240 287 349
#     4  10  22  37  61  87 119 154 193 252 302 348
#     4  12  22  37  56  81 121 162 187 243 296 342
#     4  10  21  38  58  90 120 150 199 240 305 366
#     4  10  22  41  62  86 115 155 203 251 289 339
#
# _framework density 20.826539
#
# number of rings (size 3 to 8) (size 9 to 14) (size 15 to 20)
#    0.000    1.250    3.750    2.625    1.750    3.000 
#    0.000    0.000    0.000    1.500    0.000    0.000 
#    0.000    0.000    0.000    0.000    0.000    0.000 
#
# Total GULP energy -89310.354942 kJ/mol
# GULP energy per Si atom -5581.897184 kJ/mol
# Density = 2.077914 g / cm^3
# Si number density = 20.826539 Si / 1000 Ang^3
#
#
#
# Elastic Constant Matrix: (Units=GPa)
#
#
# Indices 1 2 3 4 5 6 
#
# 1 35.7635 7.5644 14.4862 -5.5222 11.4841 11.8299
# 2 7.5644 67.7875 1.1575 7.2678 0.3192 6.3852
# 3 14.4862 1.1575 158.3927 -3.7723 13.7678 -10.2152
# 4 -5.5222 7.2678 -3.7723 32.3382 -4.1015 -2.2246
# 5 11.4841 0.3192 13.7678 -4.1015 24.8183 2.8628
# 6 11.8299 6.3852 -10.2152 -2.2246 2.8628 33.9884
#
#
#
# Elastic Compliance Matrix: (Units=1/GPa)
#
#
# Indices 1 2 3 4 5 6 
#
# 1 0.039344 -0.003583 -0.003023 0.004502 -0.014305 -0.012430
# 2 -0.003583 0.015797 -0.000117 -0.004186 0.001073 -0.002120
# 3 -0.003023 -0.000117 0.007069 0.000207 -0.002886 0.003456
# 4 0.004502 -0.004186 0.000207 0.033143 0.003197 0.001182
# 5 -0.014305 0.001073 -0.002886 0.003197 0.049029 -0.000010
# 6 -0.012430 -0.002120 0.003456 0.001182 -0.000010 0.035263
#
#
# Mechanical properties :
#
#
# Convention : Reuss Voigt Hill
#
# Bulk Modulus (GPa) = 20.50731 34.26218 27.38475
# Shear Modulus (GPa) = 23.88369 34.14469 29.01419
#
# Velocity S-wave (km/s) = 3.39010 4.05344 3.73652
# Velocity P-wave (km/s) = 5.01915 6.19630 5.63853
#
# Compressibility (1/GPa) = 0.04876309
#
# Stress axis : x y z
#
# Youngs Moduli (GPa) = 25.41684 63.30211 141.45508
#
# Poissons Ratio (x) = 0.22683 0.42764
# Poissons Ratio (y) = 0.09107 0.01661
# Poissons Ratio (z) = 0.07684 0.00743
#
# Static dielectric constant tensor:
#      x y z
#    x 1.793440 0.002620 0.068930 
#    y 0.002620 1.745620 -0.000500 
#    z 0.068930 -0.000500 1.900350 
# 
# From -- ./inp_files/533747.got.cif
#   From: 2010.05.17/outbox.cif.g08.bks.cpg/sg2_267_cif.got.tgz:533747.got - 2010.06.03 11:33:40.
