data_PCOD9004950
_publ_section_title
;
Structure prediction by ZEFSAII (Michael W. Deem and Ramdas Pophale) SiO2 
 PCOD9004950
Probable space group: P -1
;
_chemical_formula_sum "Si O2"
_cell_formula_units_Z 16
_cell_length_a 14.646729
_cell_length_b 22.451396
_cell_length_c 7.117543
_cell_angle_alpha 105.312742
_cell_angle_beta 96.195915
_cell_angle_gamma 20.317109
_cell_volume 712.330901
_symmetry_space_group_name_H-M "P -1"
_symmetry_group_IT_number 2
_symmetry_cell_setting 'triclinic'
loop_
_space_group_symop_operation_xyz
x,y,z
-x,-y,-z
loop_
_atom_site_type_symbol
_atom_site_label
_atom_site_fract_x
_atom_site_fract_y
_atom_site_fract_z
Si Si1 0.792608 0.602416 0.252892
Si Si2 0.079808 0.035352 0.133943
Si Si3 0.732467 0.213503 0.883613
Si Si4 0.407388 0.933330 0.223113
Si Si5 0.816183 0.721362 0.431243
Si Si6 0.924266 0.390445 0.949241
Si Si7 0.721896 0.071896 0.313380
Si Si8 0.386897 0.998070 0.861131
O O1 0.636498 0.731089 0.141015
O O2 0.929227 0.578050 0.348729
O O3 0.958725 0.436661 0.085303
O O4 0.541656 0.741271 0.457390
O O5 0.158927 0.926089 0.183901
O O6 0.115829 0.077974 0.279611
O O7 0.784575 0.211426 0.099950
O O8 0.298311 0.896264 0.884453
O O9 0.400481 0.425138 0.932302
O O10 0.963739 0.101194 0.709949
O O11 0.520616 0.905255 0.390314
O O12 0.406727 0.970500 0.061663
O O13 0.696200 0.816621 0.684916
O O14 0.024318 0.631035 0.280450
O O15 0.155257 0.196654 0.921955
O O16 0.713417 0.003359 0.251730
#
# Coordination Sequence:
#
# PCOD9004950 Si02
#       8
#     2   2   2   2   2   2   2   2
#     4   9  19  35  59  81 107 145 191 234 264 326
#     4   8  15  33  56  84 106 153 184 225 280 331
#     4   9  17  31  57  83 115 147 182 234 276 331
#     4   9  18  38  62  75 111 153 191 220 280 344
#     4   9  21  39  61  78 114 154 186 221 289 340
#     4  12  21  34  56  91 113 140 188 244 276 315
#     4   8  17  35  56  77 109 153 188 207 284 344
#     4  10  21  38  60  81 112 155 185 224 289 335
#
# _framework density 22.461469999999998
#
# number of rings (size 3 to 8) (size 9 to 14) (size 15 to 20)
#    1.500    1.250    1.250    0.750    0.000    1.500 
#    0.000    3.125    0.000    1.500    0.000    0.000 
#    0.000    0.000    0.000    0.000    0.000    0.000 
#
# Total GULP energy -89155.232376 kJ/mol
# GULP energy per Si atom -5572.202024 kJ/mol
# Density = 2.241035 g / cm^3
# Si number density = 22.461470 Si / 1000 Ang^3
#
#
#
# Elastic Constant Matrix: (Units=GPa)
#
#
# Indices 1 2 3 4 5 6 
#
# 1 77.3979 12.8674 24.7150 5.8704 -15.4088 -1.1868
# 2 12.8674 59.6750 23.1349 -3.1330 0.8354 15.3211
# 3 24.7150 23.1349 78.8294 -7.2622 -24.3375 14.3104
# 4 5.8704 -3.1330 -7.2622 24.5207 0.1919 -1.3712
# 5 -15.4088 0.8354 -24.3375 0.1919 34.2864 -0.5418
# 6 -1.1868 15.3211 14.3104 -1.3712 -0.5418 36.5555
#
#
#
# Elastic Compliance Matrix: (Units=1/GPa)
#
#
# Indices 1 2 3 4 5 6 
#
# 1 0.016008 -0.003179 -0.003674 -0.005187 0.004743 0.003166
# 2 -0.003179 0.021673 -0.005913 0.001442 -0.006271 -0.006911
# 3 -0.003674 -0.005913 0.021301 0.006017 0.013491 -0.005554
# 4 -0.005187 0.001442 0.006017 0.043896 0.001636 -0.001457
# 5 0.004743 -0.006271 0.013491 0.001636 0.040989 -0.001830
# 6 0.003166 -0.006911 -0.005554 -0.001457 -0.001830 0.032447
#
#
# Mechanical properties :
#
#
# Convention : Reuss Voigt Hill
#
# Bulk Modulus (GPa) = 29.89535 37.48186 33.68860
# Shear Modulus (GPa) = 23.47470 29.41817 26.44644
#
# Velocity S-wave (km/s) = 3.23632 3.62293 3.43507
# Velocity P-wave (km/s) = 5.22528 5.85015 5.54652
#
# Compressibility (1/GPa) = 0.03345002
#
# Stress axis : x y z
#
# Youngs Moduli (GPa) = 62.46784 46.14057 46.94691
#
# Poissons Ratio (x) = 0.14667 0.17250
# Poissons Ratio (y) = 0.19858 0.27758
# Poissons Ratio (z) = 0.22954 0.27281
#
# Static dielectric constant tensor:
#      x y z
#    x 1.916650 -0.049760 0.010940 
#    y -0.049760 1.814780 -0.033580 
#    z 0.010940 -0.033580 1.873660 
# 
# From -- ./inp_files/338292.got.cif
#   From: 2010.05.17/outbox.cif.g08.bks.cpg/sg2_170_cif.got.tgz:338292.got - 2010.06.03 11:33:40.
