data_PCOD9004049
_publ_section_title
;
Structure prediction by ZEFSAII (Michael W. Deem and Ramdas Pophale) SiO2 
 PCOD9004049
Probable space group: P -1
;
_chemical_formula_sum "Si O2"
_cell_formula_units_Z 14
_cell_length_a 10.769031
_cell_length_b 21.464188
_cell_length_c 13.659633
_cell_angle_alpha 158.790085
_cell_angle_beta 147.928514
_cell_angle_gamma 35.420156
_cell_volume 601.404311
_symmetry_space_group_name_H-M "P -1"
_symmetry_group_IT_number 2
_symmetry_cell_setting 'triclinic'
loop_
_space_group_symop_operation_xyz
x,y,z
-x,-y,-z
loop_
_atom_site_type_symbol
_atom_site_label
_atom_site_fract_x
_atom_site_fract_y
_atom_site_fract_z
Si Si1 0.592531 0.443529 0.312120
Si Si2 0.139056 0.089597 0.901625
Si Si3 0.121321 0.834469 0.782100
Si Si4 0.662415 0.276449 0.811830
Si Si5 0.304705 0.377677 0.561625
Si Si6 0.541224 0.187420 0.180118
Si Si7 0.356093 0.189073 0.661785
O O1 0.809962 0.330216 0.344019
O O2 0.662724 0.529202 0.383194
O O3 0.474871 0.605712 0.532655
O O4 0.416142 0.311230 0.968431
O O5 0.163314 0.220885 0.203309
O O6 0.295263 0.143610 0.994232
O O7 0.869223 0.119693 0.734848
O O8 0.266312 0.903558 0.747757
O O9 0.360247 0.877576 0.953813
O O10 0.922028 0.804316 0.526670
O O11 0.000000 0.000000 0.000000
O O12 0.542601 0.291362 0.647639
O O13 0.462122 0.256504 0.729955
O O14 0.769115 0.457442 0.174029
O O15 0.500000 0.000000 0.500000
#
# Coordination Sequence:
#
# PCOD9004049 Si02
#       7
#     2   2   2   2   2   2   2
#     4  10  23  44  63  95 132 168 216 267 320 381
#     4  10  21  42  66  88 133 172 207 263 322 380
#     4  12  25  43  70  93 126 173 217 265 322 387
#     4  10  21  37  63  98 127 166 217 263 320 379
#     4   9  21  37  63  97 129 165 215 267 316 376
#     4  10  24  43  64  97 131 171 216 259 327 383
#     4  11  23  40  65  99 128 166 220 265 318 378
#
# _framework density 23.278849000000001
#
# number of rings (size 3 to 8) (size 9 to 14) (size 15 to 20)
#    0.000    1.714    1.429    1.714    4.000    7.429 
#    0.000   10.714    0.000    0.000    0.000    0.000 
#    0.000    0.000    0.000    0.000    0.000    0.000 
#
# Total GULP energy -78229.581367 kJ/mol
# GULP energy per Si atom -5587.827241 kJ/mol
# Density = 2.322586 g / cm^3
# Si number density = 23.278849 Si / 1000 Ang^3
#
#
#
# Elastic Constant Matrix: (Units=GPa)
#
#
# Indices 1 2 3 4 5 6 
#
# 1 92.1782 5.1793 0.9475 -0.5999 0.8952 0.0251
# 2 5.1793 114.4718 16.5173 -2.2222 -5.0783 15.3500
# 3 0.9475 16.5173 60.1175 12.9918 -2.4396 -0.4479
# 4 -0.5999 -2.2222 12.9918 42.4771 -2.7017 2.1116
# 5 0.8952 -5.0783 -2.4396 -2.7017 21.1155 2.4294
# 6 0.0251 15.3500 -0.4479 2.1116 2.4294 36.0415
#
#
#
# Elastic Compliance Matrix: (Units=1/GPa)
#
#
# Indices 1 2 3 4 5 6 
#
# 1 0.010886 -0.000543 -0.000066 0.000093 -0.000618 0.000259
# 2 -0.000543 0.009978 -0.003053 0.001857 0.002835 -0.004587
# 3 -0.000066 -0.003053 0.018797 -0.005973 0.000463 0.001853
# 4 0.000093 0.001857 -0.005973 0.025810 0.003354 -0.002603
# 5 -0.000618 0.002835 0.000463 0.003354 0.049091 -0.004707
# 6 0.000259 -0.004587 0.001853 -0.002603 -0.004707 0.030192
#
#
# Mechanical properties :
#
#
# Convention : Reuss Voigt Hill
#
# Bulk Modulus (GPa) = 30.92427 34.67286 32.79856
# Shear Modulus (GPa) = 30.70167 36.20172 33.45169
#
# Velocity S-wave (km/s) = 3.63556 3.94780 3.79489
# Velocity P-wave (km/s) = 5.56203 5.97554 5.77249
#
# Compressibility (1/GPa) = 0.03233706
#
# Stress axis : x y z
#
# Youngs Moduli (GPa) = 91.85863 100.22236 53.19924
#
# Poissons Ratio (x) = 0.05447 0.00349
# Poissons Ratio (y) = 0.04992 0.16243
# Poissons Ratio (z) = 0.00602 0.30599
#
# Static dielectric constant tensor:
#      x y z
#    x 1.912450 0.015200 -0.010570 
#    y 0.015200 1.885670 0.012300 
#    z -0.010570 0.012300 1.961360 
# 
# From -- ./inp_files/390670.got.cif
#   From: 2010.05.17/outbox.cif.g08.bks.cpg/sg2_196_cif.got.tgz:390670.got - 2010.06.03 11:33:40.
