data_PCOD9004219
_publ_section_title
;
Structure prediction by ZEFSAII (Michael W. Deem and Ramdas Pophale) SiO2 
 PCOD9004219
Probable space group: P -1
;
_chemical_formula_sum "Si O2"
_cell_formula_units_Z 14
_cell_length_a 8.308222
_cell_length_b 11.698597
_cell_length_c 12.075525
_cell_angle_alpha 37.118649
_cell_angle_beta 122.671403
_cell_angle_gamma 114.317796
_cell_volume 595.809947
_symmetry_space_group_name_H-M "P -1"
_symmetry_group_IT_number 2
_symmetry_cell_setting 'triclinic'
loop_
_space_group_symop_operation_xyz
x,y,z
-x,-y,-z
loop_
_atom_site_type_symbol
_atom_site_label
_atom_site_fract_x
_atom_site_fract_y
_atom_site_fract_z
Si Si1 0.377935 0.173398 0.872771
Si Si2 0.800019 0.102935 0.310414
Si Si3 0.236724 0.663907 0.101222
Si Si4 0.396184 0.289391 0.450978
Si Si5 0.761860 0.144077 0.817786
Si Si6 0.982131 0.294479 0.593295
Si Si7 0.610135 0.202145 0.383158
O O1 0.530717 0.329428 0.825331
O O2 0.197738 0.237436 0.683363
O O3 0.500000 0.000000 0.000000
O O4 0.305407 0.070978 0.034443
O O5 0.675649 0.222665 0.263884
O O6 0.674918 0.919388 0.388535
O O7 0.834962 0.230599 0.116777
O O8 0.000000 0.000000 0.500000
O O9 0.220678 0.441154 0.284414
O O10 0.175296 0.779907 0.097933
O O11 0.585971 0.285297 0.602373
O O12 0.465820 0.310161 0.332331
O O13 0.922665 0.161197 0.774412
O O14 0.815949 0.249030 0.480387
O O15 0.000000 0.500000 0.500000
O O16 0.500000 0.000000 0.500000
#
# Coordination Sequence:
#
# PCOD9004219 Si02
#       7
#     2   2   2   2   2   2   2
#     4  10  21  37  64  99 130 174 220 282 345 401
#     4  11  25  41  63  90 130 185 230 271 331 417
#     4  11  23  40  66  97 132 175 224 281 346 399
#     4  10  21  43  64  92 131 170 225 283 342 400
#     4  10  21  39  64  98 133 169 214 287 343 403
#     4  11  23  41  69 106 135 174 232 290 345 403
#     4   9  22  43  66  92 136 186 218 274 342 409
#
# _framework density 23.497426000000001
#
# number of rings (size 3 to 8) (size 9 to 14) (size 15 to 20)
#    0.000    1.714    1.429    2.571    4.000    3.429 
#    0.000    0.000    0.000    0.000    0.000    0.000 
#    0.000    0.000    0.000    0.000    0.000    0.000 
#
# Total GULP energy -77940.873965 kJ/mol
# GULP energy per Si atom -5567.205283 kJ/mol
# Density = 2.344394 g / cm^3
# Si number density = 23.497426 Si / 1000 Ang^3
#
#
#
# Elastic Constant Matrix: (Units=GPa)
#
#
# Indices 1 2 3 4 5 6 
#
# 1 43.0212 9.5586 -5.0881 13.6390 9.6968 0.0758
# 2 9.5586 90.9433 15.1170 5.6848 5.0732 -7.9713
# 3 -5.0881 15.1170 76.6476 14.2236 1.2667 -3.7242
# 4 13.6390 5.6848 14.2236 30.9946 -4.3377 -2.1224
# 5 9.6968 5.0732 1.2667 -4.3377 45.1776 13.4417
# 6 0.0758 -7.9713 -3.7242 -2.1224 13.4417 43.8599
#
#
#
# Elastic Compliance Matrix: (Units=1/GPa)
#
#
# Indices 1 2 3 4 5 6 
#
# 1 0.032193 -0.002634 0.006175 -0.017653 -0.009050 0.001909
# 2 -0.002634 0.011961 -0.002399 0.000032 -0.001425 0.002413
# 3 0.006175 -0.002399 0.015871 -0.009868 -0.002833 0.001292
# 4 -0.017653 0.000032 -0.009868 0.045702 0.008836 -0.001298
# 5 -0.009050 -0.001425 -0.002833 0.008836 0.027709 -0.008548
# 6 0.001909 0.002413 0.001292 -0.001298 -0.008548 0.025902
#
#
# Mechanical properties :
#
#
# Convention : Reuss Voigt Hill
#
# Bulk Modulus (GPa) = 16.04963 27.75414 21.90188
# Shear Modulus (GPa) = 28.11792 36.74138 32.42965
#
# Velocity S-wave (km/s) = 3.46300 3.95857 3.71905
# Velocity P-wave (km/s) = 4.77860 5.72109 5.27096
#
# Compressibility (1/GPa) = 0.06230674
#
# Stress axis : x y z
#
# Youngs Moduli (GPa) = 31.06278 83.60847 63.00947
#
# Poissons Ratio (x) = 0.22026 -0.38907
# Poissons Ratio (y) = 0.08183 0.15116
# Poissons Ratio (z) = -0.19181 0.20058
#
# Static dielectric constant tensor:
#      x y z
#    x 2.060200 0.151320 -0.011380 
#    y 0.151320 2.155360 -0.050470 
#    z -0.011380 -0.050470 1.995390 
# 
# From -- ./inp_files/388909.got.cif
#   From: 2010.05.17/outbox.cif.g08.bks.cpg/sg2_195_cif.got.tgz:388909.got - 2010.06.03 11:33:40.
