data_PCOD9004721
_publ_section_title
;
Structure prediction by ZEFSAII (Michael W. Deem and Ramdas Pophale) SiO2 
 PCOD9004721
Probable space group: P -1
;
_chemical_formula_sum "Si O2"
_cell_formula_units_Z 12
_cell_length_a 17.280564
_cell_length_b 5.930116
_cell_length_c 12.264005
_cell_angle_alpha 91.607279
_cell_angle_beta 148.135585
_cell_angle_gamma 66.958237
_cell_volume 475.839552
_symmetry_space_group_name_H-M "P -1"
_symmetry_group_IT_number 2
_symmetry_cell_setting 'triclinic'
loop_
_space_group_symop_operation_xyz
x,y,z
-x,-y,-z
loop_
_atom_site_type_symbol
_atom_site_label
_atom_site_fract_x
_atom_site_fract_y
_atom_site_fract_z
Si Si1 0.848486 0.242318 0.101327
Si Si2 0.158828 0.916106 0.279341
Si Si3 0.445834 0.791249 0.181973
Si Si4 0.261762 0.492887 0.789373
Si Si5 0.692958 0.058114 0.223878
Si Si6 0.481717 0.879252 0.584820
O O1 0.774100 0.071546 0.041293
O O2 0.661992 0.505764 0.800053
O O3 0.833645 0.385913 0.201929
O O4 0.045258 0.075571 0.260950
O O5 0.355766 0.550589 0.538658
O O6 0.259983 0.022331 0.344814
O O7 0.000000 0.000000 0.000000
O O8 0.434456 0.804034 0.039787
O O9 0.466012 0.015787 0.252823
O O10 0.509712 0.241984 0.094338
O O11 0.211190 0.786885 0.669282
O O12 0.209613 0.302615 0.670672
O O13 0.500000 0.000000 0.500000
#
# Coordination Sequence:
#
# PCOD9004721 Si02
#       6
#     2   2   2   2   2   2
#     4  10  21  38  58  84 118 154 200 246 305 357
#     4  11  24  39  56  85 119 155 202 253 303 360
#     4  10  21  38  58  84 115 158 194 252 299 361
#     4   9  17  33  60  92 116 160 199 248 298 368
#     4   9  17  33  61  89 121 154 205 243 303 361
#     4  11  22  37  59  82 112 154 201 248 302 361
#
# _framework density 25.218585999999998
#
# number of rings (size 3 to 8) (size 9 to 14) (size 15 to 20)
#    0.000    2.000    1.667    2.000    0.000    6.667 
#    0.000    0.833    0.000    1.000    0.000    0.000 
#    0.000    0.000    0.000    0.000    0.000    0.000 
#
# Total GULP energy -66954.839349 kJ/mol
# GULP energy per Si atom -5579.569946 kJ/mol
# Density = 2.516119 g / cm^3
# Si number density = 25.218586 Si / 1000 Ang^3
#
#
#
# Elastic Constant Matrix: (Units=GPa)
#
#
# Indices 1 2 3 4 5 6 
#
# 1 175.2149 52.8607 40.9952 -16.5059 31.2588 9.7414
# 2 52.8607 128.8044 37.7820 14.3000 20.5818 26.1919
# 3 40.9952 37.7820 79.7331 -3.4630 37.9120 12.9307
# 4 -16.5059 14.3000 -3.4630 33.2521 4.5902 10.2009
# 5 31.2588 20.5818 37.9120 4.5902 50.1274 0.6804
# 6 9.7414 26.1919 12.9307 10.2009 0.6804 36.9580
#
#
#
# Elastic Compliance Matrix: (Units=1/GPa)
#
#
# Indices 1 2 3 4 5 6 
#
# 1 0.008093 -0.002956 -0.000201 0.006358 -0.004241 -0.001644
# 2 -0.002956 0.011516 -0.003620 -0.005436 0.000413 -0.004623
# 3 -0.000201 -0.003620 0.024392 0.008887 -0.017540 -0.008045
# 4 0.006358 -0.005436 0.008887 0.041935 -0.012127 -0.012284
# 5 -0.004241 0.000413 -0.017540 -0.012127 0.036670 0.009634
# 6 -0.001644 -0.004623 -0.008045 -0.012284 0.009634 0.036796
#
#
# Mechanical properties :
#
#
# Convention : Reuss Voigt Hill
#
# Bulk Modulus (GPa) = 32.84456 71.89202 52.36829
# Shear Modulus (GPa) = 27.30687 40.87515 34.09101
#
# Velocity S-wave (km/s) = 3.29417 4.03033 3.68070
# Velocity P-wave (km/s) = 5.24605 7.08714 6.23492
#
# Compressibility (1/GPa) = 0.03044645
#
# Stress axis : x y z
#
# Youngs Moduli (GPa) = 123.56267 86.83360 40.99778
#
# Poissons Ratio (x) = 0.25669 0.00824
# Poissons Ratio (y) = 0.36527 0.14841
# Poissons Ratio (z) = 0.02484 0.31434
#
# Static dielectric constant tensor:
#      x y z
#    x 1.943270 0.101160 0.017190 
#    y 0.101160 1.992100 -0.062250 
#    z 0.017190 -0.062250 2.075980 
# 
# From -- ./inp_files/3299.got.cif
#   From: 2010.05.17/outbox.cif.g08.bks.cpg/sg2_2_cif.got.tgz:3299.got - 2010.06.03 11:33:40.
