data_PCOD9004592
_publ_section_title
;
Structure prediction by ZEFSAII (Michael W. Deem and Ramdas Pophale) SiO2 
 PCOD9004592
Probable space group: P -1
;
_chemical_formula_sum "Si O2"
_cell_formula_units_Z 14
_cell_length_a 10.957485
_cell_length_b 17.563024
_cell_length_c 6.504221
_cell_angle_alpha 109.926738
_cell_angle_beta 94.296920
_cell_angle_gamma 140.003355
_cell_volume 628.632961
_symmetry_space_group_name_H-M "P -1"
_symmetry_group_IT_number 2
_symmetry_cell_setting 'triclinic'
loop_
_space_group_symop_operation_xyz
x,y,z
-x,-y,-z
loop_
_atom_site_type_symbol
_atom_site_label
_atom_site_fract_x
_atom_site_fract_y
_atom_site_fract_z
Si Si1 0.925879 0.167453 0.708338
Si Si2 0.892355 0.854068 0.598400
Si Si3 0.674214 0.869774 0.332775
Si Si4 0.907068 0.330726 0.763468
Si Si5 0.641407 0.403844 0.190387
Si Si6 0.846607 0.445920 0.621251
Si Si7 0.697113 0.662138 0.784892
O O1 0.080079 0.214605 0.588217
O O2 0.811341 0.188434 0.659998
O O3 0.105273 0.276640 0.017364
O O4 0.739544 0.992123 0.553174
O O5 0.718315 0.822177 0.454029
O O6 0.828500 0.792901 0.760868
O O7 0.862927 0.968749 0.262553
O O8 0.437773 0.721437 0.053292
O O9 0.125715 0.438684 0.740907
O O10 0.763871 0.319798 0.616909
O O11 0.009602 0.424123 0.073518
O O12 0.669105 0.401539 0.433786
O O13 0.444571 0.359952 0.099286
O O14 0.000000 0.500000 0.500000
O O15 0.500000 0.500000 0.500000
#
# Coordination Sequence:
#
# PCOD9004592 Si02
#       7
#     2   2   2   2   2   2   2
#     4  10  21  38  53  86 121 151 188 231 288 333
#     4   9  20  39  51  81 129 158 184 222 280 342
#     4   9  20  39  55  81 120 169 184 221 287 343
#     4  10  21  39  62  81 116 149 185 257 286 331
#     4  11  21  35  59  89 111 152 203 224 287 349
#     4   9  21  40  61  83 108 146 198 242 298 335
#     4  12  23  31  58  93 118 153 196 236 278 337
#
# _framework density 22.270548000000002
#
# number of rings (size 3 to 8) (size 9 to 14) (size 15 to 20)
#    0.857    1.143    1.429    1.714    4.000    4.571 
#    0.000    0.714    0.000    7.714    0.000    0.000 
#    0.000    0.000    0.000    0.000    0.000    0.000 
#
# Total GULP energy -78058.420028 kJ/mol
# GULP energy per Si atom -5575.601431 kJ/mol
# Density = 2.221986 g / cm^3
# Si number density = 22.270548 Si / 1000 Ang^3
#
#
#
# Elastic Constant Matrix: (Units=GPa)
#
#
# Indices 1 2 3 4 5 6 
#
# 1 54.0317 18.0215 10.7474 -2.3076 -6.7740 -24.2779
# 2 18.0215 56.3722 18.7621 -4.0337 -10.0621 -1.7412
# 3 10.7474 18.7621 59.0898 11.0968 -7.2093 -16.8323
# 4 -2.3076 -4.0337 11.0968 32.5419 0.0039 -9.0935
# 5 -6.7740 -10.0621 -7.2093 0.0039 26.8237 4.0316
# 6 -24.2779 -1.7412 -16.8323 -9.0935 4.0316 36.8786
#
#
#
# Elastic Compliance Matrix: (Units=1/GPa)
#
#
# Indices 1 2 3 4 5 6 
#
# 1 0.032284 -0.009774 0.002904 0.006675 0.001723 0.023574
# 2 -0.009774 0.024626 -0.008420 0.002689 0.005873 -0.009094
# 3 0.002904 -0.008420 0.023451 -0.005898 0.002298 0.010512
# 4 0.006675 0.002689 -0.005898 0.036597 -0.000536 0.010912
# 5 0.001723 0.005873 0.002298 -0.000536 0.040858 -0.002138
# 6 0.023574 -0.009094 0.010512 0.010912 -0.002138 0.049928
#
#
# Mechanical properties :
#
#
# Convention : Reuss Voigt Hill
#
# Bulk Modulus (GPa) = 20.08852 29.39508 24.74180
# Shear Modulus (GPa) = 19.61410 27.37968 23.49689
#
# Velocity S-wave (km/s) = 2.97091 3.51010 3.25170
# Velocity P-wave (km/s) = 4.56160 5.44568 5.02313
#
# Compressibility (1/GPa) = 0.04977967
#
# Stress axis : x y z
#
# Youngs Moduli (GPa) = 30.97548 40.60734 42.64138
#
# Poissons Ratio (x) = 0.39689 -0.12381
# Poissons Ratio (y) = 0.30275 0.35906
# Poissons Ratio (z) = -0.08994 0.34193
#
# Static dielectric constant tensor:
#      x y z
#    x 1.867780 -0.008550 -0.008470 
#    y -0.008550 1.809310 0.008690 
#    z -0.008470 0.008690 1.855320 
# 
# From -- ./inp_files/81593.got.cif
#   From: 2010.05.17/outbox.cif.g08.bks.cpg/sg2_41_cif.got.tgz:81593.got - 2010.06.03 11:33:40.
