data_PCOD9004651
_publ_section_title
;
Structure prediction by ZEFSAII (Michael W. Deem and Ramdas Pophale) SiO2 
 PCOD9004651
Probable space group: P -1
;
_chemical_formula_sum "Si O2"
_cell_formula_units_Z 16
_cell_length_a 8.372569
_cell_length_b 9.156715
_cell_length_c 17.917643
_cell_angle_alpha 93.186865
_cell_angle_beta 53.107911
_cell_angle_gamma 132.336338
_cell_volume 655.787484
_symmetry_space_group_name_H-M "P -1"
_symmetry_group_IT_number 2
_symmetry_cell_setting 'triclinic'
loop_
_space_group_symop_operation_xyz
x,y,z
-x,-y,-z
loop_
_atom_site_type_symbol
_atom_site_label
_atom_site_fract_x
_atom_site_fract_y
_atom_site_fract_z
Si Si1 0.059275 0.717349 0.742539
Si Si2 0.933665 0.203515 0.414454
Si Si3 0.718232 0.681727 0.164719
Si Si4 0.185462 0.204011 0.586012
Si Si5 0.268365 0.866593 0.372586
Si Si6 0.518989 0.601970 0.921683
Si Si7 0.249389 0.960452 0.152034
Si Si8 0.450802 0.805017 0.180679
O O1 0.191755 0.787077 0.623599
O O2 0.897018 0.781174 0.796490
O O3 0.762689 0.428719 0.817938
O O4 0.342445 0.863373 0.726745
O O5 0.842718 0.236306 0.516042
O O6 0.342580 0.439826 0.297729
O O7 0.788537 0.953350 0.440906
O O8 0.713973 0.591557 0.085266
O O9 0.730644 0.861476 0.140257
O O10 0.996578 0.792906 0.148121
O O11 0.500000 0.500000 0.500000
O O12 0.940754 0.115299 0.587702
O O13 0.992746 0.127514 0.714959
O O14 0.242073 0.734943 0.310175
O O15 0.504764 0.766195 0.934763
O O16 0.500000 0.500000 0.000000
O O17 0.464685 0.955967 0.128699
#
# Coordination Sequence:
#
# PCOD9004651 Si02
#       8
#     2   2   2   2   2   2   2   2
#     4  10  22  41  59  88 126 163 210 264 317 375
#     4  10  21  38  56  89 127 172 212 251 309 370
#     4  10  22  42  64  91 131 166 207 263 322 373
#     4  11  23  37  58  93 128 171 219 252 298 379
#     4  11  22  35  59  84 129 169 208 255 303 364
#     4  10  22  44  70  94 122 161 213 267 324 386
#     4  11  21  40  66  89 127 170 209 257 319 373
#     4   9  23  36  58  94 120 163 210 256 303 374
#
# _framework density 24.398146000000001
#
# number of rings (size 3 to 8) (size 9 to 14) (size 15 to 20)
#    0.000    2.000    2.500    2.250    5.250    2.500 
#    0.000    2.500    0.000   12.750    0.000    0.000 
#    0.000    0.000    0.000    0.000    0.000    0.000 
#
# Total GULP energy -89275.056087 kJ/mol
# GULP energy per Si atom -5579.691005 kJ/mol
# Density = 2.434261 g / cm^3
# Si number density = 24.398146 Si / 1000 Ang^3
#
#
#
# Elastic Constant Matrix: (Units=GPa)
#
#
# Indices 1 2 3 4 5 6 
#
# 1 105.3850 32.0948 8.7628 -3.3447 22.2045 12.9161
# 2 32.0948 92.7008 19.8397 2.3506 15.4733 -2.2503
# 3 8.7628 19.8397 80.6507 6.3323 19.6895 0.2432
# 4 -3.3447 2.3506 6.3323 21.0683 -3.2523 13.3650
# 5 22.2045 15.4733 19.6895 -3.2523 34.6974 -2.0828
# 6 12.9161 -2.2503 0.2432 13.3650 -2.0828 34.0606
#
#
#
# Elastic Compliance Matrix: (Units=1/GPa)
#
#
# Indices 1 2 3 4 5 6 
#
# 1 0.013358 -0.003972 0.000774 0.006515 -0.007106 -0.008325
# 2 -0.003972 0.013182 -0.001876 -0.004443 -0.002449 0.003984
# 3 0.000774 -0.001876 0.015491 -0.006693 -0.008983 0.001549
# 4 0.006515 -0.004443 -0.006693 0.071200 0.006467 -0.030259
# 5 -0.007106 -0.002449 -0.008983 0.006467 0.040315 0.002524
# 6 -0.008325 0.003984 0.001549 -0.030259 0.002524 0.044796
#
#
# Mechanical properties :
#
#
# Convention : Reuss Voigt Hill
#
# Bulk Modulus (GPa) = 31.36504 44.45900 37.91202
# Shear Modulus (GPa) = 22.81867 32.50122 27.65995
#
# Velocity S-wave (km/s) = 3.06152 3.65378 3.37068
# Velocity P-wave (km/s) = 5.03792 6.00516 5.54268
#
# Compressibility (1/GPa) = 0.03188263
#
# Stress axis : x y z
#
# Youngs Moduli (GPa) = 74.85880 75.85916 64.55543
#
# Poissons Ratio (x) = 0.30130 -0.04996
# Poissons Ratio (y) = 0.29733 0.12114
# Poissons Ratio (z) = -0.05794 0.14235
#
# Static dielectric constant tensor:
#      x y z
#    x 1.933470 -0.002530 -0.022010 
#    y -0.002530 1.946640 -0.033600 
#    z -0.022010 -0.033600 2.076650 
# 
# From -- ./inp_files/557246.got.cif
#   From: 2010.05.17/outbox.cif.g08.bks.cpg/sg2_279_cif.got.tgz:557246.got - 2010.06.03 11:33:40.
