data_PCOD9004614
_publ_section_title
;
Structure prediction by ZEFSAII (Michael W. Deem and Ramdas Pophale) SiO2 
 PCOD9004614
Probable space group: P -1
;
_chemical_formula_sum "Si O2"
_cell_formula_units_Z 16
_cell_length_a 23.565891
_cell_length_b 8.006164
_cell_length_c 5.163223
_cell_angle_alpha 115.215279
_cell_angle_beta 76.731657
_cell_angle_gamma 64.133937
_cell_volume 682.039874
_symmetry_space_group_name_H-M "P -1"
_symmetry_group_IT_number 2
_symmetry_cell_setting 'triclinic'
loop_
_space_group_symop_operation_xyz
x,y,z
-x,-y,-z
loop_
_atom_site_type_symbol
_atom_site_label
_atom_site_fract_x
_atom_site_fract_y
_atom_site_fract_z
Si Si1 0.781182 0.763917 0.943148
Si Si2 0.689652 0.891899 0.644669
Si Si3 0.342215 0.656803 0.170381
Si Si4 0.238178 0.768548 0.738527
Si Si5 0.935356 0.285658 0.439709
Si Si6 0.084062 0.909268 0.165846
Si Si7 0.610679 0.691995 0.506967
Si Si8 0.462900 0.479406 0.276732
O O1 0.734754 0.749759 0.758876
O O2 0.866526 0.551104 0.716300
O O3 0.744028 0.790783 0.275235
O O4 0.774563 0.991897 0.035102
O O5 0.621533 0.888413 0.651954
O O6 0.662318 0.154787 0.876873
O O7 0.264272 0.723218 0.379868
O O8 0.378541 0.672908 0.403269
O O9 0.392801 0.397951 0.830583
O O10 0.307326 0.537789 0.650485
O O11 0.163546 0.816790 0.928725
O O12 0.917598 0.156034 0.580373
O O13 0.936247 0.216213 0.096219
O O14 0.018036 0.181699 0.365763
O O15 0.547971 0.715072 0.758293
O O16 0.500000 0.500000 0.500000
O O17 0.500000 0.500000 0.000000
#
# Coordination Sequence:
#
# PCOD9004614 Si02
#       8
#     2   2   2   2   2   2   2   2
#     4  11  22  38  58  90 127 156 210 265 309 359
#     4  11  25  39  64  96 126 160 208 261 302 365
#     4  10  23  43  64  96 128 159 208 253 306 365
#     4  10  22  36  61  91 121 162 207 260 312 367
#     4  10  21  38  55  84 118 164 209 260 308 370
#     4  10  22  37  58  82 120 161 212 255 311 373
#     4  11  22  41  69  90 126 168 202 248 316 360
#     4  11  23  42  69  95 127 167 203 247 300 365
#
# _framework density 23.459040000000002
#
# number of rings (size 3 to 8) (size 9 to 14) (size 15 to 20)
#    0.000    1.500    2.500    2.250    7.000    0.500 
#    0.000    1.250    0.000    6.750    0.000    0.000 
#    0.000    0.000    0.000    0.000    0.000    0.000 
#
# Total GULP energy -89210.417995 kJ/mol
# GULP energy per Si atom -5575.651125 kJ/mol
# Density = 2.340565 g / cm^3
# Si number density = 23.459040 Si / 1000 Ang^3
#
#
#
# Elastic Constant Matrix: (Units=GPa)
#
#
# Indices 1 2 3 4 5 6 
#
# 1 65.3279 6.1072 18.5737 -19.1967 -23.5689 2.8166
# 2 6.1072 44.6223 15.7182 -12.0832 7.0191 -8.0822
# 3 18.5737 15.7182 91.6908 -26.8630 -8.2132 -2.1476
# 4 -19.1967 -12.0832 -26.8630 31.3363 -4.7686 -5.4076
# 5 -23.5689 7.0191 -8.2132 -4.7686 42.2015 -3.4183
# 6 2.8166 -8.0822 -2.1476 -5.4076 -3.4183 38.4760
#
#
#
# Elastic Compliance Matrix: (Units=1/GPa)
#
#
# Indices 1 2 3 4 5 6 
#
# 1 0.028057 -0.001286 0.002951 0.022620 0.019235 0.002729
# 2 -0.001286 0.027496 -0.002220 0.008396 -0.004244 0.006549
# 3 0.002951 -0.002220 0.016274 0.016568 0.007316 0.003205
# 4 0.022620 0.008396 0.016568 0.068961 0.023289 0.012794
# 5 0.019235 -0.004244 0.007316 0.023289 0.039596 0.004900
# 6 0.002729 0.006549 0.003205 0.012794 0.004900 0.029578
#
#
# Mechanical properties :
#
#
# Convention : Reuss Voigt Hill
#
# Bulk Modulus (GPa) = 14.14104 31.38213 22.76159
# Shear Modulus (GPa) = 21.30886 33.15221 27.23054
#
# Velocity S-wave (km/s) = 3.01714 3.76333 3.41070
# Velocity P-wave (km/s) = 4.26364 5.68243 5.02337
#
# Compressibility (1/GPa) = 0.07071616
#
# Stress axis : x y z
#
# Youngs Moduli (GPa) = 35.64149 36.36954 61.44936
#
# Poissons Ratio (x) = 0.04676 -0.18131
# Poissons Ratio (y) = 0.04582 0.13642
# Poissons Ratio (z) = -0.10517 0.08074
#
# Static dielectric constant tensor:
#      x y z
#    x 1.950060 -0.027080 0.042760 
#    y -0.027080 1.956130 -0.003830 
#    z 0.042760 -0.003830 2.011610 
# 
# From -- ./inp_files/53620.got.cif
#   From: 2010.05.17/outbox.cif.g08.bks.cpg/sg2_27_cif.got.tgz:53620.got - 2010.06.03 11:33:40.
