data_PCOD9004104
_publ_section_title
;
Structure prediction by ZEFSAII (Michael W. Deem and Ramdas Pophale) SiO2 
 PCOD9004104
Probable space group: P -1
;
_chemical_formula_sum "Si O2"
_cell_formula_units_Z 16
_cell_length_a 9.345775
_cell_length_b 24.299030
_cell_length_c 7.860565
_cell_angle_alpha 120.480626
_cell_angle_beta 90.532944
_cell_angle_gamma 40.082241
_cell_volume 723.836164
_symmetry_space_group_name_H-M "P -1"
_symmetry_group_IT_number 2
_symmetry_cell_setting 'triclinic'
loop_
_space_group_symop_operation_xyz
x,y,z
-x,-y,-z
loop_
_atom_site_type_symbol
_atom_site_label
_atom_site_fract_x
_atom_site_fract_y
_atom_site_fract_z
Si Si1 0.141355 0.865102 0.678793
Si Si2 0.298495 0.419423 0.940518
Si Si3 0.822007 0.611994 0.806974
Si Si4 0.781851 0.113233 0.921246
Si Si5 0.859534 0.806913 0.366278
Si Si6 0.293039 0.521344 0.852796
Si Si7 0.156129 0.087883 0.754225
Si Si8 0.987597 0.214471 0.297504
O O1 0.430004 0.717716 0.374600
O O2 0.955100 0.880694 0.783696
O O3 0.253363 0.861299 0.836488
O O4 0.979843 0.971409 0.702311
O O5 0.298866 0.492882 0.003629
O O6 0.328634 0.384230 0.075118
O O7 0.000000 0.500000 0.000000
O O8 0.000000 0.500000 0.500000
O O9 0.064986 0.561854 0.821423
O O10 0.548215 0.761656 0.966388
O O11 0.955921 0.105122 0.829116
O O12 0.916618 0.850577 0.331784
O O13 0.510720 0.927917 0.506384
O O14 0.119708 0.656447 0.066901
O O15 0.872362 0.803113 0.567056
O O16 0.631047 0.377594 0.553707
O O17 0.104354 0.161733 0.021392
#
# Coordination Sequence:
#
# PCOD9004104 Si02
#       8
#     2   2   2   2   2   2   2   2
#     4   9  20  38  60  93 119 156 204 248 314 387
#     4   9  19  35  57  81 122 153 191 246 302 360
#     4  11  22  39  60  92 128 158 198 259 321 370
#     4  10  21  37  64  90 125 159 199 256 318 372
#     4  11  24  43  64  90 125 169 218 260 309 361
#     4  10  23  42  62  92 123 160 215 254 304 392
#     4  10  24  41  63  94 127 163 215 264 303 382
#     4  10  21  45  65  87 130 167 205 266 317 361
#
# _framework density 22.104448999999999
#
# number of rings (size 3 to 8) (size 9 to 14) (size 15 to 20)
#    0.000    2.000    0.000    3.750    7.000    3.000 
#    4.500    0.000    0.000    0.000    0.000    0.000 
#    0.000    0.000    0.000    0.000    0.000    0.000 
#
# Total GULP energy -89226.448159 kJ/mol
# GULP energy per Si atom -5576.653010 kJ/mol
# Density = 2.205414 g / cm^3
# Si number density = 22.104449 Si / 1000 Ang^3
#
#
#
# Elastic Constant Matrix: (Units=GPa)
#
#
# Indices 1 2 3 4 5 6 
#
# 1 37.6622 20.2104 9.4856 16.5466 2.6266 -6.6862
# 2 20.2104 113.7967 36.7137 30.0412 -4.4402 1.9311
# 3 9.4856 36.7137 57.4146 6.9310 -1.7359 2.1798
# 4 16.5466 30.0412 6.9310 44.3449 -0.4629 1.6057
# 5 2.6266 -4.4402 -1.7359 -0.4629 26.6268 3.6009
# 6 -6.6862 1.9311 2.1798 1.6057 3.6009 24.8155
#
#
#
# Elastic Compliance Matrix: (Units=1/GPa)
#
#
# Indices 1 2 3 4 5 6 
#
# 1 0.036637 -0.002692 -0.003551 -0.011792 -0.006128 0.012045
# 2 -0.002692 0.013555 -0.007280 -0.006983 0.002064 -0.000988
# 3 -0.003551 -0.007280 0.022447 0.002857 0.001014 -0.002694
# 4 -0.011792 -0.006983 0.002857 0.031435 0.001425 -0.005125
# 5 -0.006128 0.002064 0.001014 0.001425 0.039643 -0.007745
# 6 0.012045 -0.000988 -0.002694 -0.005125 -0.007745 0.045312
#
#
# Mechanical properties :
#
#
# Convention : Reuss Voigt Hill
#
# Bulk Modulus (GPa) = 21.93262 37.96587 29.94925
# Shear Modulus (GPa) = 21.61943 28.65502 25.13723
#
# Velocity S-wave (km/s) = 3.13078 3.60439 3.37590
# Velocity P-wave (km/s) = 4.79718 5.87666 5.36414
#
# Compressibility (1/GPa) = 0.04559418
#
# Stress axis : x y z
#
# Youngs Moduli (GPa) = 27.29474 73.77189 44.54886
#
# Poissons Ratio (x) = 0.19857 0.15818
# Poissons Ratio (y) = 0.07347 0.32433
# Poissons Ratio (z) = 0.09692 0.53708
#
# Static dielectric constant tensor:
#      x y z
#    x 1.399290 -0.426750 0.025320 
#    y -0.426750 1.484410 -0.020230 
#    z 0.025320 -0.020230 1.831100 
# 
# From -- ./inp_files/283765.got.cif
#   From: 2010.05.17/outbox.cif.g08.bks.cpg/sg2_142_cif.got.tgz:283765.got - 2010.06.03 11:33:40.
