data_PCOD9004432
_publ_section_title
;
Structure prediction by ZEFSAII (Michael W. Deem and Ramdas Pophale) SiO2 
 PCOD9004432
Probable space group: P -1
;
_chemical_formula_sum "Si O2"
_cell_formula_units_Z 9
_cell_length_a 13.750081
_cell_length_b 5.209727
_cell_length_c 8.054625
_cell_angle_alpha 121.373129
_cell_angle_beta 138.169792
_cell_angle_gamma 73.430563
_cell_volume 323.153878
_symmetry_space_group_name_H-M "P -1"
_symmetry_group_IT_number 2
_symmetry_cell_setting 'triclinic'
loop_
_space_group_symop_operation_xyz
x,y,z
-x,-y,-z
loop_
_atom_site_type_symbol
_atom_site_label
_atom_site_fract_x
_atom_site_fract_y
_atom_site_fract_z
Si Si1 0.629731 0.795870 0.879830
Si Si2 0.210601 0.205145 0.589937
Si Si3 0.939724 0.720117 0.126433
Si Si4 0.000000 0.500000 0.500000
Si Si5 0.455362 0.291687 0.708538
O O1 0.511805 0.509021 0.702095
O O2 0.539581 0.013577 0.742870
O O3 0.704013 0.929550 0.198193
O O4 0.766460 0.718833 0.921162
O O5 0.187677 0.536154 0.730336
O O6 0.281786 0.178672 0.493761
O O7 0.032037 0.064132 0.320551
O O8 0.988628 0.619381 0.332300
O O9 0.000000 0.500000 0.000000
O O10 0.500000 0.500000 0.000000
#
# Coordination Sequence:
#
# PCOD9004432 Si02
#       5
#     2   2   2   1   2
#     4  10  22  40  66  99 136 177 229 283 341 406
#     4  10  22  37  67  96 131 176 229 276 342 405
#     4  11  26  43  66 100 137 180 229 281 339 410
#     4  10  22  40  72  90 132 170 232 274 346 386
#     4  10  21  37  67 101 134 175 231 281 343 407
#
# _framework density 27.850508000000001
#
# number of rings (size 3 to 8) (size 9 to 14) (size 15 to 20)
#    0.000    1.778    0.000    5.333   21.778    0.889 
#    0.000    2.222    0.000    0.000    0.000    0.000 
#    0.000    0.000    0.000    0.000    0.000    0.000 
#
# Total GULP energy -50254.391467 kJ/mol
# GULP energy per Si atom -5583.821274 kJ/mol
# Density = 2.778712 g / cm^3
# Si number density = 27.850508 Si / 1000 Ang^3
#
#
#
# Elastic Constant Matrix: (Units=GPa)
#
#
# Indices 1 2 3 4 5 6 
#
# 1 289.6139 94.8622 66.9987 -5.5543 44.8551 6.0454
# 2 94.8622 157.4670 29.9124 -22.5219 17.2799 26.4949
# 3 66.9987 29.9124 69.2209 4.6423 15.6051 7.6336
# 4 -5.5543 -22.5219 4.6423 41.1506 -8.6463 -7.7235
# 5 44.8551 17.2799 15.6051 -8.6463 52.7415 0.8067
# 6 6.0454 26.4949 7.6336 -7.7235 0.8067 56.9402
#
#
#
# Elastic Compliance Matrix: (Units=1/GPa)
#
#
# Indices 1 2 3 4 5 6 
#
# 1 0.005580 -0.002618 -0.003682 -0.000678 -0.002926 0.001069
# 2 -0.002618 0.009358 -0.001531 0.004407 0.000386 -0.003279
# 3 -0.003682 -0.001531 0.019888 -0.004606 -0.002973 -0.002146
# 4 -0.000678 0.004407 -0.004606 0.028686 0.005161 0.002457
# 5 -0.002926 0.000386 -0.002973 0.005161 0.023034 0.000903
# 6 0.001069 -0.003279 -0.002146 0.002457 0.000903 0.019583
#
#
# Mechanical properties :
#
#
# Convention : Reuss Voigt Hill
#
# Bulk Modulus (GPa) = 52.18209 99.98314 76.08261
# Shear Modulus (GPa) = 39.00751 51.80170 45.40461
#
# Velocity S-wave (km/s) = 3.74652 4.31744 4.04207
# Velocity P-wave (km/s) = 6.12311 7.79946 7.01156
#
# Compressibility (1/GPa) = 0.01916366
#
# Stress axis : x y z
#
# Youngs Moduli (GPa) = 179.20889 106.85974 50.28115
#
# Poissons Ratio (x) = 0.27974 0.18516
# Poissons Ratio (y) = 0.46914 0.07698
# Poissons Ratio (z) = 0.65992 0.16361
#
# Static dielectric constant tensor:
#      x y z
#    x 2.176120 0.451880 0.334170 
#    y 0.451880 1.268220 -0.286900 
#    z 0.334170 -0.286900 2.175490 
# 
# From -- ./inp_files/15463.got.cif
#   From: 2010.05.17/outbox.cif.g08.bks.cpg/sg2_8_cif.got.tgz:15463.got - 2010.06.03 11:33:40.
