data_PCOD9004237
_publ_section_title
;
Structure prediction by ZEFSAII (Michael W. Deem and Ramdas Pophale) SiO2 
 PCOD9004237
Probable space group: P -1
;
_chemical_formula_sum "Si O2"
_cell_formula_units_Z 14
_cell_length_a 9.396309
_cell_length_b 12.096862
_cell_length_c 13.438028
_cell_angle_alpha 147.421712
_cell_angle_beta 47.332328
_cell_angle_gamma 122.664232
_cell_volume 602.844970
_symmetry_space_group_name_H-M "P -1"
_symmetry_group_IT_number 2
_symmetry_cell_setting 'triclinic'
loop_
_space_group_symop_operation_xyz
x,y,z
-x,-y,-z
loop_
_atom_site_type_symbol
_atom_site_label
_atom_site_fract_x
_atom_site_fract_y
_atom_site_fract_z
Si Si1 0.095023 0.279979 0.999656
Si Si2 0.281714 0.190046 0.319466
Si Si3 0.226437 0.458721 0.886936
Si Si4 0.221434 0.043812 0.453587
Si Si5 0.326862 0.737824 0.887715
Si Si6 0.696970 0.108566 0.498183
Si Si7 0.912803 0.463870 0.621954
O O1 0.129521 0.330498 0.136344
O O2 0.865801 0.334839 0.128064
O O3 0.225142 0.420737 0.976105
O O4 0.150526 0.053110 0.755615
O O5 0.306412 0.095580 0.346190
O O6 0.465389 0.314670 0.299861
O O7 0.078945 0.320625 0.494436
O O8 0.292264 0.984773 0.091630
O O9 0.268535 0.244969 0.647176
O O10 0.329221 0.640170 0.923333
O O11 0.000000 0.500000 0.000000
O O12 0.276977 0.872890 0.380868
O O13 0.000000 0.000000 0.500000
O O14 0.726285 0.329870 0.605098
O O15 0.500000 0.000000 0.500000
O O16 0.000000 0.500000 0.500000
#
# Coordination Sequence:
#
# PCOD9004237 Si02
#       7
#     2   2   2   2   2   2   2
#     4  10  22  44  69  93 135 180 225 281 343 405
#     4  11  22  40  64 104 134 175 228 280 341 405
#     4   9  18  32  60  97 125 163 209 278 334 389
#     4  11  20  38  70  93 127 169 227 280 332 396
#     4  10  21  37  65 103 138 165 219 290 345 399
#     4  11  26  47  68 103 139 181 232 281 346 415
#     4  12  27  45  69  95 140 188 229 277 349 415
#
# _framework density 23.223215
#
# number of rings (size 3 to 8) (size 9 to 14) (size 15 to 20)
#    0.000    1.429    2.857    3.429    2.000    6.857 
#    5.143    0.000    0.000    0.000    0.000    0.000 
#    0.000    0.000    0.000    0.000    0.000    0.000 
#
# Total GULP energy -78085.602439 kJ/mol
# GULP energy per Si atom -5577.543031 kJ/mol
# Density = 2.317036 g / cm^3
# Si number density = 23.223215 Si / 1000 Ang^3
#
#
#
# Elastic Constant Matrix: (Units=GPa)
#
#
# Indices 1 2 3 4 5 6 
#
# 1 68.2096 27.6094 12.1500 -12.6209 16.3451 11.8741
# 2 27.6094 134.9437 12.9337 -33.8808 13.4923 12.4433
# 3 12.1500 12.9337 48.4268 -5.9084 15.6801 4.0101
# 4 -12.6209 -33.8808 -5.9084 47.6099 -3.9068 -1.2697
# 5 16.3451 13.4923 15.6801 -3.9068 33.9558 -10.3326
# 6 11.8741 12.4433 4.0101 -1.2697 -10.3326 36.9135
#
#
#
# Elastic Compliance Matrix: (Units=1/GPa)
#
#
# Indices 1 2 3 4 5 6 
#
# 1 0.020171 -0.001311 0.000254 0.003235 -0.011749 -0.009251
# 2 -0.001311 0.010001 -0.000043 0.006356 -0.003739 -0.003773
# 3 0.000254 -0.000043 0.025879 0.001931 -0.013870 -0.006695
# 4 0.003235 0.006356 0.001931 0.026293 -0.002959 -0.003317
# 5 -0.011749 -0.003739 -0.013870 -0.002959 0.048771 0.020096
# 6 -0.009251 -0.003773 -0.006695 -0.003317 0.020096 0.037576
#
#
# Mechanical properties :
#
#
# Convention : Reuss Voigt Hill
#
# Bulk Modulus (GPa) = 18.57040 39.66290 29.11665
# Shear Modulus (GPa) = 26.47735 36.95499 31.71617
#
# Velocity S-wave (km/s) = 3.38024 3.99343 3.69956
# Velocity P-wave (km/s) = 4.82167 6.19511 5.55103
#
# Compressibility (1/GPa) = 0.05384913
#
# Stress axis : x y z
#
# Youngs Moduli (GPa) = 49.57733 99.99414 38.64198
#
# Poissons Ratio (x) = 0.13113 -0.00983
# Poissons Ratio (y) = 0.06501 0.00167
# Poissons Ratio (z) = -0.01261 0.00433
#
# Static dielectric constant tensor:
#      x y z
#    x 1.930720 -0.043780 -0.046820 
#    y -0.043780 1.900930 0.034510 
#    z -0.046820 0.034510 1.971570 
# 
# From -- ./inp_files/222923.got.cif
#   From: 2010.05.17/outbox.cif.g08.bks.cpg/sg2_112_cif.got.tgz:222923.got - 2010.06.03 11:33:40.
