data_PCOD9004281
_publ_section_title
;
Structure prediction by ZEFSAII (Michael W. Deem and Ramdas Pophale) SiO2 
 PCOD9004281
Probable space group: P -1
;
_chemical_formula_sum "Si O2"
_cell_formula_units_Z 12
_cell_length_a 7.772417
_cell_length_b 8.896998
_cell_length_c 9.925121
_cell_angle_alpha 73.108392
_cell_angle_beta 71.456557
_cell_angle_gamma 51.119325
_cell_volume 502.681681
_symmetry_space_group_name_H-M "P -1"
_symmetry_group_IT_number 2
_symmetry_cell_setting 'triclinic'
loop_
_space_group_symop_operation_xyz
x,y,z
-x,-y,-z
loop_
_atom_site_type_symbol
_atom_site_label
_atom_site_fract_x
_atom_site_fract_y
_atom_site_fract_z
Si Si1 0.564591 0.722180 0.858325
Si Si2 0.523936 0.573008 0.159231
Si Si3 0.305889 0.314347 0.544525
Si Si4 0.820153 0.290267 0.577071
Si Si5 0.268703 0.975318 0.619854
Si Si6 0.939714 0.392206 0.255614
O O1 0.576679 0.534519 0.852464
O O2 0.802373 0.691670 0.804512
O O3 0.389050 0.889195 0.755100
O O4 0.481792 0.739901 0.027188
O O5 0.414197 0.642260 0.316378
O O6 0.793040 0.423472 0.153477
O O7 0.194671 0.513083 0.437102
O O8 0.268586 0.160919 0.537427
O O9 0.192138 0.392963 0.697418
O O10 0.574566 0.191616 0.484818
O O11 0.892782 0.278248 0.406566
O O12 0.003999 0.086021 0.653949
#
# Coordination Sequence:
#
# PCOD9004281 Si02
#       6
#     2   2   2   2   2   2
#     4  11  23  39  65  92 125 171 202 250 314 372
#     4  11  23  41  62  93 129 163 208 252 311 370
#     4   9  20  33  64  93 118 160 206 255 307 354
#     4  10  21  37  65  93 122 159 207 260 306 357
#     4  11  19  36  63 100 121 157 214 251 306 376
#     4  10  21  42  64  90 124 168 204 255 311 362
#
# _framework density 23.871964999999999
#
# number of rings (size 3 to 8) (size 9 to 14) (size 15 to 20)
#    1.000    0.667    1.667    4.500    0.000    0.667 
#    0.000    5.833    0.000    0.000    0.000    0.000 
#    0.000    0.000    0.000    0.000    0.000    0.000 
#
# Total GULP energy -66826.526786 kJ/mol
# GULP energy per Si atom -5568.877232 kJ/mol
# Density = 2.381763 g / cm^3
# Si number density = 23.871965 Si / 1000 Ang^3
#
#
#
# Elastic Constant Matrix: (Units=GPa)
#
#
# Indices 1 2 3 4 5 6 
#
# 1 59.7583 21.4865 1.2458 2.7778 -11.8275 12.4329
# 2 21.4865 113.6463 16.7316 -18.6967 -11.7345 -10.8149
# 3 1.2458 16.7316 110.8123 -16.9845 -13.7786 20.4429
# 4 2.7778 -18.6967 -16.9845 20.2673 -4.6433 10.2288
# 5 -11.8275 -11.7345 -13.7786 -4.6433 19.9405 0.2422
# 6 12.4329 -10.8149 20.4429 10.2288 0.2422 10.8401
#
#
#
# Elastic Compliance Matrix: (Units=1/GPa)
#
#
# Indices 1 2 3 4 5 6 
#
# 1 0.013007 -0.004087 -0.009264 -0.027537 -0.007803 0.024633
# 2 -0.004087 0.012911 0.000847 0.013886 0.008960 0.002668
# 3 -0.009264 0.000847 -0.002506 -0.021266 -0.012124 0.036534
# 4 -0.027537 0.013886 -0.021266 -0.001749 -0.024328 0.087734
# 5 -0.007803 0.008960 -0.012124 -0.024328 0.035987 0.062904
# 6 0.024633 0.002668 0.036534 0.087734 0.062904 -0.086431
#
#
# Mechanical properties :
#
#
# Convention : Reuss Voigt Hill
#
# Bulk Modulus (GPa) = -626.09126 40.34942 -292.87092
# Shear Modulus (GPa) = -1161.89998 26.52645 -567.68676
#
# Velocity S-wave (km/s) = -22.08570 3.33708 -15.43765
# Velocity P-wave (km/s) = 30.21938 5.63802 20.99314
#
# Compressibility (1/GPa) = -0.00159721
#
# Stress axis : x y z
#
# Youngs Moduli (GPa) = 76.87926 77.45440 -398.99906
#
# Poissons Ratio (x) = 0.31656 -3.69648
# Poissons Ratio (y) = 0.31421 0.33789
# Poissons Ratio (z) = 0.71224 -0.06559
#
# Static dielectric constant tensor:
#      x y z
#    x 2.137970 -0.035720 0.003380 
#    y -0.035720 1.926270 0.019880 
#    z 0.003380 0.019880 1.923000 
# 
# From -- ./inp_files/389343.got.cif
#   From: 2010.05.17/outbox.cif.g08.bks.cpg/sg2_195_cif.got.tgz:389343.got - 2010.06.03 11:33:40.
