data_PCOD9004584
_publ_section_title
;
Structure prediction by ZEFSAII (Michael W. Deem and Ramdas Pophale) SiO2 
 PCOD9004584
Probable space group: P -1
;
_chemical_formula_sum "Si O2"
_cell_formula_units_Z 14
_cell_length_a 15.142269
_cell_length_b 8.417087
_cell_length_c 13.863960
_cell_angle_alpha 134.751303
_cell_angle_beta 140.285606
_cell_angle_gamma 35.238090
_cell_volume 637.537954
_symmetry_space_group_name_H-M "P -1"
_symmetry_group_IT_number 2
_symmetry_cell_setting 'triclinic'
loop_
_space_group_symop_operation_xyz
x,y,z
-x,-y,-z
loop_
_atom_site_type_symbol
_atom_site_label
_atom_site_fract_x
_atom_site_fract_y
_atom_site_fract_z
Si Si1 0.020805 0.275474 0.057705
Si Si2 0.447721 0.176607 0.276735
Si Si3 0.258959 0.834781 0.219726
Si Si4 0.902019 0.176082 0.396744
Si Si5 0.804943 0.883305 0.065991
Si Si6 0.255594 0.807606 0.430448
Si Si7 0.433577 0.238960 0.626091
O O1 0.955476 0.586473 0.113985
O O2 0.142831 0.127200 0.188692
O O3 0.125672 0.104274 0.975468
O O4 0.853675 0.280598 0.932778
O O5 0.311464 0.490370 0.343138
O O6 0.608150 0.181486 0.388264
O O7 0.516409 0.923836 0.300662
O O8 0.352366 0.131275 0.094285
O O9 0.278370 0.855787 0.358696
O O10 0.446071 0.663386 0.253673
O O11 0.769297 0.507642 0.444135
O O12 0.781254 0.109371 0.214796
O O13 0.000000 0.000000 0.500000
O O14 0.062005 0.050439 0.404145
O O15 0.500000 0.000000 0.500000
#
# Coordination Sequence:
#
# PCOD9004584 Si02
#       7
#     2   2   2   2   2   2   2
#     4  10  21  37  74 104 136 177 229 279 342 410
#     4  11  23  42  74 102 140 181 225 274 353 409
#     4  11  21  40  70 107 134 181 230 277 335 414
#     4  12  29  45  68 102 139 181 235 291 341 406
#     4  11  21  43  68 102 138 184 226 280 348 405
#     4  11  23  45  75 104 139 176 235 280 337 416
#     4  12  26  44  70  96 139 183 228 284 349 411
#
# _framework density 21.959478000000001
#
# number of rings (size 3 to 8) (size 9 to 14) (size 15 to 20)
#    0.000    0.857    5.714    1.714    4.000    1.143 
#    0.000    2.857    0.000    0.000    0.000    0.000 
#    0.000    0.000    0.000    0.000    0.000    0.000 
#
# Total GULP energy -78216.381998 kJ/mol
# GULP energy per Si atom -5586.884428 kJ/mol
# Density = 2.190950 g / cm^3
# Si number density = 21.959478 Si / 1000 Ang^3
#
#
#
# Elastic Constant Matrix: (Units=GPa)
#
#
# Indices 1 2 3 4 5 6 
#
# 1 69.1136 53.9024 24.4547 -10.1101 3.3868 14.0975
# 2 53.9024 149.8031 37.9452 -14.1465 -9.5594 -4.2399
# 3 24.4547 37.9452 110.8758 -6.0521 19.0365 -14.3422
# 4 -10.1101 -14.1465 -6.0521 28.6326 -5.1064 -3.1486
# 5 3.3868 -9.5594 19.0365 -5.1064 34.8788 -17.9064
# 6 14.0975 -4.2399 -14.3422 -3.1486 -17.9064 39.0431
#
#
#
# Elastic Compliance Matrix: (Units=1/GPa)
#
#
# Indices 1 2 3 4 5 6 
#
# 1 0.028561 -0.011150 -0.002523 -0.000611 -0.014334 -0.019074
# 2 -0.011150 0.012844 -0.002362 0.005212 0.012044 0.010497
# 3 -0.002523 -0.002362 0.011628 -0.000343 -0.005604 0.002328
# 4 -0.000611 0.005212 -0.000343 0.040524 0.012589 0.009702
# 5 -0.014334 0.012044 -0.005604 0.012589 0.053703 0.030070
# 6 -0.019074 0.010497 0.002328 0.009702 0.030070 0.049069
#
#
# Mechanical properties :
#
#
# Convention : Reuss Voigt Hill
#
# Bulk Modulus (GPa) = 47.70225 62.48856 55.09541
# Shear Modulus (GPa) = 21.24167 34.74359 27.99263
#
# Velocity S-wave (km/s) = 3.11354 3.98196 3.57422
# Velocity P-wave (km/s) = 5.89029 7.04695 6.49442
#
# Compressibility (1/GPa) = 0.02096337
#
# Stress axis : x y z
#
# Youngs Moduli (GPa) = 35.01218 77.86011 85.99591
#
# Poissons Ratio (x) = 0.86815 0.21698
# Poissons Ratio (y) = 0.39039 0.20310
# Poissons Ratio (z) = 0.08834 0.18388
#
# Static dielectric constant tensor:
#      x y z
#    x 1.823220 -0.006170 0.044140 
#    y -0.006170 1.800540 -0.016280 
#    z 0.044140 -0.016280 1.870910 
# 
# From -- ./inp_files/303904.got.cif
#   From: 2010.05.17/outbox.cif.g08.bks.cpg/sg2_152_cif.got.tgz:303904.got - 2010.06.03 11:33:40.
