data_PCOD9004851
_publ_section_title
;
Structure prediction by ZEFSAII (Michael W. Deem and Ramdas Pophale) SiO2 
 PCOD9004851
Probable space group: P -1
;
_chemical_formula_sum "Si O2"
_cell_formula_units_Z 14
_cell_length_a 10.987184
_cell_length_b 14.338731
_cell_length_c 14.331020
_cell_angle_alpha 20.640160
_cell_angle_beta 61.629487
_cell_angle_gamma 70.087694
_cell_volume 659.649708
_symmetry_space_group_name_H-M "P -1"
_symmetry_group_IT_number 2
_symmetry_cell_setting 'triclinic'
loop_
_space_group_symop_operation_xyz
x,y,z
-x,-y,-z
loop_
_atom_site_type_symbol
_atom_site_label
_atom_site_fract_x
_atom_site_fract_y
_atom_site_fract_z
Si Si1 0.093045 0.285304 0.750435
Si Si2 0.966028 0.147391 0.238868
Si Si3 0.446070 0.073851 0.103984
Si Si4 0.851548 0.210590 0.423776
Si Si5 0.627019 0.795242 0.191258
Si Si6 0.297020 0.470022 0.340702
Si Si7 0.178480 0.823024 0.929998
O O1 0.219797 0.236875 0.811380
O O2 0.182464 0.493518 0.441853
O O3 0.977324 0.343196 0.807222
O O4 0.000000 0.000000 0.000000
O O5 0.879532 0.127540 0.386165
O O6 0.860995 0.139989 0.196978
O O7 0.047598 0.916560 0.429053
O O8 0.090604 0.453990 0.904745
O O9 0.317768 0.916244 0.368018
O O10 0.572157 0.942160 0.158164
O O11 0.368578 0.053786 0.050230
O O12 0.539633 0.384151 0.815047
O O13 0.500000 0.500000 0.500000
O O14 0.251337 0.140484 0.644647
O O15 0.277909 0.641167 0.096265
#
# Coordination Sequence:
#
# PCOD9004851 Si02
#       7
#     2   2   2   2   2   2   2
#     4  10  21  38  59  86 122 164 204 250 305 361
#     4  10  22  43  63  96 119 153 217 257 311 366
#     4  11  24  38  62  88 128 164 206 249 324 362
#     4  10  23  40  68  90 123 160 199 268 313 365
#     4  11  23  39  59  91 128 162 210 252 301 385
#     4  11  23  39  57  90 124 166 201 255 299 384
#     4  11  23  38  64  85 125 162 209 252 310 356
#
# _framework density 21.223386000000001
#
# number of rings (size 3 to 8) (size 9 to 14) (size 15 to 20)
#    0.000    1.429    1.429    3.857    4.000    2.286 
#    0.000    1.429    0.000    0.000    0.000    0.000 
#    0.000    0.000    0.000    0.000    0.000    0.000 
#
# Total GULP energy -78236.679524 kJ/mol
# GULP energy per Si atom -5588.334252 kJ/mol
# Density = 2.117508 g / cm^3
# Si number density = 21.223386 Si / 1000 Ang^3
#
#
#
# Elastic Constant Matrix: (Units=GPa)
#
#
# Indices 1 2 3 4 5 6 
#
# 1 111.4026 17.2660 25.1933 12.0880 3.8798 17.6104
# 2 17.2660 43.1584 32.0695 16.7648 -12.4142 11.2542
# 3 25.1933 32.0695 105.0579 14.9544 -12.4880 -6.3383
# 4 12.0880 16.7648 14.9544 26.8176 0.2186 4.0364
# 5 3.8798 -12.4142 -12.4880 0.2186 47.4138 6.2554
# 6 17.6104 11.2542 -6.3383 4.0364 6.2554 25.8412
#
#
#
# Elastic Compliance Matrix: (Units=1/GPa)
#
#
# Indices 1 2 3 4 5 6 
#
# 1 0.011143 0.000918 -0.003126 -0.002607 -0.000393 -0.008258
# 2 0.000918 0.051387 -0.012794 -0.021593 0.013546 -0.026050
# 3 -0.003126 -0.012794 0.014881 -0.000635 -0.000705 0.011622
# 4 -0.002607 -0.021593 -0.000635 0.051691 -0.006441 0.004510
# 5 -0.000393 0.013546 -0.000705 -0.006441 0.025976 -0.011086
# 6 -0.008258 -0.026050 0.011622 0.004510 -0.011086 0.060501
#
#
# Mechanical properties :
#
#
# Convention : Reuss Voigt Hill
#
# Bulk Modulus (GPa) = 21.09381 45.40849 33.25115
# Shear Modulus (GPa) = 19.12877 32.35385 25.74131
#
# Velocity S-wave (km/s) = 3.00543 3.90865 3.48641
# Velocity P-wave (km/s) = 4.69085 6.46622 5.64872
#
# Compressibility (1/GPa) = 0.04740727
#
# Stress axis : x y z
#
# Youngs Moduli (GPa) = 89.74085 19.46012 67.19761
#
# Poissons Ratio (x) = -0.01787 0.21008
# Poissons Ratio (y) = -0.08240 0.85973
# Poissons Ratio (z) = 0.28056 0.24898
#
# Static dielectric constant tensor:
#      x y z
#    x 1.781370 0.008890 0.058780 
#    y 0.008890 1.781480 -0.011980 
#    z 0.058780 -0.011980 1.773860 
# 
# From -- ./inp_files/34533.got.cif
#   From: 2010.05.17/outbox.cif.g08.bks.cpg/sg2_18_cif.got.tgz:34533.got - 2010.06.03 11:33:40.
