data_PCOD9004507
_publ_section_title
;
Structure prediction by ZEFSAII (Michael W. Deem and Ramdas Pophale) SiO2 
 PCOD9004507
Probable space group: P -1
;
_chemical_formula_sum "Si O2"
_cell_formula_units_Z 16
_cell_length_a 9.813010
_cell_length_b 19.221307
_cell_length_c 9.312492
_cell_angle_alpha 147.428187
_cell_angle_beta 77.889304
_cell_angle_gamma 117.317371
_cell_volume 780.573144
_symmetry_space_group_name_H-M "P -1"
_symmetry_group_IT_number 2
_symmetry_cell_setting 'triclinic'
loop_
_space_group_symop_operation_xyz
x,y,z
-x,-y,-z
loop_
_atom_site_type_symbol
_atom_site_label
_atom_site_fract_x
_atom_site_fract_y
_atom_site_fract_z
Si Si1 0.744632 0.570774 0.934488
Si Si2 0.971014 0.332079 0.746540
Si Si3 0.020893 0.148455 0.170064
Si Si4 0.664662 0.564466 0.478982
Si Si5 0.513037 0.380410 0.914908
Si Si6 0.379878 0.835563 0.545930
Si Si7 0.283687 0.857333 0.912003
Si Si8 0.807568 0.428265 0.400857
O O1 0.602185 0.446405 0.856804
O O2 0.748036 0.498058 0.658680
O O3 0.680100 0.685369 0.142084
O O4 0.919468 0.642786 0.096030
O O5 0.778601 0.199260 0.570286
O O6 0.031997 0.268328 0.495058
O O7 0.000000 0.500000 0.000000
O O8 0.195567 0.253738 0.230721
O O9 0.862840 0.112894 0.043693
O O10 0.000000 0.000000 0.000000
O O11 0.500000 0.500000 0.500000
O O12 0.754479 0.475936 0.352734
O O13 0.600403 0.514197 0.244633
O O14 0.553230 0.252914 0.708398
O O15 0.297593 0.779238 0.625833
O O16 0.541048 0.994525 0.829916
O O17 0.257637 0.745675 0.853109
O O18 0.000000 0.500000 0.500000
#
# Coordination Sequence:
#
# PCOD9004507 Si02
#       8
#     2   2   2   2   2   2   2   2
#     4  11  22  37  67  96 125 174 234 277 325 401
#     4  11  20  39  64  99 127 169 233 276 327 398
#     4  11  24  41  68 101 139 181 224 289 347 408
#     4  12  25  43  66 103 140 175 229 288 348 405
#     4  11  22  39  65  98 130 175 232 277 328 409
#     4  10  21  37  68  93 132 164 226 291 323 396
#     4  10  22  41  63 101 132 178 225 279 347 411
#     4  12  24  42  70  95 135 182 227 278 346 411
#
# _framework density 20.497758999999999
#
# number of rings (size 3 to 8) (size 9 to 14) (size 15 to 20)
#    0.000    1.000    6.250    0.750    3.500    3.000 
#    0.000    0.625    2.750    2.250    0.000    0.000 
#    0.000    0.000    0.000    0.000    0.000    0.000 
#
# Total GULP energy -89091.963201 kJ/mol
# GULP energy per Si atom -5568.247700 kJ/mol
# Density = 2.045111 g / cm^3
# Si number density = 20.497759 Si / 1000 Ang^3
#
#
#
# Elastic Constant Matrix: (Units=GPa)
#
#
# Indices 1 2 3 4 5 6 
#
# 1 152.0519 36.5940 35.5345 12.2108 14.7982 1.4181
# 2 36.5940 69.1273 17.9376 16.1567 1.5525 0.0385
# 3 35.5345 17.9376 62.0866 2.8574 12.8125 8.3734
# 4 12.2108 16.1567 2.8574 30.0259 4.2279 2.6681
# 5 14.7982 1.5525 12.8125 4.2279 36.1157 -9.8923
# 6 1.4181 0.0385 8.3734 2.6681 -9.8923 32.6721
#
#
#
# Elastic Compliance Matrix: (Units=1/GPa)
#
#
# Indices 1 2 3 4 5 6 
#
# 1 0.008447 -0.003290 -0.003427 -0.001060 -0.001979 0.000003
# 2 -0.003290 0.019572 -0.004652 -0.009644 0.004210 0.003374
# 3 -0.003427 -0.004652 0.022280 0.003826 -0.009110 -0.008627
# 4 -0.001060 -0.009644 0.003826 0.040096 -0.006926 -0.006295
# 5 -0.001979 0.004210 -0.009110 -0.006926 0.036179 0.013935
# 6 0.000003 0.003374 -0.008627 -0.006295 0.013935 0.037547
#
#
# Mechanical properties :
#
#
# Convention : Reuss Voigt Hill
#
# Bulk Modulus (GPa) = 36.28349 51.48868 43.88608
# Shear Modulus (GPa) = 25.50426 32.64270 29.07348
#
# Velocity S-wave (km/s) = 3.53121 3.99494 3.77022
# Velocity P-wave (km/s) = 5.86222 6.81565 6.35684
#
# Compressibility (1/GPa) = 0.02756074
#
# Stress axis : x y z
#
# Youngs Moduli (GPa) = 118.38229 51.09249 44.88431
#
# Poissons Ratio (x) = 0.16810 0.15383
# Poissons Ratio (y) = 0.38949 0.20879
# Poissons Ratio (z) = 0.40574 0.23767
#
# Static dielectric constant tensor:
#      x y z
#    x 1.837700 -0.034730 -0.048820 
#    y -0.034730 1.807160 -0.039390 
#    z -0.048820 -0.039390 1.662600 
# 
# From -- ./inp_files/218868.got.cif
#   From: 2010.05.17/outbox.cif.g08.bks.cpg/sg2_110_cif.got.tgz:218868.got - 2010.06.03 11:33:40.
