data_PCOD9004634
_publ_section_title
;
Structure prediction by ZEFSAII (Michael W. Deem and Ramdas Pophale) SiO2 
 PCOD9004634
Probable space group: P -1
;
_chemical_formula_sum "Si O2"
_cell_formula_units_Z 16
_cell_length_a 19.532741
_cell_length_b 8.136062
_cell_length_c 7.935688
_cell_angle_alpha 78.747190
_cell_angle_beta 85.795499
_cell_angle_gamma 142.329577
_cell_volume 699.177671
_symmetry_space_group_name_H-M "P -1"
_symmetry_group_IT_number 2
_symmetry_cell_setting 'triclinic'
loop_
_space_group_symop_operation_xyz
x,y,z
-x,-y,-z
loop_
_atom_site_type_symbol
_atom_site_label
_atom_site_fract_x
_atom_site_fract_y
_atom_site_fract_z
Si Si1 0.559279 0.545775 0.712922
Si Si2 0.949913 0.712779 0.086269
Si Si3 0.160259 0.000467 0.803373
Si Si4 0.315031 0.133076 0.010990
Si Si5 0.963306 0.232295 0.577507
Si Si6 0.731568 0.616555 0.592229
Si Si7 0.254612 0.867427 0.619774
Si Si8 0.188884 0.587783 0.321346
O O1 0.419055 0.289340 0.829019
O O2 0.603217 0.451851 0.660726
O O3 0.613516 0.791229 0.521587
O O4 0.621542 0.692513 0.858319
O O5 0.004408 0.760175 0.243864
O O6 0.804804 0.393967 0.194810
O O7 0.021246 0.750391 0.924999
O O8 0.000000 0.000000 0.000000
O O9 0.235959 0.115060 0.936394
O O10 0.218006 0.267594 0.630982
O O11 0.183413 0.885333 0.703963
O O12 0.232247 0.807246 0.133147
O O13 0.000000 0.500000 0.500000
O O14 0.044052 0.287037 0.420419
O O15 0.825225 0.916490 0.624166
O O16 0.744284 0.454767 0.689763
O O17 0.219599 0.730492 0.468690
#
# Coordination Sequence:
#
# PCOD9004634 Si02
#       8
#     2   2   2   2   2   2   2   2
#     4   9  20  40  61  81 108 149 194 231 282 339
#     4  11  22  36  57  87 119 144 184 239 285 333
#     4  11  21  35  58  85 113 147 191 231 277 337
#     4  10  21  38  63  84 106 145 197 241 270 334
#     4  11  21  38  59  82 118 156 188 222 280 350
#     4  11  22  36  58  84 119 152 181 230 291 341
#     4   9  20  36  55  79 113 150 183 226 278 336
#     4  10  21  38  56  82 116 151 187 230 285 334
#
# _framework density 22.884025000000001
#
# number of rings (size 3 to 8) (size 9 to 14) (size 15 to 20)
#    0.000    1.750    0.000    7.500    0.000    4.500 
#    0.000    1.250    0.000   14.250    0.000    0.000 
#    0.000    0.000    0.000    0.000    0.000    0.000 
#
# Total GULP energy -89306.723672 kJ/mol
# GULP energy per Si atom -5581.670229 kJ/mol
# Density = 2.283194 g / cm^3
# Si number density = 22.884025 Si / 1000 Ang^3
#
#
#
# Elastic Constant Matrix: (Units=GPa)
#
#
# Indices 1 2 3 4 5 6 
#
# 1 71.1957 5.0866 25.6328 -17.9503 -14.1776 -0.0894
# 2 5.0866 40.1977 16.3655 6.0071 -3.1534 -1.0359
# 3 25.6328 16.3655 135.9632 -5.4085 -16.3375 5.8060
# 4 -17.9503 6.0071 -5.4085 37.2071 17.1506 1.2187
# 5 -14.1776 -3.1534 -16.3375 17.1506 55.3935 -7.4421
# 6 -0.0894 -1.0359 5.8060 1.2187 -7.4421 26.7776
#
#
#
# Elastic Compliance Matrix: (Units=1/GPa)
#
#
# Indices 1 2 3 4 5 6 
#
# 1 0.017328 -0.002198 -0.002569 0.007763 0.001218 0.000515
# 2 -0.002198 0.027771 -0.003007 -0.007360 0.002790 0.002829
# 3 -0.002569 -0.003007 0.008441 -0.000173 0.001509 -0.001528
# 4 0.007763 -0.007360 -0.000173 0.036793 -0.010522 -0.004820
# 5 0.001218 0.002790 0.001509 -0.010522 0.023125 0.006691
# 6 0.000515 0.002829 -0.001528 -0.004820 0.006691 0.039866
#
#
# Mechanical properties :
#
#
# Convention : Reuss Voigt Hill
#
# Bulk Modulus (GPa) = 26.32097 37.94736 32.13416
# Shear Modulus (GPa) = 27.54277 37.22710 32.38493
#
# Velocity S-wave (km/s) = 3.47303 4.03770 3.76596
# Velocity P-wave (km/s) = 5.25447 6.19321 5.74305
#
# Compressibility (1/GPa) = 0.03799252
#
# Stress axis : x y z
#
# Youngs Moduli (GPa) = 57.70933 36.00881 118.47106
#
# Poissons Ratio (x) = 0.07915 0.30437
# Poissons Ratio (y) = 0.12685 0.35620
# Poissons Ratio (z) = 0.14826 0.10827
#
# Static dielectric constant tensor:
#      x y z
#    x 1.896070 0.057440 -0.011720 
#    y 0.057440 2.034180 -0.009520 
#    z -0.011720 -0.009520 1.890050 
# 
# From -- ./inp_files/327332.got.cif
#   From: 2010.05.17/outbox.cif.g08.bks.cpg/sg2_164_cif.got.tgz:327332.got - 2010.06.03 11:33:40.
