data_PCOD9004442
_publ_section_title
;
Structure prediction by ZEFSAII (Michael W. Deem and Ramdas Pophale) SiO2 
 PCOD9004442
Probable space group: P -1
;
_chemical_formula_sum "Si O2"
_cell_formula_units_Z 16
_cell_length_a 15.447930
_cell_length_b 7.783606
_cell_length_c 10.845297
_cell_angle_alpha 111.045577
_cell_angle_beta 64.333273
_cell_angle_gamma 60.198344
_cell_volume 692.268659
_symmetry_space_group_name_H-M "P -1"
_symmetry_group_IT_number 2
_symmetry_cell_setting 'triclinic'
loop_
_space_group_symop_operation_xyz
x,y,z
-x,-y,-z
loop_
_atom_site_type_symbol
_atom_site_label
_atom_site_fract_x
_atom_site_fract_y
_atom_site_fract_z
Si Si1 0.620865 0.981158 0.418515
Si Si2 0.799401 0.618347 0.983418
Si Si3 0.672224 0.683061 0.827349
Si Si4 0.846705 0.126664 0.922322
Si Si5 0.846863 0.857016 0.383183
Si Si6 0.682186 0.257767 0.817333
Si Si7 0.620629 0.441685 0.339257
Si Si8 0.200376 0.665126 0.583262
O O1 0.500000 0.000000 0.500000
O O2 0.768577 0.792779 0.358982
O O3 0.500422 0.312721 0.626187
O O4 0.687859 0.893226 0.215335
O O5 0.742469 0.698758 0.898386
O O6 0.803901 0.404903 0.987503
O O7 0.972912 0.425944 0.817183
O O8 0.693651 0.446413 0.805761
O O9 0.741932 0.558351 0.616199
O O10 0.500000 0.000000 0.000000
O O11 0.775631 0.118585 0.851148
O O12 0.767734 0.165468 0.103206
O O13 0.026792 0.864526 0.763327
O O14 0.775042 0.991832 0.596927
O O15 0.804261 0.112610 0.403421
O O16 0.500000 0.500000 0.000000
O O17 0.500000 0.500000 0.500000
O O18 0.688556 0.488497 0.407154
#
# Coordination Sequence:
#
# PCOD9004442 Si02
#       8
#     2   2   2   2   2   2   2   2
#     4  12  23  39  61  89 123 159 204 248 298 357
#     4  10  21  39  63  90 123 159 199 251 300 359
#     4  10  21  39  65  93 120 153 198 250 307 355
#     4  10  21  39  62  92 120 159 206 244 300 360
#     4  10  21  39  62  92 120 159 206 244 300 360
#     4  10  21  37  67  89 118 158 202 248 293 364
#     4  12  23  39  61  89 123 159 204 248 298 357
#     4  10  21  39  63  90 123 159 199 251 300 359
#
# _framework density 23.112416
#
# number of rings (size 3 to 8) (size 9 to 14) (size 15 to 20)
#    0.000    1.500    2.500    3.000    3.500    3.000 
#    0.000    0.000    0.000    1.500    0.000    0.000 
#    0.000    0.000    0.000    0.000    0.000    0.000 
#
# Total GULP energy -89180.183384 kJ/mol
# GULP energy per Si atom -5573.761461 kJ/mol
# Density = 2.305981 g / cm^3
# Si number density = 23.112416 Si / 1000 Ang^3
#
#
#
# Elastic Constant Matrix: (Units=GPa)
#
#
# Indices 1 2 3 4 5 6 
#
# 1 149.6560 28.9929 94.9342 -13.8904 -23.5913 -39.9057
# 2 28.9929 38.8233 39.3593 5.8470 -3.8657 -17.6615
# 3 94.9342 39.3593 201.2572 -9.8583 -27.0926 -31.0628
# 4 -13.8904 5.8470 -9.8583 36.3868 -5.3276 -1.9035
# 5 -23.5913 -3.8657 -27.0926 -5.3276 45.0984 0.2035
# 6 -39.9057 -17.6615 -31.0628 -1.9035 0.2035 30.9226
#
#
#
# Elastic Compliance Matrix: (Units=1/GPa)
#
#
# Indices 1 2 3 4 5 6 
#
# 1 0.014624 -0.001089 -0.003103 0.006666 0.006410 0.015501
# 2 -0.001089 0.040304 -0.005538 -0.007787 -0.001432 0.015582
# 3 -0.003103 -0.005538 0.008254 0.002468 0.003146 0.001254
# 4 0.006666 -0.007787 0.002468 0.033605 0.008233 0.008649
# 5 0.006410 -0.001432 0.003146 0.008233 0.028217 0.010936
# 6 0.015501 0.015582 0.001254 0.008649 0.010936 0.062963
#
#
# Mechanical properties :
#
#
# Convention : Reuss Voigt Hill
#
# Bulk Modulus (GPa) = 22.87198 79.58991 51.23094
# Shear Modulus (GPa) = 22.52246 37.57824 30.05035
#
# Velocity S-wave (km/s) = 3.12504 4.03661 3.60972
# Velocity P-wave (km/s) = 4.78943 7.49909 6.29186
#
# Compressibility (1/GPa) = 0.04372163
#
# Stress axis : x y z
#
# Youngs Moduli (GPa) = 68.38002 24.81167 121.15837
#
# Poissons Ratio (x) = 0.02701 0.37601
# Poissons Ratio (y) = 0.07445 0.67094
# Poissons Ratio (z) = 0.21221 0.13740
#
# Static dielectric constant tensor:
#      x y z
#    x 2.090910 0.048790 -0.274130 
#    y 0.048790 2.033190 0.061180 
#    z -0.274130 0.061180 2.295920 
# 
# From -- ./inp_files/419846.got.cif
#   From: 2010.05.17/outbox.cif.g08.bks.cpg/sg2_210_cif.got.tgz:419846.got - 2010.06.03 11:33:40.
