data_PCOD9004915
_publ_section_title
;
Structure prediction by ZEFSAII (Michael W. Deem and Ramdas Pophale) SiO2 
 PCOD9004915
Probable space group: P -1
;
_chemical_formula_sum "Si O2"
_cell_formula_units_Z 16
_cell_length_a 5.025169
_cell_length_b 12.512734
_cell_length_c 17.979102
_cell_angle_alpha 146.704284
_cell_angle_beta 92.415012
_cell_angle_gamma 101.477591
_cell_volume 560.676320
_symmetry_space_group_name_H-M "P -1"
_symmetry_group_IT_number 2
_symmetry_cell_setting 'triclinic'
loop_
_space_group_symop_operation_xyz
x,y,z
-x,-y,-z
loop_
_atom_site_type_symbol
_atom_site_label
_atom_site_fract_x
_atom_site_fract_y
_atom_site_fract_z
Si Si1 0.825807 0.614253 0.467357
Si Si2 0.488969 0.414718 0.137991
Si Si3 0.234170 0.500309 0.310822
Si Si4 0.117013 0.334449 0.941475
Si Si5 0.134374 0.804662 0.379823
Si Si6 0.865642 0.926383 0.331622
Si Si7 0.577184 0.016420 0.097177
Si Si8 0.170549 0.123664 0.249572
O O1 0.510566 0.581883 0.415121
O O2 0.950835 0.469648 0.337795
O O3 0.055248 0.851350 0.579590
O O4 0.821565 0.668769 0.585494
O O5 0.277997 0.329566 0.158764
O O6 0.791955 0.624314 0.277263
O O7 0.302385 0.426037 0.071804
O O8 0.596648 0.228105 0.016074
O O9 0.460512 0.162383 0.229070
O O10 0.284097 0.671229 0.344417
O O11 0.290703 0.266754 0.839691
O O12 0.893647 0.085733 0.819843
O O13 0.000000 0.500000 0.000000
O O14 0.232928 0.013076 0.555477
O O15 0.140045 0.879751 0.338651
O O16 0.906725 0.067169 0.155551
O O17 0.500000 0.000000 0.000000
#
# Coordination Sequence:
#
# PCOD9004915 Si02
#       8
#     2   2   2   2   2   2   2   2
#     4  10  21  39  63  93 127 178 213 268 325 397
#     4  11  24  40  67  97 135 172 230 277 336 398
#     4  11  20  38  62  91 127 174 218 269 332 386
#     4  10  22  39  59  98 141 181 218 273 331 400
#     4  10  21  38  59  90 127 178 230 273 314 399
#     4   9  19  38  53  89 127 178 223 262 322 389
#     4  11  25  45  73  99 132 175 226 285 345 401
#     4  10  23  45  68 102 132 177 224 276 336 405
#
# _framework density 28.536961000000002
#
# number of rings (size 3 to 8) (size 9 to 14) (size 15 to 20)
#    0.000    1.750    2.500    1.875    5.250    2.000 
#   20.250    0.000    0.000    4.500    0.000    0.000 
#    0.000    0.000    0.000    0.000    0.000    0.000 
#
# Total GULP energy -89392.815222 kJ/mol
# GULP energy per Si atom -5587.050951 kJ/mol
# Density = 2.847201 g / cm^3
# Si number density = 28.536961 Si / 1000 Ang^3
#
#
#
# Elastic Constant Matrix: (Units=GPa)
#
#
# Indices 1 2 3 4 5 6 
#
# 1 116.1773 1.1660 24.1577 -19.7168 -0.5401 1.8738
# 2 1.1660 132.4032 38.4324 -8.7003 -0.2911 -11.0756
# 3 24.1577 38.4324 120.9131 -36.5573 -23.1192 -3.7464
# 4 -19.7168 -8.7003 -36.5573 67.4700 -1.6051 0.5369
# 5 -0.5401 -0.2911 -23.1192 -1.6051 43.1258 -7.4475
# 6 1.8738 -11.0756 -3.7464 0.5369 -7.4475 49.3819
#
#
#
# Elastic Compliance Matrix: (Units=1/GPa)
#
#
# Indices 1 2 3 4 5 6 
#
# 1 0.009258 0.000458 -0.001580 0.001894 -0.000744 -0.000501
# 2 0.000458 0.008561 -0.003205 -0.000544 -0.001424 0.001451
# 3 -0.001580 -0.003205 0.012968 0.006316 0.007382 0.001370
# 4 0.001894 -0.000544 0.006316 0.018822 0.004231 0.000719
# 5 -0.000744 -0.001424 0.007382 0.004231 0.028053 0.004454
# 6 -0.000501 0.001451 0.001370 0.000719 0.004454 0.021363
#
#
# Mechanical properties :
#
#
# Convention : Reuss Voigt Hill
#
# Bulk Modulus (GPa) = 45.17934 55.22285 50.20110
# Shear Modulus (GPa) = 43.45680 52.37805 47.91743
#
# Velocity S-wave (km/s) = 3.90657 4.28886 4.10217
# Velocity P-wave (km/s) = 6.01786 6.62715 6.32984
#
# Compressibility (1/GPa) = 0.02213401
#
# Stress axis : x y z
#
# Youngs Moduli (GPa) = 108.01838 116.80446 77.11050
#
# Poissons Ratio (x) = -0.05351 0.12186
# Poissons Ratio (y) = -0.04948 0.24710
# Poissons Ratio (z) = 0.17070 0.37430
#
# Static dielectric constant tensor:
#      x y z
#    x 2.444220 0.002170 -0.134500 
#    y 0.002170 2.281800 0.149830 
#    z -0.134500 0.149830 2.395820 
# 
# From -- ./inp_files/589271.got.cif
#   From: 2010.05.17/outbox.cif.g08.bks.cpg/sg2_295_cif.got.tgz:589271.got - 2010.06.03 11:33:40.
