data_PCOD9004423
_publ_section_title
;
Structure prediction by ZEFSAII (Michael W. Deem and Ramdas Pophale) SiO2 
 PCOD9004423
Probable space group: P -1
;
_chemical_formula_sum "Si O2"
_cell_formula_units_Z 16
_cell_length_a 11.764122
_cell_length_b 11.258439
_cell_length_c 14.165932
_cell_angle_alpha 145.912276
_cell_angle_beta 39.711207
_cell_angle_gamma 120.266482
_cell_volume 623.735868
_symmetry_space_group_name_H-M "P -1"
_symmetry_group_IT_number 2
_symmetry_cell_setting 'triclinic'
loop_
_space_group_symop_operation_xyz
x,y,z
-x,-y,-z
loop_
_atom_site_type_symbol
_atom_site_label
_atom_site_fract_x
_atom_site_fract_y
_atom_site_fract_z
Si Si1 0.980315 0.729841 0.936891
Si Si2 0.992707 0.212209 0.262962
Si Si3 0.324018 0.331635 0.469352
Si Si4 0.045607 0.079828 0.421891
Si Si5 0.712739 0.423261 0.742018
Si Si6 0.390331 0.666832 0.876491
Si Si7 0.595900 0.725445 0.257429
Si Si8 0.416480 0.122170 0.945365
O O1 0.013384 0.701462 0.783627
O O2 0.180803 0.576102 0.755376
O O3 0.811751 0.661222 0.040404
O O4 0.926884 0.997580 0.162791
O O5 0.852187 0.392956 0.542089
O O6 0.209715 0.119463 0.100279
O O7 0.177964 0.229408 0.446134
O O8 0.478457 0.355109 0.313007
O O9 0.441230 0.132637 0.335394
O O10 0.847124 0.241935 0.609400
O O11 0.000000 0.000000 0.500000
O O12 0.173240 0.851709 0.134001
O O13 0.537661 0.359786 0.778808
O O14 0.629275 0.694886 0.988312
O O15 0.397296 0.423713 0.750736
O O16 0.488766 0.780349 0.967568
O O17 0.500000 0.000000 0.500000
#
# Coordination Sequence:
#
# PCOD9004423 Si02
#       8
#     2   2   2   2   2   2   2   2
#     4  11  24  39  64  94 136 184 221 273 325 404
#     4  11  22  39  65  99 132 173 232 272 332 392
#     4  11  22  41  65  97 138 176 223 274 339 398
#     4  11  23  42  70 104 135 172 218 286 346 398
#     4  11  22  42  71  99 132 174 226 278 339 402
#     4  10  22  40  68  96 135 178 221 278 341 393
#     4  11  23  43  64  95 136 180 226 271 334 396
#     4  10  21  37  66  99 126 166 220 278 329 395
#
# _framework density 25.651885
#
# number of rings (size 3 to 8) (size 9 to 14) (size 15 to 20)
#    0.000    1.250    1.250    6.375    1.750    2.500 
#    0.000    5.625    2.750    0.000    0.000    0.000 
#    0.000    0.000    0.000    0.000    0.000    0.000 
#
# Total GULP energy -89663.166247 kJ/mol
# GULP energy per Si atom -5603.947890 kJ/mol
# Density = 2.559350 g / cm^3
# Si number density = 25.651885 Si / 1000 Ang^3
#
#
#
# Elastic Constant Matrix: (Units=GPa)
#
#
# Indices 1 2 3 4 5 6 
#
# 1 61.9643 51.7522 35.2426 1.4846 -23.6098 -8.5570
# 2 51.7522 194.1847 81.1930 8.2247 -18.6051 -3.7568
# 3 35.2426 81.1930 151.9644 1.7194 -40.9526 -25.8283
# 4 1.4846 8.2247 1.7194 49.6953 -4.6510 -12.3059
# 5 -23.6098 -18.6051 -40.9526 -4.6510 46.5656 0.6350
# 6 -8.5570 -3.7568 -25.8283 -12.3059 0.6350 33.3629
#
#
#
# Elastic Compliance Matrix: (Units=1/GPa)
#
#
# Indices 1 2 3 4 5 6 
#
# 1 0.026684 -0.006914 0.002626 0.003793 0.013329 0.009244
# 2 -0.006914 0.008794 -0.005422 -0.003012 -0.004980 -0.005997
# 3 0.002626 -0.005422 0.014134 0.004524 0.011877 0.012447
# 4 0.003793 -0.003012 0.004524 0.024203 0.006939 0.012931
# 5 0.013329 -0.004980 0.011877 0.006939 0.037192 0.013904
# 6 0.009244 -0.005997 0.012447 0.012931 0.013904 0.045810
#
#
# Mechanical properties :
#
#
# Convention : Reuss Voigt Hill
#
# Bulk Modulus (GPa) = 33.12295 82.72099 57.92197
# Shear Modulus (GPa) = 26.83824 41.91980 34.37902
#
# Velocity S-wave (km/s) = 3.23809 4.04689 3.66487
# Velocity P-wave (km/s) = 5.18852 7.35893 6.36689
#
# Compressibility (1/GPa) = 0.03019055
#
# Stress axis : x y z
#
# Youngs Moduli (GPa) = 37.47593 113.71272 70.75287
#
# Poissons Ratio (x) = 0.78624 -0.18580
# Poissons Ratio (y) = 0.25912 0.38364
# Poissons Ratio (z) = -0.09841 0.61659
#
# Static dielectric constant tensor:
#      x y z
#    x 2.053920 -0.007760 0.020080 
#    y -0.007760 1.980750 0.014520 
#    z 0.020080 0.014520 2.022390 
# 
# From -- ./inp_files/573646.got.cif
#   From: 2010.05.17/outbox.cif.g08.bks.cpg/sg2_287_cif.got.tgz:573646.got - 2010.06.03 11:33:40.
