data_PCOD9004000
_publ_section_title
;
Structure prediction by ZEFSAII (Michael W. Deem and Ramdas Pophale) SiO2 
 PCOD9004000
Probable space group: P -1
;
_chemical_formula_sum "Si O2"
_cell_formula_units_Z 16
_cell_length_a 21.302279
_cell_length_b 8.342671
_cell_length_c 13.602536
_cell_angle_alpha 39.086907
_cell_angle_beta 149.533687
_cell_angle_gamma 138.678764
_cell_volume 746.950051
_symmetry_space_group_name_H-M "P -1"
_symmetry_group_IT_number 2
_symmetry_cell_setting 'triclinic'
loop_
_space_group_symop_operation_xyz
x,y,z
-x,-y,-z
loop_
_atom_site_type_symbol
_atom_site_label
_atom_site_fract_x
_atom_site_fract_y
_atom_site_fract_z
Si Si1 0.629323 0.369372 0.543386
Si Si2 0.829473 0.300669 0.996681
Si Si3 0.308765 0.237402 0.827720
Si Si4 0.922357 0.836802 0.562041
Si Si5 0.579269 0.271732 0.130595
Si Si6 0.239787 0.018037 0.564151
Si Si7 0.391674 0.996105 0.495470
Si Si8 0.856771 0.886807 0.822255
O O1 0.671768 0.683672 0.453354
O O2 0.602921 0.225801 0.471557
O O3 0.503305 0.251041 0.494864
O O4 0.749055 0.287721 0.794721
O O5 0.976986 0.291624 0.187285
O O6 0.756933 0.051125 0.082711
O O7 0.830390 0.574159 0.919753
O O8 0.202429 0.342630 0.574844
O O9 0.360810 0.429453 0.897198
O O10 0.430271 0.233285 0.926589
O O11 0.862511 0.008506 0.474282
O O12 0.000000 0.000000 0.500000
O O13 0.581235 0.100865 0.313667
O O14 0.668939 0.178105 0.218912
O O15 0.165075 0.994658 0.370545
O O16 0.252739 0.052858 0.284960
O O17 0.000000 0.000000 0.000000
#
# Coordination Sequence:
#
# PCOD9004000 Si02
#       8
#     2   2   2   2   2   2   2   2
#     4  10  21  37  63  93 121 159 199 253 322 364
#     4  10  22  39  61  86 126 161 205 249 307 372
#     4  10  21  40  62  85 119 170 205 249 309 351
#     4  10  23  42  61  84 120 170 208 250 302 367
#     4  10  21  38  65  88 123 157 207 262 297 366
#     4  10  23  38  64  91 120 159 207 261 305 372
#     4  10  21  38  61  92 126 156 199 258 308 371
#     4  10  24  37  62  96 124 161 198 255 312 369
#
# _framework density 21.420442000000001
#
# number of rings (size 3 to 8) (size 9 to 14) (size 15 to 20)
#    0.000    2.000    1.250    0.750    8.750    3.000 
#    0.000    5.000    0.000    0.000    0.000    0.000 
#    0.000    0.000    0.000    0.000    0.000    0.000 
#
# Total GULP energy -89397.110396 kJ/mol
# GULP energy per Si atom -5587.319400 kJ/mol
# Density = 2.137169 g / cm^3
# Si number density = 21.420442 Si / 1000 Ang^3
#
#
#
# Elastic Constant Matrix: (Units=GPa)
#
#
# Indices 1 2 3 4 5 6 
#
# 1 90.7426 26.2457 23.5571 -1.2278 22.1177 3.1774
# 2 26.2457 61.1570 29.1414 13.7008 10.6982 12.6687
# 3 23.5571 29.1414 117.0244 22.9991 27.8433 7.9736
# 4 -1.2278 13.7008 22.9991 34.2757 -4.6149 3.1653
# 5 22.1177 10.6982 27.8433 -4.6149 38.8001 1.7914
# 6 3.1774 12.6687 7.9736 3.1653 1.7914 24.2494
#
#
#
# Elastic Compliance Matrix: (Units=1/GPa)
#
#
# Indices 1 2 3 4 5 6 
#
# 1 0.014211 -0.005557 -0.000587 0.002195 -0.005951 0.001387
# 2 -0.005557 0.023941 -0.002058 -0.007800 -0.002427 -0.009905
# 3 -0.000587 -0.002058 0.013452 -0.009424 -0.009812 -0.001316
# 4 0.002195 -0.007800 -0.009424 0.040303 0.012423 0.000708
# 5 -0.005951 -0.002427 -0.009812 0.012423 0.038315 0.000822
# 6 0.001387 -0.009905 -0.001316 0.000708 0.000822 0.046511
#
#
# Mechanical properties :
#
#
# Convention : Reuss Voigt Hill
#
# Bulk Modulus (GPa) = 28.40905 47.42360 37.91633
# Shear Modulus (GPa) = 24.40565 32.13035 28.26800
#
# Velocity S-wave (km/s) = 3.37911 3.87717 3.63667
# Velocity P-wave (km/s) = 5.34002 6.49852 5.94754
#
# Compressibility (1/GPa) = 0.03520005
#
# Stress axis : x y z
#
# Youngs Moduli (GPa) = 70.36569 41.76990 74.33769
#
# Poissons Ratio (x) = 0.23213 0.04364
# Poissons Ratio (y) = 0.39105 0.15296
# Poissons Ratio (z) = 0.04131 0.08595
#
# Static dielectric constant tensor:
#      x y z
#    x 1.786640 0.010910 -0.026140 
#    y 0.010910 1.762000 0.001320 
#    z -0.026140 0.001320 1.835760 
# 
# From -- ./inp_files/331658.got.cif
#   From: 2010.05.17/outbox.cif.g08.bks.cpg/sg2_166_cif.got.tgz:331658.got - 2010.06.03 11:33:40.
