data_PCOD9004877
_publ_section_title
;
Structure prediction by ZEFSAII (Michael W. Deem and Ramdas Pophale) SiO2 
 PCOD9004877
Probable space group: P -1
;
_chemical_formula_sum "Si O2"
_cell_formula_units_Z 14
_cell_length_a 7.526521
_cell_length_b 7.349358
_cell_length_c 18.381396
_cell_angle_alpha 134.984845
_cell_angle_beta 122.034308
_cell_angle_gamma 59.077299
_cell_volume 593.062270
_symmetry_space_group_name_H-M "P -1"
_symmetry_group_IT_number 2
_symmetry_cell_setting 'triclinic'
loop_
_space_group_symop_operation_xyz
x,y,z
-x,-y,-z
loop_
_atom_site_type_symbol
_atom_site_label
_atom_site_fract_x
_atom_site_fract_y
_atom_site_fract_z
Si Si1 0.798810 0.143609 0.797904
Si Si2 0.481135 0.786279 0.375243
Si Si3 0.903272 0.534892 0.133629
Si Si4 0.436026 0.357692 0.023289
Si Si5 0.139932 0.030142 0.952867
Si Si6 0.114680 0.693765 0.354948
Si Si7 0.041495 0.329461 0.534694
O O1 0.646004 0.069221 0.681566
O O2 0.641506 0.367444 0.873985
O O3 0.961128 0.277402 0.825048
O O4 0.955567 0.969545 0.842154
O O5 0.336944 0.609930 0.333705
O O6 0.727790 0.642844 0.375052
O O7 0.500000 0.000000 0.500000
O O8 0.025927 0.245681 0.048674
O O9 0.937080 0.597336 0.242002
O O10 0.664229 0.621775 0.073280
O O11 0.290710 0.180691 0.981952
O O12 0.683648 0.214380 0.046993
O O13 0.123391 0.600219 0.413795
O O14 0.056366 0.017188 0.434039
O O15 0.000000 0.500000 0.500000
#
# Coordination Sequence:
#
# PCOD9004877 Si02
#       7
#     2   2   2   2   2   2   2
#     4   8  14  26  43  72 110 151 186 233 296 336
#     4   9  18  35  55  79 119 154 191 242 297 342
#     4   8  14  27  47  75 112 144 186 235 291 343
#     4   8  13  23  42  74 110 139 191 240 272 353
#     4   8  13  23  43  72 109 144 189 234 283 349
#     4   9  19  38  60  81 120 156 182 248 302 338
#     4  10  21  38  59  88 114 149 203 237 289 368
#
# _framework density 23.606290000000001
#
# number of rings (size 3 to 8) (size 9 to 14) (size 15 to 20)
#    0.000    3.429    0.000    1.714    0.000    0.571 
#   18.000    0.000    0.000    3.429    0.000    2.000 
#    0.000    0.000    0.000    0.000    0.000    0.000 
#
# Total GULP energy -78134.112541 kJ/mol
# GULP energy per Si atom -5581.008039 kJ/mol
# Density = 2.355256 g / cm^3
# Si number density = 23.606290 Si / 1000 Ang^3
#
#
#
# Elastic Constant Matrix: (Units=GPa)
#
#
# Indices 1 2 3 4 5 6 
#
# 1 86.2981 44.7248 39.8987 -25.9371 -3.7428 -6.2719
# 2 44.7248 134.0879 63.1400 -40.0482 -2.3298 0.3199
# 3 39.8987 63.1400 166.3425 -46.1966 7.7498 -5.1042
# 4 -25.9371 -40.0482 -46.1966 29.0961 -0.0910 6.9801
# 5 -3.7428 -2.3298 7.7498 -0.0910 40.5191 -16.1209
# 6 -6.2719 0.3199 -5.1042 6.9801 -16.1209 39.0307
#
#
#
# Elastic Compliance Matrix: (Units=1/GPa)
#
#
# Indices 1 2 3 4 5 6 
#
# 1 0.016230 -0.001970 -0.000038 0.011366 0.001977 0.001403
# 2 -0.001970 0.013371 0.000386 0.018236 -0.001069 -0.004078
# 3 -0.000038 0.000386 0.011253 0.019167 -0.003437 -0.003385
# 4 0.011366 0.018236 0.019167 0.104319 -0.008486 -0.017977
# 5 0.001977 -0.001069 -0.003437 -0.008486 0.031106 0.014242
# 6 0.001403 -0.004078 -0.003385 -0.017977 0.014242 0.034534
#
#
# Mechanical properties :
#
#
# Convention : Reuss Voigt Hill
#
# Bulk Modulus (GPa) = 26.58747 75.80615 51.19681
# Shear Modulus (GPa) = 22.06606 37.66018 29.86312
#
# Velocity S-wave (km/s) = 3.06069 3.99851 3.56061
# Velocity P-wave (km/s) = 4.87624 7.31436 6.21601
#
# Compressibility (1/GPa) = 0.03761170
#
# Stress axis : x y z
#
# Youngs Moduli (GPa) = 61.61445 74.79090 88.86284
#
# Poissons Ratio (x) = 0.14734 0.00333
# Poissons Ratio (y) = 0.12138 -0.03434
# Poissons Ratio (z) = 0.00231 -0.02890
#
# Static dielectric constant tensor:
#      x y z
#    x 2.041310 0.083740 0.043990 
#    y 0.083740 1.958900 0.006070 
#    z 0.043990 0.006070 1.892130 
# 
# From -- ./inp_files/555643.got.cif
#   From: 2010.05.17/outbox.cif.g08.bks.cpg/sg2_278_cif.got.tgz:555643.got - 2010.06.03 11:33:40.
