data_PCOD9004783
_publ_section_title
;
Structure prediction by ZEFSAII (Michael W. Deem and Ramdas Pophale) SiO2 
 PCOD9004783
Probable space group: P -1
;
_chemical_formula_sum "Si O2"
_cell_formula_units_Z 14
_cell_length_a 13.413127
_cell_length_b 20.783121
_cell_length_c 7.248480
_cell_angle_alpha 124.957230
_cell_angle_beta 76.681418
_cell_angle_gamma 151.619101
_cell_volume 560.106903
_symmetry_space_group_name_H-M "P -1"
_symmetry_group_IT_number 2
_symmetry_cell_setting 'triclinic'
loop_
_space_group_symop_operation_xyz
x,y,z
-x,-y,-z
loop_
_atom_site_type_symbol
_atom_site_label
_atom_site_fract_x
_atom_site_fract_y
_atom_site_fract_z
Si Si1 0.681554 0.243367 0.279110
Si Si2 0.537458 0.450725 0.747786
Si Si3 0.231353 0.232243 0.911542
Si Si4 0.711923 0.054864 0.412559
Si Si5 0.136598 0.012036 0.813273
Si Si6 0.611798 0.814237 0.600038
Si Si7 0.177952 0.706417 0.324614
O O1 0.767338 0.243377 0.398721
O O2 0.000000 0.500000 0.500000
O O3 0.527506 0.202097 0.395379
O O4 0.483683 0.086948 0.926108
O O5 0.459848 0.402059 0.921538
O O6 0.633611 0.429256 0.668477
O O7 0.729146 0.646267 0.860862
O O8 0.209252 0.219809 0.425969
O O9 0.288172 0.197924 0.960467
O O10 0.873426 0.975019 0.612914
O O11 0.820554 0.044065 0.382349
O O12 0.492585 0.919288 0.446421
O O13 0.936027 0.289619 0.686794
O O14 0.234300 0.072968 0.080943
O O15 0.000000 0.500000 0.000000
#
# Coordination Sequence:
#
# PCOD9004783 Si02
#       7
#     2   2   2   2   2   2   2
#     4  11  23  45  66  94 135 169 215 269 317 380
#     4  10  21  38  58  95 121 157 209 248 308 379
#     4  10  21  38  61  90 125 161 199 256 310 372
#     4  10  24  43  63 100 124 173 215 260 328 378
#     4  10  21  38  63  85 127 157 204 255 307 377
#     4  10  22  39  61  88 122 165 203 252 315 367
#     4  11  23  43  69  90 130 169 217 269 319 378
#
# _framework density 24.995225000000001
#
# number of rings (size 3 to 8) (size 9 to 14) (size 15 to 20)
#    0.000    1.714    1.429    3.857    4.000    3.429 
#   10.286    0.000    0.000    0.000    0.000    0.000 
#    0.000    0.000    0.000    0.000    0.000    0.000 
#
# Total GULP energy -77981.812753 kJ/mol
# GULP energy per Si atom -5570.129482 kJ/mol
# Density = 2.493833 g / cm^3
# Si number density = 24.995225 Si / 1000 Ang^3
#
#
#
# Elastic Constant Matrix: (Units=GPa)
#
#
# Indices 1 2 3 4 5 6 
#
# 1 83.1360 36.7877 21.2005 17.7868 -17.8768 -26.1238
# 2 36.7877 97.4359 23.7512 4.3013 -15.0889 -29.4492
# 3 21.2005 23.7512 55.7217 20.6309 -10.5079 -28.3665
# 4 17.7868 4.3013 20.6309 43.8700 -17.8291 -15.6461
# 5 -17.8768 -15.0889 -10.5079 -17.8291 39.0298 2.4296
# 6 -26.1238 -29.4492 -28.3665 -15.6461 2.4296 48.5804
#
#
#
# Elastic Compliance Matrix: (Units=1/GPa)
#
#
# Indices 1 2 3 4 5 6 
#
# 1 0.017147 -0.003840 -0.000105 -0.002495 0.004841 0.005786
# 2 -0.003840 0.015183 -0.002434 0.006239 0.005843 0.007435
# 3 -0.000105 -0.002434 0.028803 -0.007758 0.002433 0.012666
# 4 -0.002495 0.006239 -0.007758 0.036130 0.015138 0.008789
# 5 0.004841 0.005843 0.002433 0.015138 0.037009 0.010590
# 6 0.005786 0.007435 0.012666 0.008789 0.010590 0.037900
#
#
# Mechanical properties :
#
#
# Convention : Reuss Voigt Hill
#
# Bulk Modulus (GPa) = 20.67156 44.41914 32.54535
# Shear Modulus (GPa) = 24.86896 36.59964 30.73430
#
# Velocity S-wave (km/s) = 3.15770 3.83072 3.51038
# Velocity P-wave (km/s) = 4.64574 6.11355 5.42948
#
# Compressibility (1/GPa) = 0.04837565
#
# Stress axis : x y z
#
# Youngs Moduli (GPa) = 58.31766 65.86426 34.71873
#
# Poissons Ratio (x) = 0.25291 0.00364
# Poissons Ratio (y) = 0.22393 0.08450
# Poissons Ratio (z) = 0.00612 0.16031
#
# Static dielectric constant tensor:
#      x y z
#    x 2.550030 -0.078970 -0.621060 
#    y -0.078970 1.986070 0.006650 
#    z -0.621060 0.006650 2.577460 
# 
# From -- ./inp_files/278376.got.cif
#   From: 2010.05.17/outbox.cif.g08.bks.cpg/sg2_140_cif.got.tgz:278376.got - 2010.06.03 11:33:40.
