data_PCOD9004242
_publ_section_title
;
Structure prediction by ZEFSAII (Michael W. Deem and Ramdas Pophale) SiO2 
 PCOD9004242
Probable space group: P -1
;
_chemical_formula_sum "Si O2"
_cell_formula_units_Z 14
_cell_length_a 11.438320
_cell_length_b 7.633634
_cell_length_c 20.195054
_cell_angle_alpha 149.612598
_cell_angle_beta 39.652946
_cell_angle_gamma 133.946517
_cell_volume 566.768708
_symmetry_space_group_name_H-M "P -1"
_symmetry_group_IT_number 2
_symmetry_cell_setting 'triclinic'
loop_
_space_group_symop_operation_xyz
x,y,z
-x,-y,-z
loop_
_atom_site_type_symbol
_atom_site_label
_atom_site_fract_x
_atom_site_fract_y
_atom_site_fract_z
Si Si1 0.619639 0.286829 0.178243
Si Si2 0.557080 0.414386 0.109203
Si Si3 0.545224 0.670468 0.462124
Si Si4 0.672282 0.310933 0.891350
Si Si5 0.782917 0.185675 0.601549
Si Si6 0.951380 0.829526 0.894296
Si Si7 0.852065 0.460646 0.404648
O O1 0.624835 0.523232 0.187849
O O2 0.640228 0.437087 0.291568
O O3 0.414184 0.082633 0.200521
O O4 0.782150 0.040913 0.013818
O O5 0.381605 0.612166 0.231034
O O6 0.700777 0.453544 0.000120
O O7 0.500000 0.000000 0.000000
O O8 0.500000 0.500000 0.500000
O O9 0.339974 0.700227 0.533887
O O10 0.686600 0.007241 0.520780
O O11 0.859205 0.431345 0.812891
O O12 0.500000 0.500000 0.000000
O O13 0.963282 0.455033 0.605249
O O14 0.818640 0.849473 0.520181
O O15 0.100320 0.784321 0.758010
O O16 0.000000 0.000000 0.000000
#
# Coordination Sequence:
#
# PCOD9004242 Si02
#       7
#     2   2   2   2   2   2   2
#     4  10  22  41  62  90 128 166 213 258 322 385
#     4  10  21  40  65  91 124 170 211 259 322 388
#     4  10  22  37  63  94 126 166 213 262 314 382
#     4   9  20  34  66  88 115 163 214 253 310 371
#     4  10  21  37  65  84 130 165 210 251 331 362
#     4  11  22  37  63  95 126 159 219 268 315 374
#     4  10  22  36  62  99 127 157 214 274 312 370
#
# _framework density 24.701435
#
# number of rings (size 3 to 8) (size 9 to 14) (size 15 to 20)
#    0.000    2.000    0.000    4.286   16.000    0.571 
#    0.000    1.429    9.429    0.000    0.000    0.000 
#    0.000    0.000    0.000    0.000    0.000    0.000 
#
# Total GULP energy -78114.937229 kJ/mol
# GULP energy per Si atom -5579.638373 kJ/mol
# Density = 2.464521 g / cm^3
# Si number density = 24.701435 Si / 1000 Ang^3
#
#
#
# Elastic Constant Matrix: (Units=GPa)
#
#
# Indices 1 2 3 4 5 6 
#
# 1 91.3456 25.1954 26.4821 0.5945 19.2717 13.6979
# 2 25.1954 47.0605 11.0508 -1.0859 7.2021 15.2991
# 3 26.4821 11.0508 140.3711 3.9830 11.0083 -3.4013
# 4 0.5945 -1.0859 3.9830 27.8837 7.6020 6.9793
# 5 19.2717 7.2021 11.0083 7.6020 43.0815 -3.2309
# 6 13.6979 15.2991 -3.4013 6.9793 -3.2309 36.9264
#
#
#
# Elastic Compliance Matrix: (Units=1/GPa)
#
#
# Indices 1 2 3 4 5 6 
#
# 1 0.014912 -0.004955 -0.002132 0.002640 -0.006116 -0.004709
# 2 -0.004955 0.028755 -0.001447 0.005437 -0.004050 -0.011591
# 3 -0.002132 -0.001447 0.007770 -0.001630 -0.000323 0.002386
# 4 0.002640 0.005437 -0.001630 0.042034 -0.010006 -0.012202
# 5 -0.006116 -0.004050 -0.000323 -0.010006 0.029099 0.008354
# 6 -0.004709 -0.011591 0.002386 -0.012202 0.008354 0.036887
#
#
# Mechanical properties :
#
#
# Convention : Reuss Voigt Hill
#
# Bulk Modulus (GPa) = 29.09636 44.91484 37.00560
# Shear Modulus (GPa) = 26.59852 35.98157 31.29005
#
# Velocity S-wave (km/s) = 3.28502 3.82076 3.56298
# Velocity P-wave (km/s) = 5.11794 6.13896 5.65156
#
# Compressibility (1/GPa) = 0.03436855
#
# Stress axis : x y z
#
# Youngs Moduli (GPa) = 67.06138 34.77653 128.70751
#
# Poissons Ratio (x) = 0.17231 0.27447
# Poissons Ratio (y) = 0.33228 0.18618
# Poissons Ratio (z) = 0.14301 0.05031
#
# Static dielectric constant tensor:
#      x y z
#    x 2.061780 0.001910 0.020650 
#    y 0.001910 2.012790 0.029460 
#    z 0.020650 0.029460 1.983940 
# 
# From -- ./inp_files/167859.got.cif
#   From: 2010.05.17/outbox.cif.g08.bks.cpg/sg2_84_cif.got.tgz:167859.got - 2010.06.03 11:33:40.
