data_PCOD9004676
_publ_section_title
;
Structure prediction by ZEFSAII (Michael W. Deem and Ramdas Pophale) SiO2 
 PCOD9004676
Probable space group: P -1
;
_chemical_formula_sum "Si O2"
_cell_formula_units_Z 14
_cell_length_a 10.333112
_cell_length_b 10.133537
_cell_length_c 16.951951
_cell_angle_alpha 139.481836
_cell_angle_beta 145.845200
_cell_angle_gamma 47.601110
_cell_volume 642.469641
_symmetry_space_group_name_H-M "P -1"
_symmetry_group_IT_number 2
_symmetry_cell_setting 'triclinic'
loop_
_space_group_symop_operation_xyz
x,y,z
-x,-y,-z
loop_
_atom_site_type_symbol
_atom_site_label
_atom_site_fract_x
_atom_site_fract_y
_atom_site_fract_z
Si Si1 0.938922 0.296130 0.468112
Si Si2 0.393706 0.045678 0.587905
Si Si3 0.354232 0.817728 0.868164
Si Si4 0.900813 0.979398 0.813023
Si Si5 0.341772 0.486570 0.821405
Si Si6 0.036454 0.667481 0.880310
Si Si7 0.726398 0.337346 0.549699
O O1 0.728539 0.300077 0.303692
O O2 0.838965 0.257792 0.486912
O O3 0.143276 0.127359 0.461901
O O4 0.086932 0.484943 0.645184
O O5 0.645332 0.993825 0.651456
O O6 0.423182 0.245639 0.747707
O O7 0.342700 0.850901 0.522430
O O8 0.473545 0.641770 0.907621
O O9 0.126207 0.916710 0.845635
O O10 0.500000 0.000000 0.000000
O O11 0.931722 0.197116 0.966716
O O12 0.904414 0.821707 0.817922
O O13 0.269472 0.575875 0.910517
O O14 0.906452 0.471712 0.742018
O O15 0.500000 0.500000 0.500000
#
# Coordination Sequence:
#
# PCOD9004676 Si02
#       7
#     2   2   2   2   2   2   2
#     4   9  22  39  60  86 119 152 188 239 288 344
#     4  10  21  38  60  90 117 148 192 244 291 337
#     4  11  23  41  61  82 116 157 199 234 285 353
#     4  10  21  38  57  87 118 155 191 235 291 340
#     4   8  20  40  60  86 113 154 192 236 291 338
#     4   9  19  36  59  88 118 149 193 235 284 340
#     4  11  20  36  63  92 114 149 197 237 284 341
#
# _framework density 21.790913
#
# number of rings (size 3 to 8) (size 9 to 14) (size 15 to 20)
#    0.857    1.429    1.429    0.857    2.000    2.286 
#    2.571    0.714    0.000    0.000    0.000    0.000 
#    0.000    0.000    0.000    0.000    0.000    0.000 
#
# Total GULP energy -77967.431652 kJ/mol
# GULP energy per Si atom -5569.102261 kJ/mol
# Density = 2.174132 g / cm^3
# Si number density = 21.790913 Si / 1000 Ang^3
#
#
#
# Elastic Constant Matrix: (Units=GPa)
#
#
# Indices 1 2 3 4 5 6 
#
# 1 78.3102 18.6534 48.9335 20.1315 20.0420 -6.2924
# 2 18.6534 72.6963 24.3716 21.0179 11.6760 -11.4654
# 3 48.9335 24.3716 85.4127 23.2666 13.5661 7.2065
# 4 20.1315 21.0179 23.2666 41.7318 1.5097 11.4339
# 5 20.0420 11.6760 13.5661 1.5097 34.2447 4.4025
# 6 -6.2924 -11.4654 7.2065 11.4339 4.4025 24.2189
#
#
#
# Elastic Compliance Matrix: (Units=1/GPa)
#
#
# Indices 1 2 3 4 5 6 
#
# 1 0.033239 0.011183 -0.016093 -0.020786 -0.020113 0.032188
# 2 0.011183 0.028101 -0.008293 -0.023269 -0.016002 0.032570
# 3 -0.016093 -0.008293 0.022906 0.003824 0.005277 -0.017688
# 4 -0.020786 -0.023269 0.003824 0.055924 0.022290 -0.048008
# 5 -0.020113 -0.016002 0.005277 0.022290 0.047670 -0.033560
# 6 0.032188 0.032570 -0.017688 -0.048008 -0.033560 0.099100
#
#
# Mechanical properties :
#
#
# Convention : Reuss Voigt Hill
#
# Bulk Modulus (GPa) = 17.28895 46.70403 31.99649
# Shear Modulus (GPa) = 15.03181 29.66979 22.35080
#
# Velocity S-wave (km/s) = 2.62929 3.69394 3.20612
# Velocity P-wave (km/s) = 4.14353 6.29865 5.33112
#
# Compressibility (1/GPa) = 0.05784042
#
# Stress axis : x y z
#
# Youngs Moduli (GPa) = 30.08473 35.58575 43.65587
#
# Poissons Ratio (x) = -0.39794 0.70256
# Poissons Ratio (y) = -0.33643 0.36203
# Poissons Ratio (z) = 0.48416 0.29511
#
# Static dielectric constant tensor:
#      x y z
#    x 1.784850 0.026050 -0.021980 
#    y 0.026050 1.982560 -0.142330 
#    z -0.021980 -0.142330 1.854940 
# 
# From -- ./inp_files/353480.got.cif
#   From: 2010.05.17/outbox.cif.g08.bks.cpg/sg2_177_cif.got.tgz:353480.got - 2010.06.03 11:33:40.
