data_PCOD9004611
_publ_section_title
;
Structure prediction by ZEFSAII (Michael W. Deem and Ramdas Pophale) SiO2 
 PCOD9004611
Probable space group: P -1
;
_chemical_formula_sum "Si O2"
_cell_formula_units_Z 14
_cell_length_a 7.977188
_cell_length_b 12.762511
_cell_length_c 10.831737
_cell_angle_alpha 82.601414
_cell_angle_beta 101.406537
_cell_angle_gamma 150.662268
_cell_volume 527.446276
_symmetry_space_group_name_H-M "P -1"
_symmetry_group_IT_number 2
_symmetry_cell_setting 'triclinic'
loop_
_space_group_symop_operation_xyz
x,y,z
-x,-y,-z
loop_
_atom_site_type_symbol
_atom_site_label
_atom_site_fract_x
_atom_site_fract_y
_atom_site_fract_z
Si Si1 0.386938 0.373785 0.684953
Si Si2 0.868847 0.980530 0.353942
Si Si3 0.182062 0.709831 0.986800
Si Si4 0.629122 0.222103 0.252697
Si Si5 0.070733 0.871394 0.044303
Si Si6 0.924219 0.216133 0.438759
Si Si7 0.459613 0.352998 0.184089
O O1 0.056011 0.246231 0.584418
O O2 0.715600 0.570104 0.613978
O O3 0.428163 0.467212 0.797896
O O4 0.355445 0.230930 0.710313
O O5 0.717671 0.011886 0.368704
O O6 0.189636 0.179507 0.281480
O O7 0.000000 0.000000 0.500000
O O8 0.166661 0.728892 0.835146
O O9 0.035877 0.726208 0.044455
O O10 0.000000 0.500000 0.000000
O O11 0.599271 0.927243 0.031162
O O12 0.717508 0.393004 0.229871
O O13 0.714067 0.211375 0.393813
O O14 0.234422 0.996028 0.178834
O O15 0.745441 0.757122 0.958167
#
# Coordination Sequence:
#
# PCOD9004611 Si02
#       7
#     2   2   2   2   2   2   2
#     4   9  19  35  57  83 106 145 187 229 275 322
#     4   9  19  37  59  80 106 147 192 224 270 326
#     4   9  19  37  58  80 103 143 193 226 260 323
#     4  10  21  38  55  82 116 148 179 226 283 322
#     4   9  21  38  56  80 114 147 185 221 275 331
#     4   9  18  37  59  78 110 144 189 231 266 326
#     4  11  21  37  55  82 120 146 175 229 283 330
#
# _framework density 26.542988999999999
#
# number of rings (size 3 to 8) (size 9 to 14) (size 15 to 20)
#    0.857    1.714    0.000    3.000    0.000    2.857 
#    2.571    3.571    0.000    0.000    0.000    0.000 
#    0.000    0.000    0.000    0.000    0.000    0.000 
#
# Total GULP energy -78257.572931 kJ/mol
# GULP energy per Si atom -5589.826638 kJ/mol
# Density = 2.648258 g / cm^3
# Si number density = 26.542989 Si / 1000 Ang^3
#
#
#
# Elastic Constant Matrix: (Units=GPa)
#
#
# Indices 1 2 3 4 5 6 
#
# 1 72.2155 25.3465 16.4316 0.3000 4.0393 -11.0598
# 2 25.3465 136.2173 15.9869 -2.9294 6.5247 -37.8446
# 3 16.4316 15.9869 113.9234 -5.1445 22.3118 -6.1273
# 4 0.3000 -2.9294 -5.1445 33.0191 -1.5575 0.6134
# 5 4.0393 6.5247 22.3118 -1.5575 44.1521 -12.4829
# 6 -11.0598 -37.8446 -6.1273 0.6134 -12.4829 46.9004
#
#
#
# Elastic Compliance Matrix: (Units=1/GPa)
#
#
# Indices 1 2 3 4 5 6 
#
# 1 0.015289 -0.002180 -0.001904 -0.000644 0.000343 0.001697
# 2 -0.002180 0.009959 -0.000910 0.000684 0.001408 0.007769
# 3 -0.001904 -0.000910 0.010179 0.001303 -0.005139 -0.001239
# 4 -0.000644 0.000684 0.001303 0.030571 0.000461 0.000293
# 5 0.000343 0.001408 -0.005139 0.000461 0.027224 0.007786
# 6 0.001697 0.007769 -0.001239 0.000293 0.007786 0.029898
#
#
# Mechanical properties :
#
#
# Convention : Reuss Voigt Hill
#
# Bulk Modulus (GPa) = 39.31071 48.65401 43.98236
# Shear Modulus (GPa) = 35.31325 42.45372 38.88348
#
# Velocity S-wave (km/s) = 3.65145 4.00363 3.83159
# Velocity P-wave (km/s) = 5.71137 6.30414 6.01506
#
# Compressibility (1/GPa) = 0.02543836
#
# Stress axis : x y z
#
# Youngs Moduli (GPa) = 65.40493 100.40687 98.24160
#
# Poissons Ratio (x) = 0.21891 0.18708
# Poissons Ratio (y) = 0.14260 0.08942
# Poissons Ratio (z) = 0.12455 0.09139
#
# Static dielectric constant tensor:
#      x y z
#    x 2.101320 0.070520 -0.020750 
#    y 0.070520 2.162650 -0.003470 
#    z -0.020750 -0.003470 2.049450 
# 
# From -- ./inp_files/404121.got.cif
#   From: 2010.05.17/outbox.cif.g08.bks.cpg/sg2_203_cif.got.tgz:404121.got - 2010.06.03 11:33:40.
