data_PCOD9004179
_publ_section_title
;
Structure prediction by ZEFSAII (Michael W. Deem and Ramdas Pophale) SiO2 
 PCOD9004179
Probable space group: P -1
;
_chemical_formula_sum "Si O2"
_cell_formula_units_Z 16
_cell_length_a 11.559709
_cell_length_b 13.565996
_cell_length_c 11.216596
_cell_angle_alpha 78.374463
_cell_angle_beta 32.594480
_cell_angle_gamma 57.968353
_cell_volume 677.519313
_symmetry_space_group_name_H-M "P -1"
_symmetry_group_IT_number 2
_symmetry_cell_setting 'triclinic'
loop_
_space_group_symop_operation_xyz
x,y,z
-x,-y,-z
loop_
_atom_site_type_symbol
_atom_site_label
_atom_site_fract_x
_atom_site_fract_y
_atom_site_fract_z
Si Si1 0.976191 0.090214 0.856966
Si Si2 0.728295 0.507725 0.764926
Si Si3 0.852972 0.887792 0.560538
Si Si4 0.348555 0.259922 0.294443
Si Si5 0.321024 0.185667 0.935661
Si Si6 0.356694 0.382709 0.728385
Si Si7 0.779100 0.363769 0.533018
Si Si8 0.101398 0.819361 0.851769
O O1 0.049013 0.111012 0.658374
O O2 0.629542 0.179317 0.149193
O O3 0.017865 0.152086 0.915947
O O4 0.114298 0.935693 0.789235
O O5 0.636241 0.650525 0.830183
O O6 0.749721 0.470975 0.615690
O O7 0.031605 0.383375 0.595767
O O8 0.500000 0.500000 0.000000
O O9 0.670482 0.842742 0.719220
O O10 0.118036 0.766521 0.444575
O O11 0.619177 0.045274 0.768222
O O12 0.061172 0.296330 0.223944
O O13 0.151737 0.154441 0.012307
O O14 0.409022 0.254693 0.767085
O O15 0.494782 0.420435 0.691404
O O16 0.575930 0.323456 0.436999
O O17 0.000000 0.500000 0.000000
#
# Coordination Sequence:
#
# PCOD9004179 Si02
#       8
#     2   2   2   2   2   2   2   2
#     4  11  22  40  68  98 137 172 221 281 345 395
#     4  10  22  41  62  95 137 175 224 268 329 402
#     4  11  22  41  69 104 136 174 218 283 352 402
#     4  10  21  37  64  95 132 171 212 274 335 396
#     4  11  23  44  67  97 138 176 222 282 337 404
#     4  11  26  47  69  94 133 187 233 272 336 407
#     4  10  25  42  65 102 132 176 226 273 336 407
#     4  10  24  43  64 100 132 173 232 281 329 406
#
# _framework density 23.615563000000002
#
# number of rings (size 3 to 8) (size 9 to 14) (size 15 to 20)
#    0.000    1.500    2.500    1.875    0.000   12.000 
#    0.000    0.000    0.000    0.000    0.000    0.000 
#    0.000    0.000    0.000    0.000    0.000    0.000 
#
# Total GULP energy -89244.294698 kJ/mol
# GULP energy per Si atom -5577.768419 kJ/mol
# Density = 2.356181 g / cm^3
# Si number density = 23.615563 Si / 1000 Ang^3
#
#
#
# Elastic Constant Matrix: (Units=GPa)
#
#
# Indices 1 2 3 4 5 6 
#
# 1 79.8006 -4.4220 27.8310 -2.0598 2.0194 7.0166
# 2 -4.4220 84.3045 17.4485 -0.1121 -9.4475 8.4658
# 3 27.8310 17.4485 99.8639 -9.6044 -2.3896 -3.2158
# 4 -2.0598 -0.1121 -9.6044 36.1103 -8.7729 -4.6440
# 5 2.0194 -9.4475 -2.3896 -8.7729 35.4712 0.0344
# 6 7.0166 8.4658 -3.2158 -4.6440 0.0344 25.2993
#
#
#
# Elastic Compliance Matrix: (Units=1/GPa)
#
#
# Indices 1 2 3 4 5 6 
#
# 1 0.014850 0.002261 -0.004876 -0.001404 -0.000913 -0.005751
# 2 0.002261 0.013556 -0.003170 -0.000647 0.003114 -0.005689
# 3 -0.004876 -0.003170 0.012487 0.003943 0.001245 0.004722
# 4 -0.001404 -0.000647 0.003943 0.031475 0.007951 0.006874
# 5 -0.000913 0.003114 0.001245 0.007951 0.031123 0.000787
# 6 -0.005751 -0.005689 0.004722 0.006874 0.000787 0.044887
#
#
# Mechanical properties :
#
#
# Convention : Reuss Voigt Hill
#
# Bulk Modulus (GPa) = 34.10093 38.40933 36.25513
# Shear Modulus (GPa) = 29.46027 34.25027 31.85527
#
# Velocity S-wave (km/s) = 3.53582 3.81245 3.67674
# Velocity P-wave (km/s) = 5.58039 5.97322 5.78014
#
# Compressibility (1/GPa) = 0.02932471
#
# Stress axis : x y z
#
# Youngs Moduli (GPa) = 67.34232 73.76931 80.08122
#
# Poissons Ratio (x) = -0.16682 0.39045
# Poissons Ratio (y) = -0.15228 0.25383
# Poissons Ratio (z) = 0.32834 0.23382
#
# Static dielectric constant tensor:
#      x y z
#    x 1.943120 -0.040750 0.066630 
#    y -0.040750 1.906070 0.021810 
#    z 0.066630 0.021810 1.981810 
# 
# From -- ./inp_files/92743.got.cif
#   From: 2010.05.17/outbox.cif.g08.bks.cpg/sg2_47_cif.got.tgz:92743.got - 2010.06.03 11:33:40.
