data_PCOD9004495
_publ_section_title
;
Structure prediction by ZEFSAII (Michael W. Deem and Ramdas Pophale) SiO2 
 PCOD9004495
Probable space group: P -1
;
_chemical_formula_sum "Si O2"
_cell_formula_units_Z 13
_cell_length_a 8.082901
_cell_length_b 8.016046
_cell_length_c 8.734288
_cell_angle_alpha 90.244255
_cell_angle_beta 71.759415
_cell_angle_gamma 111.465635
_cell_volume 496.292790
_symmetry_space_group_name_H-M "P -1"
_symmetry_group_IT_number 2
_symmetry_cell_setting 'triclinic'
loop_
_space_group_symop_operation_xyz
x,y,z
-x,-y,-z
loop_
_atom_site_type_symbol
_atom_site_label
_atom_site_fract_x
_atom_site_fract_y
_atom_site_fract_z
Si Si1 0.113572 0.625077 0.237189
Si Si2 0.996174 0.853747 0.876898
Si Si3 0.782421 0.978317 0.691910
Si Si4 0.000000 0.500000 0.000000
Si Si5 0.443669 0.723167 0.919133
Si Si6 0.533460 0.409154 0.757909
Si Si7 0.654620 0.925742 0.400625
O O1 0.119636 0.808309 0.306840
O O2 0.240323 0.549859 0.302338
O O3 0.927183 0.494469 0.212401
O O4 0.222432 0.673397 0.029915
O O5 0.208043 0.928613 0.753692
O O6 0.871873 0.870538 0.771131
O O7 0.520298 0.696879 0.063813
O O8 0.000000 0.000000 0.000000
O O9 0.771868 0.925512 0.519132
O O10 0.567940 0.918874 0.819911
O O11 0.922105 0.661678 0.975822
O O12 0.483950 0.583828 0.793865
O O13 0.435298 0.269587 0.652612
O O14 0.500000 0.000000 0.500000
#
# Coordination Sequence:
#
# PCOD9004495 Si02
#       7
#     2   2   2   1   2   2   2
#     4  10  21  37  68 104 141 188 247 298 351 432
#     4  12  28  48  76 107 146 195 250 308 358 433
#     4  12  23  43  69 108 152 189 233 308 376 434
#     4  12  26  44  74 106 140 194 258 302 362 422
#     4   9  20  37  68 101 145 182 254 294 346 427
#     4   9  20  39  67 100 141 191 247 294 342 437
#     4  12  26  45  75 108 152 197 236 291 385 446
#
# _framework density 26.194213000000001
#
# number of rings (size 3 to 8) (size 9 to 14) (size 15 to 20)
#    0.923    0.308    3.077    2.769    4.308    0.615 
#    0.000    2.308    0.000    0.000    0.000    0.000 
#    0.000    0.000    0.000    0.000    0.000    0.000 
#
# Total GULP energy -72609.161019 kJ/mol
# GULP energy per Si atom -5585.320078 kJ/mol
# Density = 2.613459 g / cm^3
# Si number density = 26.194213 Si / 1000 Ang^3
#
#
#
# Elastic Constant Matrix: (Units=GPa)
#
#
# Indices 1 2 3 4 5 6 
#
# 1 127.7993 28.9860 29.5016 15.9655 23.2553 -5.5559
# 2 28.9860 121.0447 42.6277 43.9344 24.4421 -2.6852
# 3 29.5016 42.6277 88.8519 28.2404 11.3957 12.2424
# 4 15.9655 43.9344 28.2404 52.0036 18.6915 7.7779
# 5 23.2553 24.4421 11.3957 18.6915 61.6108 7.7623
# 6 -5.5559 -2.6852 12.2424 7.7779 7.7623 35.2134
#
#
#
# Elastic Compliance Matrix: (Units=1/GPa)
#
#
# Indices 1 2 3 4 5 6 
#
# 1 0.009321 -0.000414 -0.002830 -0.000325 -0.003133 0.003186
# 2 -0.000414 0.013634 -0.003854 -0.009174 -0.002369 0.004863
# 3 -0.002830 -0.003854 0.015983 -0.004299 0.001665 -0.005715
# 4 -0.000325 -0.009174 -0.004299 0.031797 -0.004421 -0.005305
# 5 -0.003133 -0.002369 0.001665 -0.004421 0.019976 -0.004681
# 6 0.003186 0.004863 -0.005715 -0.005305 -0.004681 0.033462
#
#
# Mechanical properties :
#
#
# Convention : Reuss Voigt Hill
#
# Bulk Modulus (GPa) = 40.41562 59.99184 50.20373
# Shear Modulus (GPa) = 34.10246 45.53760 39.82003
#
# Velocity S-wave (km/s) = 3.61211 4.17401 3.90318
# Velocity P-wave (km/s) = 5.73229 6.79575 6.28655
#
# Compressibility (1/GPa) = 0.02474291
#
# Stress axis : x y z
#
# Youngs Moduli (GPa) = 107.28181 73.34690 62.56498
#
# Poissons Ratio (x) = 0.03037 0.17705
# Poissons Ratio (y) = 0.04442 0.24111
# Poissons Ratio (z) = 0.30360 0.28266
#
# Static dielectric constant tensor:
#      x y z
#    x 2.339410 0.161260 -0.055840 
#    y 0.161260 2.101330 0.029720 
#    z -0.055840 0.029720 2.124330 
# 
# From -- ./inp_files/150740.got.cif
#   From: 2010.05.17/outbox.cif.g08.bks.cpg/sg2_76_cif.got.tgz:150740.got - 2010.06.03 11:33:40.
