data_PCOD9004777
_publ_section_title
;
Structure prediction by ZEFSAII (Michael W. Deem and Ramdas Pophale) SiO2 
 PCOD9004777
Probable space group: P -1
;
_chemical_formula_sum "Si O2"
_cell_formula_units_Z 14
_cell_length_a 24.111312
_cell_length_b 14.877255
_cell_length_c 6.390233
_cell_angle_alpha 104.100769
_cell_angle_beta 70.210755
_cell_angle_gamma 162.961326
_cell_volume 604.760394
_symmetry_space_group_name_H-M "P -1"
_symmetry_group_IT_number 2
_symmetry_cell_setting 'triclinic'
loop_
_space_group_symop_operation_xyz
x,y,z
-x,-y,-z
loop_
_atom_site_type_symbol
_atom_site_label
_atom_site_fract_x
_atom_site_fract_y
_atom_site_fract_z
Si Si1 0.158810 0.735345 0.743740
Si Si2 0.136359 0.326434 0.250771
Si Si3 0.318493 0.104105 0.417432
Si Si4 0.260309 0.697647 0.555930
Si Si5 0.349563 0.739844 0.860077
Si Si6 0.296960 0.277981 0.423801
Si Si7 0.537664 0.342961 0.892237
O O1 0.136243 0.600506 0.593941
O O2 0.161822 0.820022 0.615988
O O3 0.380006 0.071800 0.763794
O O4 0.000000 0.500000 0.000000
O O5 0.194107 0.502107 0.422071
O O6 0.285370 0.465611 0.187997
O O7 0.184035 0.428269 0.008931
O O8 0.897754 0.955259 0.385972
O O9 0.250467 0.098704 0.398285
O O10 0.516197 0.423808 0.489269
O O11 0.402871 0.161649 0.165546
O O12 0.250338 0.669481 0.803354
O O13 0.491948 0.066249 0.394593
O O14 0.500000 0.000000 0.000000
O O15 0.362599 0.412614 0.187788
#
# Coordination Sequence:
#
# PCOD9004777 Si02
#       7
#     2   2   2   2   2   2   2
#     4  11  25  40  64  96 129 167 217 256 318 386
#     4  11  23  38  67  97 127 164 212 261 320 378
#     4  10  24  46  67  89 131 169 212 268 314 376
#     4  10  21  38  58  92 133 165 203 259 315 376
#     4   9  18  34  57  84 126 164 196 247 312 366
#     4  10  24  44  66  94 126 169 219 258 318 377
#     4  11  23  43  67  94 128 167 212 268 314 376
#
# _framework density 23.149664999999999
#
# number of rings (size 3 to 8) (size 9 to 14) (size 15 to 20)
#    0.000    1.714    0.000    4.286    4.000    4.571 
#    0.000    0.000    0.000    0.000    0.000    0.000 
#    0.000    0.000    0.000    0.000    0.000    0.000 
#
# Total GULP energy -78234.124229 kJ/mol
# GULP energy per Si atom -5588.151731 kJ/mol
# Density = 2.309698 g / cm^3
# Si number density = 23.149665 Si / 1000 Ang^3
#
#
#
# Elastic Constant Matrix: (Units=GPa)
#
#
# Indices 1 2 3 4 5 6 
#
# 1 141.4686 35.6521 61.5151 -9.8947 6.5253 -8.6292
# 2 35.6521 46.9476 19.0233 -9.5968 12.4903 2.0933
# 3 61.5151 19.0233 107.7729 -22.7257 24.0354 -7.1010
# 4 -9.8947 -9.5968 -22.7257 34.6677 -8.4243 -5.3720
# 5 6.5253 12.4903 24.0354 -8.4243 41.2575 -5.7239
# 6 -8.6292 2.0933 -7.1010 -5.3720 -5.7239 30.9410
#
#
#
# Elastic Compliance Matrix: (Units=1/GPa)
#
#
# Indices 1 2 3 4 5 6 
#
# 1 0.011705 -0.007898 -0.006391 -0.001534 0.004348 0.002870
# 2 -0.007898 0.029979 0.001751 0.004381 -0.008598 -0.004659
# 3 -0.006391 0.001751 0.015909 0.007673 -0.006972 0.001793
# 4 -0.001534 0.004381 0.007673 0.036618 0.003027 0.007954
# 5 0.004348 -0.008598 -0.006972 0.003027 0.031748 0.006593
# 6 0.002870 -0.004659 0.001793 0.007954 0.006593 0.036447
#
#
# Mechanical properties :
#
#
# Convention : Reuss Voigt Hill
#
# Bulk Modulus (GPa) = 30.75328 58.73002 44.74165
# Shear Modulus (GPa) = 25.21155 33.37314 29.29234
#
# Velocity S-wave (km/s) = 3.30368 3.80099 3.56103
# Velocity P-wave (km/s) = 5.27881 6.68492 6.02304
#
# Compressibility (1/GPa) = 0.03251685
#
# Stress axis : x y z
#
# Youngs Moduli (GPa) = 85.43099 33.35630 62.85916
#
# Poissons Ratio (x) = 0.26343 0.40174
# Poissons Ratio (y) = 0.67470 -0.11004
# Poissons Ratio (z) = 0.54600 -0.05839
#
# Static dielectric constant tensor:
#      x y z
#    x 1.899800 -0.012480 -0.000850 
#    y -0.012480 1.934240 -0.011260 
#    z -0.000850 -0.011260 1.860800 
# 
# From -- ./inp_files/76324.got.cif
#   From: 2010.05.17/outbox.cif.g08.bks.cpg/sg2_39_cif.got.tgz:76324.got - 2010.06.03 11:33:40.
