data_PCOD9004186
_publ_section_title
;
Structure prediction by ZEFSAII (Michael W. Deem and Ramdas Pophale) SiO2 
 PCOD9004186
Probable space group: P -1
;
_chemical_formula_sum "Si O2"
_cell_formula_units_Z 16
_cell_length_a 21.160455
_cell_length_b 8.529703
_cell_length_c 15.672349
_cell_angle_alpha 47.393038
_cell_angle_beta 19.965192
_cell_angle_gamma 50.571157
_cell_volume 710.887777
_symmetry_space_group_name_H-M "P -1"
_symmetry_group_IT_number 2
_symmetry_cell_setting 'triclinic'
loop_
_space_group_symop_operation_xyz
x,y,z
-x,-y,-z
loop_
_atom_site_type_symbol
_atom_site_label
_atom_site_fract_x
_atom_site_fract_y
_atom_site_fract_z
Si Si1 0.228232 0.408362 0.077876
Si Si2 0.368798 0.965217 0.349893
Si Si3 0.675989 0.854819 0.305340
Si Si4 0.365561 0.557579 0.387065
Si Si5 0.043649 0.855059 0.387306
Si Si6 0.626368 0.330369 0.852843
Si Si7 0.679993 0.777184 0.137090
Si Si8 0.001697 0.806755 0.263072
O O1 0.075411 0.587715 0.213550
O O2 0.134318 0.187173 0.311484
O O3 0.409240 0.454074 0.888298
O O4 0.297640 0.405974 0.893459
O O5 0.315217 0.759202 0.437094
O O6 0.498557 0.899590 0.288261
O O7 0.193735 0.100517 0.550727
O O8 0.499504 0.122972 0.071908
O O9 0.706168 0.665748 0.403209
O O10 0.655092 0.741575 0.281181
O O11 0.500000 0.000000 0.500000
O O12 0.845843 0.016157 0.018911
O O13 0.305923 0.590138 0.353834
O O14 0.210696 0.735008 0.266226
O O15 0.992606 0.769685 0.390239
O O16 0.132864 0.084120 0.167824
O O17 0.500000 0.500000 0.000000
#
# Coordination Sequence:
#
# PCOD9004186 Si02
#       8
#     2   2   2   2   2   2   2   2
#     4  11  20  38  64  98 119 165 209 262 311 374
#     4  10  23  41  64  98 129 160 207 265 319 370
#     4  11  24  46  67  87 124 175 218 256 311 384
#     4  11  24  42  66  88 129 174 210 256 320 372
#     4  10  21  37  64  96 130 164 206 259 317 379
#     4  11  22  38  64  98 130 165 204 266 320 375
#     4   9  23  41  66  90 129 163 212 257 318 372
#     4  11  22  41  66  93 129 167 210 262 312 373
#
# _framework density 22.507068
#
# number of rings (size 3 to 8) (size 9 to 14) (size 15 to 20)
#    0.000    1.500    1.250    3.375    3.500    6.500 
#    0.000    1.875    0.000    0.000    0.000    0.000 
#    0.000    0.000    0.000    0.000    0.000    0.000 
#
# Total GULP energy -89461.103754 kJ/mol
# GULP energy per Si atom -5591.318985 kJ/mol
# Density = 2.245584 g / cm^3
# Si number density = 22.507068 Si / 1000 Ang^3
#
#
#
# Elastic Constant Matrix: (Units=GPa)
#
#
# Indices 1 2 3 4 5 6 
#
# 1 38.5295 -5.7343 -1.7283 -0.3917 14.0334 -1.3754
# 2 -5.7343 57.4584 4.5455 8.5402 -2.8500 -5.2241
# 3 -1.7283 4.5455 81.6086 4.4409 -1.6006 -1.2783
# 4 -0.3917 8.5402 4.4409 41.4516 -6.5069 2.9201
# 5 14.0334 -2.8500 -1.6006 -6.5069 30.2426 -7.1802
# 6 -1.3754 -5.2241 -1.2783 2.9201 -7.1802 16.7045
#
#
#
# Elastic Compliance Matrix: (Units=1/GPa)
#
#
# Indices 1 2 3 4 5 6 
#
# 1 0.031971 0.002490 0.000320 -0.002523 -0.015821 -0.002924
# 2 0.002490 0.019072 -0.000638 -0.004130 0.001497 0.007486
# 3 0.000320 -0.000638 0.012389 -0.001203 0.000470 0.001187
# 4 -0.002523 -0.004130 -0.001203 0.026205 0.005446 -0.003831
# 5 -0.015821 0.001497 0.000470 0.005446 0.046026 0.018033
# 6 -0.002924 0.007486 0.001187 -0.003831 0.018033 0.070476
#
#
# Mechanical properties :
#
#
# Convention : Reuss Voigt Hill
#
# Bulk Modulus (GPa) = 14.75481 19.08470 16.91976
# Shear Modulus (GPa) = 22.28270 29.71399 25.99834
#
# Velocity S-wave (km/s) = 3.14989 3.63741 3.40239
# Velocity P-wave (km/s) = 4.44960 5.11261 4.79259
#
# Compressibility (1/GPa) = 0.06777451
#
# Stress axis : x y z
#
# Youngs Moduli (GPa) = 31.27798 52.43408 80.71549
#
# Poissons Ratio (x) = -0.13055 -0.02579
# Poissons Ratio (y) = -0.07788 0.05151
# Poissons Ratio (z) = -0.01000 0.03346
#
# Static dielectric constant tensor:
#      x y z
#    x 1.846660 0.029730 -0.024470 
#    y 0.029730 1.862080 -0.025930 
#    z -0.024470 -0.025930 1.833370 
# 
# From -- ./inp_files/328595.got.cif
#   From: 2010.05.17/outbox.cif.g08.bks.cpg/sg2_165_cif.got.tgz:328595.got - 2010.06.03 11:33:40.
