data_PCOD9004058
_publ_section_title
;
Structure prediction by ZEFSAII (Michael W. Deem and Ramdas Pophale) SiO2 
 PCOD9004058
Probable space group: P -1
;
_chemical_formula_sum "Si O2"
_cell_formula_units_Z 16
_cell_length_a 20.291755
_cell_length_b 6.996317
_cell_length_c 10.584659
_cell_angle_alpha 61.930398
_cell_angle_beta 44.069574
_cell_angle_gamma 92.825305
_cell_volume 715.303024
_symmetry_space_group_name_H-M "P -1"
_symmetry_group_IT_number 2
_symmetry_cell_setting 'triclinic'
loop_
_space_group_symop_operation_xyz
x,y,z
-x,-y,-z
loop_
_atom_site_type_symbol
_atom_site_label
_atom_site_fract_x
_atom_site_fract_y
_atom_site_fract_z
Si Si1 0.643406 0.677179 0.344057
Si Si2 0.917430 0.069574 0.848788
Si Si3 0.528530 0.584072 0.103099
Si Si4 0.697232 0.687524 0.654246
Si Si5 0.506364 0.881080 0.395754
Si Si6 0.045623 0.793687 0.788914
Si Si7 0.360395 0.862936 0.114496
Si Si8 0.894742 0.273496 0.549785
O O1 0.530496 0.511391 0.648809
O O2 0.615970 0.866434 0.260777
O O3 0.616846 0.434324 0.365392
O O4 0.778435 0.875573 0.151459
O O5 0.904561 0.121887 0.701755
O O6 0.010363 0.388261 0.670948
O O7 0.966192 0.899783 0.866530
O O8 0.412230 0.345506 0.253904
O O9 0.646287 0.616468 0.891089
O O10 0.576094 0.900846 0.938559
O O11 0.690707 0.442185 0.679014
O O12 0.829307 0.974766 0.381985
O O13 0.500000 0.000000 0.500000
O O14 0.545413 0.048620 0.158143
O O15 0.073600 0.796591 0.602371
O O16 0.000000 0.500000 0.000000
O O17 0.240622 0.822592 0.247974
#
# Coordination Sequence:
#
# PCOD9004058 Si02
#       8
#     2   2   2   2   2   2   2   2
#     4  10  22  40  63  98 133 168 219 277 341 402
#     4  11  25  47  69  99 138 184 231 286 340 413
#     4  10  23  41  65  96 134 174 223 281 340 413
#     4  11  23  43  67  95 133 179 226 278 342 407
#     4  10  21  37  63  99 131 167 212 274 341 401
#     4  12  28  46  69 102 137 185 236 288 341 405
#     4  11  20  41  68  96 129 173 222 274 344 410
#     4  11  24  45  72  99 134 184 233 281 347 411
#
# _framework density 22.368141999999999
#
# number of rings (size 3 to 8) (size 9 to 14) (size 15 to 20)
#    0.000    1.250    3.750    1.500    1.750    3.500 
#    9.000    0.000    0.000    0.000    0.000    0.000 
#    0.000    0.000    0.000    0.000    0.000    0.000 
#
# Total GULP energy -89203.767611 kJ/mol
# GULP energy per Si atom -5575.235476 kJ/mol
# Density = 2.231723 g / cm^3
# Si number density = 22.368142 Si / 1000 Ang^3
#
#
#
# Elastic Constant Matrix: (Units=GPa)
#
#
# Indices 1 2 3 4 5 6 
#
# 1 72.2746 15.7919 34.1470 -18.4338 -22.0918 -8.8258
# 2 15.7919 83.9526 35.9491 -27.2134 -6.0464 2.2095
# 3 34.1470 35.9491 96.9161 -22.1387 -24.5048 -12.5786
# 4 -18.4338 -27.2134 -22.1387 31.6556 0.6980 3.8112
# 5 -22.0918 -6.0464 -24.5048 0.6980 31.9595 -2.8784
# 6 -8.8258 2.2095 -12.5786 3.8112 -2.8784 40.7545
#
#
#
# Elastic Compliance Matrix: (Units=1/GPa)
#
#
# Indices 1 2 3 4 5 6 
#
# 1 0.022380 0.001305 -0.001190 0.012476 0.014919 0.004296
# 2 0.001305 0.018072 -0.004390 0.013615 0.000360 -0.003300
# 3 -0.001190 -0.004390 0.017853 0.007058 0.012395 0.005706
# 4 0.012476 0.013615 0.007058 0.055147 0.015414 0.000074
# 5 0.014919 0.000360 0.012395 0.015414 0.051671 0.009245
# 6 0.004296 -0.003300 0.005706 0.000074 0.009245 0.028053
#
#
# Mechanical properties :
#
#
# Convention : Reuss Voigt Hill
#
# Bulk Modulus (GPa) = 20.09827 47.21324 33.65575
# Shear Modulus (GPa) = 22.90307 32.02427 27.46367
#
# Velocity S-wave (km/s) = 3.20334 3.78787 3.50780
# Velocity P-wave (km/s) = 4.76304 6.34696 5.61117
#
# Compressibility (1/GPa) = 0.04975553
#
# Stress axis : x y z
#
# Youngs Moduli (GPa) = 44.68279 55.33382 56.01317
#
# Poissons Ratio (x) = -0.07223 0.06664
# Poissons Ratio (y) = -0.05833 0.24592
# Poissons Ratio (z) = 0.05316 0.24294
#
# Static dielectric constant tensor:
#      x y z
#    x 1.971640 0.084240 0.094100 
#    y 0.084240 1.935460 0.026720 
#    z 0.094100 0.026720 1.870760 
# 
# From -- ./inp_files/442143.got.cif
#   From: 2010.05.17/outbox.cif.g08.bks.cpg/sg2_222_cif.got.tgz:442143.got - 2010.06.03 11:33:40.
