data_PCOD9004533
_publ_section_title
;
Structure prediction by ZEFSAII (Michael W. Deem and Ramdas Pophale) SiO2 
 PCOD9004533
Probable space group: P -1
;
_chemical_formula_sum "Si O2"
_cell_formula_units_Z 16
_cell_length_a 9.641216
_cell_length_b 5.191188
_cell_length_c 19.405125
_cell_angle_alpha 118.480108
_cell_angle_beta 129.712204
_cell_angle_gamma 56.780158
_cell_volume 612.766362
_symmetry_space_group_name_H-M "P -1"
_symmetry_group_IT_number 2
_symmetry_cell_setting 'triclinic'
loop_
_space_group_symop_operation_xyz
x,y,z
-x,-y,-z
loop_
_atom_site_type_symbol
_atom_site_label
_atom_site_fract_x
_atom_site_fract_y
_atom_site_fract_z
Si Si1 0.841874 0.671056 0.255244
Si Si2 0.620552 0.274355 0.069115
Si Si3 0.022531 0.737439 0.094935
Si Si4 0.230038 0.421856 0.637125
Si Si5 0.281781 0.389911 0.368070
Si Si6 0.449608 0.786540 0.821837
Si Si7 0.216561 0.112180 0.450953
Si Si8 0.736801 0.816888 0.805287
O O1 0.709858 0.473703 0.172098
O O2 0.809932 0.779712 0.338320
O O3 0.058769 0.451950 0.287022
O O4 0.765259 0.952129 0.214256
O O5 0.813662 0.000767 0.072203
O O6 0.500000 0.500000 0.000000
O O7 0.513476 0.786215 0.921184
O O8 0.109474 0.518676 0.161474
O O9 0.165429 0.921463 0.141245
O O10 0.000000 0.500000 0.000000
O O11 0.410008 0.514794 0.730888
O O12 0.268151 0.250459 0.554816
O O13 0.019867 0.713429 0.604700
O O14 0.309727 0.204584 0.424643
O O15 0.372710 0.228982 0.304863
O O16 0.281835 0.736825 0.425535
O O17 0.587373 0.900368 0.831983
#
# Coordination Sequence:
#
# PCOD9004533 Si02
#       8
#     2   2   2   2   2   2   2   2
#     4  10  21  41  72  97 143 191 249 299 369 435
#     4  11  27  50  78 110 146 195 255 313 370 453
#     4  12  29  53  79 109 149 197 251 313 380 454
#     4   9  21  37  65 106 142 183 249 309 361 431
#     4  11  21  42  69 102 138 198 241 298 372 443
#     4  11  25  45  73 106 147 198 247 309 376 438
#     4  10  21  37  69 104 142 188 247 308 361 437
#     4  12  28  49  75 106 153 198 246 307 383 456
#
# _framework density 26.111091999999999
#
# number of rings (size 3 to 8) (size 9 to 14) (size 15 to 20)
#    0.000    1.250    2.500    1.875    8.750    3.000 
#    0.000    1.875    0.000    0.000    0.000    0.000 
#    0.000    0.000    0.000    0.000    0.000    0.000 
#
# Total GULP energy -89542.425838 kJ/mol
# GULP energy per Si atom -5596.401615 kJ/mol
# Density = 2.605166 g / cm^3
# Si number density = 26.111092 Si / 1000 Ang^3
#
#
#
# Elastic Constant Matrix: (Units=GPa)
#
#
# Indices 1 2 3 4 5 6 
#
# 1 157.4972 58.0746 79.2458 1.0437 -34.8916 15.3131
# 2 58.0746 140.6990 33.7616 -10.0768 -19.6704 11.5291
# 3 79.2458 33.7616 106.4980 -6.8160 -23.7227 6.6659
# 4 1.0437 -10.0768 -6.8160 42.2492 -4.9091 -5.2719
# 5 -34.8916 -19.6704 -23.7227 -4.9091 51.6536 -8.1592
# 6 15.3131 11.5291 6.6659 -5.2719 -8.1592 53.8076
#
#
#
# Elastic Compliance Matrix: (Units=1/GPa)
#
#
# Indices 1 2 3 4 5 6 
#
# 1 0.011911 -0.002721 -0.007309 -0.001949 0.003214 -0.001605
# 2 -0.002721 0.008700 -0.000223 0.002201 0.001484 -0.000621
# 3 -0.007309 -0.000223 0.015614 0.003056 0.002579 0.000884
# 4 -0.001949 0.002201 0.003056 0.025523 0.003790 0.002780
# 5 0.003214 0.001484 0.002579 0.003790 0.024030 0.002463
# 6 -0.001605 -0.000621 0.000884 0.002780 0.002463 0.019711
#
#
# Mechanical properties :
#
#
# Convention : Reuss Voigt Hill
#
# Bulk Modulus (GPa) = 63.61720 82.98424 73.30072
# Shear Modulus (GPa) = 38.09982 45.11624 41.60803
#
# Velocity S-wave (km/s) = 3.82402 4.16126 3.99620
# Velocity P-wave (km/s) = 6.62680 7.41204 7.03039
#
# Compressibility (1/GPa) = 0.01571902
#
# Stress axis : x y z
#
# Youngs Moduli (GPa) = 83.95362 114.94127 64.04576
#
# Poissons Ratio (x) = 0.31280 0.46810
# Poissons Ratio (y) = 0.22847 0.01427
# Poissons Ratio (z) = 0.61361 0.02561
#
# Static dielectric constant tensor:
#      x y z
#    x 2.253230 0.156160 0.084210 
#    y 0.156160 2.218590 0.065030 
#    z 0.084210 0.065030 2.081990 
# 
# From -- ./inp_files/609258.got.cif
#   From: 2010.05.17/outbox.cif.g08.bks.cpg/sg2_305_cif.got.tgz:609258.got - 2010.06.03 11:33:40.
