data_PCOD9004295
_publ_section_title
;
Structure prediction by ZEFSAII (Michael W. Deem and Ramdas Pophale) SiO2 
 PCOD9004295
Probable space group: P -1
;
_chemical_formula_sum "Si O2"
_cell_formula_units_Z 14
_cell_length_a 18.457160
_cell_length_b 9.571631
_cell_length_c 19.085203
_cell_angle_alpha 28.874951
_cell_angle_beta 24.767387
_cell_angle_gamma 30.298182
_cell_volume 642.075352
_symmetry_space_group_name_H-M "P -1"
_symmetry_group_IT_number 2
_symmetry_cell_setting 'triclinic'
loop_
_space_group_symop_operation_xyz
x,y,z
-x,-y,-z
loop_
_atom_site_type_symbol
_atom_site_label
_atom_site_fract_x
_atom_site_fract_y
_atom_site_fract_z
Si Si1 0.879168 0.615244 0.623343
Si Si2 0.425323 0.664235 0.674042
Si Si3 0.753011 0.891373 0.260927
Si Si4 0.524423 0.216419 0.656992
Si Si5 0.341090 0.761736 0.949573
Si Si6 0.563758 0.675279 0.050618
Si Si7 0.024230 0.328051 0.338377
O O1 0.010878 0.583890 0.588209
O O2 0.000000 0.500000 0.500000
O O3 0.731568 0.967520 0.594583
O O4 0.770517 0.380713 0.838514
O O5 0.556788 0.838637 0.452712
O O6 0.437674 0.393888 0.727362
O O7 0.241996 0.916251 0.756503
O O8 0.494892 0.514156 0.754033
O O9 0.896117 0.557739 0.294188
O O10 0.769355 0.059521 0.100988
O O11 0.500000 0.500000 0.500000
O O12 0.418264 0.999345 0.815165
O O13 0.487876 0.457672 0.917557
O O14 0.774465 0.653907 0.860469
O O15 0.500000 0.000000 0.000000
O O16 0.000000 0.000000 0.500000
#
# Coordination Sequence:
#
# PCOD9004295 Si02
#       7
#     2   2   2   2   2   2   2
#     4  11  27  44  65  98 135 177 219 273 335 388
#     4  10  21  37  65  94 127 166 224 260 323 402
#     4  10  21  41  66  99 125 175 215 276 333 381
#     4  12  24  43  68  96 133 180 221 268 327 402
#     4  10  23  44  70  93 137 169 223 275 322 400
#     4  10  21  39  64  95 125 168 218 269 328 386
#     4  11  24  41  67  93 136 167 221 281 329 389
#
# _framework density 21.804295
#
# number of rings (size 3 to 8) (size 9 to 14) (size 15 to 20)
#    0.000    1.429    1.429    3.857    2.000    7.429 
#    0.000    0.714    0.000    0.000    0.000    0.000 
#    0.000    0.000    0.000    0.000    0.000    0.000 
#
# Total GULP energy -77958.496603 kJ/mol
# GULP energy per Si atom -5568.464043 kJ/mol
# Density = 2.175467 g / cm^3
# Si number density = 21.804295 Si / 1000 Ang^3
#
#
#
# Elastic Constant Matrix: (Units=GPa)
#
#
# Indices 1 2 3 4 5 6 
#
# 1 106.2255 49.5212 48.6199 -2.7797 8.8565 34.5028
# 2 49.5212 105.4229 42.3800 -24.4029 5.2315 24.8671
# 3 48.6199 42.3800 123.2679 -25.0623 18.6570 20.2127
# 4 -2.7797 -24.4029 -25.0623 34.8269 14.3902 2.3683
# 5 8.8565 5.2315 18.6570 14.3902 41.2788 -12.2212
# 6 34.5028 24.8671 20.2127 2.3683 -12.2212 54.1979
#
#
#
# Elastic Compliance Matrix: (Units=1/GPa)
#
#
# Indices 1 2 3 4 5 6 
#
# 1 0.015725 -0.005321 -0.004199 -0.004696 -0.000944 -0.006011
# 2 -0.005321 0.018730 0.004055 0.022136 -0.013992 -0.010841
# 3 -0.004199 0.004055 0.018321 0.024720 -0.019945 -0.011598
# 4 -0.004696 0.022136 0.024720 0.085361 -0.052167 -0.031879
# 5 -0.000944 -0.013992 -0.019945 -0.052167 0.062532 0.030839
# 6 -0.006011 -0.010841 -0.011598 -0.031879 0.030839 0.039924
#
#
# Mechanical properties :
#
#
# Convention : Reuss Voigt Hill
#
# Bulk Modulus (GPa) = 23.89730 68.43983 46.16856
# Shear Modulus (GPa) = 18.83446 39.02040 28.92743
#
# Velocity S-wave (km/s) = 2.94223 4.23493 3.64632
# Velocity P-wave (km/s) = 4.74615 7.44105 6.24080
#
# Compressibility (1/GPa) = 0.04184573
#
# Stress axis : x y z
#
# Youngs Moduli (GPa) = 63.59484 53.38918 54.58238
#
# Poissons Ratio (x) = 0.28407 0.22921
# Poissons Ratio (y) = 0.33838 -0.22133
# Poissons Ratio (z) = 0.26705 -0.21649
#
# Static dielectric constant tensor:
#      x y z
#    x 1.833040 -0.080130 0.014690 
#    y -0.080130 1.952790 -0.036360 
#    z 0.014690 -0.036360 1.800320 
# 
# From -- ./inp_files/405377.got.cif
#   From: 2010.05.17/outbox.cif.g08.bks.cpg/sg2_203_cif.got.tgz:405377.got - 2010.06.03 11:33:40.
