data_PCOD9004956
_publ_section_title
;
Structure prediction by ZEFSAII (Michael W. Deem and Ramdas Pophale) SiO2 
 PCOD9004956
Probable space group: P -1
;
_chemical_formula_sum "Si O2"
_cell_formula_units_Z 14
_cell_length_a 14.575272
_cell_length_b 8.050095
_cell_length_c 5.651619
_cell_angle_alpha 59.671215
_cell_angle_beta 90.737247
_cell_angle_gamma 98.209485
_cell_volume 565.135826
_symmetry_space_group_name_H-M "P -1"
_symmetry_group_IT_number 2
_symmetry_cell_setting 'triclinic'
loop_
_space_group_symop_operation_xyz
x,y,z
-x,-y,-z
loop_
_atom_site_type_symbol
_atom_site_label
_atom_site_fract_x
_atom_site_fract_y
_atom_site_fract_z
Si Si1 0.880473 0.761849 0.658397
Si Si2 0.401454 0.206498 0.302370
Si Si3 0.600410 0.447980 0.607260
Si Si4 0.108359 0.579922 0.401064
Si Si5 0.608549 0.194300 0.164724
Si Si6 0.101125 0.788596 0.742200
Si Si7 0.281079 0.432384 0.899602
O O1 0.855774 0.617842 0.538853
O O2 0.817100 0.674905 0.937825
O O3 0.988263 0.761275 0.730257
O O4 0.865640 0.979866 0.441257
O O5 0.372643 0.377809 0.333272
O O6 0.512381 0.240026 0.245118
O O7 0.346476 0.257896 0.033071
O O8 0.374370 0.004696 0.579658
O O9 0.500000 0.500000 0.500000
O O10 0.587957 0.226874 0.865251
O O11 0.683121 0.469037 0.413875
O O12 0.136303 0.689387 0.574064
O O13 0.000000 0.500000 0.500000
O O14 0.119242 0.709059 0.064439
O O15 0.691857 0.367889 0.089409
#
# Coordination Sequence:
#
# PCOD9004956 Si02
#       7
#     2   2   2   2   2   2   2
#     4  10  23  41  67  94 128 170 210 273 328 383
#     4  10  21  38  60  83 119 160 208 254 311 382
#     4  11  19  37  60  84 118 160 207 253 311 376
#     4  10  21  43  70  97 128 170 222 269 325 404
#     4  10  21  38  60  84 116 165 206 254 314 377
#     4  10  23  45  69  97 130 176 223 263 332 406
#     4  11  22  41  57  90 124 156 208 267 309 374
#
# _framework density 24.772805999999999
#
# number of rings (size 3 to 8) (size 9 to 14) (size 15 to 20)
#    0.000    1.714    2.857    2.571    0.000    9.143 
#   23.143    0.000    0.000    0.000    0.000    0.000 
#    0.000    0.000    0.000    0.000    0.000    0.000 
#
# Total GULP energy -78063.831870 kJ/mol
# GULP energy per Si atom -5575.987991 kJ/mol
# Density = 2.471642 g / cm^3
# Si number density = 24.772806 Si / 1000 Ang^3
#
#
#
# Elastic Constant Matrix: (Units=GPa)
#
#
# Indices 1 2 3 4 5 6 
#
# 1 95.3956 25.0139 39.5058 -2.3243 -24.9914 -3.3354
# 2 25.0139 100.4222 89.4714 -16.4495 -5.5814 -12.0175
# 3 39.5058 89.4714 186.7867 -14.9646 -28.3070 -1.6615
# 4 -2.3243 -16.4495 -14.9646 38.4447 -1.0869 -8.4792
# 5 -24.9914 -5.5814 -28.3070 -1.0869 41.3355 5.6961
# 6 -3.3354 -12.0175 -1.6615 -8.4792 5.6961 17.9142
#
#
#
# Elastic Compliance Matrix: (Units=1/GPa)
#
#
# Indices 1 2 3 4 5 6 
#
# 1 0.013337 -0.003164 -0.000223 -0.000990 0.007818 -0.002614
# 2 -0.003164 0.025406 -0.011859 0.010998 -0.009567 0.023602
# 3 -0.000223 -0.011859 0.011975 -0.002540 0.007856 -0.010587
# 4 -0.000990 0.010998 -0.002540 0.034996 -0.003319 0.024578
# 5 0.007818 -0.009567 0.007856 -0.003319 0.035265 -0.017018
# 6 -0.002614 0.023602 -0.010587 0.024578 -0.017018 0.087231
#
#
# Mechanical properties :
#
#
# Convention : Reuss Voigt Hill
#
# Bulk Modulus (GPa) = 49.44218 76.73187 63.08703
# Shear Modulus (GPa) = 20.37123 34.77979 27.57551
#
# Velocity S-wave (km/s) = 2.87073 3.75100 3.33999
# Velocity P-wave (km/s) = 5.56684 7.05701 6.35575
#
# Compressibility (1/GPa) = 0.02022564
#
# Stress axis : x y z
#
# Youngs Moduli (GPa) = 74.97807 39.36002 83.51050
#
# Poissons Ratio (x) = 0.12452 0.01864
# Poissons Ratio (y) = 0.23721 0.99038
# Poissons Ratio (z) = 0.01674 0.46679
#
# Static dielectric constant tensor:
#      x y z
#    x 2.548800 0.320020 0.729000 
#    y 0.320020 2.111930 0.394000 
#    z 0.729000 0.394000 2.740790 
# 
# From -- ./inp_files/104396.got.cif
#   From: 2010.05.17/outbox.cif.g08.bks.cpg/sg2_53_cif.got.tgz:104396.got - 2010.06.03 11:33:40.
