data_PCOD9004821
_publ_section_title
;
Structure prediction by ZEFSAII (Michael W. Deem and Ramdas Pophale) SiO2 
 PCOD9004821
Probable space group: P -1
;
_chemical_formula_sum "Si O2"
_cell_formula_units_Z 16
_cell_length_a 7.968635
_cell_length_b 12.705266
_cell_length_c 10.535633
_cell_angle_alpha 118.078143
_cell_angle_beta 137.086135
_cell_angle_gamma 63.799592
_cell_volume 632.437728
_symmetry_space_group_name_H-M "P -1"
_symmetry_group_IT_number 2
_symmetry_cell_setting 'triclinic'
loop_
_space_group_symop_operation_xyz
x,y,z
-x,-y,-z
loop_
_atom_site_type_symbol
_atom_site_label
_atom_site_fract_x
_atom_site_fract_y
_atom_site_fract_z
Si Si1 0.340829 0.769096 0.778071
Si Si2 0.590449 0.055035 0.868061
Si Si3 0.789219 0.833916 0.480600
Si Si4 0.966703 0.397870 0.818591
Si Si5 0.511853 0.573211 0.921978
Si Si6 0.931537 0.834624 0.857877
Si Si7 0.268170 0.366833 0.279710
Si Si8 0.555165 0.323994 0.670812
O O1 0.294297 0.675818 0.812554
O O2 0.558019 0.691301 0.771457
O O3 0.077233 0.795067 0.573623
O O4 0.425489 0.880120 0.965695
O O5 0.353088 0.077212 0.654552
O O6 0.708125 0.914589 0.859221
O O7 0.813026 0.112691 0.956339
O O8 0.846570 0.864069 0.678681
O O9 0.590669 0.742227 0.344179
O O10 0.799993 0.487864 0.678987
O O11 0.839100 0.296544 0.758996
O O12 0.000000 0.500000 0.000000
O O13 0.242310 0.362124 0.896896
O O14 0.528173 0.464339 0.770188
O O15 0.500000 0.500000 0.000000
O O16 0.968583 0.701807 0.869215
O O17 0.405216 0.320092 0.456738
#
# Coordination Sequence:
#
# PCOD9004821 Si02
#       8
#     2   2   2   2   2   2   2   2
#     4  11  24  39  57  94 125 156 202 252 295 356
#     4  10  21  42  64  90 118 157 199 254 310 346
#     4  10  22  39  63  90 125 153 205 248 298 362
#     4  10  21  38  59  84 120 158 205 234 292 364
#     4  11  24  38  58  88 122 159 202 248 293 354
#     4   9  22  40  68  88 115 157 205 250 301 364
#     4  11  22  41  59  86 123 156 205 246 291 364
#     4  10  22  38  59  85 115 169 193 239 299 347
#
# _framework density 25.298932000000001
#
# number of rings (size 3 to 8) (size 9 to 14) (size 15 to 20)
#    0.000    1.750    2.500    1.500    8.750    3.000 
#    0.000    0.625    0.000    0.000    0.000    0.000 
#    0.000    0.000    0.000    0.000    0.000    0.000 
#
# Total GULP energy -89158.627369 kJ/mol
# GULP energy per Si atom -5572.414211 kJ/mol
# Density = 2.524135 g / cm^3
# Si number density = 25.298932 Si / 1000 Ang^3
#
#
#
# Elastic Constant Matrix: (Units=GPa)
#
#
# Indices 1 2 3 4 5 6 
#
# 1 78.2698 8.0810 12.3545 -4.2607 -3.0818 -2.2925
# 2 8.0810 54.5325 16.3046 -5.9704 -0.2758 -7.4637
# 3 12.3545 16.3046 84.0109 -27.3743 7.6203 -1.8463
# 4 -4.2607 -5.9704 -27.3743 40.2114 -5.9356 4.2238
# 5 -3.0818 -0.2758 7.6203 -5.9356 32.6307 2.5177
# 6 -2.2925 -7.4637 -1.8463 4.2238 2.5177 31.9821
#
#
#
# Elastic Compliance Matrix: (Units=1/GPa)
#
#
# Indices 1 2 3 4 5 6 
#
# 1 0.013283 -0.001358 -0.001764 0.000212 0.001664 0.000374
# 2 -0.001358 0.020241 -0.003693 -0.000029 0.000563 0.004373
# 3 -0.001764 -0.003693 0.016375 0.010237 -0.002065 -0.001232
# 4 0.000212 -0.000029 0.010237 0.032859 0.003919 -0.004049
# 5 0.001664 0.000563 -0.002065 0.003919 0.032228 -0.002923
# 6 0.000374 0.004373 -0.001232 -0.004049 -0.002923 0.033008
#
#
# Mechanical properties :
#
#
# Convention : Reuss Voigt Hill
#
# Bulk Modulus (GPa) = 27.57117 32.25480 29.91299
# Shear Modulus (GPa) = 28.78274 32.96970 30.87622
#
# Velocity S-wave (km/s) = 3.37665 3.61391 3.49729
# Velocity P-wave (km/s) = 5.11118 5.49463 5.30637
#
# Compressibility (1/GPa) = 0.03626976
#
# Stress axis : x y z
#
# Youngs Moduli (GPa) = 75.28451 49.40402 61.06820
#
# Poissons Ratio (x) = 0.06710 0.10770
# Poissons Ratio (y) = 0.10226 0.22552
# Poissons Ratio (z) = 0.13277 0.18245
#
# Static dielectric constant tensor:
#      x y z
#    x 2.207410 0.012010 0.067510 
#    y 0.012010 2.199160 0.016860 
#    z 0.067510 0.016860 2.173800 
# 
# From -- ./inp_files/285177.got.cif
#   From: 2010.05.17/outbox.cif.g08.bks.cpg/sg2_143_cif.got.tgz:285177.got - 2010.06.03 11:33:40.
