data_PCOD9004691
_publ_section_title
;
Structure prediction by ZEFSAII (Michael W. Deem and Ramdas Pophale) SiO2 
 PCOD9004691
Probable space group: P -1
;
_chemical_formula_sum "Si O2"
_cell_formula_units_Z 16
_cell_length_a 11.144792
_cell_length_b 10.683943
_cell_length_c 19.050135
_cell_angle_alpha 35.120458
_cell_angle_beta 139.468888
_cell_angle_gamma 115.613742
_cell_volume 731.187334
_symmetry_space_group_name_H-M "P -1"
_symmetry_group_IT_number 2
_symmetry_cell_setting 'triclinic'
loop_
_space_group_symop_operation_xyz
x,y,z
-x,-y,-z
loop_
_atom_site_type_symbol
_atom_site_label
_atom_site_fract_x
_atom_site_fract_y
_atom_site_fract_z
Si Si1 0.025148 0.900214 0.976712
Si Si2 0.541659 0.126082 0.817403
Si Si3 0.523469 0.662675 0.087674
Si Si4 0.194929 0.551672 0.550128
Si Si5 0.941958 0.252893 0.398510
Si Si6 0.438615 0.776433 0.374177
Si Si7 0.039802 0.950693 0.714732
Si Si8 0.864367 0.647160 0.690327
O O1 0.241504 0.885306 0.054570
O O2 0.054979 0.624392 0.116283
O O3 0.794271 0.091003 0.756142
O O4 0.000000 0.000000 0.000000
O O5 0.334367 0.397746 0.616104
O O6 0.561877 0.080795 0.763349
O O7 0.524522 0.911432 0.949283
O O8 0.632388 0.575987 0.251521
O O9 0.689849 0.436052 0.215280
O O10 0.277627 0.738667 0.939182
O O11 0.000000 0.500000 0.500000
O O12 0.092428 0.852297 0.373208
O O13 0.029714 0.386581 0.324886
O O14 0.000000 0.000000 0.500000
O O15 0.048862 0.139975 0.573094
O O16 0.500000 0.500000 0.500000
O O17 0.614528 0.765029 0.509753
O O18 0.922204 0.819112 0.685226
#
# Coordination Sequence:
#
# PCOD9004691 Si02
#       8
#     2   2   2   2   2   2   2   2
#     4  10  21  38  57  91 119 159 209 246 307 364
#     4  11  22  39  66  92 124 163 209 258 312 366
#     4  11  22  39  61  92 126 162 207 257 313 363
#     4  11  24  42  63  94 122 163 216 256 309 369
#     4   9  20  34  58  88 127 161 200 243 314 371
#     4  11  22  38  63  93 124 161 204 256 309 362
#     4  10  23  40  60  92 127 165 205 256 314 371
#     4  11  21  38  61  90 128 163 201 258 309 373
#
# _framework density 21.882216
#
# number of rings (size 3 to 8) (size 9 to 14) (size 15 to 20)
#    0.000    1.500    3.750    2.625    1.750    5.000 
#    0.000    0.625    0.000    1.500    0.000    0.000 
#    0.000    0.000    0.000    0.000    0.000    0.000 
#
# Total GULP energy -89384.140243 kJ/mol
# GULP energy per Si atom -5586.508765 kJ/mol
# Density = 2.183241 g / cm^3
# Si number density = 21.882216 Si / 1000 Ang^3
#
#
#
# Elastic Constant Matrix: (Units=GPa)
#
#
# Indices 1 2 3 4 5 6 
#
# 1 67.0992 33.1987 30.4346 5.5426 29.0955 -2.7977
# 2 33.1987 136.4945 56.2086 6.3077 26.8943 15.3370
# 3 30.4346 56.2086 130.7269 15.8831 42.6457 10.1154
# 4 5.5426 6.3077 15.8831 38.9516 6.9710 9.2371
# 5 29.0955 26.8943 42.6457 6.9710 42.6161 0.3641
# 6 -2.7977 15.3370 10.1154 9.2371 0.3641 30.8031
#
#
#
# Elastic Compliance Matrix: (Units=1/GPa)
#
#
# Indices 1 2 3 4 5 6 
#
# 1 0.022524 -0.003419 0.000482 -0.001421 -0.013505 0.004176
# 2 -0.003419 0.010088 -0.002918 0.001410 -0.001302 -0.004783
# 3 0.000482 -0.002918 0.012770 -0.002424 -0.010854 -0.001842
# 4 -0.001421 0.001410 -0.002424 0.029096 -0.002179 -0.008735
# 5 -0.013505 -0.001302 -0.010854 -0.002179 0.044698 0.003111
# 6 0.004176 -0.004783 -0.001842 -0.008735 0.003111 0.038412
#
#
# Mechanical properties :
#
#
# Convention : Reuss Voigt Hill
#
# Bulk Modulus (GPa) = 29.69949 63.77826 46.73887
# Shear Modulus (GPa) = 27.69699 36.77274 32.23487
#
# Velocity S-wave (km/s) = 3.56157 4.10382 3.84227
# Velocity P-wave (km/s) = 5.52403 7.18781 6.41013
#
# Compressibility (1/GPa) = 0.03367061
#
# Stress axis : x y z
#
# Youngs Moduli (GPa) = 44.39641 99.12353 78.30954
#
# Poissons Ratio (x) = 0.33893 -0.03771
# Poissons Ratio (y) = 0.15180 0.22853
# Poissons Ratio (z) = -0.02138 0.28927
#
# Static dielectric constant tensor:
#      x y z
#    x 1.866320 -0.014200 -0.012820 
#    y -0.014200 1.785520 0.013570 
#    z -0.012820 0.013570 1.829070 
# 
# From -- ./inp_files/594907.got.cif
#   From: 2010.05.17/outbox.cif.g08.bks.cpg/sg2_298_cif.got.tgz:594907.got - 2010.06.03 11:33:40.
