data_PCOD9004557
_publ_section_title
;
Structure prediction by ZEFSAII (Michael W. Deem and Ramdas Pophale) SiO2 
 PCOD9004557
Probable space group: P -1
;
_chemical_formula_sum "Si O2"
_cell_formula_units_Z 16
_cell_length_a 8.218725
_cell_length_b 5.884713
_cell_length_c 15.992046
_cell_angle_alpha 65.510764
_cell_angle_beta 81.114378
_cell_angle_gamma 84.920045
_cell_volume 695.166247
_symmetry_space_group_name_H-M "P -1"
_symmetry_group_IT_number 2
_symmetry_cell_setting 'triclinic'
loop_
_space_group_symop_operation_xyz
x,y,z
-x,-y,-z
loop_
_atom_site_type_symbol
_atom_site_label
_atom_site_fract_x
_atom_site_fract_y
_atom_site_fract_z
Si Si1 0.192496 0.891376 0.267157
Si Si2 0.912435 0.270081 0.211154
Si Si3 0.844802 0.588035 0.553501
Si Si4 0.783129 0.045753 0.094626
Si Si5 0.362743 0.405466 0.741415
Si Si6 0.355660 0.203993 0.327275
Si Si7 0.417631 0.245617 0.574636
Si Si8 0.130345 0.737309 0.111812
O O1 0.217168 0.678931 0.367602
O O2 0.209486 0.784801 0.188703
O O3 0.318169 0.100054 0.254371
O O4 0.008310 0.015048 0.267050
O O5 0.798029 0.225851 0.146019
O O6 0.793718 0.402620 0.267677
O O7 0.056323 0.463405 0.149864
O O8 0.818941 0.737964 0.620558
O O9 0.736250 0.758427 0.473889
O O10 0.000000 0.500000 0.500000
O O11 0.662958 0.820176 0.157525
O O12 0.760772 0.187572 0.987407
O O13 0.965889 0.915443 0.097352
O O14 0.525021 0.562967 0.717848
O O15 0.364038 0.284595 0.668382
O O16 0.460394 0.992139 0.401296
O O17 0.500000 0.500000 0.500000
#
# Coordination Sequence:
#
# PCOD9004557 Si02
#       8
#     2   2   2   2   2   2   2   2
#     4  11  24  42  63 100 139 177 224 283 336 400
#     4  10  21  37  70 101 136 177 223 280 344 395
#     4  12  29  43  69  98 136 175 231 282 337 396
#     4   9  19  38  64 100 134 178 227 279 332 408
#     4  11  24  40  68  98 136 177 235 275 329 408
#     4  12  25  46  67  96 139 188 220 274 342 401
#     4  12  25  46  67  96 133 183 228 274 336 406
#     4   9  19  38  64  97 140 176 223 280 340 399
#
# _framework density 23.016074
#
# number of rings (size 3 to 8) (size 9 to 14) (size 15 to 20)
#    0.000    1.250    2.500    2.250    8.750    1.500 
#    0.000    0.625    0.000    7.500    0.000    0.000 
#    0.000    0.000    0.000    0.000    0.000    0.000 
#
# Total GULP energy -89359.495056 kJ/mol
# GULP energy per Si atom -5584.968441 kJ/mol
# Density = 2.296369 g / cm^3
# Si number density = 23.016074 Si / 1000 Ang^3
#
#
#
# Elastic Constant Matrix: (Units=GPa)
#
#
# Indices 1 2 3 4 5 6 
#
# 1 70.2602 39.7101 53.8914 -0.3388 3.6493 -1.4066
# 2 39.7101 97.9842 41.6336 8.5640 -4.2860 -2.1023
# 3 53.8914 41.6336 116.3880 1.8429 -8.0221 11.3848
# 4 -0.3388 8.5640 1.8429 23.2247 1.1755 3.5830
# 5 3.6493 -4.2860 -8.0221 1.1755 30.1440 4.1920
# 6 -1.4066 -2.1023 11.3848 3.5830 4.1920 54.0826
#
#
#
# Elastic Compliance Matrix: (Units=1/GPa)
#
#
# Indices 1 2 3 4 5 6 
#
# 1 0.026989 -0.006893 -0.010925 0.003717 -0.007729 0.003087
# 2 -0.006893 0.014367 -0.001779 -0.005526 0.002490 0.000927
# 3 -0.010925 -0.001779 0.015067 -0.000377 0.005642 -0.003937
# 4 0.003717 -0.005526 -0.000377 0.045758 -0.002723 -0.002859
# 5 -0.007729 0.002490 0.005642 -0.002723 0.036621 -0.003950
# 6 0.003087 0.000927 -0.003937 -0.002859 -0.003950 0.019931
#
#
# Mechanical properties :
#
#
# Convention : Reuss Voigt Hill
#
# Bulk Modulus (GPa) = 58.03954 61.67805 59.85879
# Shear Modulus (GPa) = 24.54955 31.45008 27.99981
#
# Velocity S-wave (km/s) = 3.26947 3.70055 3.49167
# Velocity P-wave (km/s) = 6.28683 6.71675 6.50534
#
# Compressibility (1/GPa) = 0.01722963
#
# Stress axis : x y z
#
# Youngs Moduli (GPa) = 37.05185 69.60413 66.37088
#
# Poissons Ratio (x) = 0.47976 0.72508
# Poissons Ratio (y) = 0.25539 0.11809
# Poissons Ratio (z) = 0.40478 0.12384
#
# Static dielectric constant tensor:
#      x y z
#    x 1.918270 -0.003870 0.001060 
#    y -0.003870 1.901630 0.010490 
#    z 0.001060 0.010490 1.848040 
# 
# From -- ./inp_files/488142.got.cif
#   From: 2010.05.17/outbox.cif.g08.bks.cpg/sg2_245_cif.got.tgz:488142.got - 2010.06.03 11:33:40.
