data_PCOD9004502
_publ_section_title
;
Structure prediction by ZEFSAII (Michael W. Deem and Ramdas Pophale) SiO2 
 PCOD9004502
Probable space group: P -1
;
_chemical_formula_sum "Si O2"
_cell_formula_units_Z 16
_cell_length_a 19.171128
_cell_length_b 11.220316
_cell_length_c 7.912131
_cell_angle_alpha 54.712647
_cell_angle_beta 118.246144
_cell_angle_gamma 151.977531
_cell_volume 649.695606
_symmetry_space_group_name_H-M "P -1"
_symmetry_group_IT_number 2
_symmetry_cell_setting 'triclinic'
loop_
_space_group_symop_operation_xyz
x,y,z
-x,-y,-z
loop_
_atom_site_type_symbol
_atom_site_label
_atom_site_fract_x
_atom_site_fract_y
_atom_site_fract_z
Si Si1 0.586976 0.314827 0.635964
Si Si2 0.236278 0.569067 0.972738
Si Si3 0.731431 0.905785 0.780447
Si Si4 0.354738 0.637323 0.716950
Si Si5 0.547465 0.694226 0.073486
Si Si6 0.925784 0.011290 0.114567
Si Si7 0.210796 0.077989 0.646050
Si Si8 0.748239 0.103389 0.355316
O O1 0.587512 0.247410 0.502181
O O2 0.691895 0.623995 0.502861
O O3 0.427766 0.126184 0.665459
O O4 0.652394 0.303718 0.855519
O O5 0.309378 0.673053 0.786689
O O6 0.175829 0.639567 0.856940
O O7 0.096980 0.240901 0.096980
O O8 0.595771 0.614811 0.761132
O O9 0.761370 0.109609 0.571937
O O10 0.641228 0.767408 0.968768
O O11 0.873067 0.032586 0.884582
O O12 0.198390 0.308146 0.769826
O O13 0.474890 0.721533 0.882262
O O14 0.678753 0.885587 0.203794
O O15 0.907929 0.066845 0.228956
O O16 0.165767 0.919512 0.558799
#
# Coordination Sequence:
#
# PCOD9004502 Si02
#       8
#     2   2   2   2   2   2   2   2
#     4  11  23  42  65  94 122 160 210 252 304 368
#     4  12  27  41  58  91 138 165 192 247 313 381
#     4   9  17  34  63  86 117 149 207 258 291 350
#     4  10  21  41  67  89 118 167 209 251 303 356
#     4   9  15  35  63  91 113 149 208 264 293 334
#     4   9  22  43  62  90 116 165 216 246 296 364
#     4  10  21  37  68  92 114 160 212 262 297 347
#     4  12  23  39  60  98 124 156 202 257 318 359
#
# _framework density 24.626918
#
# number of rings (size 3 to 8) (size 9 to 14) (size 15 to 20)
#    0.000    1.750    2.500    3.375    3.500    3.500 
#    6.750    0.000    0.000    0.000    0.000    0.000 
#    0.000    0.000    0.000    0.000    0.000    0.000 
#
# Total GULP energy -89104.294441 kJ/mol
# GULP energy per Si atom -5569.018403 kJ/mol
# Density = 2.457087 g / cm^3
# Si number density = 24.626918 Si / 1000 Ang^3
#
#
#
# Elastic Constant Matrix: (Units=GPa)
#
#
# Indices 1 2 3 4 5 6 
#
# 1 97.0317 8.8574 23.5754 -1.3273 -21.1678 -24.0501
# 2 8.8574 -9.8210 -16.0785 -26.2832 21.9923 32.0704
# 3 23.5754 -16.0785 72.0042 -15.3919 5.6735 10.6442
# 4 -1.3273 -26.2832 -15.3919 10.8890 16.5372 10.1741
# 5 -21.1678 21.9923 5.6735 16.5372 9.0157 -19.7184
# 6 -24.0501 32.0704 10.6442 10.1741 -19.7184 15.8749
#
#
#
# Elastic Compliance Matrix: (Units=1/GPa)
#
#
# Indices 1 2 3 4 5 6 
#
# 1 0.011517 0.006653 -0.001185 0.008388 0.002963 0.003105
# 2 0.006653 0.015645 -0.003764 -0.008317 0.020283 0.011522
# 3 -0.001185 -0.003764 0.012703 -0.000087 0.004214 0.002582
# 4 0.008388 -0.008317 -0.000087 0.038236 0.011083 0.018829
# 5 0.002963 0.020283 0.004214 0.011083 0.032681 -0.005822
# 6 0.003105 0.011522 0.002582 0.018829 -0.005822 0.023389
#
#
# Mechanical properties :
#
#
# Convention : Reuss Voigt Hill
#
# Bulk Modulus (GPa) = 23.10864 21.32485 22.21674
# Shear Modulus (GPa) = 34.43829 16.67998 25.55914
#
# Velocity S-wave (km/s) = 3.74358 2.60534 3.22507
# Velocity P-wave (km/s) = 5.29997 4.21050 4.78633
#
# Compressibility (1/GPa) = 0.04327386
#
# Stress axis : x y z
#
# Youngs Moduli (GPa) = 86.82709 63.91882 78.72115
#
# Poissons Ratio (x) = -0.42528 0.09326
# Poissons Ratio (y) = -0.57769 0.29633
# Poissons Ratio (z) = 0.10286 0.24061
#
# Static dielectric constant tensor:
#      x y z
#    x 2.477550 -0.615280 -0.091720 
#    y -0.615280 2.670200 0.083960 
#    z -0.091720 0.083960 1.990340 
# 
# From -- ./inp_files/345080.got.cif
#   From: 2010.05.17/outbox.cif.g08.bks.cpg/sg2_173_cif.got.tgz:345080.got - 2010.06.03 11:33:40.
