data_PCOD9004500
_publ_section_title
;
Structure prediction by ZEFSAII (Michael W. Deem and Ramdas Pophale) SiO2 
 PCOD9004500
Probable space group: P -1
;
_chemical_formula_sum "Si O2"
_cell_formula_units_Z 16
_cell_length_a 7.568474
_cell_length_b 17.834816
_cell_length_c 17.671227
_cell_angle_alpha 163.714228
_cell_angle_beta 108.462454
_cell_angle_gamma 64.527442
_cell_volume 558.647799
_symmetry_space_group_name_H-M "P -1"
_symmetry_group_IT_number 2
_symmetry_cell_setting 'triclinic'
loop_
_space_group_symop_operation_xyz
x,y,z
-x,-y,-z
loop_
_atom_site_type_symbol
_atom_site_label
_atom_site_fract_x
_atom_site_fract_y
_atom_site_fract_z
Si Si1 0.531912 0.279558 0.104050
Si Si2 0.177782 0.713544 0.203011
Si Si3 0.924304 0.247902 0.476532
Si Si4 0.080277 0.535558 0.463186
Si Si5 0.274147 0.169316 0.590301
Si Si6 0.804788 0.807426 0.094157
Si Si7 0.684976 0.099660 0.108278
Si Si8 0.525512 0.321432 0.661057
O O1 0.328831 0.555015 0.384825
O O2 0.698310 0.119387 0.037442
O O3 0.556673 0.436206 0.183418
O O4 0.420842 0.080494 0.870690
O O5 0.367178 0.577976 0.159380
O O6 0.143474 0.455951 0.906837
O O7 0.221882 0.893588 0.316081
O O8 0.000000 0.000000 0.500000
O O9 0.040237 0.260392 0.428322
O O10 0.919768 0.444543 0.741244
O O11 0.949601 0.927756 0.191354
O O12 0.264601 0.630765 0.599128
O O13 0.000000 0.500000 0.500000
O O14 0.138352 0.198618 0.115156
O O15 0.343065 0.260427 0.610302
O O16 0.500000 0.000000 0.500000
O O17 0.715752 0.998554 0.343687
O O18 0.500000 0.000000 0.000000
#
# Coordination Sequence:
#
# PCOD9004500 Si02
#       8
#     2   2   2   2   2   2   2   2
#     4   9  21  34  62  92 118 153 221 266 309 366
#     4  11  24  41  65  96 134 168 209 257 320 399
#     4   9  18  35  55  86 115 155 204 258 309 381
#     4  12  25  40  62  89 129 165 209 271 345 383
#     4  10  22  39  66  96 121 164 214 264 311 376
#     4   9  19  32  58  88 118 150 207 257 317 364
#     4  12  23  39  68  91 119 165 228 274 309 381
#     4  10  21  37  68  90 125 161 210 264 319 371
#
# _framework density 28.640584
#
# number of rings (size 3 to 8) (size 9 to 14) (size 15 to 20)
#    0.750    1.000    1.250    4.125    8.750    0.000 
#    0.000    0.000   13.750    0.000    0.000    0.000 
#    0.000    0.000    0.000    0.000    0.000    0.000 
#
# Total GULP energy -89241.476979 kJ/mol
# GULP energy per Si atom -5577.592311 kJ/mol
# Density = 2.857540 g / cm^3
# Si number density = 28.640584 Si / 1000 Ang^3
#
#
#
# Elastic Constant Matrix: (Units=GPa)
#
#
# Indices 1 2 3 4 5 6 
#
# 1 95.0867 43.4904 26.2729 -0.0368 4.2170 37.9450
# 2 43.4904 168.9267 59.6831 -17.6210 22.8183 34.5336
# 3 26.2729 59.6831 164.4890 6.9304 17.4885 17.4871
# 4 -0.0368 -17.6210 6.9304 56.4397 0.2215 1.7126
# 5 4.2170 22.8183 17.4885 0.2215 44.5590 3.7591
# 6 37.9450 34.5336 17.4871 1.7126 3.7591 48.2946
#
#
#
# Elastic Compliance Matrix: (Units=1/GPa)
#
#
# Indices 1 2 3 4 5 6 
#
# 1 0.015873 -0.001617 -0.000833 -0.000059 0.000586 -0.011057
# 2 -0.001617 0.008701 -0.002277 0.003129 -0.003087 -0.003997
# 3 -0.000833 -0.002277 0.007295 -0.001596 -0.001595 -0.000178
# 4 -0.000059 0.003129 -0.001596 0.018961 -0.000877 -0.002217
# 5 0.000586 -0.003087 -0.001595 -0.000877 0.024561 0.000444
# 6 -0.011057 -0.003997 -0.000178 -0.002217 0.000444 0.032360
#
#
# Mechanical properties :
#
#
# Convention : Reuss Voigt Hill
#
# Bulk Modulus (GPa) = 44.61588 76.37723 60.49655
# Shear Modulus (GPa) = 40.10366 49.79575 44.94970
#
# Velocity S-wave (km/s) = 3.74604 4.17423 3.96591
# Velocity P-wave (km/s) = 5.85850 7.06807 6.49152
#
# Compressibility (1/GPa) = 0.02241355
#
# Stress axis : x y z
#
# Youngs Moduli (GPa) = 63.00098 114.92580 137.08951
#
# Poissons Ratio (x) = 0.18586 0.11417
# Poissons Ratio (y) = 0.10189 0.31222
# Poissons Ratio (z) = 0.05247 0.26174
#
# Static dielectric constant tensor:
#      x y z
#    x 2.530180 -0.129760 -0.027050 
#    y -0.129760 2.347210 0.015620 
#    z -0.027050 0.015620 2.273640 
# 
# From -- ./inp_files/562139.got.cif
#   From: 2010.05.17/outbox.cif.g08.bks.cpg/sg2_282_cif.got.tgz:562139.got - 2010.06.03 11:33:40.
