data_PCOD9004164
_publ_section_title
;
Structure prediction by ZEFSAII (Michael W. Deem and Ramdas Pophale) SiO2 
 PCOD9004164
Probable space group: P -1
;
_chemical_formula_sum "Si O2"
_cell_formula_units_Z 16
_cell_length_a 5.489281
_cell_length_b 21.218728
_cell_length_c 12.338729
_cell_angle_alpha 148.841916
_cell_angle_beta 115.867079
_cell_angle_gamma 72.875042
_cell_volume 659.411012
_symmetry_space_group_name_H-M "P -1"
_symmetry_group_IT_number 2
_symmetry_cell_setting 'triclinic'
loop_
_space_group_symop_operation_xyz
x,y,z
-x,-y,-z
loop_
_atom_site_type_symbol
_atom_site_label
_atom_site_fract_x
_atom_site_fract_y
_atom_site_fract_z
Si Si1 0.575672 0.687552 0.299818
Si Si2 0.743504 0.129790 0.857887
Si Si3 0.298240 0.333518 0.942370
Si Si4 0.650140 0.847132 0.746375
Si Si5 0.116036 0.598535 0.759310
Si Si6 0.062407 0.496197 0.842366
Si Si7 0.159465 0.085462 0.566006
Si Si8 0.716199 0.129964 0.098966
O O1 0.635867 0.729710 0.250876
O O2 0.513853 0.780425 0.515213
O O3 0.845252 0.633889 0.313441
O O4 0.313591 0.584986 0.077705
O O5 0.481326 0.116706 0.708281
O O6 0.873044 0.005167 0.678692
O O7 0.940324 0.261532 0.066310
O O8 0.625772 0.129054 0.955566
O O9 0.066173 0.219463 0.763957
O O10 0.551363 0.371784 0.127937
O O11 0.199548 0.463050 0.092626
O O12 0.467223 0.808941 0.761274
O O13 0.958906 0.819289 0.774367
O O14 0.688263 0.992175 0.939628
O O15 0.039793 0.537885 0.773725
O O16 0.000000 0.500000 0.500000
O O17 0.000000 0.000000 0.500000
#
# Coordination Sequence:
#
# PCOD9004164 Si02
#       8
#     2   2   2   2   2   2   2   2
#     4  10  22  40  64  91 125 167 216 273 333 395
#     4  10  22  40  61  93 127 171 219 271 334 401
#     4  10  21  40  65  96 125 167 221 274 333 399
#     4  10  23  42  64  96 132 172 217 274 338 399
#     4  10  23  42  61  89 131 172 220 270 331 398
#     4  10  22  41  63  91 124 165 219 272 330 393
#     4  10  21  37  64  94 126 166 217 275 332 393
#     4  10  23  42  64  96 134 170 219 272 336 409
#
# _framework density 24.264078999999999
#
# number of rings (size 3 to 8) (size 9 to 14) (size 15 to 20)
#    0.000    2.000    0.000    1.875    5.250    3.500 
#    0.000    0.000    0.000    0.000    0.000    0.000 
#    0.000    0.000    0.000    0.000    0.000    0.000 
#
# Total GULP energy -89205.292550 kJ/mol
# GULP energy per Si atom -5575.330784 kJ/mol
# Density = 2.420885 g / cm^3
# Si number density = 24.264079 Si / 1000 Ang^3
#
#
#
# Elastic Constant Matrix: (Units=GPa)
#
#
# Indices 1 2 3 4 5 6 
#
# 1 -26.2955 147.7767 20.0817 -36.1256 -177.2006 81.1077
# 2 147.7767 -61.6496 68.6430 2.9266 183.4990 -75.3113
# 3 20.0817 68.6430 145.2112 -25.8207 -64.1615 23.4048
# 4 -36.1256 2.9266 -25.8207 23.9643 -18.6237 1.2149
# 5 -177.2006 183.4990 -64.1615 -18.6237 -217.7705 104.1976
# 6 81.1077 -75.3113 23.4048 1.2149 104.1976 -11.8004
#
#
#
# Elastic Compliance Matrix: (Units=1/GPa)
#
#
# Indices 1 2 3 4 5 6 
#
# 1 0.012944 0.001905 -0.004799 0.008164 -0.007562 0.001357
# 2 0.001905 0.012172 -0.001344 0.005696 0.007220 -0.002916
# 3 -0.004799 -0.001344 0.008812 0.003091 0.001008 0.002291
# 4 0.008164 0.005696 0.003091 0.054291 -0.002377 0.010492
# 5 -0.007562 0.007220 0.001008 -0.002377 0.011946 0.009185
# 6 0.001357 -0.002916 0.002291 0.010492 0.009185 0.029927
#
#
# Mechanical properties :
#
#
# Convention : Reuss Voigt Hill
#
# Bulk Modulus (GPa) = 39.29072 58.91877 49.10474
# Shear Modulus (GPa) = 34.00139 -53.07033 -9.53447
#
# Velocity S-wave (km/s) = 3.74746 -4.68182 -1.98444
# Velocity P-wave (km/s) = 5.91209 2.21154 3.87697
#
# Compressibility (1/GPa) = 0.02545130
#
# Stress axis : x y z
#
# Youngs Moduli (GPa) = 77.25295 82.15480 113.48744
#
# Poissons Ratio (x) = -0.15653 0.54466
# Poissons Ratio (y) = -0.14719 0.15258
# Poissons Ratio (z) = 0.37076 0.11045
#
# Static dielectric constant tensor:
#      x y z
#    x 2.179170 0.080810 -0.015710 
#    y 0.080810 2.263130 0.173180 
#    z -0.015710 0.173180 1.990080 
# 
# From -- ./inp_files/371167.got.cif
#   From: 2010.05.17/outbox.cif.g08.bks.cpg/sg2_186_cif.got.tgz:371167.got - 2010.06.03 11:33:40.
