data_PCOD9004755
_publ_section_title
;
Structure prediction by ZEFSAII (Michael W. Deem and Ramdas Pophale) SiO2 
 PCOD9004755
Probable space group: P -1
;
_chemical_formula_sum "Si O2"
_cell_formula_units_Z 16
_cell_length_a 12.968568
_cell_length_b 12.253523
_cell_length_c 20.859660
_cell_angle_alpha 30.094621
_cell_angle_beta 21.258892
_cell_angle_gamma 30.916354
_cell_volume 577.889486
_symmetry_space_group_name_H-M "P -1"
_symmetry_group_IT_number 2
_symmetry_cell_setting 'triclinic'
loop_
_space_group_symop_operation_xyz
x,y,z
-x,-y,-z
loop_
_atom_site_type_symbol
_atom_site_label
_atom_site_fract_x
_atom_site_fract_y
_atom_site_fract_z
Si Si1 0.271147 0.245704 0.397549
Si Si2 0.315023 0.667037 0.775627
Si Si3 0.388111 0.019752 0.128152
Si Si4 0.760951 0.529146 0.208673
Si Si5 0.105004 0.811848 0.246256
Si Si6 0.849444 0.988117 0.524919
Si Si7 0.812256 0.749320 0.190007
Si Si8 0.117112 0.138745 0.774361
O O1 0.435999 0.363916 0.296692
O O2 0.179752 0.240031 0.378199
O O3 0.971533 0.256192 0.604973
O O4 0.541635 0.008092 0.358575
O O5 0.372412 0.608060 0.696902
O O6 0.114139 0.928292 0.760386
O O7 0.092566 0.520457 0.997981
O O8 0.538339 0.781434 0.196471
O O9 0.044094 0.083482 0.311748
O O10 0.568855 0.186517 0.963421
O O11 0.500000 0.000000 0.000000
O O12 0.801879 0.543842 0.254329
O O13 0.988863 0.707880 0.304984
O O14 0.521012 0.132890 0.656564
O O15 0.000000 0.000000 0.500000
O O16 0.962061 0.711113 0.192293
O O17 0.952205 0.937214 0.981042
#
# Coordination Sequence:
#
# PCOD9004755 Si02
#       8
#     2   2   2   2   2   2   2   2
#     4  10  18  30  53  80 105 129 172 219 259 303
#     4   9  18  31  52  80 101 136 169 217 264 302
#     4  11  20  34  51  78 103 138 176 212 256 300
#     4  10  18  33  52  76 108 133 171 217 256 313
#     4  10  17  32  53  77 106 130 171 222 255 302
#     4  11  20  31  51  77 106 135 175 216 255 298
#     4  10  17  28  48  74 105 130 164 219 258 305
#     4   9  16  27  46  76 103 124 165 215 265 295
#
# _framework density 27.686952000000002
#
# number of rings (size 3 to 8) (size 9 to 14) (size 15 to 20)
#    0.000    2.000    6.250    1.500    0.000    0.000 
#    0.000    0.625    0.000    6.750    0.000    1.750 
#    0.000    0.000    0.000    0.000    0.000    0.000 
#
# Total GULP energy -89211.033499 kJ/mol
# GULP energy per Si atom -5575.689594 kJ/mol
# Density = 2.762394 g / cm^3
# Si number density = 27.686952 Si / 1000 Ang^3
#
#
#
# Elastic Constant Matrix: (Units=GPa)
#
#
# Indices 1 2 3 4 5 6 
#
# 1 163.2958 51.4027 16.5661 -10.4155 0.3636 70.8234
# 2 51.4027 131.6514 41.1133 -4.8315 -0.0791 59.9421
# 3 16.5661 41.1133 161.4633 11.5747 -3.4152 9.1327
# 4 -10.4155 -4.8315 11.5747 37.4301 9.9561 1.9949
# 5 0.3636 -0.0791 -3.4152 9.9561 44.8934 2.1057
# 6 70.8234 59.9421 9.1327 1.9949 2.1057 65.2389
#
#
#
# Elastic Compliance Matrix: (Units=1/GPa)
#
#
# Indices 1 2 3 4 5 6 
#
# 1 0.013080 0.003535 -0.001685 0.005724 -0.000683 -0.017365
# 2 0.003535 0.015736 -0.003749 0.005294 -0.000620 -0.017914
# 3 -0.001685 -0.003749 0.007373 -0.003783 0.001204 0.004318
# 4 0.005724 0.005294 -0.003783 0.032636 -0.007032 -0.011320
# 5 -0.000683 -0.000620 0.001204 -0.007032 0.023903 0.000586
# 6 -0.017365 -0.017914 0.004318 -0.011320 0.000586 0.050362
#
#
# Mechanical properties :
#
#
# Convention : Reuss Voigt Hill
#
# Bulk Modulus (GPa) = 30.87131 74.95273 52.91202
# Shear Modulus (GPa) = 31.70867 52.66771 42.18819
#
# Velocity S-wave (km/s) = 3.38784 4.36622 3.90777
# Velocity P-wave (km/s) = 5.14564 7.24905 6.28595
#
# Compressibility (1/GPa) = 0.03239254
#
# Stress axis : x y z
#
# Youngs Moduli (GPa) = 76.45268 63.54654 135.62492
#
# Poissons Ratio (x) = -0.22465 0.22850
# Poissons Ratio (y) = -0.27028 0.50847
# Poissons Ratio (z) = 0.12880 0.23824
#
# Static dielectric constant tensor:
#      x y z
#    x 2.420580 -0.014070 -0.068940 
#    y -0.014070 2.287500 -0.111670 
#    z -0.068940 -0.111670 2.159130 
# 
# From -- ./inp_files/611868.got.cif
#   From: 2010.05.17/outbox.cif.g08.bks.cpg/sg2_306_cif.got.tgz:611868.got - 2010.06.03 11:33:40.
