data_PCOD9004174
_publ_section_title
;
Structure prediction by ZEFSAII (Michael W. Deem and Ramdas Pophale) SiO2 
 PCOD9004174
Probable space group: P -1
;
_chemical_formula_sum "Si O2"
_cell_formula_units_Z 16
_cell_length_a 18.888252
_cell_length_b 9.374467
_cell_length_c 10.709864
_cell_angle_alpha 87.563728
_cell_angle_beta 24.838103
_cell_angle_gamma 84.203669
_cell_volume 787.008442
_symmetry_space_group_name_H-M "P -1"
_symmetry_group_IT_number 2
_symmetry_cell_setting 'triclinic'
loop_
_space_group_symop_operation_xyz
x,y,z
-x,-y,-z
loop_
_atom_site_type_symbol
_atom_site_label
_atom_site_fract_x
_atom_site_fract_y
_atom_site_fract_z
Si Si1 0.952673 0.401008 0.415497
Si Si2 0.059789 0.872027 0.814504
Si Si3 0.722294 0.585795 0.974315
Si Si4 0.622399 0.917688 0.124282
Si Si5 0.686457 0.878899 0.311079
Si Si6 0.160902 0.563730 0.687848
Si Si7 0.483446 0.367783 0.291843
Si Si8 0.227864 0.852350 0.285678
O O1 0.849205 0.523256 0.662573
O O2 0.870014 0.422621 0.411292
O O3 0.918838 0.241487 0.520511
O O4 0.151405 0.412963 0.109585
O O5 0.150855 0.728662 0.742501
O O6 0.178599 0.897665 0.505107
O O7 0.879592 0.840832 0.047319
O O8 0.000000 0.000000 0.000000
O O9 0.641723 0.749232 0.068691
O O10 0.588434 0.474266 0.194998
O O11 0.678120 0.927044 0.179252
O O12 0.425959 0.994837 0.433337
O O13 0.736221 0.009484 0.855073
O O14 0.589447 0.742515 0.494731
O O15 0.331925 0.463875 0.457397
O O16 0.000000 0.500000 0.000000
O O17 0.605558 0.267741 0.002397
#
# Coordination Sequence:
#
# PCOD9004174 Si02
#       8
#     2   2   2   2   2   2   2   2
#     4   9  21  40  61  93 126 155 208 260 310 368
#     4  11  24  40  62  93 126 161 210 258 303 371
#     4  10  21  37  64  95 121 154 214 265 298 363
#     4  10  21  39  64  91 120 165 205 256 313 368
#     4  10  22  42  59  89 130 162 203 252 319 374
#     4  11  22  41  65  88 127 174 199 250 323 376
#     4  10  22  42  65  94 124 169 209 251 320 371
#     4   9  21  42  65  88 126 168 202 258 314 372
#
# _framework density 20.330151000000001
#
# number of rings (size 3 to 8) (size 9 to 14) (size 15 to 20)
#    0.000    2.000    1.250    1.500    1.750    8.000 
#    0.000    5.000    0.000    0.000    0.000    0.000 
#    0.000    0.000    0.000    0.000    0.000    0.000 
#
# Total GULP energy -89282.953037 kJ/mol
# GULP energy per Si atom -5580.184565 kJ/mol
# Density = 2.028388 g / cm^3
# Si number density = 20.330151 Si / 1000 Ang^3
#
#
#
# Elastic Constant Matrix: (Units=GPa)
#
#
# Indices 1 2 3 4 5 6 
#
# 1 42.4068 31.0284 31.7176 -4.1432 3.2216 -1.3454
# 2 31.0284 144.7004 53.9755 3.8708 15.9742 0.2398
# 3 31.7176 53.9755 113.3731 -6.7557 6.5704 -2.2235
# 4 -4.1432 3.8708 -6.7557 35.6590 -4.1761 7.6551
# 5 3.2216 15.9742 6.5704 -4.1761 38.9208 8.2541
# 6 -1.3454 0.2398 -2.2235 7.6551 8.2541 28.9677
#
#
#
# Elastic Compliance Matrix: (Units=1/GPa)
#
#
# Indices 1 2 3 4 5 6 
#
# 1 0.032163 -0.004557 -0.006685 0.003036 0.000656 0.000029
# 2 -0.004557 0.009555 -0.003214 -0.002859 -0.003571 0.001236
# 3 -0.006685 -0.003214 0.012338 0.001864 -0.000050 0.000185
# 4 0.003036 -0.002859 0.001864 0.031894 0.006122 -0.009865
# 5 0.000656 -0.003571 -0.000050 0.006122 0.029908 -0.010084
# 6 0.000029 0.001236 0.000185 -0.009865 -0.010084 0.040007
#
#
# Mechanical properties :
#
#
# Convention : Reuss Voigt Hill
#
# Bulk Modulus (GPa) = 39.76840 59.32480 49.54660
# Shear Modulus (GPa) = 25.88548 32.96009 29.42279
#
# Velocity S-wave (km/s) = 3.57214 4.03083 3.80840
# Velocity P-wave (km/s) = 6.05123 7.13495 6.61532
#
# Compressibility (1/GPa) = 0.02514559
#
# Stress axis : x y z
#
# Youngs Moduli (GPa) = 31.09161 104.65433 81.04917
#
# Poissons Ratio (x) = 0.47689 0.54183
# Poissons Ratio (y) = 0.14168 0.26045
# Poissons Ratio (z) = 0.20785 0.33631
#
# Static dielectric constant tensor:
#      x y z
#    x 1.741380 0.024430 0.001530 
#    y 0.024430 1.748680 0.014660 
#    z 0.001530 0.014660 1.749810 
# 
# From -- ./inp_files/469971.got.cif
#   From: 2010.05.17/outbox.cif.g08.bks.cpg/sg2_235_cif.got.tgz:469971.got - 2010.06.03 11:33:40.
