data_PCOD9004858
_publ_section_title
;
Structure prediction by ZEFSAII (Michael W. Deem and Ramdas Pophale) SiO2 
 PCOD9004858
Probable space group: P -1
;
_chemical_formula_sum "Si O2"
_cell_formula_units_Z 14
_cell_length_a 14.917086
_cell_length_b 5.782494
_cell_length_c 23.280610
_cell_angle_alpha 83.745497
_cell_angle_beta 165.448566
_cell_angle_gamma 97.868365
_cell_volume 497.547868
_symmetry_space_group_name_H-M "P -1"
_symmetry_group_IT_number 2
_symmetry_cell_setting 'triclinic'
loop_
_space_group_symop_operation_xyz
x,y,z
-x,-y,-z
loop_
_atom_site_type_symbol
_atom_site_label
_atom_site_fract_x
_atom_site_fract_y
_atom_site_fract_z
Si Si1 0.372262 0.336956 0.696022
Si Si2 0.178803 0.998563 0.174882
Si Si3 0.950846 0.573443 0.332040
Si Si4 0.895619 0.447904 0.174340
Si Si5 0.147991 0.043075 0.902752
Si Si6 0.846248 0.504344 0.840383
Si Si7 0.942751 0.942241 0.385352
O O1 0.772448 0.442687 0.958393
O O2 0.143540 0.254336 0.612622
O O3 0.211920 0.495782 0.544787
O O4 0.304678 0.095405 0.625171
O O5 0.915873 0.971328 0.068322
O O6 0.339005 0.751594 0.283216
O O7 0.354578 0.265561 0.290101
O O8 0.000000 0.000000 0.000000
O O9 0.968934 0.441543 0.287853
O O10 0.013250 0.855385 0.367680
O O11 0.535161 0.552339 0.095048
O O12 0.022374 0.720640 0.227283
O O13 0.987399 0.211483 0.204930
O O14 0.580741 0.067745 0.158643
O O15 0.000000 0.500000 0.000000
#
# Coordination Sequence:
#
# PCOD9004858 Si02
#       7
#     2   2   2   2   2   2   2
#     4  11  21  35  56  87 124 158 190 246 305 358
#     4  10  21  38  59  87 117 145 194 245 303 348
#     4  10  22  35  53  81 123 165 197 235 284 353
#     4  10  23  36  57  80 124 161 206 228 282 347
#     4  11  20  38  58  86 118 157 193 245 285 353
#     4  10  22  37  58  86 118 150 192 242 298 357
#     4  10  22  33  56  87 128 156 191 241 309 352
#
# _framework density 28.137996000000001
#
# number of rings (size 3 to 8) (size 9 to 14) (size 15 to 20)
#    0.000    1.714    2.857    1.286    6.000    1.714 
#    0.000    0.000    0.000    0.000    0.000   24.000 
#    0.000    0.000    0.000    0.000    0.000    0.000 
#
# Total GULP energy -78087.098681 kJ/mol
# GULP energy per Si atom -5577.649906 kJ/mol
# Density = 2.807395 g / cm^3
# Si number density = 28.137996 Si / 1000 Ang^3
#
#
#
# Elastic Constant Matrix: (Units=GPa)
#
#
# Indices 1 2 3 4 5 6 
#
# 1 109.5604 63.3988 19.8534 5.6646 20.5539 -44.5134
# 2 63.3988 240.1985 28.6043 0.9420 -0.6333 -33.3481
# 3 19.8534 28.6043 80.6017 -0.0282 3.2806 -11.7910
# 4 5.6646 0.9420 -0.0282 18.3651 -8.0195 -0.7747
# 5 20.5539 -0.6333 3.2806 -8.0195 31.7732 9.3629
# 6 -44.5134 -33.3481 -11.7910 -0.7747 9.3629 49.1197
#
#
#
# Elastic Compliance Matrix: (Units=1/GPa)
#
#
# Indices 1 2 3 4 5 6 
#
# 1 0.035448 -0.004266 -0.000243 -0.026871 -0.040520 0.036469
# 2 -0.004266 0.005245 -0.001168 0.002767 0.004071 -0.001317
# 3 -0.000243 -0.001168 0.013350 -0.000689 -0.002184 0.002597
# 4 -0.026871 0.002767 -0.000689 0.081891 0.047115 -0.030327
# 5 -0.040520 0.004071 -0.002184 0.047115 0.084575 -0.049858
# 6 0.036469 -0.001317 0.002597 -0.030327 -0.049858 0.062162
#
#
# Mechanical properties :
#
#
# Convention : Reuss Voigt Hill
#
# Bulk Modulus (GPa) = 23.42497 72.67486 48.04991
# Shear Modulus (GPa) = 16.22042 41.08521 28.65281
#
# Velocity S-wave (km/s) = 2.40356 3.82531 3.19454
# Velocity P-wave (km/s) = 4.00574 6.73757 5.54259
#
# Compressibility (1/GPa) = 0.04268949
#
# Stress axis : x y z
#
# Youngs Moduli (GPa) = 28.21059 190.65074 74.90876
#
# Poissons Ratio (x) = 0.81322 0.01819
# Poissons Ratio (y) = 0.12033 0.08751
# Poissons Ratio (z) = 0.00685 0.22272
#
# Static dielectric constant tensor:
#      x y z
#    x 2.238070 0.003540 0.074100 
#    y 0.003540 2.413820 0.001710 
#    z 0.074100 0.001710 2.195370 
# 
# From -- ./inp_files/64391.got.cif
#   From: 2010.05.17/outbox.cif.g08.bks.cpg/sg2_33_cif.got.tgz:64391.got - 2010.06.03 11:33:40.
