data_PCOD9004491
_publ_section_title
;
Structure prediction by ZEFSAII (Michael W. Deem and Ramdas Pophale) SiO2 
 PCOD9004491
Probable space group: P -1
;
_chemical_formula_sum "Si O2"
_cell_formula_units_Z 12
_cell_length_a 11.977673
_cell_length_b 9.841525
_cell_length_c 5.364892
_cell_angle_alpha 111.581035
_cell_angle_beta 126.825913
_cell_angle_gamma 73.474562
_cell_volume 468.987205
_symmetry_space_group_name_H-M "P -1"
_symmetry_group_IT_number 2
_symmetry_cell_setting 'triclinic'
loop_
_space_group_symop_operation_xyz
x,y,z
-x,-y,-z
loop_
_atom_site_type_symbol
_atom_site_label
_atom_site_fract_x
_atom_site_fract_y
_atom_site_fract_z
Si Si1 0.198358 0.434485 0.102905
Si Si2 0.124082 0.595373 0.607259
Si Si3 0.687910 0.897087 0.948044
Si Si4 0.592252 0.400076 0.243499
Si Si5 0.123241 0.893812 0.972228
Si Si6 0.604766 0.129548 0.391615
O O1 0.117472 0.497245 0.284286
O O2 0.347012 0.502995 0.389289
O O3 0.132191 0.493863 0.794534
O O4 0.228231 0.261006 0.033168
O O5 0.276613 0.650291 0.789016
O O6 0.048992 0.756715 0.662535
O O7 0.648535 0.975507 0.211110
O O8 0.530968 0.877163 0.617426
O O9 0.784178 0.006775 0.010089
O O10 0.545921 0.253914 0.201627
O O11 0.500000 0.500000 0.000000
O O12 0.242773 0.829384 0.284141
O O13 0.000000 0.000000 0.000000
#
# Coordination Sequence:
#
# PCOD9004491 Si02
#       6
#     2   2   2   2   2   2
#     4  10  23  40  71 102 147 181 241 294 363 427
#     4  10  22  44  65 102 141 192 238 291 355 436
#     4  11  25  42  71 110 137 187 232 313 358 426
#     4  10  21  37  68 102 140 185 229 292 363 429
#     4  12  26  47  71  99 144 198 242 288 361 440
#     4  11  24  44  71 105 147 180 242 302 363 425
#
# _framework density 25.587049
#
# number of rings (size 3 to 8) (size 9 to 14) (size 15 to 20)
#    1.000    0.333    3.333    1.500    4.667    3.333 
#    0.000    1.667    0.000    0.000    0.000    0.000 
#    0.000    0.000    0.000    0.000    0.000    0.000 
#
# Total GULP energy -66990.931358 kJ/mol
# GULP energy per Si atom -5582.577613 kJ/mol
# Density = 2.552881 g / cm^3
# Si number density = 25.587049 Si / 1000 Ang^3
#
#
#
# Elastic Constant Matrix: (Units=GPa)
#
#
# Indices 1 2 3 4 5 6 
#
# 1 137.3579 66.3303 32.1143 -0.8186 -9.5839 -2.0167
# 2 66.3303 238.2750 75.0069 16.8165 -26.6910 -0.4824
# 3 32.1143 75.0069 116.7505 -16.1170 -6.6336 -22.9177
# 4 -0.8186 16.8165 -16.1170 41.0239 -3.3311 -15.5000
# 5 -9.5839 -26.6910 -6.6336 -3.3311 39.8516 0.8757
# 6 -2.0167 -0.4824 -22.9177 -15.5000 0.8757 42.7554
#
#
#
# Elastic Compliance Matrix: (Units=1/GPa)
#
#
# Indices 1 2 3 4 5 6 
#
# 1 0.008539 -0.002136 -0.000765 0.000898 0.000565 0.000282
# 2 -0.002136 0.007781 -0.006639 -0.008070 0.003062 -0.006560
# 3 -0.000765 -0.006639 0.018148 0.015552 -0.000645 0.015268
# 4 0.000898 -0.008070 0.015552 0.042846 0.000458 0.023811
# 5 0.000565 0.003062 -0.000645 0.000458 0.027225 -0.000676
# 6 0.000282 -0.006560 0.015268 0.023811 -0.000676 0.040158
#
#
# Mechanical properties :
#
#
# Convention : Reuss Voigt Hill
#
# Bulk Modulus (GPa) = 64.98435 93.25405 79.11920
# Shear Modulus (GPa) = 29.60203 45.98831 37.79517
#
# Velocity S-wave (km/s) = 3.40503 4.24409 3.84750
# Velocity P-wave (km/s) = 6.39621 7.78083 7.12225
#
# Compressibility (1/GPa) = 0.01538832
#
# Stress axis : x y z
#
# Youngs Moduli (GPa) = 117.10336 128.52602 55.10124
#
# Poissons Ratio (x) = 0.27451 0.04217
# Poissons Ratio (y) = 0.25011 0.36581
# Poissons Ratio (z) = 0.08962 0.85327
#
# Static dielectric constant tensor:
#      x y z
#    x 1.909550 -0.311250 -0.126110 
#    y -0.311250 1.485000 -0.316880 
#    z -0.126110 -0.316880 1.964210 
# 
# From -- ./inp_files/61220.got.cif
#   From: 2010.05.17/outbox.cif.g08.bks.cpg/sg2_31_cif.got.tgz:61220.got - 2010.06.03 11:33:40.
