data_PCOD9004780
_publ_section_title
;
Structure prediction by ZEFSAII (Michael W. Deem and Ramdas Pophale) SiO2 
 PCOD9004780
Probable space group: P -1
;
_chemical_formula_sum "Si O2"
_cell_formula_units_Z 16
_cell_length_a 19.491926
_cell_length_b 14.837996
_cell_length_c 12.321373
_cell_angle_alpha 150.467911
_cell_angle_beta 28.441243
_cell_angle_gamma 150.867071
_cell_volume 741.986397
_symmetry_space_group_name_H-M "P -1"
_symmetry_group_IT_number 2
_symmetry_cell_setting 'triclinic'
loop_
_space_group_symop_operation_xyz
x,y,z
-x,-y,-z
loop_
_atom_site_type_symbol
_atom_site_label
_atom_site_fract_x
_atom_site_fract_y
_atom_site_fract_z
Si Si1 0.922637 0.261917 0.895304
Si Si2 0.810038 0.854524 0.525919
Si Si3 0.304374 0.270621 0.675158
Si Si4 0.703288 0.037407 0.469572
Si Si5 0.395032 0.391976 0.251759
Si Si6 0.345310 0.734019 0.578139
Si Si7 0.051558 0.316215 0.216246
Si Si8 0.331871 0.633843 0.256105
O O1 0.050137 0.216908 0.739983
O O2 0.879019 0.100873 0.687538
O O3 0.762281 0.205514 0.130503
O O4 0.000000 0.500000 0.000000
O O5 0.694044 0.746014 0.472955
O O6 0.722425 0.783037 0.688745
O O7 0.461854 0.449035 0.701002
O O8 0.292095 0.060862 0.524876
O O9 0.147413 0.298882 0.959706
O O10 0.681206 0.242461 0.701605
O O11 0.883553 0.110237 0.247459
O O12 0.539229 0.871497 0.466135
O O13 0.308942 0.508931 0.435091
O O14 0.487231 0.334989 0.970475
O O15 0.302491 0.727261 0.504432
O O16 0.199178 0.394976 0.180914
O O17 0.000000 0.500000 0.500000
#
# Coordination Sequence:
#
# PCOD9004780 Si02
#       8
#     2   2   2   2   2   2   2   2
#     4  11  25  46  65  97 132 170 229 271 317 401
#     4  11  24  44  68  93 134 179 211 276 329 381
#     4  10  22  40  65  92 129 177 215 265 334 389
#     4  10  21  38  58  93 128 163 219 270 313 395
#     4  10  21  43  64  97 133 162 224 271 322 399
#     4  11  22  40  66  92 130 172 215 272 330 385
#     4   9  20  38  58  91 130 164 215 267 316 391
#     4  10  21  38  64  95 129 171 209 272 335 380
#
# _framework density 21.563737
#
# number of rings (size 3 to 8) (size 9 to 14) (size 15 to 20)
#    0.000    1.750    1.250    2.250    3.500    1.000 
#    6.750    3.125    0.000    0.000    0.000    0.000 
#    0.000    0.000    0.000    0.000    0.000    0.000 
#
# Total GULP energy -89130.212449 kJ/mol
# GULP energy per Si atom -5570.638278 kJ/mol
# Density = 2.151466 g / cm^3
# Si number density = 21.563737 Si / 1000 Ang^3
#
#
#
# Elastic Constant Matrix: (Units=GPa)
#
#
# Indices 1 2 3 4 5 6 
#
# 1 47.1302 13.8747 23.9311 -0.2936 1.8846 -5.5116
# 2 13.8747 96.0693 18.9677 1.2643 -4.2007 -1.4253
# 3 23.9311 18.9677 87.3603 2.5631 -17.9244 -13.9911
# 4 -0.2936 1.2643 2.5631 32.0113 1.4489 -9.0489
# 5 1.8846 -4.2007 -17.9244 1.4489 26.2850 1.3376
# 6 -5.5116 -1.4253 -13.9911 -9.0489 1.3376 22.7814
#
#
#
# Elastic Compliance Matrix: (Units=1/GPa)
#
#
# Indices 1 2 3 4 5 6 
#
# 1 0.026719 -0.002612 -0.008041 0.002114 -0.008069 0.002676
# 2 -0.002612 0.011154 -0.001711 -0.000746 0.000912 -0.001335
# 3 -0.008041 -0.001711 0.017806 0.000379 0.012001 0.008329
# 4 0.002114 -0.000746 0.000379 0.035624 -0.002739 0.015009
# 5 -0.008069 0.000912 0.012001 -0.002739 0.047021 0.001626
# 6 0.002676 -0.001335 0.008329 0.015009 0.001626 0.055441
#
#
# Mechanical properties :
#
#
# Convention : Reuss Voigt Hill
#
# Bulk Modulus (GPa) = 32.30976 38.23409 35.27193
# Shear Modulus (GPa) = 21.85221 27.80129 24.82675
#
# Velocity S-wave (km/s) = 3.18681 3.59452 3.39679
# Velocity P-wave (km/s) = 5.34387 5.91580 5.63709
#
# Compressibility (1/GPa) = 0.03095040
#
# Stress axis : x y z
#
# Youngs Moduli (GPa) = 37.42715 89.65305 56.16005
#
# Poissons Ratio (x) = 0.23419 0.45159
# Poissons Ratio (y) = 0.09776 0.09609
# Poissons Ratio (z) = 0.30096 0.15339
#
# Static dielectric constant tensor:
#      x y z
#    x 1.769350 0.020400 -0.047780 
#    y 0.020400 1.887930 0.008760 
#    z -0.047780 0.008760 1.791730 
# 
# From -- ./inp_files/471783.got.cif
#   From: 2010.05.17/outbox.cif.g08.bks.cpg/sg2_236_cif.got.tgz:471783.got - 2010.06.03 11:33:40.
