data_PCOD9004094
_publ_section_title
;
Structure prediction by ZEFSAII (Michael W. Deem and Ramdas Pophale) SiO2 
 PCOD9004094
Probable space group: P -1
;
_chemical_formula_sum "Si O2"
_cell_formula_units_Z 12
_cell_length_a 10.221326
_cell_length_b 12.850787
_cell_length_c 5.380593
_cell_angle_alpha 75.207440
_cell_angle_beta 82.094651
_cell_angle_gamma 42.186859
_cell_volume 457.435398
_symmetry_space_group_name_H-M "P -1"
_symmetry_group_IT_number 2
_symmetry_cell_setting 'triclinic'
loop_
_space_group_symop_operation_xyz
x,y,z
-x,-y,-z
loop_
_atom_site_type_symbol
_atom_site_label
_atom_site_fract_x
_atom_site_fract_y
_atom_site_fract_z
Si Si1 0.559774 0.052817 0.749834
Si Si2 0.173545 0.512667 0.897279
Si Si3 0.741924 0.059406 0.110119
Si Si4 0.676825 0.769897 0.684904
Si Si5 0.589493 0.363040 0.867044
Si Si6 0.910732 0.312195 0.665510
O O1 0.677796 0.896327 0.648383
O O2 0.350275 0.224906 0.606517
O O3 0.500000 0.000000 0.000000
O O4 0.697112 0.058077 0.833858
O O5 0.399990 0.405377 0.832242
O O6 0.068602 0.612743 0.607638
O O7 0.188662 0.383226 0.087325
O O8 0.108537 0.620812 0.095367
O O9 0.545169 0.140619 0.254493
O O10 0.745961 0.185298 0.054341
O O11 0.919540 0.878679 0.254679
O O12 0.712462 0.361080 0.645077
O O13 0.500000 0.500000 0.000000
#
# Coordination Sequence:
#
# PCOD9004094 Si02
#       6
#     2   2   2   2   2   2
#     4   9  19  37  65  90 115 156 214 252 308 368
#     4  10  23  39  64  87 128 167 210 247 306 368
#     4  10  21  37  64  89 125 160 203 260 310 362
#     4   9  20  39  64  88 119 162 210 253 303 372
#     4   9  20  42  62  90 122 169 210 251 298 371
#     4  11  23  40  58  97 128 166 201 258 310 362
#
# _framework density 26.233212000000002
#
# number of rings (size 3 to 8) (size 9 to 14) (size 15 to 20)
#    0.000    2.333    0.000    1.000    9.333    0.000 
#    6.000    5.833    0.000    0.000    0.000    0.000 
#    0.000    0.000    0.000    0.000    0.000    0.000 
#
# Total GULP energy -66904.970976 kJ/mol
# GULP energy per Si atom -5575.414248 kJ/mol
# Density = 2.617350 g / cm^3
# Si number density = 26.233212 Si / 1000 Ang^3
#
#
#
# Elastic Constant Matrix: (Units=GPa)
#
#
# Indices 1 2 3 4 5 6 
#
# 1 31.5278 30.7252 28.0584 -7.1099 -1.7539 8.7659
# 2 30.7252 144.8374 81.8692 -45.7203 -2.6661 4.1113
# 3 28.0584 81.8692 180.6962 -48.6428 -3.8441 2.5539
# 4 -7.1099 -45.7203 -48.6428 45.9885 -4.1043 -3.7263
# 5 -1.7539 -2.6661 -3.8441 -4.1043 49.5423 -10.9283
# 6 8.7659 4.1113 2.5539 -3.7263 -10.9283 45.9226
#
#
#
# Elastic Compliance Matrix: (Units=1/GPa)
#
#
# Indices 1 2 3 4 5 6 
#
# 1 0.045690 -0.009258 -0.005074 -0.008385 -0.001898 -0.008742
# 2 -0.009258 0.012956 -0.001776 0.009851 0.001456 0.001852
# 3 -0.005074 -0.001776 0.009108 0.007332 0.001380 0.001544
# 4 -0.008385 0.009851 0.007332 0.038825 0.005047 0.004662
# 5 -0.001898 0.001456 0.001380 0.005047 0.022001 0.005800
# 6 -0.008742 0.001852 0.001544 0.004662 0.005800 0.024951
#
#
# Mechanical properties :
#
#
# Convention : Reuss Voigt Hill
#
# Bulk Modulus (GPa) = 28.13889 70.92964 49.53426
# Shear Modulus (GPa) = 25.30456 42.71793 34.01124
#
# Velocity S-wave (km/s) = 3.10917 4.03971 3.60459
# Velocity P-wave (km/s) = 4.86199 6.98969 6.02058
#
# Compressibility (1/GPa) = 0.03553800
#
# Stress axis : x y z
#
# Youngs Moduli (GPa) = 21.88642 77.18560 109.79496
#
# Poissons Ratio (x) = 0.71459 0.55712
# Poissons Ratio (y) = 0.20262 0.19498
# Poissons Ratio (z) = 0.11106 0.13707
#
# Static dielectric constant tensor:
#      x y z
#    x 2.225350 -0.032230 0.201150 
#    y -0.032230 2.293260 0.252060 
#    z 0.201150 0.252060 2.686880 
# 
# From -- ./inp_files/32591.got.cif
#   From: 2010.05.17/outbox.cif.g08.bks.cpg/sg2_17_cif.got.tgz:32591.got - 2010.06.03 11:33:40.
