data_PCOD9004032
_publ_section_title
;
Structure prediction by ZEFSAII (Michael W. Deem and Ramdas Pophale) SiO2 
 PCOD9004032
Probable space group: P -1
;
_chemical_formula_sum "Si O2"
_cell_formula_units_Z 16
_cell_length_a 18.193606
_cell_length_b 12.038722
_cell_length_c 12.326723
_cell_angle_alpha 35.964621
_cell_angle_beta 45.736812
_cell_angle_gamma 28.607683
_cell_volume 758.440588
_symmetry_space_group_name_H-M "P -1"
_symmetry_group_IT_number 2
_symmetry_cell_setting 'triclinic'
loop_
_space_group_symop_operation_xyz
x,y,z
-x,-y,-z
loop_
_atom_site_type_symbol
_atom_site_label
_atom_site_fract_x
_atom_site_fract_y
_atom_site_fract_z
Si Si1 0.576007 0.115233 0.243629
Si Si2 0.618661 0.196204 0.381002
Si Si3 0.938118 0.320500 0.931908
Si Si4 0.419408 0.834195 0.139817
Si Si5 0.267613 0.460955 0.374769
Si Si6 0.596578 0.955210 0.783099
Si Si7 0.048794 0.151841 0.715830
Si Si8 0.785862 0.037949 0.915681
O O1 0.594708 0.183762 0.289139
O O2 0.392659 0.333696 0.251475
O O3 0.658386 0.799682 0.419953
O O4 0.657908 0.129678 0.058310
O O5 0.534168 0.505845 0.253165
O O6 0.560164 0.112130 0.585874
O O7 0.800767 0.961842 0.398358
O O8 0.770040 0.638404 0.856233
O O9 0.025793 0.248044 0.787197
O O10 0.924392 0.111243 0.107618
O O11 0.048516 0.224763 0.993567
O O12 0.256553 0.998973 0.125114
O O13 0.415950 0.881738 0.232906
O O14 0.482445 0.938207 0.936663
O O15 0.234826 0.706974 0.269743
O O16 0.110640 0.597795 0.379010
#
# Coordination Sequence:
#
# PCOD9004032 Si02
#       8
#     2   2   2   2   2   2   2   2
#     4  11  23  35  61  98 127 162 201 249 322 373
#     4  12  23  41  67  92 127 163 205 262 311 369
#     4  10  21  39  63  95 126 165 199 255 316 370
#     4  11  26  45  63  90 121 172 216 254 304 359
#     4  10  23  36  55  93 134 160 197 245 309 381
#     4  11  26  44  66  88 123 166 221 258 293 371
#     4  10  21  37  63  96 130 160 197 255 322 373
#     4  11  23  39  64  88 132 161 202 256 314 371
#
# _framework density 21.095917
#
# number of rings (size 3 to 8) (size 9 to 14) (size 15 to 20)
#    0.000    1.250    3.750    1.500    7.000    1.500 
#    0.000    0.000    0.000    1.500    0.000    0.000 
#    0.000    0.000    0.000    0.000    0.000    0.000 
#
# Total GULP energy -89545.256570 kJ/mol
# GULP energy per Si atom -5596.578536 kJ/mol
# Density = 2.104790 g / cm^3
# Si number density = 21.095917 Si / 1000 Ang^3
#
#
#
# Elastic Constant Matrix: (Units=GPa)
#
#
# Indices 1 2 3 4 5 6 
#
# 1 111.9607 23.0338 13.1470 -18.0070 3.0874 3.4944
# 2 23.0338 37.7732 5.7439 -8.3830 0.5209 -0.2857
# 3 13.1470 5.7439 55.4254 -8.5768 -8.7299 11.1881
# 4 -18.0070 -8.3830 -8.5768 24.2674 -0.3915 0.6799
# 5 3.0874 0.5209 -8.7299 -0.3915 19.1565 -3.1725
# 6 3.4944 -0.2857 11.1881 0.6799 -3.1725 31.9156
#
#
#
# Elastic Compliance Matrix: (Units=1/GPa)
#
#
# Indices 1 2 3 4 5 6 
#
# 1 0.011249 -0.005294 -0.001314 0.006049 -0.002340 -0.001180
# 2 -0.005294 0.031330 -0.001271 0.006409 -0.000257 0.001143
# 3 -0.001314 -0.001271 0.022439 0.006864 0.009463 -0.006939
# 4 0.006049 0.006409 0.006864 0.050482 0.002373 -0.003851
# 5 -0.002340 -0.000257 0.009463 0.002373 0.057375 0.002589
# 6 -0.001180 0.001143 -0.006939 -0.003851 0.002589 0.034244
#
#
# Mechanical properties :
#
#
# Convention : Reuss Voigt Hill
#
# Bulk Modulus (GPa) = 20.30000 32.11205 26.20603
# Shear Modulus (GPa) = 20.89446 25.95022 23.42234
#
# Velocity S-wave (km/s) = 3.15056 3.51109 3.33570
# Velocity P-wave (km/s) = 4.78312 5.62956 5.22352
#
# Compressibility (1/GPa) = 0.04926108
#
# Stress axis : x y z
#
# Youngs Moduli (GPa) = 88.89315 31.91839 44.56521
#
# Poissons Ratio (x) = 0.16898 0.05856
# Poissons Ratio (y) = 0.47061 0.05662
# Poissons Ratio (z) = 0.11680 0.04056
#
# Static dielectric constant tensor:
#      x y z
#    x 1.782880 -0.015330 -0.003260 
#    y -0.015330 1.733640 -0.010830 
#    z -0.003260 -0.010830 1.754830 
# 
# From -- ./inp_files/427709.got.cif
#   From: 2010.05.17/outbox.cif.g08.bks.cpg/sg2_214_cif.got.tgz:427709.got - 2010.06.03 11:33:40.
