data_PCOD9004363
_publ_section_title
;
Structure prediction by ZEFSAII (Michael W. Deem and Ramdas Pophale) SiO2 
 PCOD9004363
Probable space group: P -1
;
_chemical_formula_sum "Si O2"
_cell_formula_units_Z 16
_cell_length_a 11.589154
_cell_length_b 8.259557
_cell_length_c 14.277279
_cell_angle_alpha 110.750208
_cell_angle_beta 31.950607
_cell_angle_gamma 123.328144
_cell_volume 584.596214
_symmetry_space_group_name_H-M "P -1"
_symmetry_group_IT_number 2
_symmetry_cell_setting 'triclinic'
loop_
_space_group_symop_operation_xyz
x,y,z
-x,-y,-z
loop_
_atom_site_type_symbol
_atom_site_label
_atom_site_fract_x
_atom_site_fract_y
_atom_site_fract_z
Si Si1 0.736099 0.115168 0.997616
Si Si2 0.494617 0.535355 0.332548
Si Si3 0.268336 0.128180 0.292556
Si Si4 0.197854 0.366378 0.229147
Si Si5 0.018697 0.529698 0.235633
Si Si6 0.372837 0.972695 0.479882
Si Si7 0.711430 0.348352 0.239975
Si Si8 0.427211 0.227125 0.839508
O O1 0.438001 0.025156 0.161500
O O2 0.788208 0.270616 0.079317
O O3 0.753084 0.925540 0.987866
O O4 0.872873 0.249254 0.839439
O O5 0.405210 0.323325 0.303110
O O6 0.233549 0.524909 0.540373
O O7 0.677933 0.540131 0.287192
O O8 0.658533 0.694488 0.173275
O O9 0.264970 0.220720 0.213454
O O10 0.000000 0.000000 0.500000
O O11 0.331191 0.570371 0.243921
O O12 0.225254 0.488525 0.136731
O O13 0.909886 0.201803 0.371794
O O14 0.907967 0.385446 0.193566
O O15 0.497929 0.910799 0.298898
O O16 0.500000 0.000000 0.500000
O O17 0.441548 0.188382 0.439193
#
# Coordination Sequence:
#
# PCOD9004363 Si02
#       8
#     2   2   2   2   2   2   2   2
#     4  10  24  41  64  89 128 168 210 256 320 367
#     4  10  21  37  66  89 118 162 217 257 303 368
#     4  10  22  40  64  88 122 166 211 255 308 379
#     4  11  22  36  63  92 126 160 206 255 317 365
#     4  12  23  37  64  97 128 161 207 267 314 366
#     4  11  19  35  62  96 117 157 213 259 296 367
#     4  10  21  41  63  89 129 169 209 253 313 378
#     4  10  21  39  62  87 124 168 206 253 310 380
#
# _framework density 27.369319000000001
#
# number of rings (size 3 to 8) (size 9 to 14) (size 15 to 20)
#    0.000    1.500    2.500    3.375    3.500    1.000 
#    0.000    0.625    8.250    0.000    0.000    0.000 
#    0.000    0.000    0.000    0.000    0.000    0.000 
#
# Total GULP energy -89178.845728 kJ/mol
# GULP energy per Si atom -5573.677858 kJ/mol
# Density = 2.730703 g / cm^3
# Si number density = 27.369319 Si / 1000 Ang^3
#
#
#
# Elastic Constant Matrix: (Units=GPa)
#
#
# Indices 1 2 3 4 5 6 
#
# 1 145.4598 24.5616 16.3133 8.2641 40.3353 -23.6896
# 2 24.5616 72.4903 23.7078 -21.2336 18.9354 -22.6223
# 3 16.3133 23.7078 108.1196 -5.9000 21.3347 -25.2728
# 4 8.2641 -21.2336 -5.9000 42.6970 -5.0600 24.7925
# 5 40.3353 18.9354 21.3347 -5.0600 39.5297 -5.2401
# 6 -23.6896 -22.6223 -25.2728 24.7925 -5.2401 69.4923
#
#
#
# Elastic Compliance Matrix: (Units=1/GPa)
#
#
# Indices 1 2 3 4 5 6 
#
# 1 0.011889 -0.001855 0.002087 -0.007970 -0.012580 0.006103
# 2 -0.001855 0.019302 -0.002165 0.008156 -0.004932 0.001583
# 3 0.002087 -0.002165 0.011828 -0.003646 -0.007272 0.005061
# 4 -0.007970 0.008156 -0.003646 0.037846 0.009156 -0.014200
# 5 -0.012580 -0.004932 -0.007272 0.009156 0.044473 -0.008452
# 6 0.006103 0.001583 0.005061 -0.014200 -0.008452 0.023255
#
#
# Mechanical properties :
#
#
# Convention : Reuss Voigt Hill
#
# Bulk Modulus (GPa) = 25.53974 50.58167 38.06071
# Shear Modulus (GPa) = 30.20992 47.77625 38.99308
#
# Velocity S-wave (km/s) = 3.32593 4.18259 3.77862
# Velocity P-wave (km/s) = 4.90927 6.46890 5.74228
#
# Compressibility (1/GPa) = 0.03915466
#
# Stress axis : x y z
#
# Youngs Moduli (GPa) = 84.11101 51.80731 84.54732
#
# Poissons Ratio (x) = 0.09608 -0.17644
# Poissons Ratio (y) = 0.15599 0.18300
# Poissons Ratio (z) = -0.17553 0.11214
#
# Static dielectric constant tensor:
#      x y z
#    x 2.225080 -0.058040 -0.001240 
#    y -0.058040 2.231270 -0.019670 
#    z -0.001240 -0.019670 2.330240 
# 
# From -- ./inp_files/514403.got.cif
#   From: 2010.05.17/outbox.cif.g08.bks.cpg/sg2_258_cif.got.tgz:514403.got - 2010.06.03 11:33:40.
