data_PCOD9004405
_publ_section_title
;
Structure prediction by ZEFSAII (Michael W. Deem and Ramdas Pophale) SiO2 
 PCOD9004405
Probable space group: P -1
;
_chemical_formula_sum "Si O2"
_cell_formula_units_Z 16
_cell_length_a 9.848660
_cell_length_b 10.515629
_cell_length_c 11.465699
_cell_angle_alpha 111.825937
_cell_angle_beta 143.562865
_cell_angle_gamma 57.246863
_cell_volume 588.331878
_symmetry_space_group_name_H-M "P -1"
_symmetry_group_IT_number 2
_symmetry_cell_setting 'triclinic'
loop_
_space_group_symop_operation_xyz
x,y,z
-x,-y,-z
loop_
_atom_site_type_symbol
_atom_site_label
_atom_site_fract_x
_atom_site_fract_y
_atom_site_fract_z
Si Si1 0.318476 0.511342 0.537759
Si Si2 0.962792 0.985959 0.721748
Si Si3 0.899123 0.863042 0.949389
Si Si4 0.364043 0.138931 0.678681
Si Si5 0.948700 0.164260 0.564160
Si Si6 0.543213 0.298296 0.011275
Si Si7 0.879642 0.394397 0.832247
Si Si8 0.089273 0.590368 0.799315
O O1 0.617196 0.413866 0.718996
O O2 0.215925 0.552486 0.346512
O O3 0.249368 0.684735 0.586095
O O4 0.140945 0.433015 0.427497
O O5 0.943910 0.044544 0.861830
O O6 0.860364 0.137668 0.621822
O O7 0.818894 0.884113 0.551235
O O8 0.263827 0.873041 0.871885
O O9 0.903601 0.769134 0.038134
O O10 0.991636 0.732943 0.869841
O O11 0.612486 0.983955 0.778258
O O12 0.216201 0.161331 0.709460
O O13 0.460612 0.267741 0.812512
O O14 0.000000 0.000000 0.500000
O O15 0.731708 0.377316 0.155692
O O16 0.286280 0.425857 0.933414
O O17 0.000000 0.500000 0.000000
#
# Coordination Sequence:
#
# PCOD9004405 Si02
#       8
#     2   2   2   2   2   2   2   2
#     4  11  23  41  64  97 134 170 216 266 334 394
#     4  10  23  42  66  97 132 178 224 270 336 394
#     4  11  24  39  65  97 132 171 218 278 333 392
#     4  10  23  42  67  95 135 172 229 273 328 394
#     4  10  21  37  66  95 129 172 216 269 326 394
#     4  10  24  48  66  94 132 178 232 276 323 393
#     4  11  24  38  63  98 132 166 208 270 335 399
#     4  11  24  46  68  95 137 174 224 284 326 392
#
# _framework density 27.195533999999999
#
# number of rings (size 3 to 8) (size 9 to 14) (size 15 to 20)
#    0.000    1.500    3.750    0.000    5.250    7.000 
#    2.250    2.500    0.000    0.000    0.000    0.000 
#    0.000    0.000    0.000    0.000    0.000    0.000 
#
# Total GULP energy -89186.226181 kJ/mol
# GULP energy per Si atom -5574.139136 kJ/mol
# Density = 2.713364 g / cm^3
# Si number density = 27.195534 Si / 1000 Ang^3
#
#
#
# Elastic Constant Matrix: (Units=GPa)
#
#
# Indices 1 2 3 4 5 6 
#
# 1 56.5761 11.3743 21.3725 -3.4811 2.3254 -1.6183
# 2 11.3743 163.1641 45.3107 0.1017 7.2177 -26.8976
# 3 21.3725 45.3107 143.5070 -3.2630 8.6946 -1.7053
# 4 -3.4811 0.1017 -3.2630 53.6906 -7.2509 7.2736
# 5 2.3254 7.2177 8.6946 -7.2509 45.7617 8.7811
# 6 -1.6183 -26.8976 -1.7053 7.2736 8.7811 36.1574
#
#
#
# Elastic Compliance Matrix: (Units=1/GPa)
#
#
# Indices 1 2 3 4 5 6 
#
# 1 0.018843 -0.000557 -0.002591 0.001009 -0.000249 0.000165
# 2 -0.000557 0.007994 -0.002254 -0.001401 -0.002304 0.006657
# 3 -0.002591 -0.002254 0.008104 0.000407 -0.000736 -0.001314
# 4 0.001009 -0.001401 0.000407 0.020148 0.004458 -0.006114
# 5 -0.000249 -0.002304 -0.000736 0.004458 0.024737 -0.008664
# 6 0.000165 0.006657 -0.001314 -0.006114 -0.008664 0.035888
#
#
# Mechanical properties :
#
#
# Convention : Reuss Voigt Hill
#
# Bulk Modulus (GPa) = 41.42857 57.70689 49.56773
# Shear Modulus (GPa) = 37.15737 46.13460 41.64598
#
# Velocity S-wave (km/s) = 3.70037 4.12321 3.91750
# Velocity P-wave (km/s) = 5.78996 6.62821 6.22321
#
# Compressibility (1/GPa) = 0.02413793
#
# Stress axis : x y z
#
# Youngs Moduli (GPa) = 53.07048 125.09822 123.39457
#
# Poissons Ratio (x) = 0.06964 0.31965
# Poissons Ratio (y) = 0.02954 0.27816
# Poissons Ratio (z) = 0.13748 0.28200
#
# Static dielectric constant tensor:
#      x y z
#    x 2.419920 -0.056780 -0.125160 
#    y -0.056780 2.265400 0.174390 
#    z -0.125160 0.174390 2.219440 
# 
# From -- ./inp_files/519078.got.cif
#   From: 2010.05.17/outbox.cif.g08.bks.cpg/sg2_260_cif.got.tgz:519078.got - 2010.06.03 11:33:40.
