data_PCOD9004579
_publ_section_title
;
Structure prediction by ZEFSAII (Michael W. Deem and Ramdas Pophale) SiO2 
 PCOD9004579
Probable space group: P -1
;
_chemical_formula_sum "Si O2"
_cell_formula_units_Z 14
_cell_length_a 15.014977
_cell_length_b 11.726534
_cell_length_c 8.506387
_cell_angle_alpha 127.330960
_cell_angle_beta 62.038574
_cell_angle_gamma 148.796778
_cell_volume 612.463732
_symmetry_space_group_name_H-M "P -1"
_symmetry_group_IT_number 2
_symmetry_cell_setting 'triclinic'
loop_
_space_group_symop_operation_xyz
x,y,z
-x,-y,-z
loop_
_atom_site_type_symbol
_atom_site_label
_atom_site_fract_x
_atom_site_fract_y
_atom_site_fract_z
Si Si1 0.660416 0.437788 0.171303
Si Si2 0.353395 0.138454 0.388311
Si Si3 0.749985 0.312066 0.501514
Si Si4 0.543990 0.045859 0.758023
Si Si5 0.337029 0.309535 0.857876
Si Si6 0.090897 0.808729 0.776086
Si Si7 0.013590 0.687112 0.106291
O O1 0.534098 0.372830 0.342382
O O2 0.694734 0.576787 0.107371
O O3 0.838833 0.573648 0.195425
O O4 0.542082 0.168826 0.986714
O O5 0.357302 0.226586 0.622653
O O6 0.346517 0.961852 0.286174
O O7 0.179468 0.954672 0.275233
O O8 0.633336 0.210022 0.664135
O O9 0.781546 0.177583 0.353154
O O10 0.930700 0.598257 0.615977
O O11 0.643556 0.227225 0.364482
O O12 0.180541 0.062647 0.881063
O O13 0.500000 0.500000 0.000000
O O14 0.034185 0.723459 0.931257
O O15 0.000000 0.500000 0.000000
#
# Coordination Sequence:
#
# PCOD9004579 Si02
#       7
#     2   2   2   2   2   2   2
#     4  12  27  47  74 110 150 197 239 298 375 437
#     4  12  26  47  74 106 147 196 240 304 366 431
#     4  10  21  37  72 106 138 181 248 298 357 412
#     4  11  21  42  71 109 139 186 248 297 361 426
#     4  12  28  50  74 105 150 195 246 298 367 445
#     4  11  23  44  70 106 144 187 238 307 353 428
#     4  12  26  46  73 112 149 184 246 306 362 434
#
# _framework density 22.858495999999999
#
# number of rings (size 3 to 8) (size 9 to 14) (size 15 to 20)
#    0.000    0.571    4.286    3.429    6.000    1.143 
#    0.000    1.429    0.000    0.000    0.000    0.000 
#    0.000    0.000    0.000    0.000    0.000    0.000 
#
# Total GULP energy -78321.931258 kJ/mol
# GULP energy per Si atom -5594.423661 kJ/mol
# Density = 2.280647 g / cm^3
# Si number density = 22.858496 Si / 1000 Ang^3
#
#
#
# Elastic Constant Matrix: (Units=GPa)
#
#
# Indices 1 2 3 4 5 6 
#
# 1 111.7028 59.9946 32.0288 16.7552 13.8649 13.8036
# 2 59.9946 107.0180 21.7805 -2.1342 8.7900 -0.4591
# 3 32.0288 21.7805 102.8249 -2.3609 4.1142 17.6806
# 4 16.7552 -2.1342 -2.3609 34.5552 7.4495 0.1555
# 5 13.8649 8.7900 4.1142 7.4495 26.7376 17.7580
# 6 13.8036 -0.4591 17.6806 0.1555 17.7580 48.9031
#
#
#
# Elastic Compliance Matrix: (Units=1/GPa)
#
#
# Indices 1 2 3 4 5 6 
#
# 1 0.016124 -0.008616 -0.002783 -0.008422 -0.000479 -0.003425
# 2 -0.008616 0.014936 -0.000954 0.006129 -0.005176 0.004777
# 3 -0.002783 -0.000954 0.011463 0.001584 0.002361 -0.004230
# 4 -0.008422 0.006129 0.001584 0.036068 -0.011994 0.006103
# 5 -0.000479 -0.005176 0.002361 -0.011994 0.056420 -0.021216
# 6 -0.003425 0.004777 -0.004230 0.006103 -0.021216 0.030675
#
#
# Mechanical properties :
#
#
# Convention : Reuss Voigt Hill
#
# Bulk Modulus (GPa) = 56.11968 61.01706 58.56837
# Shear Modulus (GPa) = 25.46738 35.88863 30.67800
#
# Velocity S-wave (km/s) = 3.34148 3.96666 3.66742
# Velocity P-wave (km/s) = 6.28423 6.90873 6.60387
#
# Compressibility (1/GPa) = 0.01781906
#
# Stress axis : x y z
#
# Youngs Moduli (GPa) = 62.02053 66.95091 87.23489
#
# Poissons Ratio (x) = 0.57685 0.24273
# Poissons Ratio (y) = 0.53437 0.08319
# Poissons Ratio (z) = 0.17257 0.06385
#
# Static dielectric constant tensor:
#      x y z
#    x 1.935760 0.016860 0.002230 
#    y 0.016860 1.886200 -0.012850 
#    z 0.002230 -0.012850 1.826560 
# 
# From -- ./inp_files/261861.got.cif
#   From: 2010.05.17/outbox.cif.g08.bks.cpg/sg2_131_cif.got.tgz:261861.got - 2010.06.03 11:33:40.
