data_PCOD9004535
_publ_section_title
;
Structure prediction by ZEFSAII (Michael W. Deem and Ramdas Pophale) SiO2 
 PCOD9004535
Probable space group: P -1
;
_chemical_formula_sum "Si O2"
_cell_formula_units_Z 15
_cell_length_a 10.849076
_cell_length_b 11.785966
_cell_length_c 8.414684
_cell_angle_alpha 92.774690
_cell_angle_beta 66.414458
_cell_angle_gamma 40.924417
_cell_volume 524.247298
_symmetry_space_group_name_H-M "P -1"
_symmetry_group_IT_number 2
_symmetry_cell_setting 'triclinic'
loop_
_space_group_symop_operation_xyz
x,y,z
-x,-y,-z
loop_
_atom_site_type_symbol
_atom_site_label
_atom_site_fract_x
_atom_site_fract_y
_atom_site_fract_z
Si Si1 0.742798 0.825890 0.980462
Si Si2 0.658435 0.989312 0.606242
Si Si3 0.500000 0.500000 0.000000
Si Si4 0.386926 0.756648 0.552367
Si Si5 0.072322 0.829487 0.528874
Si Si6 0.431746 0.376935 0.200635
Si Si7 0.859103 0.358143 0.058447
Si Si8 0.003775 0.560545 0.276297
O O1 0.971867 0.589237 0.773021
O O2 0.877669 0.838359 0.989535
O O3 0.621479 0.832552 0.180223
O O4 0.500000 0.000000 0.000000
O O5 0.689832 0.065454 0.465184
O O6 0.245393 0.201388 0.515384
O O7 0.847072 0.900280 0.641695
O O8 0.437101 0.686868 0.035532
O O9 0.252834 0.655129 0.003833
O O10 0.200079 0.783821 0.618972
O O11 0.440183 0.727315 0.707240
O O12 0.633075 0.547884 0.308928
O O13 0.289822 0.607245 0.293551
O O14 0.000000 0.000000 0.500000
O O15 0.222680 0.433369 0.282604
O O16 0.921209 0.419617 0.914623
#
# Coordination Sequence:
#
# PCOD9004535 Si02
#       8
#     2   2   1   2   2   2   2   2
#     4  12  28  47  74 110 149 194 250 303 372 445
#     4  10  24  45  71 103 151 193 241 309 367 445
#     4  10  22  42  74 104 154 190 242 310 368 436
#     4  11  21  40  74 106 145 193 255 302 371 437
#     4   9  19  36  65 102 141 190 239 295 370 429
#     4  10  21  37  69 108 138 192 239 304 364 430
#     4  11  24  45  74 107 147 196 242 308 372 434
#     4  10  24  48  72 102 148 195 241 299 375 435
#
# _framework density 28.612452999999999
#
# number of rings (size 3 to 8) (size 9 to 14) (size 15 to 20)
#    0.000    1.600    2.667    0.800    3.733    2.133 
#    0.000    0.000    2.933    5.600    0.000    0.000 
#    0.000    0.000    0.000    0.000    0.000    0.000 
#
# Total GULP energy -83866.159885 kJ/mol
# GULP energy per Si atom -5591.077326 kJ/mol
# Density = 2.854733 g / cm^3
# Si number density = 28.612453 Si / 1000 Ang^3
#
#
#
# Elastic Constant Matrix: (Units=GPa)
#
#
# Indices 1 2 3 4 5 6 
#
# 1 160.4948 66.1657 37.2155 13.8851 1.0995 -36.6578
# 2 66.1657 109.4041 35.3482 -14.8854 15.5085 -24.2503
# 3 37.2155 35.3482 79.1482 0.2113 -3.8285 -8.1015
# 4 13.8851 -14.8854 0.2113 52.2073 -3.7257 9.3035
# 5 1.0995 15.5085 -3.8285 -3.7257 41.6593 11.4770
# 6 -36.6578 -24.2503 -8.1015 9.3035 11.4770 76.4879
#
#
#
# Elastic Compliance Matrix: (Units=1/GPa)
#
#
# Indices 1 2 3 4 5 6 
#
# 1 0.010128 -0.005393 -0.001975 -0.004835 0.000162 0.003499
# 2 -0.005393 0.016067 -0.004726 0.005154 -0.006460 0.002351
# 3 -0.001975 -0.004726 0.015718 -0.000405 0.003568 -0.001266
# 4 -0.004835 0.005154 -0.000405 0.022650 0.001206 -0.003662
# 5 0.000162 -0.006460 0.003568 0.001206 0.028498 -0.006015
# 6 0.003499 0.002351 -0.001266 -0.003662 -0.006015 0.016710
#
#
# Mechanical properties :
#
#
# Convention : Reuss Voigt Hill
#
# Bulk Modulus (GPa) = 56.41267 69.61176 63.01221
# Shear Modulus (GPa) = 35.74849 48.09209 41.92029
#
# Velocity S-wave (km/s) = 3.53852 4.10422 3.83182
# Velocity P-wave (km/s) = 6.03770 6.84408 6.45350
#
# Compressibility (1/GPa) = 0.01772651
#
# Stress axis : x y z
#
# Youngs Moduli (GPa) = 98.73409 62.24028 63.62240
#
# Poissons Ratio (x) = 0.33563 0.12566
# Poissons Ratio (y) = 0.53243 0.30065
# Poissons Ratio (z) = 0.19500 0.29412
#
# Static dielectric constant tensor:
#      x y z
#    x 2.156940 -0.032720 0.002020 
#    y -0.032720 2.372100 -0.050100 
#    z 0.002020 -0.050100 2.405130 
# 
# From -- ./inp_files/272870.got.cif
#   From: 2010.05.17/outbox.cif.g08.bks.cpg/sg2_137_cif.got.tgz:272870.got - 2010.06.03 11:33:40.
