data_PCOD9004841
_publ_section_title
;
Structure prediction by ZEFSAII (Michael W. Deem and Ramdas Pophale) SiO2 
 PCOD9004841
Probable space group: P -1
;
_chemical_formula_sum "Si O2"
_cell_formula_units_Z 14
_cell_length_a 13.000434
_cell_length_b 11.795803
_cell_length_c 7.803679
_cell_angle_alpha 116.501169
_cell_angle_beta 149.860786
_cell_angle_gamma 56.847016
_cell_volume 502.034906
_symmetry_space_group_name_H-M "P -1"
_symmetry_group_IT_number 2
_symmetry_cell_setting 'triclinic'
loop_
_space_group_symop_operation_xyz
x,y,z
-x,-y,-z
loop_
_atom_site_type_symbol
_atom_site_label
_atom_site_fract_x
_atom_site_fract_y
_atom_site_fract_z
Si Si1 0.634557 0.467533 0.851093
Si Si2 0.039957 0.804092 0.760923
Si Si3 0.296770 0.370031 0.475625
Si Si4 0.000774 0.344928 0.737803
Si Si5 0.398067 0.961640 0.653541
Si Si6 0.382283 0.898387 0.131490
Si Si7 0.354081 0.745147 0.661787
O O1 0.500000 0.500000 0.500000
O O2 0.504468 0.414370 0.769648
O O3 0.588974 0.623069 0.943878
O O4 0.856338 0.336941 0.079055
O O5 0.967078 0.755325 0.441943
O O6 0.834192 0.918967 0.623345
O O7 0.212801 0.878866 0.011196
O O8 0.118854 0.500523 0.393634
O O9 0.390522 0.227138 0.603628
O O10 0.202702 0.348487 0.141588
O O11 0.834292 0.316640 0.616023
O O12 0.559671 0.969156 0.738075
O O13 0.363566 0.822219 0.553104
O O14 0.500000 0.000000 0.000000
O O15 0.297152 0.859438 0.802898
#
# Coordination Sequence:
#
# PCOD9004841 Si02
#       7
#     2   2   2   2   2   2   2
#     4  10  21  38  59  86 118 152 196 245 292 346
#     4  10  21  39  64  87 114 158 197 237 293 349
#     4   9  18  34  55  86 119 151 191 248 293 337
#     4   9  18  33  58  85 115 152 196 239 293 346
#     4  10  22  38  60  89 119 154 197 241 288 348
#     4   9  19  37  59  83 118 154 195 238 287 346
#     4   9  19  37  59  82 116 156 191 240 295 343
#
# _framework density 27.886507000000002
#
# number of rings (size 3 to 8) (size 9 to 14) (size 15 to 20)
#    0.000    2.571    0.000    0.857    0.000   14.286 
#    0.000    7.143    0.000    8.571    0.000    0.000 
#    0.000    0.000    0.000    0.000    0.000    0.000 
#
# Total GULP energy -78371.782673 kJ/mol
# GULP energy per Si atom -5597.984477 kJ/mol
# Density = 2.782304 g / cm^3
# Si number density = 27.886507 Si / 1000 Ang^3
#
#
#
# Elastic Constant Matrix: (Units=GPa)
#
#
# Indices 1 2 3 4 5 6 
#
# 1 122.8131 64.6141 23.7893 7.3182 3.8849 30.1556
# 2 64.6141 168.2069 31.9504 0.4851 20.4578 17.0268
# 3 23.7893 31.9504 64.8393 0.8310 8.2305 2.6908
# 4 7.3182 0.4851 0.8310 35.8435 -4.2909 -4.4345
# 5 3.8849 20.4578 8.2305 -4.2909 38.7323 12.0631
# 6 30.1556 17.0268 2.6908 -4.4345 12.0631 63.1078
#
#
#
# Elastic Compliance Matrix: (Units=1/GPa)
#
#
# Indices 1 2 3 4 5 6 
#
# 1 0.012102 -0.003948 -0.002593 -0.002683 0.002784 -0.005328
# 2 -0.003948 0.008269 -0.002192 0.000370 -0.003609 0.000465
# 3 -0.002593 -0.002192 0.017750 0.000006 -0.002858 0.001620
# 4 -0.002683 0.000370 0.000006 0.029075 0.002434 0.002760
# 5 0.002784 -0.003609 -0.002858 0.002434 0.030136 -0.005824
# 6 -0.005328 0.000465 0.001620 0.002760 -0.005824 0.019504
#
#
# Mechanical properties :
#
#
# Convention : Reuss Voigt Hill
#
# Bulk Modulus (GPa) = 48.41420 66.28519 57.34970
# Shear Modulus (GPa) = 35.41447 43.23708 39.32577
#
# Velocity S-wave (km/s) = 3.56750 3.94187 3.75935
# Velocity P-wave (km/s) = 5.86245 6.67375 6.28121
#
# Compressibility (1/GPa) = 0.02065510
#
# Stress axis : x y z
#
# Youngs Moduli (GPa) = 82.63334 120.93702 56.33938
#
# Poissons Ratio (x) = 0.47743 0.14607
# Poissons Ratio (y) = 0.32622 0.12350
# Poissons Ratio (z) = 0.21424 0.26509
#
# Static dielectric constant tensor:
#      x y z
#    x 2.163030 -0.027710 -0.028240 
#    y -0.027710 2.165160 0.037930 
#    z -0.028240 0.037930 2.257320 
# 
# From -- ./inp_files/174733.got.cif
#   From: 2010.05.17/outbox.cif.g08.bks.cpg/sg2_88_cif.got.tgz:174733.got - 2010.06.03 11:33:40.
