data_PCOD9004402
_publ_section_title
;
Structure prediction by ZEFSAII (Michael W. Deem and Ramdas Pophale) SiO2 
 PCOD9004402
Probable space group: P -1
;
_chemical_formula_sum "Si O2"
_cell_formula_units_Z 16
_cell_length_a 13.271774
_cell_length_b 12.319065
_cell_length_c 15.135106
_cell_angle_alpha 27.074022
_cell_angle_beta 44.580877
_cell_angle_gamma 62.834253
_cell_volume 657.051064
_symmetry_space_group_name_H-M "P -1"
_symmetry_group_IT_number 2
_symmetry_cell_setting 'triclinic'
loop_
_space_group_symop_operation_xyz
x,y,z
-x,-y,-z
loop_
_atom_site_type_symbol
_atom_site_label
_atom_site_fract_x
_atom_site_fract_y
_atom_site_fract_z
Si Si1 0.666178 0.011877 0.277925
Si Si2 0.702083 0.309530 0.215461
Si Si3 0.587797 0.670999 0.910937
Si Si4 0.066747 0.808241 0.631952
Si Si5 0.407967 0.176757 0.825197
Si Si6 0.737361 0.184810 0.666040
Si Si7 0.741900 0.330474 0.838162
Si Si8 0.847487 0.709225 0.347297
O O1 0.707419 0.107876 0.284043
O O2 0.465136 0.885642 0.478243
O O3 0.700178 0.772064 0.405437
O O4 0.778495 0.292758 0.943041
O O5 0.642847 0.493438 0.064567
O O6 0.890870 0.523765 0.981909
O O7 0.767026 0.982554 0.562886
O O8 0.500000 0.500000 0.000000
O O9 0.437303 0.687013 0.038260
O O10 0.139303 0.745920 0.543807
O O11 0.000000 0.000000 0.500000
O O12 0.500000 0.500000 0.500000
O O13 0.558568 0.123351 0.785712
O O14 0.304001 0.081786 0.052114
O O15 0.289123 0.948014 0.990645
O O16 0.801902 0.451999 0.497326
O O17 0.874146 0.613675 0.495673
O O18 0.000000 0.000000 0.000000
#
# Coordination Sequence:
#
# PCOD9004402 Si02
#       8
#     2   2   2   2   2   2   2   2
#     4  11  22  40  68  96 134 185 231 275 340 415
#     4  10  22  39  66  97 136 184 231 276 341 406
#     4  11  20  40  67  96 132 176 226 283 342 404
#     4  10  22  39  68  96 132 178 224 284 346 404
#     4  10  21  37  66  95 125 171 226 277 337 403
#     4  10  21  40  63  93 132 173 221 282 337 404
#     4  11  22  39  67  96 130 175 227 279 336 407
#     4  11  24  41  66  96 136 178 227 283 342 405
#
# _framework density 24.351227000000002
#
# number of rings (size 3 to 8) (size 9 to 14) (size 15 to 20)
#    0.000    1.500    3.750    1.500    0.000    2.500 
#    0.000    1.875    8.250    0.000    0.000    0.000 
#    0.000    0.000    0.000    0.000    0.000    0.000 
#
# Total GULP energy -89496.804029 kJ/mol
# GULP energy per Si atom -5593.550252 kJ/mol
# Density = 2.429580 g / cm^3
# Si number density = 24.351227 Si / 1000 Ang^3
#
#
#
# Elastic Constant Matrix: (Units=GPa)
#
#
# Indices 1 2 3 4 5 6 
#
# 1 88.9857 28.8448 39.3368 -0.0205 -10.7998 -2.5986
# 2 28.8448 97.4807 35.9226 -1.4718 -6.2549 -1.4626
# 3 39.3368 35.9226 174.2527 -9.2139 3.1175 11.8689
# 4 -0.0205 -1.4718 -9.2139 28.2419 -2.6148 -0.9142
# 5 -10.7998 -6.2549 3.1175 -2.6148 52.2170 -0.9452
# 6 -2.5986 -1.4626 11.8689 -0.9142 -0.9452 19.8830
#
#
#
# Elastic Compliance Matrix: (Units=1/GPa)
#
#
# Indices 1 2 3 4 5 6 
#
# 1 0.013849 -0.002828 -0.002862 -0.000709 0.002723 0.003407
# 2 -0.002828 0.011903 -0.001943 0.000132 0.000995 0.001719
# 3 -0.002862 -0.001943 0.007240 0.001988 -0.001244 -0.004807
# 4 -0.000709 0.000132 0.001988 0.036224 0.001573 0.000471
# 5 0.002723 0.000995 -0.001244 0.001573 0.020026 0.002196
# 6 0.003407 0.001719 -0.004807 0.000471 0.002196 0.053861
#
#
# Mechanical properties :
#
#
# Convention : Reuss Voigt Hill
#
# Bulk Modulus (GPa) = 56.41411 63.21419 59.81415
# Shear Modulus (GPa) = 30.43598 37.17604 33.80601
#
# Velocity S-wave (km/s) = 3.53919 3.91149 3.72999
# Velocity P-wave (km/s) = 6.31809 6.81288 6.57015
#
# Compressibility (1/GPa) = 0.01772606
#
# Stress axis : x y z
#
# Youngs Moduli (GPa) = 72.20560 84.01173 138.11841
#
# Poissons Ratio (x) = 0.23762 0.39524
# Poissons Ratio (y) = 0.20423 0.26840
# Poissons Ratio (z) = 0.20662 0.16326
#
# Static dielectric constant tensor:
#      x y z
#    x 1.945680 -0.023340 0.025650 
#    y -0.023340 1.883740 0.039400 
#    z 0.025650 0.039400 2.039380 
# 
# From -- ./inp_files/532244.got.cif
#   From: 2010.05.17/outbox.cif.g08.bks.cpg/sg2_267_cif.got.tgz:532244.got - 2010.06.03 11:33:40.
