data_PCOD9004695
_publ_section_title
;
Structure prediction by ZEFSAII (Michael W. Deem and Ramdas Pophale) SiO2 
 PCOD9004695
Probable space group: P -1
;
_chemical_formula_sum "Si O2"
_cell_formula_units_Z 16
_cell_length_a 20.414607
_cell_length_b 11.694151
_cell_length_c 8.259358
_cell_angle_alpha 144.305782
_cell_angle_beta 138.627001
_cell_angle_gamma 32.387617
_cell_volume 602.916224
_symmetry_space_group_name_H-M "P -1"
_symmetry_group_IT_number 2
_symmetry_cell_setting 'triclinic'
loop_
_space_group_symop_operation_xyz
x,y,z
-x,-y,-z
loop_
_atom_site_type_symbol
_atom_site_label
_atom_site_fract_x
_atom_site_fract_y
_atom_site_fract_z
Si Si1 0.646976 0.911204 0.488393
Si Si2 0.747310 0.976385 0.432038
Si Si3 0.109023 0.561450 0.596629
Si Si4 0.957046 0.380933 0.102044
Si Si5 0.361346 0.718590 0.921710
Si Si6 0.625907 0.445750 0.605606
Si Si7 0.374615 0.181913 0.168780
Si Si8 0.849686 0.323458 0.520290
O O1 0.505651 0.034024 0.328465
O O2 0.691291 0.006921 0.539094
O O3 0.740310 0.616639 0.320851
O O4 0.651401 0.035607 0.799395
O O5 0.860829 0.686253 0.281663
O O6 0.743033 0.210688 0.650433
O O7 0.651874 0.998976 0.153147
O O8 0.052212 0.690663 0.813887
O O9 0.072380 0.708383 0.530151
O O10 0.080725 0.362177 0.290560
O O11 0.928718 0.265384 0.768620
O O12 0.365925 0.636515 0.656162
O O13 0.229507 0.773327 0.790349
O O14 0.500000 0.500000 0.000000
O O15 0.500000 0.500000 0.500000
O O16 0.626979 0.677324 0.836052
O O17 0.264479 0.391816 0.320580
#
# Coordination Sequence:
#
# PCOD9004695 Si02
#       8
#     2   2   2   2   2   2   2   2
#     4  11  21  38  56  91 123 162 202 254 312 381
#     4  10  21  39  64  86 121 166 206 261 319 367
#     4  10  22  40  70  88 120 168 210 267 318 358
#     4   9  21  43  65  94 119 156 229 262 298 390
#     4  11  22  40  53  89 137 157 205 254 308 393
#     4  11  21  36  60  85 121 170 194 249 320 362
#     4  10  21  38  57  94 127 152 218 251 303 406
#     4  10  21  40  62  90 123 167 203 263 316 370
#
# _framework density 26.537685
#
# number of rings (size 3 to 8) (size 9 to 14) (size 15 to 20)
#    0.000    1.750    3.750    0.750    3.500    1.500 
#   15.750    0.625    5.500    2.250    0.000    0.000 
#    0.000    0.000    0.000    0.000    0.000    0.000 
#
# Total GULP energy -89350.873956 kJ/mol
# GULP energy per Si atom -5584.429622 kJ/mol
# Density = 2.647728 g / cm^3
# Si number density = 26.537685 Si / 1000 Ang^3
#
#
#
# Elastic Constant Matrix: (Units=GPa)
#
#
# Indices 1 2 3 4 5 6 
#
# 1 118.0932 6.7112 19.8215 -10.3086 -4.8476 24.7239
# 2 6.7112 66.2560 19.5842 -2.4656 5.4507 9.8275
# 3 19.8215 19.5842 134.5341 -16.7498 -2.1674 11.0621
# 4 -10.3086 -2.4656 -16.7498 40.0271 1.7613 -1.5589
# 5 -4.8476 5.4507 -2.1674 1.7613 35.5875 -5.3354
# 6 24.7239 9.8275 11.0621 -1.5589 -5.3354 34.3874
#
#
#
# Elastic Compliance Matrix: (Units=1/GPa)
#
#
# Indices 1 2 3 4 5 6 
#
# 1 0.010245 0.000291 -0.000707 0.002078 0.000140 -0.007106
# 2 0.000291 0.016685 -0.002108 0.000182 -0.003375 -0.004815
# 3 -0.000707 -0.002108 0.008351 0.003113 0.000375 -0.001377
# 4 0.002078 0.000182 0.003113 0.026822 -0.001108 -0.001503
# 5 0.000140 -0.003375 0.000375 -0.001108 0.029504 0.005271
# 6 -0.007106 -0.004815 -0.001377 -0.001503 0.005271 0.036758
#
#
# Mechanical properties :
#
#
# Convention : Reuss Voigt Hill
#
# Bulk Modulus (GPa) = 33.07511 45.67967 39.37739
# Shear Modulus (GPa) = 34.84599 40.18484 37.51541
#
# Velocity S-wave (km/s) = 3.62757 3.89557 3.76395
# Velocity P-wave (km/s) = 5.48053 6.12245 5.81036
#
# Compressibility (1/GPa) = 0.03023421
#
# Stress axis : x y z
#
# Youngs Moduli (GPa) = 97.61142 59.93376 119.75017
#
# Poissons Ratio (x) = -0.01744 0.08461
# Poissons Ratio (y) = -0.02840 0.25238
# Poissons Ratio (z) = 0.06897 0.12631
#
# Static dielectric constant tensor:
#      x y z
#    x 2.418760 -0.033540 0.274120 
#    y -0.033540 2.201780 -0.044570 
#    z 0.274120 -0.044570 2.222670 
# 
# From -- ./inp_files/274182.got.cif
#   From: 2010.05.17/outbox.cif.g08.bks.cpg/sg2_138_cif.got.tgz:274182.got - 2010.06.03 11:33:40.
