data_PCOD9004419
_publ_section_title
;
Structure prediction by ZEFSAII (Michael W. Deem and Ramdas Pophale) SiO2 
 PCOD9004419
Probable space group: P -1
;
_chemical_formula_sum "Si O2"
_cell_formula_units_Z 16
_cell_length_a 9.098623
_cell_length_b 12.511553
_cell_length_c 18.686359
_cell_angle_alpha 24.566075
_cell_angle_beta 93.774828
_cell_angle_gamma 78.530396
_cell_volume 689.803009
_symmetry_space_group_name_H-M "P -1"
_symmetry_group_IT_number 2
_symmetry_cell_setting 'triclinic'
loop_
_space_group_symop_operation_xyz
x,y,z
-x,-y,-z
loop_
_atom_site_type_symbol
_atom_site_label
_atom_site_fract_x
_atom_site_fract_y
_atom_site_fract_z
Si Si1 0.973900 0.562701 0.045103
Si Si2 0.482149 0.662979 0.074384
Si Si3 0.097156 0.406552 0.401112
Si Si4 0.702645 0.646982 0.708080
Si Si5 0.146180 0.867025 0.660972
Si Si6 0.322832 0.737808 0.430963
Si Si7 0.371397 0.246589 0.619700
Si Si8 0.766223 0.496420 0.293658
O O1 0.843713 0.953876 0.808020
O O2 0.869357 0.416248 0.152747
O O3 0.000000 0.500000 0.000000
O O4 0.158071 0.401377 0.196340
O O5 0.331628 0.621137 0.121432
O O6 0.662136 0.302065 0.272398
O O7 0.578066 0.727757 0.101282
O O8 0.415797 0.920464 0.852192
O O9 0.196057 0.407090 0.332053
O O10 0.174643 0.454900 0.444605
O O11 0.870489 0.630150 0.249507
O O12 0.162492 0.033434 0.630838
O O13 0.500000 0.000000 0.500000
O O14 0.939547 0.204285 0.427240
O O15 0.385970 0.423326 0.579277
O O16 0.477477 0.795323 0.405035
O O17 0.264435 0.691125 0.534207
#
# Coordination Sequence:
#
# PCOD9004419 Si02
#       8
#     2   2   2   2   2   2   2   2
#     4  12  24  40  71 101 132 174 216 271 339 395
#     4  12  23  40  68  98 137 171 221 270 336 393
#     4  10  24  43  65  98 137 171 216 271 336 381
#     4  12  25  40  66 106 138 169 214 277 334 394
#     4  10  21  37  66  97 131 167 210 268 334 392
#     4  11  25  46  69  92 136 174 229 267 335 385
#     4  11  27  45  67  95 130 182 226 277 312 400
#     4  10  22  42  67  97 130 175 209 279 333 392
#
# _framework density 23.195028000000001
#
# number of rings (size 3 to 8) (size 9 to 14) (size 15 to 20)
#    0.750    0.250    3.750    2.625    5.250    1.500 
#    0.000    0.625    0.000    0.000    0.000    0.000 
#    0.000    0.000    0.000    0.000    0.000    0.000 
#
# Total GULP energy -89292.769217 kJ/mol
# GULP energy per Si atom -5580.798076 kJ/mol
# Density = 2.314223 g / cm^3
# Si number density = 23.195028 Si / 1000 Ang^3
#
#
#
# Elastic Constant Matrix: (Units=GPa)
#
#
# Indices 1 2 3 4 5 6 
#
# 1 151.2819 26.8444 49.0679 25.9679 -27.3404 13.9993
# 2 26.8444 37.6077 21.8042 19.1403 -8.0038 12.5143
# 3 49.0679 21.8042 64.7360 18.7875 -17.6210 -0.5789
# 4 25.9679 19.1403 18.7875 33.7722 -1.1020 4.6145
# 5 -27.3404 -8.0038 -17.6210 -1.1020 36.4720 11.8157
# 6 13.9993 12.5143 -0.5789 4.6145 11.8157 31.8855
#
#
#
# Elastic Compliance Matrix: (Units=1/GPa)
#
#
# Indices 1 2 3 4 5 6 
#
# 1 0.011333 0.002912 -0.005465 -0.005827 0.009159 -0.008768
# 2 0.002912 0.054051 -0.009044 -0.023779 0.017252 -0.025608
# 3 -0.005465 -0.009044 0.025409 -0.005441 0.004203 0.005640
# 4 -0.005827 -0.023779 -0.005441 0.048786 -0.013948 0.009901
# 5 0.009159 0.017252 0.004203 -0.013948 0.048294 -0.026593
# 6 -0.008768 -0.025608 0.005640 0.009901 -0.026593 0.053786
#
#
# Mechanical properties :
#
#
# Convention : Reuss Voigt Hill
#
# Bulk Modulus (GPa) = 14.79337 49.89540 32.34439
# Shear Modulus (GPa) = 17.39812 30.81987 24.10899
#
# Velocity S-wave (km/s) = 2.74173 3.64913 3.22748
# Velocity P-wave (km/s) = 4.05147 6.26999 5.27860
#
# Compressibility (1/GPa) = 0.06759785
#
# Stress axis : x y z
#
# Youngs Moduli (GPa) = 88.23876 18.50120 39.35543
#
# Poissons Ratio (x) = -0.05387 0.21508
# Poissons Ratio (y) = -0.25691 0.35593
# Poissons Ratio (z) = 0.48223 0.16733
#
# Static dielectric constant tensor:
#      x y z
#    x 1.920640 0.017370 0.016300 
#    y 0.017370 2.010160 -0.053690 
#    z 0.016300 -0.053690 1.893220 
# 
# From -- ./inp_files/590417.got.cif
#   From: 2010.05.17/outbox.cif.g08.bks.cpg/sg2_296_cif.got.tgz:590417.got - 2010.06.03 11:33:40.
