data_PCOD9004630
_publ_section_title
;
Structure prediction by ZEFSAII (Michael W. Deem and Ramdas Pophale) SiO2 
 PCOD9004630
Probable space group: P -1
;
_chemical_formula_sum "Si O2"
_cell_formula_units_Z 15
_cell_length_a 5.804076
_cell_length_b 18.408697
_cell_length_c 7.636173
_cell_angle_alpha 95.765405
_cell_angle_beta 42.261608
_cell_angle_gamma 91.050696
_cell_volume 544.008610
_symmetry_space_group_name_H-M "P -1"
_symmetry_group_IT_number 2
_symmetry_cell_setting 'triclinic'
loop_
_space_group_symop_operation_xyz
x,y,z
-x,-y,-z
loop_
_atom_site_type_symbol
_atom_site_label
_atom_site_fract_x
_atom_site_fract_y
_atom_site_fract_z
Si Si1 0.962298 0.287921 0.867645
Si Si2 0.008462 0.318606 0.436249
Si Si3 0.649369 0.549882 0.666360
Si Si4 0.652064 0.189541 0.501304
Si Si5 0.362629 0.060923 0.726753
Si Si6 0.308993 0.418523 0.765435
Si Si7 0.340766 0.853481 0.910815
Si Si8 0.500000 0.000000 0.000000
O O1 0.306064 0.242250 0.734843
O O2 0.996395 0.366933 0.960652
O O3 0.010322 0.300040 0.637035
O O4 0.673057 0.231169 0.042025
O O5 0.958508 0.242078 0.350836
O O6 0.658107 0.369126 0.604977
O O7 0.308640 0.372578 0.241124
O O8 0.350079 0.495659 0.859122
O O9 0.666199 0.566141 0.452894
O O10 0.000000 0.500000 0.500000
O O11 0.635978 0.121437 0.624065
O O12 0.629055 0.154695 0.315566
O O13 0.036437 0.105502 0.835765
O O14 0.500000 0.000000 0.500000
O O15 0.314802 0.020661 0.924501
O O16 0.577837 0.911757 0.871039
#
# Coordination Sequence:
#
# PCOD9004630 Si02
#       8
#     2   2   2   2   2   2   2   1
#     4   9  19  35  54  79 111 152 192 239 295 348
#     4   9  16  30  52  78 111 150 191 238 292 344
#     4   8  13  23  46  82 113 149 192 232 289 347
#     4  10  21  38  56  81 117 149 191 248 287 350
#     4  11  24  44  62  89 120 149 197 250 296 361
#     4   8  14  26  48  79 115 146 191 243 281 342
#     4  11  24  41  59  86 115 151 201 241 301 361
#     4  12  24  40  64  86 112 156 190 240 306 352
#
# _framework density 27.573093
#
# number of rings (size 3 to 8) (size 9 to 14) (size 15 to 20)
#    0.000    2.400    1.333    1.200    0.000    1.600 
#    0.000    0.000    0.000    0.800    0.000   84.000 
#    0.000    0.000    0.000    0.000    0.000    0.000 
#
# Total GULP energy -83683.509844 kJ/mol
# GULP energy per Si atom -5578.900656 kJ/mol
# Density = 2.751034 g / cm^3
# Si number density = 27.573093 Si / 1000 Ang^3
#
#
#
# Elastic Constant Matrix: (Units=GPa)
#
#
# Indices 1 2 3 4 5 6 
#
# 1 104.8506 47.0243 14.5783 -17.8251 -10.7436 18.3812
# 2 47.0243 254.7344 20.5415 -11.6248 -6.6656 47.2620
# 3 14.5783 20.5415 46.1870 -4.5411 -7.8009 10.2015
# 4 -17.8251 -11.6248 -4.5411 40.1204 7.8263 0.0868
# 5 -10.7436 -6.6656 -7.8009 7.8263 39.3869 2.7109
# 6 18.3812 47.2620 10.2015 0.0868 2.7109 67.8648
#
#
#
# Elastic Compliance Matrix: (Units=1/GPa)
#
#
# Indices 1 2 3 4 5 6 
#
# 1 0.011683 -0.001393 -0.001898 0.004211 0.001875 -0.001989
# 2 -0.001393 0.004826 -0.000962 0.000614 0.000320 -0.002853
# 3 -0.001898 -0.000962 0.024021 0.000804 0.004096 -0.002592
# 4 0.004211 0.000614 0.000804 0.027851 -0.004015 -0.001564
# 5 0.001875 0.000320 0.004096 -0.004015 0.027733 -0.002449
# 6 -0.001989 -0.002853 -0.002592 -0.001564 -0.002449 0.017750
#
#
# Mechanical properties :
#
#
# Convention : Reuss Voigt Hill
#
# Bulk Modulus (GPa) = 31.22696 63.34003 47.28350
# Shear Modulus (GPa) = 37.58137 51.04959 44.31548
#
# Velocity S-wave (km/s) = 3.69585 4.30749 4.01334
# Velocity P-wave (km/s) = 5.43711 6.91092 6.21784
#
# Compressibility (1/GPa) = 0.03202361
#
# Stress axis : x y z
#
# Youngs Moduli (GPa) = 85.59584 207.20624 41.62989
#
# Poissons Ratio (x) = 0.28872 0.07901
# Poissons Ratio (y) = 0.11927 0.04005
# Poissons Ratio (z) = 0.16245 0.19934
#
# Static dielectric constant tensor:
#      x y z
#    x 1.862880 0.055990 0.041250 
#    y 0.055990 2.277430 -0.026670 
#    z 0.041250 -0.026670 2.057860 
# 
# From -- ./inp_files/9679.got.cif
#   From: 2010.05.17/outbox.cif.g08.bks.cpg/sg2_5_cif.got.tgz:9679.got - 2010.06.03 11:33:40.
