data_PCOD9004734
_publ_section_title
;
Structure prediction by ZEFSAII (Michael W. Deem and Ramdas Pophale) SiO2 
 PCOD9004734
Probable space group: P -1
;
_chemical_formula_sum "Si O2"
_cell_formula_units_Z 16
_cell_length_a 6.319593
_cell_length_b 25.265813
_cell_length_c 6.043285
_cell_angle_alpha 94.622017
_cell_angle_beta 96.386324
_cell_angle_gamma 130.213593
_cell_volume 717.371785
_symmetry_space_group_name_H-M "P -1"
_symmetry_group_IT_number 2
_symmetry_cell_setting 'triclinic'
loop_
_space_group_symop_operation_xyz
x,y,z
-x,-y,-z
loop_
_atom_site_type_symbol
_atom_site_label
_atom_site_fract_x
_atom_site_fract_y
_atom_site_fract_z
Si Si1 0.170987 0.581394 0.274976
Si Si2 0.262993 0.953757 0.768675
Si Si3 0.064831 0.167235 0.988649
Si Si4 0.512519 0.085894 0.602794
Si Si5 0.476199 0.705055 0.666777
Si Si6 0.421996 0.545898 0.924543
Si Si7 0.048774 0.665570 0.983483
Si Si8 0.504650 0.797929 0.326233
O O1 0.366347 0.633657 0.514506
O O2 0.860847 0.506972 0.273932
O O3 0.328971 0.565860 0.130214
O O4 0.106056 0.622794 0.129213
O O5 0.369596 0.927770 0.595707
O O6 0.997834 0.886485 0.846322
O O7 0.262154 0.009474 0.657305
O O8 0.500000 0.000000 0.000000
O O9 0.237039 0.244881 0.139355
O O10 0.265544 0.175488 0.827866
O O11 0.766955 0.131157 0.827556
O O12 0.447963 0.135592 0.555179
O O13 0.223280 0.683940 0.787106
O O14 0.525888 0.756084 0.497550
O O15 0.715419 0.616395 0.887599
O O16 0.500000 0.500000 0.000000
O O17 0.196949 0.737909 0.157318
#
# Coordination Sequence:
#
# PCOD9004734 Si02
#       8
#     2   2   2   2   2   2   2   2
#     4   9  19  38  59  82 116 151 187 236 288 339
#     4   9  20  38  60  86 115 151 195 239 289 347
#     4  10  21  39  59  84 118 152 192 241 292 347
#     4  10  21  40  61  84 117 153 192 241 292 343
#     4  10  21  38  58  86 119 152 194 239 287 344
#     4   9  18  37  60  82 114 152 189 235 286 336
#     4   9  20  36  55  84 116 148 191 236 284 342
#     4  10  22  38  58  86 117 152 196 241 286 342
#
# _framework density 22.303636000000001
#
# number of rings (size 3 to 8) (size 9 to 14) (size 15 to 20)
#    0.000    2.500    0.000    0.750    0.000    9.000 
#    0.000   24.375    0.000    0.000    0.000    0.000 
#    0.000    0.000    0.000    0.000    0.000    0.000 
#
# Total GULP energy -89372.206128 kJ/mol
# GULP energy per Si atom -5585.762883 kJ/mol
# Density = 2.225287 g / cm^3
# Si number density = 22.303636 Si / 1000 Ang^3
#
#
#
# Elastic Constant Matrix: (Units=GPa)
#
#
# Indices 1 2 3 4 5 6 
#
# 1 44.5774 38.9526 24.5659 9.3105 11.6725 -7.0867
# 2 38.9526 127.1455 40.0728 10.3591 -5.3750 10.8104
# 3 24.5659 40.0728 90.0058 20.3770 -1.1019 3.5674
# 4 9.3105 10.3591 20.3770 52.2175 -0.2816 -7.0341
# 5 11.6725 -5.3750 -1.1019 -0.2816 17.0352 4.9872
# 6 -7.0867 10.8104 3.5674 -7.0341 4.9872 47.8943
#
#
#
# Elastic Compliance Matrix: (Units=1/GPa)
#
#
# Indices 1 2 3 4 5 6 
#
# 1 0.064582 -0.020868 -0.009609 -0.001133 -0.057568 0.020810
# 2 -0.020868 0.016245 -0.000850 -0.000267 0.022006 -0.009022
# 3 -0.009609 -0.000850 0.015415 -0.004618 0.008387 -0.003930
# 4 -0.001133 -0.000267 -0.004618 0.021670 -0.000257 0.003446
# 5 -0.057568 0.022006 0.008387 -0.000257 0.113222 -0.025937
# 6 0.020810 -0.009022 -0.003930 0.003446 -0.025937 0.029494
#
#
# Mechanical properties :
#
#
# Convention : Reuss Voigt Hill
#
# Bulk Modulus (GPa) = 29.77149 52.10128 40.93638
# Shear Modulus (GPa) = 14.94867 33.97188 24.46028
#
# Velocity S-wave (km/s) = 2.59170 3.90700 3.31523
# Velocity P-wave (km/s) = 4.72579 6.61540 5.74877
#
# Compressibility (1/GPa) = 0.03358919
#
# Stress axis : x y z
#
# Youngs Moduli (GPa) = 15.48428 61.55763 64.87076
#
# Poissons Ratio (x) = 1.28456 0.62335
# Poissons Ratio (y) = 0.32312 0.05512
# Poissons Ratio (z) = 0.14879 0.05230
#
# Static dielectric constant tensor:
#      x y z
#    x 1.779900 0.005320 0.046340 
#    y 0.005320 1.858200 0.017590 
#    z 0.046340 0.017590 1.815550 
# 
# From -- ./inp_files/12776.got.cif
#   From: 2010.05.17/outbox.cif.g08.bks.cpg/sg2_7_cif.got.tgz:12776.got - 2010.06.03 11:33:40.
