data_PCOD9004572
_publ_section_title
;
Structure prediction by ZEFSAII (Michael W. Deem and Ramdas Pophale) SiO2 
 PCOD9004572
Probable space group: P -1
;
_chemical_formula_sum "Si O2"
_cell_formula_units_Z 16
_cell_length_a 10.112139
_cell_length_b 11.744907
_cell_length_c 12.930074
_cell_angle_alpha 107.811291
_cell_angle_beta 112.895823
_cell_angle_gamma 132.191835
_cell_volume 583.046543
_symmetry_space_group_name_H-M "P -1"
_symmetry_group_IT_number 2
_symmetry_cell_setting 'triclinic'
loop_
_space_group_symop_operation_xyz
x,y,z
-x,-y,-z
loop_
_atom_site_type_symbol
_atom_site_label
_atom_site_fract_x
_atom_site_fract_y
_atom_site_fract_z
Si Si1 0.327307 0.772798 0.811194
Si Si2 0.307815 0.063399 0.204675
Si Si3 0.696413 0.031385 0.285420
Si Si4 0.410931 0.407697 0.132922
Si Si5 0.784030 0.479261 0.896595
Si Si6 0.027213 0.328357 0.686551
Si Si7 0.736672 0.698448 0.529765
Si Si8 0.536920 0.808409 0.495535
O O1 0.235526 0.787466 0.690538
O O2 0.086842 0.512022 0.734871
O O3 0.547977 0.836802 0.838365
O O4 0.500000 0.000000 0.000000
O O5 0.986611 0.907316 0.075582
O O6 0.555084 0.269348 0.432829
O O7 0.142613 0.808277 0.099125
O O8 0.849925 0.146071 0.478425
O O9 0.912829 0.104036 0.301815
O O10 0.329492 0.703262 0.104819
O O11 0.444154 0.574386 0.163691
O O12 0.631664 0.489393 0.151069
O O13 0.544259 0.499896 0.316656
O O14 0.714890 0.391563 0.731879
O O15 0.770415 0.098401 0.632114
O O16 0.500000 0.500000 0.500000
O O17 0.762971 0.859474 0.563428
#
# Coordination Sequence:
#
# PCOD9004572 Si02
#       8
#     2   2   2   2   2   2   2   2
#     4  12  29  43  61  92 138 184 218 271 335 387
#     4  10  24  43  66 101 132 168 227 277 319 396
#     4  10  22  43  67  93 134 177 217 269 332 396
#     4   8  19  39  64  96 132 157 213 277 327 377
#     4   8  19  43  67 100 131 167 215 280 325 393
#     4  10  22  45  67  95 130 175 226 269 325 404
#     4  10  21  37  71 101 132 168 212 277 335 395
#     4  10  21  41  73 102 126 172 219 273 343 379
#
# _framework density 27.442063000000001
#
# number of rings (size 3 to 8) (size 9 to 14) (size 15 to 20)
#    0.750    1.500    0.000    1.125    7.000    5.500 
#    2.250    1.250    0.000    0.000    0.000    0.000 
#    0.000    0.000    0.000    0.000    0.000    0.000 
#
# Total GULP energy -89518.076700 kJ/mol
# GULP energy per Si atom -5594.879794 kJ/mol
# Density = 2.737960 g / cm^3
# Si number density = 27.442063 Si / 1000 Ang^3
#
#
#
# Elastic Constant Matrix: (Units=GPa)
#
#
# Indices 1 2 3 4 5 6 
#
# 1 83.6663 4.9897 13.6303 -2.6771 1.8152 -5.1368
# 2 4.9897 110.8687 29.1469 14.7374 -10.7351 -0.8853
# 3 13.6303 29.1469 83.6640 -10.0541 -20.2297 11.8402
# 4 -2.6771 14.7374 -10.0541 45.7374 -1.8600 -13.6778
# 5 1.8152 -10.7351 -20.2297 -1.8600 31.6789 -2.3645
# 6 -5.1368 -0.8853 11.8402 -13.6778 -2.3645 45.5261
#
#
#
# Elastic Compliance Matrix: (Units=1/GPa)
#
#
# Indices 1 2 3 4 5 6 
#
# 1 0.012631 -0.000139 -0.002807 0.000746 -0.002352 0.002255
# 2 -0.000139 0.010742 -0.004042 -0.004329 0.000812 -0.000014
# 3 -0.002807 -0.004042 0.017136 0.004398 0.009767 -0.003023
# 4 0.000746 -0.004329 0.004398 0.026498 0.003376 0.006992
# 5 -0.002352 0.000812 0.009767 0.003376 0.038428 0.000221
# 6 0.002255 -0.000014 -0.003023 0.006992 0.000221 0.025118
#
#
# Mechanical properties :
#
#
# Convention : Reuss Voigt Hill
#
# Bulk Modulus (GPa) = 37.68902 41.52588 39.60745
# Shear Modulus (GPa) = 32.59993 39.95063 36.27528
#
# Velocity S-wave (km/s) = 3.45041 3.81966 3.63972
# Velocity P-wave (km/s) = 5.44405 5.88371 5.66814
#
# Compressibility (1/GPa) = 0.02653293
#
# Stress axis : x y z
#
# Youngs Moduli (GPa) = 79.16897 93.08843 58.35701
#
# Poissons Ratio (x) = 0.01296 0.16383
# Poissons Ratio (y) = 0.01102 0.23586
# Poissons Ratio (z) = 0.22226 0.37623
#
# Static dielectric constant tensor:
#      x y z
#    x 2.173470 0.004000 0.035730 
#    y 0.004000 2.152220 0.006540 
#    z 0.035730 0.006540 2.132170 
# 
# From -- ./inp_files/428415.got.cif
#   From: 2010.05.17/outbox.cif.g08.bks.cpg/sg2_215_cif.got.tgz:428415.got - 2010.06.03 11:33:40.
