data_PCOD9004504
_publ_section_title
;
Structure prediction by ZEFSAII (Michael W. Deem and Ramdas Pophale) SiO2 
 PCOD9004504
Probable space group: P -1
;
_chemical_formula_sum "Si O2"
_cell_formula_units_Z 16
_cell_length_a 8.579942
_cell_length_b 5.378582
_cell_length_c 21.024663
_cell_angle_alpha 52.285838
_cell_angle_beta 55.573002
_cell_angle_gamma 68.499459
_cell_volume 632.780238
_symmetry_space_group_name_H-M "P -1"
_symmetry_group_IT_number 2
_symmetry_cell_setting 'triclinic'
loop_
_space_group_symop_operation_xyz
x,y,z
-x,-y,-z
loop_
_atom_site_type_symbol
_atom_site_label
_atom_site_fract_x
_atom_site_fract_y
_atom_site_fract_z
Si Si1 0.020992 0.569482 0.076513
Si Si2 0.731953 0.080425 0.872368
Si Si3 0.831243 0.096835 0.631553
Si Si4 0.369616 0.281339 0.371596
Si Si5 0.695811 0.945442 0.044584
Si Si6 0.789210 0.210188 0.438114
Si Si7 0.012688 0.208282 0.695240
Si Si8 0.226386 0.610027 0.733513
O O1 0.143720 0.246415 0.104751
O O2 0.833729 0.630657 0.065668
O O3 0.921032 0.608193 0.163641
O O4 0.175952 0.819888 0.982025
O O5 0.525762 0.084215 0.886122
O O6 0.871561 0.310573 0.767875
O O7 0.693067 0.121864 0.949180
O O8 0.742460 0.444674 0.606407
O O9 0.879204 0.025014 0.705784
O O10 0.711463 0.870057 0.650474
O O11 0.039519 0.047077 0.561741
O O12 0.561411 0.450716 0.284900
O O13 0.381525 0.967990 0.462851
O O14 0.763394 0.347953 0.351596
O O15 0.879088 0.506626 0.406330
O O16 0.171311 0.956990 0.718580
#
# Coordination Sequence:
#
# PCOD9004504 Si02
#       8
#     2   2   2   2   2   2   2   2
#     4  10  21  41  61  94 133 169 221 271 338 398
#     4  10  21  40  63  98 129 169 220 274 332 411
#     4  11  25  43  66  98 134 177 228 283 333 397
#     4  12  26  42  68 100 134 177 231 280 333 398
#     4  10  21  37  68  92 130 174 216 269 340 405
#     4  11  23  43  68  92 136 180 226 275 341 399
#     4  10  23  42  65  93 136 180 220 279 343 397
#     4  10  25  41  62  95 133 178 222 283 335 405
#
# _framework density 25.285240999999999
#
# number of rings (size 3 to 8) (size 9 to 14) (size 15 to 20)
#    0.000    1.500    1.250    2.625    7.000    0.500 
#    0.000    1.250    0.000    0.000    0.000    0.000 
#    0.000    0.000    0.000    0.000    0.000    0.000 
#
# Total GULP energy -89134.049242 kJ/mol
# GULP energy per Si atom -5570.878078 kJ/mol
# Density = 2.522769 g / cm^3
# Si number density = 25.285241 Si / 1000 Ang^3
#
#
#
# Elastic Constant Matrix: (Units=GPa)
#
#
# Indices 1 2 3 4 5 6 
#
# 1 119.9370 31.6650 19.7926 -1.0766 -3.1348 -6.6668
# 2 31.6650 84.3690 10.3823 -16.5364 1.1607 7.6483
# 3 19.7926 10.3823 61.8190 -7.8878 7.4038 -5.9545
# 4 -1.0766 -16.5364 -7.8878 31.9441 -1.3952 9.8556
# 5 -3.1348 1.1607 7.4038 -1.3952 38.9919 4.7130
# 6 -6.6668 7.6483 -5.9545 9.8556 4.7130 32.4162
#
#
#
# Elastic Compliance Matrix: (Units=1/GPa)
#
#
# Indices 1 2 3 4 5 6 
#
# 1 0.010193 -0.004584 -0.002729 -0.003808 0.000890 0.003705
# 2 -0.004584 0.016548 -0.000821 0.010828 0.000697 -0.008392
# 3 -0.002729 -0.000821 0.018292 0.003016 -0.003879 0.002640
# 4 -0.003808 0.010828 0.003016 0.042580 0.002264 -0.016059
# 5 0.000890 0.000697 -0.003879 0.002264 0.027159 -0.005331
# 6 0.003705 -0.008392 0.002640 -0.016059 -0.005331 0.039733
#
#
# Mechanical properties :
#
#
# Convention : Reuss Voigt Hill
#
# Bulk Modulus (GPa) = 34.76708 43.31167 39.03937
# Shear Modulus (GPa) = 27.72185 34.28943 31.00564
#
# Velocity S-wave (km/s) = 3.31473 3.68653 3.50556
# Velocity P-wave (km/s) = 5.33195 5.94029 5.64432
#
# Compressibility (1/GPa) = 0.02876284
#
# Stress axis : x y z
#
# Youngs Moduli (GPa) = 98.10194 60.43070 54.66957
#
# Poissons Ratio (x) = 0.27704 0.14921
# Poissons Ratio (y) = 0.44973 0.04491
# Poissons Ratio (z) = 0.26775 0.04964
#
# Static dielectric constant tensor:
#      x y z
#    x 2.076990 0.006320 0.104090 
#    y 0.006320 2.070190 0.024940 
#    z 0.104090 0.024940 2.041400 
# 
# From -- ./inp_files/585468.got.cif
#   From: 2010.05.17/outbox.cif.g08.bks.cpg/sg2_293_cif.got.tgz:585468.got - 2010.06.03 11:33:40.
