data_PCOD9004410
_publ_section_title
;
Structure prediction by ZEFSAII (Michael W. Deem and Ramdas Pophale) SiO2 
 PCOD9004410
Probable space group: P -1
;
_chemical_formula_sum "Si O2"
_cell_formula_units_Z 14
_cell_length_a 20.293168
_cell_length_b 8.913555
_cell_length_c 24.724291
_cell_angle_alpha 36.595462
_cell_angle_beta 164.271638
_cell_angle_gamma 149.609943
_cell_volume 600.891102
_symmetry_space_group_name_H-M "P -1"
_symmetry_group_IT_number 2
_symmetry_cell_setting 'triclinic'
loop_
_space_group_symop_operation_xyz
x,y,z
-x,-y,-z
loop_
_atom_site_type_symbol
_atom_site_label
_atom_site_fract_x
_atom_site_fract_y
_atom_site_fract_z
Si Si1 0.046920 0.425996 0.881294
Si Si2 0.916858 0.672862 0.511572
Si Si3 0.028998 0.218189 0.101297
Si Si4 0.599440 0.739451 0.709323
Si Si5 0.828702 0.780326 0.667388
Si Si6 0.875089 0.579237 0.327313
Si Si7 0.562039 0.560624 0.893805
O O1 0.981934 0.656442 0.788216
O O2 0.234517 0.368047 0.089500
O O3 0.223762 0.529155 0.934746
O O4 0.752201 0.095654 0.735518
O O5 0.733816 0.446246 0.481576
O O6 0.162799 0.635101 0.690600
O O7 0.689213 0.566613 0.312819
O O8 0.000000 0.000000 0.500000
O O9 0.322491 0.309646 0.274731
O O10 0.027012 0.118488 0.189158
O O11 0.000000 0.500000 0.000000
O O12 0.761906 0.927685 0.943908
O O13 0.500000 0.500000 0.500000
O O14 0.881012 0.077321 0.595350
O O15 0.000000 0.500000 0.500000
O O16 0.586373 0.542229 0.135045
#
# Coordination Sequence:
#
# PCOD9004410 Si02
#       7
#     2   2   2   2   2   2   2
#     4   9  18  38  65  96 126 174 217 273 324 387
#     4  10  21  37  66  96 127 182 219 265 331 394
#     4  11  23  38  68  98 128 176 214 272 335 386
#     4   9  18  37  62  93 134 169 219 266 327 398
#     4  12  26  40  67 104 133 172 228 275 328 400
#     4  10  24  44  65  94 140 176 216 279 338 385
#     4   9  22  41  65  91 132 174 224 266 321 405
#
# _framework density 23.298732000000001
#
# number of rings (size 3 to 8) (size 9 to 14) (size 15 to 20)
#    0.000    2.000    1.429    1.714    6.000    2.286 
#    0.000   12.143    0.000    0.000    0.000    0.000 
#    0.000    0.000    0.000    0.000    0.000    0.000 
#
# Total GULP energy -78264.267278 kJ/mol
# GULP energy per Si atom -5590.304806 kJ/mol
# Density = 2.324570 g / cm^3
# Si number density = 23.298732 Si / 1000 Ang^3
#
#
#
# Elastic Constant Matrix: (Units=GPa)
#
#
# Indices 1 2 3 4 5 6 
#
# 1 172.3031 79.6625 53.6571 -3.0952 53.2884 -24.1410
# 2 79.6625 102.3268 20.9424 -3.3365 5.5567 -6.7438
# 3 53.6571 20.9424 51.5460 3.2694 5.9539 -2.1354
# 4 -3.0952 -3.3365 3.2694 27.2362 3.2446 2.4074
# 5 53.2884 5.5567 5.9539 3.2446 45.4156 -1.2241
# 6 -24.1410 -6.7438 -2.1354 2.4074 -1.2241 46.3342
#
#
#
# Elastic Compliance Matrix: (Units=1/GPa)
#
#
# Indices 1 2 3 4 5 6 
#
# 1 0.036878 -0.020228 -0.025770 0.008081 -0.037627 0.013669
# 2 -0.020228 0.021954 0.009758 -0.002586 0.019786 -0.006237
# 3 -0.025770 0.009758 0.039631 -0.008571 0.024215 -0.009095
# 4 0.008081 -0.002586 -0.008571 0.039540 -0.010836 0.001098
# 5 -0.037627 0.019786 0.024215 -0.010836 0.060985 -0.013434
# 6 0.013669 -0.006237 -0.009095 0.001098 -0.013434 0.026965
#
#
# Mechanical properties :
#
#
# Convention : Reuss Voigt Hill
#
# Bulk Modulus (GPa) = 38.48942 70.52220 54.50581
# Shear Modulus (GPa) = 16.28154 35.25813 25.76984
#
# Velocity S-wave (km/s) = 2.64638 3.89434 3.32936
# Velocity P-wave (km/s) = 5.08858 7.11025 6.18261
#
# Compressibility (1/GPa) = 0.02598116
#
# Stress axis : x y z
#
# Youngs Moduli (GPa) = 27.11612 45.55024 25.23248
#
# Poissons Ratio (x) = 0.92141 0.65025
# Poissons Ratio (y) = 0.54852 -0.24621
# Poissons Ratio (z) = 0.69879 -0.44446
#
# Static dielectric constant tensor:
#      x y z
#    x 1.911690 0.001740 0.035290 
#    y 0.001740 1.823370 -0.005850 
#    z 0.035290 -0.005850 1.944470 
# 
# From -- ./inp_files/620624.got.cif
#   From: 2010.05.17/outbox.cif.g08.bks.cpg/sg2_311_cif.got.tgz:620624.got - 2010.06.03 11:33:40.
