data_PCOD9004952
_publ_section_title
;
Structure prediction by ZEFSAII (Michael W. Deem and Ramdas Pophale) SiO2 
 PCOD9004952
Probable space group: P -1
;
_chemical_formula_sum "Si O2"
_cell_formula_units_Z 16
_cell_length_a 12.379029
_cell_length_b 23.011188
_cell_length_c 15.910787
_cell_angle_alpha 28.255395
_cell_angle_beta 153.296421
_cell_angle_gamma 135.135459
_cell_volume 896.812121
_symmetry_space_group_name_H-M "P -1"
_symmetry_group_IT_number 2
_symmetry_cell_setting 'triclinic'
loop_
_space_group_symop_operation_xyz
x,y,z
-x,-y,-z
loop_
_atom_site_type_symbol
_atom_site_label
_atom_site_fract_x
_atom_site_fract_y
_atom_site_fract_z
Si Si1 0.983352 0.194487 0.408084
Si Si2 0.925869 0.363672 0.465904
Si Si3 0.228749 0.239068 0.689908
Si Si4 0.789551 0.759823 0.671328
Si Si5 0.265916 0.522922 0.368922
Si Si6 0.567448 0.583126 0.208683
Si Si7 0.781122 0.024916 0.386865
Si Si8 0.525733 0.582343 0.793845
O O1 0.914667 0.064744 0.508692
O O2 0.150692 0.190183 0.611791
O O3 0.134099 0.219861 0.398063
O O4 0.704718 0.309889 0.085016
O O5 0.729486 0.347413 0.418134
O O6 0.032205 0.247461 0.618898
O O7 0.187182 0.370336 0.680691
O O8 0.754568 0.500027 0.123273
O O9 0.198078 0.392730 0.469443
O O10 0.522530 0.150345 0.028444
O O11 0.597586 0.683429 0.655375
O O12 0.709595 0.895998 0.493786
O O13 0.051080 0.659014 0.021326
O O14 0.500000 0.500000 0.500000
O O15 0.348069 0.522754 0.522452
O O16 0.523026 0.524210 0.165299
O O17 0.000000 0.000000 0.500000
#
# Coordination Sequence:
#
# PCOD9004952 Si02
#       8
#     2   2   2   2   2   2   2   2
#     4  11  21  36  63  85 115 155 193 232 288 354
#     4  10  21  38  60  82 118 152 192 238 285 337
#     4  11  21  39  61  86 111 157 197 225 294 346
#     4  11  22  37  55  89 122 146 187 244 290 332
#     4  11  19  33  56  87 119 145 182 240 291 339
#     4  11  19  35  60  86 113 151 190 234 288 339
#     4  10  22  41  57  82 122 157 185 237 287 347
#     4  11  22  37  56  91 115 149 194 243 282 336
#
# _framework density 17.840971
#
# number of rings (size 3 to 8) (size 9 to 14) (size 15 to 20)
#    0.000    1.250    7.500    1.125    1.750    3.000 
#    2.250    0.625    0.000    0.750    0.000    0.000 
#    0.000    0.000    0.000    0.000    0.000    0.000 
#
# Total GULP energy -89088.165164 kJ/mol
# GULP energy per Si atom -5568.010323 kJ/mol
# Density = 1.780036 g / cm^3
# Si number density = 17.840971 Si / 1000 Ang^3
#
#
#
# Elastic Constant Matrix: (Units=GPa)
#
#
# Indices 1 2 3 4 5 6 
#
# 1 95.9951 25.4488 20.4272 7.4163 28.1770 0.5268
# 2 25.4488 87.0485 14.5957 9.2661 -3.4566 -15.1427
# 3 20.4272 14.5957 29.0496 -0.4203 8.8641 1.4741
# 4 7.4163 9.2661 -0.4203 22.5484 -0.9796 5.6518
# 5 28.1770 -3.4566 8.8641 -0.9796 21.3549 6.2895
# 6 0.5268 -15.1427 1.4741 5.6518 6.2895 28.2335
#
#
#
# Elastic Compliance Matrix: (Units=1/GPa)
#
#
# Indices 1 2 3 4 5 6 
#
# 1 0.022143 -0.005231 -0.004082 -0.007858 -0.030295 0.005316
# 2 -0.005231 0.017218 -0.008682 -0.007312 0.010321 0.008950
# 3 -0.004082 -0.008682 0.046071 0.006530 -0.013272 -0.005336
# 4 -0.007858 -0.007312 0.006530 0.055299 0.014430 -0.018400
# 5 -0.030295 0.010321 -0.013272 0.014430 0.100057 -0.018384
# 6 0.005316 0.008950 -0.005336 -0.018400 -0.018384 0.048177
#
#
# Mechanical properties :
#
#
# Convention : Reuss Voigt Hill
#
# Bulk Modulus (GPa) = 20.22532 37.00408 28.61470
# Shear Modulus (GPa) = 14.64405 24.53547 19.58976
#
# Velocity S-wave (km/s) = 2.86809 3.71243 3.31723
# Velocity P-wave (km/s) = 4.72535 6.25798 5.54487
#
# Compressibility (1/GPa) = 0.04944297
#
# Stress axis : x y z
#
# Youngs Moduli (GPa) = 45.16129 58.07897 21.70554
#
# Poissons Ratio (x) = 0.30380 0.08859
# Poissons Ratio (y) = 0.23623 0.18845
# Poissons Ratio (z) = 0.18433 0.50424
#
# Static dielectric constant tensor:
#      x y z
#    x 1.649840 0.022240 0.004800 
#    y 0.022240 1.644540 0.008470 
#    z 0.004800 0.008470 1.600420 
# 
# From -- ./inp_files/404668.got.cif
#   From: 2010.05.17/outbox.cif.g08.bks.cpg/sg2_203_cif.got.tgz:404668.got - 2010.06.03 11:33:40.
