data_PCOD9004261
_publ_section_title
;
Structure prediction by ZEFSAII (Michael W. Deem and Ramdas Pophale) SiO2 
 PCOD9004261
Probable space group: P -1
;
_chemical_formula_sum "Si O2"
_cell_formula_units_Z 14
_cell_length_a 9.086981
_cell_length_b 9.126077
_cell_length_c 8.546908
_cell_angle_alpha 126.838085
_cell_angle_beta 75.587699
_cell_angle_gamma 107.204195
_cell_volume 539.501485
_symmetry_space_group_name_H-M "P -1"
_symmetry_group_IT_number 2
_symmetry_cell_setting 'triclinic'
loop_
_space_group_symop_operation_xyz
x,y,z
-x,-y,-z
loop_
_atom_site_type_symbol
_atom_site_label
_atom_site_fract_x
_atom_site_fract_y
_atom_site_fract_z
Si Si1 0.325545 0.000052 0.494118
Si Si2 0.897012 0.794688 0.439282
Si Si3 0.209644 0.909828 0.801233
Si Si4 0.142882 0.711259 0.129665
Si Si5 0.376825 0.680537 0.794091
Si Si6 0.077034 0.284171 0.100364
Si Si7 0.287653 0.386773 0.349780
O O1 0.264321 0.193388 0.602353
O O2 0.500000 0.000000 0.500000
O O3 0.240186 0.909755 0.611800
O O4 0.268463 0.878023 0.278405
O O5 0.836254 0.760509 0.610205
O O6 0.016410 0.659460 0.272132
O O7 0.000000 0.000000 0.500000
O O8 0.344532 0.876014 0.860251
O O9 0.070919 0.742000 0.767656
O O10 0.156427 0.102719 0.974525
O O11 0.260162 0.618741 0.931499
O O12 0.007128 0.733080 0.055685
O O13 0.333411 0.548347 0.569281
O O14 0.554477 0.679933 0.779153
O O15 0.209830 0.437284 0.241423
#
# Coordination Sequence:
#
# PCOD9004261 Si02
#       7
#     2   2   2   2   2   2   2
#     4  11  22  36  61  94 128 161 202 266 321 367
#     4  10  21  39  63  93 126 167 204 265 311 371
#     4  10  21  38  61  94 121 161 211 258 313 370
#     4  10  22  39  63  93 127 162 217 258 313 375
#     4  10  25  43  62  96 128 171 212 255 311 387
#     4  10  21  37  65  90 120 166 208 265 304 369
#     4  11  24  43  65  89 135 171 206 258 322 368
#
# _framework density 25.949883
#
# number of rings (size 3 to 8) (size 9 to 14) (size 15 to 20)
#    0.000    1.714    1.429    2.571   12.000    3.429 
#    0.000    1.429    0.000    4.286    0.000    0.000 
#    0.000    0.000    0.000    0.000    0.000    0.000 
#
# Total GULP energy -78023.131308 kJ/mol
# GULP energy per Si atom -5573.080808 kJ/mol
# Density = 2.589082 g / cm^3
# Si number density = 25.949883 Si / 1000 Ang^3
#
#
#
# Elastic Constant Matrix: (Units=GPa)
#
#
# Indices 1 2 3 4 5 6 
#
# 1 234.3189 29.2072 94.6351 -9.6597 -2.3543 -28.7553
# 2 29.2072 47.9604 24.0586 -3.5645 -4.4825 -6.7921
# 3 94.6351 24.0586 118.9754 -11.7213 -2.6439 3.2891
# 4 -9.6597 -3.5645 -11.7213 27.9896 1.7998 -4.9541
# 5 -2.3543 -4.4825 -2.6439 1.7998 59.5709 -2.3296
# 6 -28.7553 -6.7921 3.2891 -4.9541 -2.3296 28.7644
#
#
#
# Elastic Compliance Matrix: (Units=1/GPa)
#
#
# Indices 1 2 3 4 5 6 
#
# 1 0.008100 -0.000245 -0.006476 0.001640 0.000320 0.009088
# 2 -0.000245 0.024635 -0.004719 0.002132 0.001829 0.006627
# 3 -0.006476 -0.004719 0.014933 0.001847 -0.000356 -0.009006
# 4 0.001640 0.002132 0.001847 0.038893 -0.000532 0.008587
# 5 0.000320 0.001829 -0.000356 -0.000532 0.017019 0.002079
# 6 0.009088 0.006627 -0.009006 0.008587 0.002079 0.048092
#
#
# Mechanical properties :
#
#
# Convention : Reuss Voigt Hill
#
# Bulk Modulus (GPa) = 40.34192 77.45073 58.89632
# Shear Modulus (GPa) = 27.35023 40.15523 33.75273
#
# Velocity S-wave (km/s) = 3.25000 3.93799 3.61042
# Velocity P-wave (km/s) = 5.44639 7.11253 6.33448
#
# Compressibility (1/GPa) = 0.02478811
#
# Stress axis : x y z
#
# Youngs Moduli (GPa) = 123.46160 40.59261 66.96539
#
# Poissons Ratio (x) = 0.00996 0.43364
# Poissons Ratio (y) = 0.03029 0.31601
# Poissons Ratio (z) = 0.79948 0.19155
#
# Static dielectric constant tensor:
#      x y z
#    x 2.104700 -0.031720 0.002450 
#    y -0.031720 2.206970 0.106360 
#    z 0.002450 0.106360 2.121420 
# 
# From -- ./inp_files/190696.got.cif
#   From: 2010.05.17/outbox.cif.g08.bks.cpg/sg2_96_cif.got.tgz:190696.got - 2010.06.03 11:33:40.
