data_PCOD9004928
_publ_section_title
;
Structure prediction by ZEFSAII (Michael W. Deem and Ramdas Pophale) SiO2 
 PCOD9004928
Probable space group: P -1
;
_chemical_formula_sum "Si O2"
_cell_formula_units_Z 16
_cell_length_a 9.614160
_cell_length_b 7.444253
_cell_length_c 18.349961
_cell_angle_alpha 53.582532
_cell_angle_beta 131.179844
_cell_angle_gamma 136.355928
_cell_volume 664.620367
_symmetry_space_group_name_H-M "P -1"
_symmetry_group_IT_number 2
_symmetry_cell_setting 'triclinic'
loop_
_space_group_symop_operation_xyz
x,y,z
-x,-y,-z
loop_
_atom_site_type_symbol
_atom_site_label
_atom_site_fract_x
_atom_site_fract_y
_atom_site_fract_z
Si Si1 0.154385 0.421946 0.777745
Si Si2 0.622849 0.661436 0.929248
Si Si3 0.733198 0.289169 0.641325
Si Si4 0.957429 0.294801 0.904643
Si Si5 0.585049 0.303697 0.436880
Si Si6 0.094835 0.169777 0.608137
Si Si7 0.742213 0.061575 0.391444
Si Si8 0.169877 0.336001 0.275593
O O1 0.407833 0.508428 0.838710
O O2 0.163988 0.675771 0.686684
O O3 0.912106 0.210369 0.711124
O O4 0.079149 0.360463 0.851496
O O5 0.744369 0.985736 0.904340
O O6 0.500000 0.500000 0.000000
O O7 0.839856 0.656435 0.986746
O O8 0.698633 0.417268 0.527978
O O9 0.778547 0.485840 0.676572
O O10 0.498647 0.029453 0.643706
O O11 0.886919 0.505281 0.839102
O O12 0.785091 0.521260 0.401963
O O13 0.380893 0.321286 0.340632
O O14 0.500000 0.000000 0.500000
O O15 0.880691 0.080090 0.505923
O O16 0.255167 0.136211 0.618297
O O17 0.030790 0.960778 0.700943
#
# Coordination Sequence:
#
# PCOD9004928 Si02
#       8
#     2   2   2   2   2   2   2   2
#     4  10  17  28  48  78 105 135 171 219 265 304
#     4   9  18  30  46  75 115 139 162 215 278 325
#     4  11  19  33  52  76 102 139 185 218 255 317
#     4   9  18  31  49  76 108 139 172 215 273 322
#     4  12  25  36  47  73 113 147 179 224 268 311
#     4  11  20  32  52  73 102 141 182 222 257 305
#     4  11  18  29  54  79 100 134 187 225 253 305
#     4  11  20  35  58  77 102 144 187 220 256 317
#
# _framework density 24.073892000000001
#
# number of rings (size 3 to 8) (size 9 to 14) (size 15 to 20)
#    0.000    1.500    6.250    2.625    0.000    0.500 
#    0.000    0.000    0.000    0.000    0.000    0.875 
#    0.000   31.500    0.000    2.250    0.000    0.250 
#
# Total GULP energy -89090.629143 kJ/mol
# GULP energy per Si atom -5568.164321 kJ/mol
# Density = 2.401910 g / cm^3
# Si number density = 24.073892 Si / 1000 Ang^3
#
#
#
# Elastic Constant Matrix: (Units=GPa)
#
#
# Indices 1 2 3 4 5 6 
#
# 1 62.5624 40.1977 31.6060 4.9375 19.7498 18.1235
# 2 40.1977 125.5734 44.2136 -7.8830 20.4215 33.8130
# 3 31.6060 44.2136 120.4627 -5.1818 45.2731 20.3515
# 4 4.9375 -7.8830 -5.1818 35.9892 17.5598 4.1909
# 5 19.7498 20.4215 45.2731 17.5598 41.9038 7.2520
# 6 18.1235 33.8130 20.3515 4.1909 7.2520 41.0635
#
#
#
# Elastic Compliance Matrix: (Units=1/GPa)
#
#
# Indices 1 2 3 4 5 6 
#
# 1 0.022945 -0.004819 -0.001420 -0.001115 -0.005715 -0.004332
# 2 -0.004819 0.013207 0.000878 0.008116 -0.006996 -0.008776
# 3 -0.001420 0.000878 0.021576 0.018841 -0.029672 -0.007472
# 4 -0.001115 0.008116 0.018841 0.055888 -0.044903 -0.013302
# 5 -0.005715 -0.006996 -0.029672 -0.044903 0.078468 0.013713
# 6 -0.004332 -0.008776 -0.007472 -0.013302 0.013713 0.036130
#
#
# Mechanical properties :
#
#
# Convention : Reuss Voigt Hill
#
# Bulk Modulus (GPa) = 21.27386 60.07035 40.67210
# Shear Modulus (GPa) = 19.63830 36.63005 28.13418
#
# Velocity S-wave (km/s) = 2.85923 3.90496 3.42227
# Velocity P-wave (km/s) = 4.44481 6.73337 5.70503
#
# Compressibility (1/GPa) = 0.04700604
#
# Stress axis : x y z
#
# Youngs Moduli (GPa) = 43.58332 75.71478 46.34811
#
# Poissons Ratio (x) = 0.36489 0.06579
# Poissons Ratio (y) = 0.21004 -0.04069
# Poissons Ratio (z) = 0.06187 -0.06647
#
# Static dielectric constant tensor:
#      x y z
#    x 2.019560 0.002700 -0.019970 
#    y 0.002700 2.234080 -0.026600 
#    z -0.019970 -0.026600 2.096130 
# 
# From -- ./inp_files/472636.got.cif
#   From: 2010.05.17/outbox.cif.g08.bks.cpg/sg2_237_cif.got.tgz:472636.got - 2010.06.03 11:33:40.
