data_PCOD9004659
_publ_section_title
;
Structure prediction by ZEFSAII (Michael W. Deem and Ramdas Pophale) SiO2 
 PCOD9004659
Probable space group: P -1
;
_chemical_formula_sum "Si O2"
_cell_formula_units_Z 14
_cell_length_a 15.861381
_cell_length_b 7.522447
_cell_length_c 13.167525
_cell_angle_alpha 107.280154
_cell_angle_beta 28.100044
_cell_angle_gamma 122.438330
_cell_volume 559.902445
_symmetry_space_group_name_H-M "P -1"
_symmetry_group_IT_number 2
_symmetry_cell_setting 'triclinic'
loop_
_space_group_symop_operation_xyz
x,y,z
-x,-y,-z
loop_
_atom_site_type_symbol
_atom_site_label
_atom_site_fract_x
_atom_site_fract_y
_atom_site_fract_z
Si Si1 0.207198 0.962490 0.360778
Si Si2 0.418151 0.519410 0.871590
Si Si3 0.933191 0.873754 0.199544
Si Si4 0.367230 0.254516 0.689834
Si Si5 0.685492 0.765266 0.889395
Si Si6 0.067042 0.710242 0.651181
Si Si7 0.847517 0.433596 0.251525
O O1 0.362982 0.226120 0.287414
O O2 0.298549 0.035100 0.159553
O O3 0.210839 0.791052 0.407464
O O4 0.939428 0.842602 0.621183
O O5 0.400626 0.451298 0.762157
O O6 0.385977 0.300527 0.928098
O O7 0.195084 0.500815 0.128599
O O8 0.728843 0.740210 0.313912
O O9 0.913627 0.684564 0.259055
O O10 0.929829 0.067436 0.290643
O O11 0.160039 0.006337 0.914784
O O12 0.591788 0.277413 0.457739
O O13 0.500000 0.500000 0.000000
O O14 0.134416 0.669653 0.681334
O O15 0.000000 0.500000 0.000000
#
# Coordination Sequence:
#
# PCOD9004659 Si02
#       7
#     2   2   2   2   2   2   2
#     4   9  16  30  53  81 114 144 178 232 281 330
#     4   9  17  33  56  82 111 146 189 230 278 340
#     4  10  22  40  57  79 114 153 193 240 283 329
#     4  10  21  38  57  79 111 151 193 236 286 338
#     4   8  15  28  52  86 112 139 183 227 278 340
#     4  10  22  36  54  83 113 150 193 230 281 338
#     4  12  24  36  55  81 111 152 198 241 285 334
#
# _framework density 25.004359000000001
#
# number of rings (size 3 to 8) (size 9 to 14) (size 15 to 20)
#    0.000    2.286    0.000    3.857    0.000    4.571 
#    0.000    0.000    0.000    0.857    0.000   99.000 
#    0.000    0.000    0.000    0.000    0.000    0.000 
#
# Total GULP energy -78095.915388 kJ/mol
# GULP energy per Si atom -5578.279671 kJ/mol
# Density = 2.494745 g / cm^3
# Si number density = 25.004359 Si / 1000 Ang^3
#
#
#
# Elastic Constant Matrix: (Units=GPa)
#
#
# Indices 1 2 3 4 5 6 
#
# 1 155.7435 19.9876 64.7423 -22.0107 13.0242 -30.7512
# 2 19.9876 61.9557 15.4263 -21.1238 -3.9207 -19.3151
# 3 64.7423 15.4263 177.6776 -29.7921 3.2769 -16.2347
# 4 -22.0107 -21.1238 -29.7921 28.7569 -1.0523 0.9911
# 5 13.0242 -3.9207 3.2769 -1.0523 42.3752 -20.3924
# 6 -30.7512 -19.3151 -16.2347 0.9911 -20.3924 42.0588
#
#
#
# Elastic Compliance Matrix: (Units=1/GPa)
#
#
# Indices 1 2 3 4 5 6 
#
# 1 0.009175 0.002106 -0.001776 0.006519 0.001257 0.007446
# 2 0.002106 0.032993 0.003149 0.028806 0.014567 0.024291
# 3 -0.001776 0.003149 0.007851 0.009034 0.002454 0.004155
# 4 0.006519 0.028806 0.009034 0.069891 0.014666 0.026946
# 5 0.001257 0.014567 0.002454 0.014666 0.037416 0.026352
# 6 0.007446 0.024291 0.004155 0.026946 0.026352 0.054122
#
#
# Mechanical properties :
#
#
# Convention : Reuss Voigt Hill
#
# Bulk Modulus (GPa) = 17.55087 66.18766 41.86927
# Shear Modulus (GPa) = 22.37312 42.31954 32.34633
#
# Velocity S-wave (km/s) = 2.99451 4.11845 3.60061
# Velocity P-wave (km/s) = 4.35781 7.01023 5.83669
#
# Compressibility (1/GPa) = 0.05697722
#
# Stress axis : x y z
#
# Youngs Moduli (GPa) = 108.99012 30.30935 127.37132
#
# Poissons Ratio (x) = -0.06382 0.22619
# Poissons Ratio (y) = -0.22951 -0.40109
# Poissons Ratio (z) = 0.19355 -0.09544
#
# Static dielectric constant tensor:
#      x y z
#    x 2.077870 -0.023880 0.038280 
#    y -0.023880 2.001520 0.021900 
#    z 0.038280 0.021900 2.054180 
# 
# From -- ./inp_files/529749.got.cif
#   From: 2010.05.17/outbox.cif.g08.bks.cpg/sg2_265_cif.got.tgz:529749.got - 2010.06.03 11:33:40.
