data_PCOD9004964
_publ_section_title
;
Structure prediction by ZEFSAII (Michael W. Deem and Ramdas Pophale) SiO2 
 PCOD9004964
Probable space group: P -1
;
_chemical_formula_sum "Si O2"
_cell_formula_units_Z 16
_cell_length_a 8.260642
_cell_length_b 18.063284
_cell_length_c 25.877509
_cell_angle_alpha 15.458122
_cell_angle_beta 137.729212
_cell_angle_gamma 141.724693
_cell_volume 634.249404
_symmetry_space_group_name_H-M "P -1"
_symmetry_group_IT_number 2
_symmetry_cell_setting 'triclinic'
loop_
_space_group_symop_operation_xyz
x,y,z
-x,-y,-z
loop_
_atom_site_type_symbol
_atom_site_label
_atom_site_fract_x
_atom_site_fract_y
_atom_site_fract_z
Si Si1 0.515322 0.186752 0.035994
Si Si2 0.940891 0.111069 0.256831
Si Si3 0.787960 0.036847 0.387352
Si Si4 0.662133 0.400317 0.674125
Si Si5 0.345128 0.056604 0.324909
Si Si6 0.426892 0.500325 0.715285
Si Si7 0.057783 0.221603 0.677065
Si Si8 0.989991 0.125567 0.999677
O O1 0.760281 0.227172 0.101934
O O2 0.370802 0.834043 0.222573
O O3 0.283409 0.260367 0.956662
O O4 0.596215 0.375327 0.874963
O O5 0.894481 0.143676 0.284271
O O6 0.821586 0.747573 0.464926
O O7 0.232635 0.218733 0.230226
O O8 0.627871 0.214329 0.257318
O O9 0.567901 0.686802 0.572098
O O10 0.000000 0.000000 0.500000
O O11 0.363228 0.341734 0.655009
O O12 0.818731 0.309568 0.817628
O O13 0.372173 0.763748 0.554271
O O14 0.129447 0.921217 0.319826
O O15 0.170204 0.208026 0.838638
O O16 0.003699 0.953991 0.885766
O O17 0.000000 0.500000 0.500000
#
# Coordination Sequence:
#
# PCOD9004964 Si02
#       8
#     2   2   2   2   2   2   2   2
#     4  11  21  35  60  92 130 157 191 234 295 364
#     4  12  22  38  63  92 118 162 201 244 299 362
#     4  10  24  44  66  83 111 155 209 262 309 346
#     4  11  22  33  53  93 126 165 195 226 289 371
#     4  10  21  38  60  84 122 151 206 244 301 348
#     4   9  20  39  57  86 125 159 196 246 292 352
#     4  12  20  33  52  85 127 165 197 242 283 352
#     4  11  20  33  56  88 132 166 190 228 293 361
#
# _framework density 25.226669000000001
#
# number of rings (size 3 to 8) (size 9 to 14) (size 15 to 20)
#    0.750    0.500    2.500    6.750    0.000    1.500 
#    0.000    0.625    0.000    0.750    0.000    0.000 
#    0.000    0.000    0.000    0.000    0.000    0.000 
#
# Total GULP energy -89550.429688 kJ/mol
# GULP energy per Si atom -5596.901856 kJ/mol
# Density = 2.516925 g / cm^3
# Si number density = 25.226669 Si / 1000 Ang^3
#
#
#
# Elastic Constant Matrix: (Units=GPa)
#
#
# Indices 1 2 3 4 5 6 
#
# 1 177.8046 45.0342 51.4912 24.0588 9.1902 21.3514
# 2 45.0342 80.5229 49.6977 12.2914 -0.9452 21.8788
# 3 51.4912 49.6977 110.3837 28.9610 11.0967 -21.5844
# 4 24.0588 12.2914 28.9610 44.1654 -6.1975 11.1502
# 5 9.1902 -0.9452 11.0967 -6.1975 39.6598 18.4139
# 6 21.3514 21.8788 -21.5844 11.1502 18.4139 13.9807
#
#
#
# Elastic Compliance Matrix: (Units=1/GPa)
#
#
# Indices 1 2 3 4 5 6 
#
# 1 0.007065 -0.003741 -0.000145 -0.003462 -0.002867 0.001378
# 2 -0.003741 0.008889 0.003935 -0.008294 -0.008762 0.016033
# 3 -0.000145 0.003935 0.001469 0.004272 0.009444 -0.019514
# 4 -0.003462 -0.008294 0.004272 0.018948 -0.005552 0.017062
# 5 -0.002867 -0.008762 0.009444 -0.005552 0.012704 0.020366
# 6 0.001378 0.016033 -0.019514 0.017062 0.020366 -0.026226
#
#
# Mechanical properties :
#
#
# Convention : Reuss Voigt Hill
#
# Bulk Modulus (GPa) = 57.07453 73.46193 65.26823
# Shear Modulus (GPa) = 174.86943 34.39374 104.63158
#
# Velocity S-wave (km/s) = 8.33485 3.69641 6.44722
# Velocity P-wave (km/s) = 10.73779 6.88491 9.01948
#
# Compressibility (1/GPa) = 0.01752095
#
# Stress axis : x y z
#
# Youngs Moduli (GPa) = 141.54441 112.49536 680.55713
#
# Poissons Ratio (x) = 0.42087 0.09876
# Poissons Ratio (y) = 0.52955 -2.67802
# Poissons Ratio (z) = 0.02054 -0.44267
#
# Static dielectric constant tensor:
#      x y z
#    x 2.063610 -0.008600 0.002810 
#    y -0.008600 1.994370 -0.017280 
#    z 0.002810 -0.017280 1.957590 
# 
# From -- ./inp_files/617475.got.cif
#   From: 2010.05.17/outbox.cif.g08.bks.cpg/sg2_309_cif.got.tgz:617475.got - 2010.06.03 11:33:40.
