data_PCOD9004962
_publ_section_title
;
Structure prediction by ZEFSAII (Michael W. Deem and Ramdas Pophale) SiO2 
 PCOD9004962
Probable space group: P -1
;
_chemical_formula_sum "Si O2"
_cell_formula_units_Z 16
_cell_length_a 12.248282
_cell_length_b 12.705006
_cell_length_c 11.183113
_cell_angle_alpha 60.743735
_cell_angle_beta 150.100814
_cell_angle_gamma 125.073041
_cell_volume 709.768865
_symmetry_space_group_name_H-M "P -1"
_symmetry_group_IT_number 2
_symmetry_cell_setting 'triclinic'
loop_
_space_group_symop_operation_xyz
x,y,z
-x,-y,-z
loop_
_atom_site_type_symbol
_atom_site_label
_atom_site_fract_x
_atom_site_fract_y
_atom_site_fract_z
Si Si1 0.278805 0.580939 0.868763
Si Si2 0.760009 0.025561 0.898011
Si Si3 0.780657 0.367788 0.468986
Si Si4 0.131058 0.239430 0.278655
Si Si5 0.013685 0.842411 0.188039
Si Si6 0.787827 0.189089 0.182923
Si Si7 0.619875 0.958990 0.308093
Si Si8 0.622198 0.632353 0.774781
O O1 0.359165 0.609893 0.791539
O O2 0.289391 0.709428 0.873568
O O3 0.007541 0.490506 0.645233
O O4 0.396516 0.500830 0.105586
O O5 0.798296 0.056693 0.776436
O O6 0.506239 0.991777 0.732342
O O7 0.911740 0.156859 0.035367
O O8 0.881970 0.919440 0.095978
O O9 0.871282 0.251409 0.589969
O O10 0.616163 0.341135 0.443233
O O11 0.273741 0.144300 0.487418
O O12 0.289409 0.356996 0.283189
O O13 0.020157 0.259417 0.287332
O O14 0.815607 0.745478 0.968701
O O15 0.806112 0.078992 0.350632
O O16 0.581006 0.113779 0.937397
#
# Coordination Sequence:
#
# PCOD9004962 Si02
#       8
#     2   2   2   2   2   2   2   2
#     4  10  23  40  57  85 116 150 189 240 280 331
#     4   9  19  34  55  88 121 148 185 234 284 337
#     4  10  21  39  59  86 113 153 190 230 286 340
#     4  10  21  38  60  84 115 150 191 238 280 336
#     4   9  19  34  55  88 121 148 185 234 284 337
#     4  10  23  40  57  85 116 150 189 240 280 331
#     4  10  21  39  59  86 113 153 190 230 286 340
#     4  10  21  38  60  84 115 150 191 238 280 336
#
# _framework density 22.542549000000001
#
# number of rings (size 3 to 8) (size 9 to 14) (size 15 to 20)
#    0.000    2.250    0.000    1.500    3.500    2.500 
#    0.000    5.000    0.000    0.000    0.000    0.000 
#    0.000    0.000    0.000    0.000    0.000    0.000 
#
# Total GULP energy -89380.696806 kJ/mol
# GULP energy per Si atom -5586.293550 kJ/mol
# Density = 2.249124 g / cm^3
# Si number density = 22.542549 Si / 1000 Ang^3
#
#
#
# Elastic Constant Matrix: (Units=GPa)
#
#
# Indices 1 2 3 4 5 6 
#
# 1 105.0538 10.8475 10.6210 -2.2166 11.6526 8.7279
# 2 10.8475 57.0241 -1.7809 -12.4102 -4.8712 -3.0434
# 3 10.6210 -1.7809 26.1400 -7.4164 -3.2258 5.0668
# 4 -2.2166 -12.4102 -7.4164 27.2607 2.8661 -0.7065
# 5 11.6526 -4.8712 -3.2258 2.8661 23.2419 -3.8511
# 6 8.7279 -3.0434 5.0668 -0.7065 -3.8511 28.1930
#
#
#
# Elastic Compliance Matrix: (Units=1/GPa)
#
#
# Indices 1 2 3 4 5 6 
#
# 1 0.011635 -0.003601 -0.005570 -0.001489 -0.007857 -0.004100
# 2 -0.003601 0.021433 0.006024 0.010519 0.006414 0.003486
# 3 -0.005570 0.006024 0.046800 0.014056 0.008058 -0.004583
# 4 -0.001489 0.010519 0.014056 0.045247 -0.000659 0.000114
# 5 -0.007857 0.006414 0.008058 -0.000659 0.050937 0.008618
# 6 -0.004100 0.003486 -0.004583 0.000114 0.008618 0.039119
#
#
# Mechanical properties :
#
#
# Convention : Reuss Voigt Hill
#
# Bulk Modulus (GPa) = 13.59203 25.28813 19.44008
# Shear Modulus (GPa) = 20.32617 26.97446 23.65032
#
# Velocity S-wave (km/s) = 3.00606 3.46295 3.24256
# Velocity P-wave (km/s) = 4.25336 5.21839 4.76040
#
# Compressibility (1/GPa) = 0.07357253
#
# Stress axis : x y z
#
# Youngs Moduli (GPa) = 85.95064 46.65738 21.36768
#
# Poissons Ratio (x) = 0.16802 0.11902
# Poissons Ratio (y) = 0.30952 -0.12871
# Poissons Ratio (z) = 0.47873 -0.28105
#
# Static dielectric constant tensor:
#      x y z
#    x 1.861760 0.033550 -0.022340 
#    y 0.033550 1.810000 0.004100 
#    z -0.022340 0.004100 1.837560 
# 
# From -- ./inp_files/71239.got.cif
#   From: 2010.05.17/outbox.cif.g08.bks.cpg/sg2_36_cif.got.tgz:71239.got - 2010.06.03 11:33:40.
