data_PCOD9004098
_publ_section_title
;
Structure prediction by ZEFSAII (Michael W. Deem and Ramdas Pophale) SiO2 
 PCOD9004098
Probable space group: P -1
;
_chemical_formula_sum "Si O2"
_cell_formula_units_Z 14
_cell_length_a 9.610784
_cell_length_b 7.045375
_cell_length_c 19.422336
_cell_angle_alpha 135.471101
_cell_angle_beta 128.148045
_cell_angle_gamma 47.148721
_cell_volume 653.156312
_symmetry_space_group_name_H-M "P -1"
_symmetry_group_IT_number 2
_symmetry_cell_setting 'triclinic'
loop_
_space_group_symop_operation_xyz
x,y,z
-x,-y,-z
loop_
_atom_site_type_symbol
_atom_site_label
_atom_site_fract_x
_atom_site_fract_y
_atom_site_fract_z
Si Si1 0.533370 0.442560 0.641085
Si Si2 0.758483 0.775091 0.516732
Si Si3 0.892677 0.520135 0.359236
Si Si4 0.134584 0.401952 0.268421
Si Si5 0.411815 0.737144 0.824579
Si Si6 0.631553 0.276154 0.884614
Si Si7 0.747768 0.621420 0.115468
O O1 0.324038 0.473174 0.557117
O O2 0.688042 0.504323 0.660275
O O3 0.505585 0.624241 0.749327
O O4 0.626692 0.088592 0.593201
O O5 0.767460 0.802737 0.443302
O O6 0.966552 0.690685 0.593169
O O7 0.756388 0.377597 0.250986
O O8 0.028655 0.523444 0.340053
O O9 0.956800 0.541815 0.194546
O O10 0.238644 0.040092 0.194710
O O11 0.564973 0.553347 0.882449
O O12 0.315480 0.094730 0.881856
O O13 0.429794 0.290068 0.859999
O O14 0.746364 0.344536 0.999937
#
# Coordination Sequence:
#
# PCOD9004098 Si02
#       7
#     2   2   2   2   2   2   2
#     4  10  21  37  64  89 132 169 214 263 325 375
#     4   9  20  40  57  94 128 174 211 270 314 389
#     4  10  21  37  64  89 132 169 214 263 325 375
#     4  12  23  42  66 100 128 172 216 272 319 392
#     4  11  21  44  67  94 132 180 209 266 321 389
#     4  11  24  43  66  98 134 168 217 271 321 383
#     4  11  24  43  66  98 134 168 217 271 321 383
#
# _framework density 21.434379
#
# number of rings (size 3 to 8) (size 9 to 14) (size 15 to 20)
#    0.000    1.429    2.857    2.571    0.000    1.143 
#    0.000    1.429    0.000    0.000    0.000    0.000 
#    0.000    0.000    0.000    0.000    0.000    0.000 
#
# Total GULP energy -78025.028326 kJ/mol
# GULP energy per Si atom -5573.216309 kJ/mol
# Density = 2.138559 g / cm^3
# Si number density = 21.434379 Si / 1000 Ang^3
#
#
#
# Elastic Constant Matrix: (Units=GPa)
#
#
# Indices 1 2 3 4 5 6 
#
# 1 129.9705 6.1845 32.1948 -0.6426 0.0495 4.2682
# 2 6.1845 77.5313 22.7119 0.0499 0.1067 -5.4137
# 3 32.1948 22.7119 91.3587 -1.5991 -0.1602 -4.2806
# 4 -0.6426 0.0499 -1.5991 8.5841 -3.4682 0.1156
# 5 0.0495 0.1067 -0.1602 -3.4682 15.5419 0.1036
# 6 4.2682 -5.4137 -4.2806 0.1156 0.1036 27.3137
#
#
#
# Elastic Compliance Matrix: (Units=1/GPa)
#
#
# Indices 1 2 3 4 5 6 
#
# 1 0.008519 0.000106 -0.003112 0.000068 -0.000033 -0.001798
# 2 0.000106 0.014055 -0.003443 -0.000885 -0.000345 0.002235
# 3 -0.003112 -0.003443 0.013029 0.002476 0.000708 0.001833
# 4 0.000068 -0.000885 0.002476 0.128579 0.028727 -0.000451
# 5 -0.000033 -0.000345 0.000708 0.028727 0.070765 -0.000342
# 6 -0.001798 0.002235 0.001833 -0.000451 -0.000342 0.037626
#
#
# Mechanical properties :
#
#
# Convention : Reuss Voigt Hill
#
# Bulk Modulus (GPa) = 44.04013 46.78255 45.41134
# Shear Modulus (GPa) = 17.06261 26.13921 21.60091
#
# Velocity S-wave (km/s) = 2.82448 3.49592 3.17798
# Velocity P-wave (km/s) = 5.58820 6.17808 5.89053
#
# Compressibility (1/GPa) = 0.02270657
#
# Stress axis : x y z
#
# Youngs Moduli (GPa) = 117.38204 71.14796 76.75287
#
# Poissons Ratio (x) = -0.00757 0.23883
# Poissons Ratio (y) = -0.01249 0.26426
# Poissons Ratio (z) = 0.36526 0.24497
#
# Static dielectric constant tensor:
#      x y z
#    x 2.106310 -0.134430 -0.001960 
#    y -0.134430 1.833410 0.001310 
#    z -0.001960 0.001310 1.758660 
# 
# From -- ./inp_files/55769.got.cif
#   From: 2010.05.17/outbox.cif.g08.bks.cpg/sg2_28_cif.got.tgz:55769.got - 2010.06.03 11:33:40.
