data_PCOD9004040
_publ_section_title
;
Structure prediction by ZEFSAII (Michael W. Deem and Ramdas Pophale) SiO2 
 PCOD9004040
Probable space group: P -1
;
_chemical_formula_sum "Si O2"
_cell_formula_units_Z 16
_cell_length_a 9.073535
_cell_length_b 18.774497
_cell_length_c 10.154640
_cell_angle_alpha 115.021344
_cell_angle_beta 30.009054
_cell_angle_gamma 113.641347
_cell_volume 781.659759
_symmetry_space_group_name_H-M "P -1"
_symmetry_group_IT_number 2
_symmetry_cell_setting 'triclinic'
loop_
_space_group_symop_operation_xyz
x,y,z
-x,-y,-z
loop_
_atom_site_type_symbol
_atom_site_label
_atom_site_fract_x
_atom_site_fract_y
_atom_site_fract_z
Si Si1 0.298639 0.968885 0.009074
Si Si2 0.661863 0.029471 0.530096
Si Si3 0.874801 0.703427 0.634602
Si Si4 0.682918 0.532817 0.758517
Si Si5 0.321084 0.466231 0.736105
Si Si6 0.588794 0.704594 0.564785
Si Si7 0.890055 0.202792 0.877829
Si Si8 0.591889 0.203222 0.818614
O O1 0.506166 0.979662 0.730527
O O2 0.179877 0.879435 0.060320
O O3 0.500000 0.000000 0.000000
O O4 0.010559 0.017659 0.251803
O O5 0.609447 0.120339 0.669758
O O6 0.500000 0.000000 0.500000
O O7 0.767907 0.625095 0.735773
O O8 0.730472 0.695059 0.593334
O O9 0.216304 0.728901 0.358785
O O10 0.733796 0.773054 0.877709
O O11 0.487929 0.499315 0.761358
O O12 0.000000 0.500000 0.500000
O O13 0.500000 0.500000 0.000000
O O14 0.500000 0.500000 0.500000
O O15 0.348722 0.372980 0.625911
O O16 0.000000 0.500000 0.000000
O O17 0.770055 0.774880 0.401559
O O18 0.261410 0.729100 0.869622
O O19 0.738866 0.197529 0.845687
#
# Coordination Sequence:
#
# PCOD9004040 Si02
#       8
#     2   2   2   2   2   2   2   2
#     4  12  24  42  68  97 129 168 222 269 320 378
#     4  12  26  44  64  98 137 174 213 264 328 389
#     4  10  21  39  65  92 123 169 217 262 314 388
#     4  12  26  44  64  97 135 170 211 264 328 386
#     4  12  24  42  68  96 126 167 219 266 320 379
#     4  10  21  38  63  96 126 161 217 272 318 371
#     4  10  21  37  63  97 125 162 215 276 318 366
#     4  10  21  38  65  93 123 167 220 261 314 389
#
# _framework density 20.469265
#
# number of rings (size 3 to 8) (size 9 to 14) (size 15 to 20)
#    0.000    1.000    2.500    4.500    7.000    0.000 
#    0.000    7.500    0.000    0.000    0.000    0.000 
#    0.000    0.000    0.000    0.000    0.000    0.000 
#
# Total GULP energy -89376.765975 kJ/mol
# GULP energy per Si atom -5586.047873 kJ/mol
# Density = 2.042268 g / cm^3
# Si number density = 20.469265 Si / 1000 Ang^3
#
#
#
# Elastic Constant Matrix: (Units=GPa)
#
#
# Indices 1 2 3 4 5 6 
#
# 1 92.0172 12.1565 39.2701 5.0501 1.0014 13.2555
# 2 12.1565 99.7843 11.6807 2.1679 9.2615 -4.4951
# 3 39.2701 11.6807 116.6955 -7.0314 -5.3510 7.2968
# 4 5.0501 2.1679 -7.0314 49.5205 -10.5683 9.3709
# 5 1.0014 9.2615 -5.3510 -10.5683 33.9454 -2.4640
# 6 13.2555 -4.4951 7.2968 9.3709 -2.4640 22.3922
#
#
#
# Elastic Compliance Matrix: (Units=1/GPa)
#
#
# Indices 1 2 3 4 5 6 
#
# 1 0.013920 -0.001346 -0.004249 -0.000986 -0.001520 -0.006881
# 2 -0.001346 0.010851 -0.001145 -0.001950 -0.003433 0.003786
# 3 -0.004249 -0.001145 0.010557 0.002993 0.002882 -0.002090
# 4 -0.000986 -0.001950 0.002993 0.024406 0.007896 -0.010128
# 5 -0.001520 -0.003433 0.002882 0.007896 0.033327 -0.000366
# 6 -0.006881 0.003786 -0.002090 -0.010128 -0.000366 0.054371
#
#
# Mechanical properties :
#
#
# Convention : Reuss Voigt Hill
#
# Bulk Modulus (GPa) = 45.76772 48.30128 47.03450
# Shear Modulus (GPa) = 29.72756 37.53094 33.62925
#
# Velocity S-wave (km/s) = 3.81504 4.28662 4.05769
# Velocity P-wave (km/s) = 6.46636 6.93890 6.70679
#
# Compressibility (1/GPa) = 0.02184946
#
# Stress axis : x y z
#
# Youngs Moduli (GPa) = 71.83704 92.15559 94.72553
#
# Poissons Ratio (x) = 0.12405 0.40245
# Poissons Ratio (y) = 0.09670 0.10845
# Poissons Ratio (z) = 0.30521 0.10550
#
# Static dielectric constant tensor:
#      x y z
#    x 1.725040 -0.014200 -0.014220 
#    y -0.014200 1.739900 0.007860 
#    z -0.014220 0.007860 1.694110 
# 
# From -- ./inp_files/223734.got.cif
#   From: 2010.05.17/outbox.cif.g08.bks.cpg/sg2_112_cif.got.tgz:223734.got - 2010.06.03 11:33:40.
