data_PCOD9004143
_publ_section_title
;
Structure prediction by ZEFSAII (Michael W. Deem and Ramdas Pophale) SiO2 
 PCOD9004143
Probable space group: P -1
;
_chemical_formula_sum "Si O2"
_cell_formula_units_Z 16
_cell_length_a 16.017314
_cell_length_b 9.117385
_cell_length_c 11.167822
_cell_angle_alpha 103.215774
_cell_angle_beta 150.339253
_cell_angle_gamma 65.130297
_cell_volume 697.397588
_symmetry_space_group_name_H-M "P -1"
_symmetry_group_IT_number 2
_symmetry_cell_setting 'triclinic'
loop_
_space_group_symop_operation_xyz
x,y,z
-x,-y,-z
loop_
_atom_site_type_symbol
_atom_site_label
_atom_site_fract_x
_atom_site_fract_y
_atom_site_fract_z
Si Si1 0.067793 0.137915 0.570397
Si Si2 0.488684 0.328959 0.125171
Si Si3 0.867214 0.629317 0.143527
Si Si4 0.533258 0.128166 0.913001
Si Si5 0.573340 0.814319 0.614130
Si Si6 0.453416 0.662550 0.241204
Si Si7 0.945330 0.266016 0.171118
Si Si8 0.281798 0.957191 0.477629
O O1 0.012934 0.293029 0.623739
O O2 0.001443 0.212096 0.369956
O O3 0.000000 0.000000 0.500000
O O4 0.296235 0.034562 0.844756
O O5 0.514885 0.494843 0.208552
O O6 0.675301 0.174557 0.386012
O O7 0.302961 0.355051 0.975308
O O8 0.463077 0.276836 0.950561
O O9 0.975077 0.430005 0.210253
O O10 0.759013 0.744527 0.915985
O O11 0.609269 0.184517 0.902384
O O12 0.381089 0.072321 0.665599
O O13 0.597841 0.680981 0.516083
O O14 0.500000 0.000000 0.500000
O O15 0.400210 0.845378 0.493521
O O16 0.276213 0.679590 0.101837
O O17 0.068335 0.097149 0.217668
#
# Coordination Sequence:
#
# PCOD9004143 Si02
#       8
#     2   2   2   2   2   2   2   2
#     4  12  21  37  63  97 134 167 204 263 326 379
#     4  10  21  37  64  93 127 160 212 258 311 376
#     4  10  23  42  64  94 128 174 205 262 320 375
#     4  12  20  40  64  96 128 169 212 251 321 385
#     4  11  22  45  71  86 124 176 222 250 306 392
#     4  11  24  41  64  96 127 168 213 262 310 370
#     4  11  24  39  62 100 133 157 210 268 326 367
#     4  11  22  40  68  91 122 176 208 257 317 380
#
# _framework density 22.942436000000001
#
# number of rings (size 3 to 8) (size 9 to 14) (size 15 to 20)
#    0.000    1.000    6.250    1.875    0.000    6.000 
#    2.250    0.625    0.000    0.000    0.000    0.000 
#    0.000    0.000    0.000    0.000    0.000    0.000 
#
# Total GULP energy -89446.993518 kJ/mol
# GULP energy per Si atom -5590.437095 kJ/mol
# Density = 2.289022 g / cm^3
# Si number density = 22.942436 Si / 1000 Ang^3
#
#
#
# Elastic Constant Matrix: (Units=GPa)
#
#
# Indices 1 2 3 4 5 6 
#
# 1 28.4365 6.2089 6.0606 6.9012 -17.3543 2.8871
# 2 6.2089 114.6018 24.5315 8.5159 -11.2962 8.8491
# 3 6.0606 24.5315 34.0129 10.1536 -14.7455 -0.9053
# 4 6.9012 8.5159 10.1536 38.5752 -9.5526 -3.7752
# 5 -17.3543 -11.2962 -14.7455 -9.5526 30.6035 -1.8987
# 6 2.8871 8.8491 -0.9053 -3.7752 -1.8987 36.2436
#
#
#
# Elastic Compliance Matrix: (Units=1/GPa)
#
#
# Indices 1 2 3 4 5 6 
#
# 1 0.055007 -0.000507 0.005585 -0.003434 0.032452 -0.002776
# 2 -0.000507 0.010611 -0.007633 -0.000623 -0.000419 -0.002828
# 3 0.005585 -0.007633 0.044440 -0.005726 0.020159 0.002988
# 4 -0.003434 -0.000623 -0.005726 0.029662 0.004546 0.003610
# 5 0.032452 -0.000419 0.020159 0.004546 0.062165 0.001751
# 6 -0.002776 -0.002828 0.002988 0.003610 0.001751 0.029045
#
#
# Mechanical properties :
#
#
# Convention : Reuss Voigt Hill
#
# Bulk Modulus (GPa) = 9.52883 27.85036 18.68960
# Shear Modulus (GPa) = 18.44867 30.43447 24.44157
#
# Velocity S-wave (km/s) = 2.83879 3.64615 3.26750
# Velocity P-wave (km/s) = 3.86101 5.46731 4.73280
#
# Compressibility (1/GPa) = 0.10494469
#
# Stress axis : x y z
#
# Youngs Moduli (GPa) = 18.17960 94.24454 22.50244
#
# Poissons Ratio (x) = 0.04781 -0.12566
# Poissons Ratio (y) = 0.00922 0.17177
# Poissons Ratio (z) = -0.10152 0.71941
#
# Static dielectric constant tensor:
#      x y z
#    x 1.897480 -0.022810 0.030530 
#    y -0.022810 1.883130 0.002880 
#    z 0.030530 0.002880 1.897440 
# 
# From -- ./inp_files/181881.got.cif
#   From: 2010.05.17/outbox.cif.g08.bks.cpg/sg2_91_cif.got.tgz:181881.got - 2010.06.03 11:33:40.
