data_PCOD9004025
_publ_section_title
;
Structure prediction by ZEFSAII (Michael W. Deem and Ramdas Pophale) SiO2 
 PCOD9004025
Probable space group: P -1
;
_chemical_formula_sum "Si O2"
_cell_formula_units_Z 14
_cell_length_a 7.987018
_cell_length_b 8.662908
_cell_length_c 14.856717
_cell_angle_alpha 101.081899
_cell_angle_beta 139.592073
_cell_angle_gamma 69.597719
_cell_volume 619.987115
_symmetry_space_group_name_H-M "P -1"
_symmetry_group_IT_number 2
_symmetry_cell_setting 'triclinic'
loop_
_space_group_symop_operation_xyz
x,y,z
-x,-y,-z
loop_
_atom_site_type_symbol
_atom_site_label
_atom_site_fract_x
_atom_site_fract_y
_atom_site_fract_z
Si Si1 0.401770 0.862055 0.995438
Si Si2 0.469300 0.642370 0.154169
Si Si3 0.240874 0.960784 0.430625
Si Si4 0.890837 0.299573 0.289406
Si Si5 0.947423 0.161767 0.844137
Si Si6 0.040837 0.486880 0.910105
Si Si7 0.607863 0.638372 0.605560
O O1 0.290042 0.760472 0.864453
O O2 0.565645 0.754129 0.133940
O O3 0.126895 0.990391 0.942842
O O4 0.500000 0.000000 0.000000
O O5 0.700237 0.478060 0.265331
O O6 0.300942 0.745538 0.180697
O O7 0.266432 0.576166 0.000673
O O8 0.136821 0.884919 0.292978
O O9 0.363974 0.811430 0.533519
O O10 0.500000 0.000000 0.500000
O O11 0.020116 0.136437 0.386125
O O12 0.150341 0.332907 0.352706
O O13 0.110647 0.291435 0.903054
O O14 0.763707 0.573692 0.754310
O O15 0.000000 0.500000 0.000000
O O16 0.500000 0.500000 0.500000
#
# Coordination Sequence:
#
# PCOD9004025 Si02
#       7
#     2   2   2   2   2   2   2
#     4  11  22  35  60  94 133 167 216 264 317 385
#     4  11  22  39  61  94 136 165 207 269 344 372
#     4   9  20  38  59  88 117 166 215 257 302 383
#     4  10  22  37  62  93 124 167 213 275 309 385
#     4  10  21  38  60  92 126 169 209 261 324 385
#     4  10  21  37  63  95 130 163 209 265 329 381
#     4  11  20  37  66  92 124 169 222 259 320 390
#
# _framework density 22.581116000000002
#
# number of rings (size 3 to 8) (size 9 to 14) (size 15 to 20)
#    0.000    1.714    2.857    1.714    2.000    0.000 
#    0.000    2.857    0.000    3.429    0.000    0.000 
#    0.000    0.000    0.000    0.000    0.000    0.000 
#
# Total GULP energy -78066.446235 kJ/mol
# GULP energy per Si atom -5576.174731 kJ/mol
# Density = 2.252972 g / cm^3
# Si number density = 22.581116 Si / 1000 Ang^3
#
#
#
# Elastic Constant Matrix: (Units=GPa)
#
#
# Indices 1 2 3 4 5 6 
#
# 1 58.8358 18.7598 -3.7921 2.1398 1.2200 0.3334
# 2 18.7598 128.9092 34.4943 -34.5885 -2.3611 -14.9688
# 3 -3.7921 34.4943 93.3010 -17.7847 2.2441 4.3681
# 4 2.1398 -34.5885 -17.7847 57.0600 9.7124 18.8743
# 5 1.2200 -2.3611 2.2441 9.7124 19.1701 -1.4189
# 6 0.3334 -14.9688 4.3681 18.8743 -1.4189 39.5861
#
#
#
# Elastic Compliance Matrix: (Units=1/GPa)
#
#
# Indices 1 2 3 4 5 6 
#
# 1 0.018434 -0.003831 0.001852 -0.001983 -0.000923 -0.000896
# 2 -0.003831 0.010773 -0.003257 0.005065 -0.000464 0.002034
# 3 0.001852 -0.003257 0.013216 0.004552 -0.004746 -0.005046
# 4 -0.001983 0.005065 0.004552 0.029000 -0.015434 -0.012950
# 5 -0.000923 -0.000464 -0.004746 -0.015434 0.061275 0.009911
# 6 -0.000896 0.002034 -0.005046 -0.012950 0.009911 0.033125
#
#
# Mechanical properties :
#
#
# Convention : Reuss Voigt Hill
#
# Bulk Modulus (GPa) = 31.29952 42.21890 36.75921
# Shear Modulus (GPa) = 26.74589 38.60218 32.67403
#
# Velocity S-wave (km/s) = 3.44530 4.13908 3.80802
# Velocity P-wave (km/s) = 5.45140 6.44824 5.97066
#
# Compressibility (1/GPa) = 0.03194937
#
# Stress axis : x y z
#
# Youngs Moduli (GPa) = 54.24847 92.82249 75.66814
#
# Poissons Ratio (x) = 0.35561 -0.14012
# Poissons Ratio (y) = 0.20783 0.24647
# Poissons Ratio (z) = -0.10046 0.30235
#
# Static dielectric constant tensor:
#      x y z
#    x 2.109950 0.081070 0.155060 
#    y 0.081070 1.987090 -0.019130 
#    z 0.155060 -0.019130 1.860830 
# 
# From -- ./inp_files/274345.got.cif
#   From: 2010.05.17/outbox.cif.g08.bks.cpg/sg2_138_cif.got.tgz:274345.got - 2010.06.03 11:33:40.
