data_PCOD9004357
_publ_section_title
;
Structure prediction by ZEFSAII (Michael W. Deem and Ramdas Pophale) SiO2 
 PCOD9004357
Probable space group: P -1
;
_chemical_formula_sum "Si O2"
_cell_formula_units_Z 14
_cell_length_a 5.014348
_cell_length_b 18.966793
_cell_length_c 11.696859
_cell_angle_alpha 145.828951
_cell_angle_beta 79.804157
_cell_angle_gamma 109.071415
_cell_volume 581.327727
_symmetry_space_group_name_H-M "P -1"
_symmetry_group_IT_number 2
_symmetry_cell_setting 'triclinic'
loop_
_space_group_symop_operation_xyz
x,y,z
-x,-y,-z
loop_
_atom_site_type_symbol
_atom_site_label
_atom_site_fract_x
_atom_site_fract_y
_atom_site_fract_z
Si Si1 0.893064 0.371030 0.173674
Si Si2 0.273936 0.274233 0.572339
Si Si3 0.905730 0.455899 0.820329
Si Si4 0.566905 0.916274 0.145168
Si Si5 0.501429 0.193685 0.229102
Si Si6 0.154407 0.358808 0.365667
Si Si7 0.106155 0.036027 0.411930
O O1 0.004619 0.420278 0.106120
O O2 0.130934 0.360097 0.231698
O O3 0.809089 0.494984 0.395926
O O4 0.646066 0.230214 0.004407
O O5 0.068453 0.349632 0.638463
O O6 0.352313 0.180673 0.345645
O O7 0.136529 0.184461 0.570396
O O8 0.570284 0.382568 0.731551
O O9 0.000000 0.500000 0.000000
O O10 0.409685 0.014454 0.339130
O O11 0.587925 0.923731 0.015076
O O12 0.871212 0.944548 0.219660
O O13 0.844094 0.256777 0.290980
O O14 0.392511 0.305349 0.326999
O O15 0.000000 0.000000 0.500000
#
# Coordination Sequence:
#
# PCOD9004357 Si02
#       7
#     2   2   2   2   2   2   2
#     4  10  22  40  70 102 141 169 221 272 345 400
#     4  12  26  48  71  97 141 182 222 286 339 397
#     4  12  27  44  70 105 138 180 224 275 340 407
#     4  11  26  43  72 103 129 180 229 283 325 404
#     4  11  21  43  68 105 137 167 228 279 354 390
#     4  10  21  37  66 106 143 174 201 276 353 418
#     4  12  29  49  69  92 137 187 236 269 330 398
#
# _framework density 24.082799999999999
#
# number of rings (size 3 to 8) (size 9 to 14) (size 15 to 20)
#    0.000    0.857    2.857    3.429    4.000   10.857 
#    0.000    0.000    0.000    0.000    0.000    0.000 
#    0.000    0.000    0.000    0.000    0.000    0.000 
#
# Total GULP energy -78444.808936 kJ/mol
# GULP energy per Si atom -5603.200638 kJ/mol
# Density = 2.402799 g / cm^3
# Si number density = 24.082800 Si / 1000 Ang^3
#
#
#
# Elastic Constant Matrix: (Units=GPa)
#
#
# Indices 1 2 3 4 5 6 
#
# 1 47.8401 -2.6244 10.4116 -1.0696 8.6385 3.2550
# 2 -2.6244 143.4629 12.2402 -20.0845 12.0258 -5.4712
# 3 10.4116 12.2402 42.0501 -10.5971 9.4805 0.0132
# 4 -1.0696 -20.0845 -10.5971 46.5549 4.3862 -2.1255
# 5 8.6385 12.0258 9.4805 4.3862 43.3726 0.4029
# 6 3.2550 -5.4712 0.0132 -2.1255 0.4029 23.6553
#
#
#
# Elastic Compliance Matrix: (Units=1/GPa)
#
#
# Indices 1 2 3 4 5 6 
#
# 1 0.022947 0.001067 -0.005143 0.000038 -0.003719 -0.002841
# 2 0.001067 0.007862 -0.001104 0.003496 -0.002524 0.002029
# 3 -0.005143 -0.001104 0.028228 0.006399 -0.005497 0.001105
# 4 0.000038 0.003496 0.006399 0.025054 -0.004938 0.003135
# 5 -0.003719 -0.002524 -0.005497 -0.004938 0.026206 -0.000959
# 6 -0.002841 0.002029 0.001105 0.003135 -0.000959 0.043431
#
#
# Mechanical properties :
#
#
# Convention : Reuss Voigt Hill
#
# Bulk Modulus (GPa) = 20.54338 30.37863 25.46101
# Shear Modulus (GPa) = 27.72945 36.93828 32.33386
#
# Velocity S-wave (km/s) = 3.39694 3.92063 3.66814
# Velocity P-wave (km/s) = 4.89228 5.75645 5.34187
#
# Compressibility (1/GPa) = 0.04867748
#
# Stress axis : x y z
#
# Youngs Moduli (GPa) = 43.57939 127.18657 35.42631
#
# Poissons Ratio (x) = -0.13575 0.18221
# Poissons Ratio (y) = -0.04651 0.03910
# Poissons Ratio (z) = 0.22414 0.14036
#
# Static dielectric constant tensor:
#      x y z
#    x 1.894940 0.031160 -0.060660 
#    y 0.031160 1.932920 -0.035430 
#    z -0.060660 -0.035430 1.941820 
# 
# From -- ./inp_files/369503.got.cif
#   From: 2010.05.17/outbox.cif.g08.bks.cpg/sg2_185_cif.got.tgz:369503.got - 2010.06.03 11:33:40.
