data_PCOD9004339
_publ_section_title
;
Structure prediction by ZEFSAII (Michael W. Deem and Ramdas Pophale) SiO2 
 PCOD9004339
Probable space group: P -1
;
_chemical_formula_sum "Si O2"
_cell_formula_units_Z 16
_cell_length_a 8.433248
_cell_length_b 12.461064
_cell_length_c 12.192985
_cell_angle_alpha 132.915877
_cell_angle_beta 59.574319
_cell_angle_gamma 125.169914
_cell_volume 752.993280
_symmetry_space_group_name_H-M "P -1"
_symmetry_group_IT_number 2
_symmetry_cell_setting 'triclinic'
loop_
_space_group_symop_operation_xyz
x,y,z
-x,-y,-z
loop_
_atom_site_type_symbol
_atom_site_label
_atom_site_fract_x
_atom_site_fract_y
_atom_site_fract_z
Si Si1 0.606626 0.481136 0.339316
Si Si2 0.987287 0.408963 0.826035
Si Si3 0.285719 0.455643 0.096454
Si Si4 0.400147 0.910555 0.712022
Si Si5 0.212019 0.127977 0.799679
Si Si6 0.846654 0.101031 0.777848
Si Si7 0.361554 0.821990 0.902007
Si Si8 0.470995 0.679970 0.360546
O O1 0.500000 0.500000 0.500000
O O2 0.523006 0.297109 0.208972
O O3 0.587814 0.605816 0.347325
O O4 0.839783 0.515095 0.270609
O O5 0.798703 0.428252 0.853939
O O6 0.959761 0.230151 0.737560
O O7 0.000000 0.500000 0.000000
O O8 0.311115 0.521725 0.255638
O O9 0.500000 0.500000 0.000000
O O10 0.184461 0.270937 0.978384
O O11 0.297518 0.823669 0.799526
O O12 0.385433 0.786167 0.535621
O O13 0.299029 0.027792 0.779916
O O14 0.636141 0.990377 0.720502
O O15 0.381752 0.211905 0.707816
O O16 0.006442 0.042496 0.743197
O O17 0.791020 0.200958 0.962615
O O18 0.500000 0.000000 0.000000
#
# Coordination Sequence:
#
# PCOD9004339 Si02
#       8
#     2   2   2   2   2   2   2   2
#     4  12  23  42  69  95 137 176 224 281 341 408
#     4  12  20  40  70 101 130 170 236 286 325 401
#     4  10  21  37  65  99 127 166 225 286 330 386
#     4  11  25  43  62  96 142 178 211 277 349 404
#     4  11  22  40  67  98 126 173 226 277 334 393
#     4  11  22  41  70  98 126 173 236 280 323 406
#     4  10  23  40  65  95 130 179 223 272 344 405
#     4  11  23  42  62  97 133 173 220 274 342 399
#
# _framework density 21.248528
#
# number of rings (size 3 to 8) (size 9 to 14) (size 15 to 20)
#    0.000    1.000    5.000    2.625    3.500    1.000 
#    2.250    0.625    0.000    0.000    0.000    0.000 
#    0.000    0.000    0.000    0.000    0.000    0.000 
#
# Total GULP energy -89086.354140 kJ/mol
# GULP energy per Si atom -5567.897134 kJ/mol
# Density = 2.120017 g / cm^3
# Si number density = 21.248528 Si / 1000 Ang^3
#
#
#
# Elastic Constant Matrix: (Units=GPa)
#
#
# Indices 1 2 3 4 5 6 
#
# 1 104.4256 11.1433 8.5977 3.9791 2.5490 -6.7332
# 2 11.1433 80.1056 16.5420 -6.7435 -5.7025 -10.7362
# 3 8.5977 16.5420 113.5342 -3.8721 -2.3650 2.8055
# 4 3.9791 -6.7435 -3.8721 33.7540 -3.8299 -0.9524
# 5 2.5490 -5.7025 -2.3650 -3.8299 14.1882 2.8502
# 6 -6.7332 -10.7362 2.8055 -0.9524 2.8502 28.7321
#
#
#
# Elastic Compliance Matrix: (Units=1/GPa)
#
#
# Indices 1 2 3 4 5 6 
#
# 1 0.010080 -0.001352 -0.000756 -0.001872 -0.003429 0.002209
# 2 -0.001352 0.014414 -0.001874 0.003610 0.005734 0.004803
# 3 -0.000756 -0.001874 0.009248 0.000898 0.001549 -0.001904
# 4 -0.001872 0.003610 0.000898 0.031872 0.010369 0.000851
# 5 -0.003429 0.005734 0.001549 0.010369 0.077700 -0.006177
# 6 0.002209 0.004803 -0.001904 0.000851 -0.006177 0.037944
#
#
# Mechanical properties :
#
#
# Convention : Reuss Voigt Hill
#
# Bulk Modulus (GPa) = 38.79141 41.18126 39.98634
# Shear Modulus (GPa) = 25.27619 32.78701 29.03160
#
# Velocity S-wave (km/s) = 3.45273 3.93240 3.70034
# Velocity P-wave (km/s) = 5.84729 6.32781 6.09229
#
# Compressibility (1/GPa) = 0.02577890
#
# Stress axis : x y z
#
# Youngs Moduli (GPa) = 99.20454 69.37525 108.12951
#
# Poissons Ratio (x) = 0.09377 0.08178
# Poissons Ratio (y) = 0.13409 0.20263
# Poissons Ratio (z) = 0.07503 0.13001
#
# Static dielectric constant tensor:
#      x y z
#    x 1.952550 0.074980 0.015900 
#    y 0.074980 1.766780 0.048210 
#    z 0.015900 0.048210 1.760540 
# 
# From -- ./inp_files/393058.got.cif
#   From: 2010.05.17/outbox.cif.g08.bks.cpg/sg2_197_cif.got.tgz:393058.got - 2010.06.03 11:33:40.
