data_PCOD9004272
_publ_section_title
;
Structure prediction by ZEFSAII (Michael W. Deem and Ramdas Pophale) SiO2 
 PCOD9004272
Probable space group: P -1
;
_chemical_formula_sum "Si O2"
_cell_formula_units_Z 16
_cell_length_a 7.408575
_cell_length_b 15.081594
_cell_length_c 9.575922
_cell_angle_alpha 45.167705
_cell_angle_beta 74.171046
_cell_angle_gamma 92.721976
_cell_volume 683.431752
_symmetry_space_group_name_H-M "P -1"
_symmetry_group_IT_number 2
_symmetry_cell_setting 'triclinic'
loop_
_space_group_symop_operation_xyz
x,y,z
-x,-y,-z
loop_
_atom_site_type_symbol
_atom_site_label
_atom_site_fract_x
_atom_site_fract_y
_atom_site_fract_z
Si Si1 0.014694 0.298264 0.798343
Si Si2 0.588000 0.750908 0.881015
Si Si3 0.465122 0.760968 0.354523
Si Si4 0.811894 0.886700 0.929264
Si Si5 0.699750 0.433154 0.653760
Si Si6 0.688411 0.337024 0.208195
Si Si7 0.885872 0.646460 0.784179
Si Si8 0.898368 0.162288 0.696027
O O1 0.213528 0.411833 0.570853
O O2 0.864588 0.380429 0.751002
O O3 0.919574 0.183370 0.832147
O O4 0.073636 0.218388 0.997459
O O5 0.667853 0.868900 0.845658
O O6 0.424929 0.751404 0.799900
O O7 0.768778 0.733629 0.777792
O O8 0.488748 0.620920 0.145294
O O9 0.354916 0.642407 0.399427
O O10 0.447612 0.705073 0.576829
O O11 0.327721 0.853132 0.279939
O O12 0.676000 0.838720 0.150904
O O13 0.944272 0.038373 0.761225
O O14 0.906686 0.332129 0.202588
O O15 0.741386 0.493058 0.988068
O O16 0.958625 0.700371 0.555187
#
# Coordination Sequence:
#
# PCOD9004272 Si02
#       8
#     2   2   2   2   2   2   2   2
#     4  10  21  37  65  92 123 163 205 267 311 361
#     4  11  24  38  62  95 125 164 203 258 310 374
#     4   9  21  39  64  88 120 160 210 262 307 365
#     4  11  24  37  64  91 126 167 212 251 304 372
#     4   9  21  39  62  95 126 152 208 266 322 353
#     4  10  22  41  65  93 125 162 205 258 322 363
#     4  10  23  39  66  89 128 165 204 257 311 374
#     4  10  21  43  59  89 126 171 209 251 302 374
#
# _framework density 23.411262000000001
#
# number of rings (size 3 to 8) (size 9 to 14) (size 15 to 20)
#    0.000    2.000    0.000    1.875    7.000    3.500 
#    0.000    2.500    0.000    0.000    0.000    0.000 
#    0.000    0.000    0.000    0.000    0.000    0.000 
#
# Total GULP energy -89426.932873 kJ/mol
# GULP energy per Si atom -5589.183305 kJ/mol
# Density = 2.335798 g / cm^3
# Si number density = 23.411262 Si / 1000 Ang^3
#
#
#
# Elastic Constant Matrix: (Units=GPa)
#
#
# Indices 1 2 3 4 5 6 
#
# 1 51.9383 14.5227 12.3587 1.6198 12.0038 2.3828
# 2 14.5227 56.1150 10.8229 0.6441 11.7563 12.6044
# 3 12.3587 10.8229 54.6809 13.4975 5.6253 6.2982
# 4 1.6198 0.6441 13.4975 33.6026 -4.9369 1.7691
# 5 12.0038 11.7563 5.6253 -4.9369 27.1543 10.0670
# 6 2.3828 12.6044 6.2982 1.7691 10.0670 32.7068
#
#
#
# Elastic Compliance Matrix: (Units=1/GPa)
#
#
# Indices 1 2 3 4 5 6 
#
# 1 0.023291 -0.004169 -0.003611 -0.001137 -0.009253 0.003515
# 2 -0.004169 0.021710 -0.002230 0.000310 -0.004743 -0.006190
# 3 -0.003611 -0.002230 0.022309 -0.009104 -0.003071 -0.001736
# 4 -0.001137 0.000310 -0.009104 0.035077 0.009819 -0.003203
# 5 -0.009253 -0.004743 -0.003071 0.009819 0.050166 -0.012879
# 6 0.003515 -0.006190 -0.001736 -0.003203 -0.012879 0.037176
#
#
# Mechanical properties :
#
#
# Convention : Reuss Voigt Hill
#
# Bulk Modulus (GPa) = 21.14682 26.46030 23.80356
# Shear Modulus (GPa) = 22.17166 27.02809 24.59988
#
# Velocity S-wave (km/s) = 3.08076 3.40147 3.24508
# Velocity P-wave (km/s) = 4.65909 5.17238 4.92243
#
# Compressibility (1/GPa) = 0.04728844
#
# Stress axis : x y z
#
# Youngs Moduli (GPa) = 42.93440 46.06120 44.82563
#
# Poissons Ratio (x) = 0.19204 0.16188
# Poissons Ratio (y) = 0.17901 0.09997
# Poissons Ratio (z) = 0.15505 0.10273
#
# Static dielectric constant tensor:
#      x y z
#    x 1.949560 -0.016000 0.025330 
#    y -0.016000 1.843770 -0.001650 
#    z 0.025330 -0.001650 1.860380 
# 
# From -- ./inp_files/199433.got.cif
#   From: 2010.05.17/outbox.cif.g08.bks.cpg/sg2_100_cif.got.tgz:199433.got - 2010.06.03 11:33:40.
