data_PCOD9004893
_publ_section_title
;
Structure prediction by ZEFSAII (Michael W. Deem and Ramdas Pophale) SiO2 
 PCOD9004893
Probable space group: P -1
;
_chemical_formula_sum "Si O2"
_cell_formula_units_Z 14
_cell_length_a 13.591726
_cell_length_b 8.794187
_cell_length_c 9.315526
_cell_angle_alpha 47.039367
_cell_angle_beta 61.400733
_cell_angle_gamma 95.204843
_cell_volume 544.361585
_symmetry_space_group_name_H-M "P -1"
_symmetry_group_IT_number 2
_symmetry_cell_setting 'triclinic'
loop_
_space_group_symop_operation_xyz
x,y,z
-x,-y,-z
loop_
_atom_site_type_symbol
_atom_site_label
_atom_site_fract_x
_atom_site_fract_y
_atom_site_fract_z
Si Si1 0.924649 0.718021 0.158834
Si Si2 0.384542 0.606413 0.441566
Si Si3 0.036584 0.974933 0.330797
Si Si4 0.747448 0.413849 0.863224
Si Si5 0.131927 0.672478 0.911176
Si Si6 0.301714 0.058528 0.982681
Si Si7 0.437280 0.015293 0.384061
O O1 0.045855 0.687793 0.088316
O O2 0.905641 0.768761 0.973508
O O3 0.759662 0.476386 0.482117
O O4 0.000000 0.000000 0.000000
O O5 0.406616 0.782167 0.451045
O O6 0.342666 0.316352 0.695458
O O7 0.545124 0.801929 0.131144
O O8 0.886685 0.716829 0.525997
O O9 0.000000 0.000000 0.500000
O O10 0.163345 0.953555 0.244672
O O11 0.734257 0.176507 0.944683
O O12 0.795923 0.429438 0.985630
O O13 0.583246 0.310567 0.036027
O O14 0.281209 0.944574 0.560725
O O15 0.000000 0.500000 0.000000
O O16 0.500000 0.000000 0.500000
#
# Coordination Sequence:
#
# PCOD9004893 Si02
#       7
#     2   2   2   2   2   2   2
#     4  11  23  39  61  90 124 162 202 250 307 363
#     4   9  17  35  56  88 116 153 205 250 290 352
#     4  11  23  39  61  90 125 159 200 256 307 362
#     4  10  21  38  59  89 118 162 209 244 299 371
#     4  11  19  34  60  89 121 157 200 252 305 353
#     4   9  19  34  61  82 116 156 205 246 291 356
#     4   9  19  32  58  89 122 155 203 253 296 359
#
# _framework density 25.718197
#
# number of rings (size 3 to 8) (size 9 to 14) (size 15 to 20)
#    0.000    2.000    1.429    3.000    6.000    1.143 
#    0.000    0.714    3.143    2.571    0.000    0.000 
#    0.000    0.000    0.000    0.000    0.000    0.000 
#
# Total GULP energy -78147.053416 kJ/mol
# GULP energy per Si atom -5581.932387 kJ/mol
# Density = 2.565966 g / cm^3
# Si number density = 25.718197 Si / 1000 Ang^3
#
#
#
# Elastic Constant Matrix: (Units=GPa)
#
#
# Indices 1 2 3 4 5 6 
#
# 1 87.8243 22.8722 60.3679 1.3983 -44.0840 16.5900
# 2 22.8722 93.5985 49.0511 -14.4118 -26.8373 17.7255
# 3 60.3679 49.0511 211.8363 -5.5482 -74.1192 -7.9680
# 4 1.3983 -14.4118 -5.5482 37.1095 -3.5267 -7.3089
# 5 -44.0840 -26.8373 -74.1192 -3.5267 72.0162 7.7609
# 6 16.5900 17.7255 -7.9680 -7.3089 7.7609 38.0339
#
#
#
# Elastic Compliance Matrix: (Units=1/GPa)
#
#
# Indices 1 2 3 4 5 6 
#
# 1 0.021841 0.002159 -0.002891 -0.001994 0.012621 -0.014097
# 2 0.002159 0.015440 -0.002385 0.004340 0.005802 -0.008987
# 3 -0.002891 -0.002385 0.008180 0.001571 0.005485 0.003268
# 4 -0.001994 0.004340 0.001571 0.030085 0.003019 0.004342
# 5 0.012621 0.005802 0.005485 0.003019 0.030946 -0.012794
# 6 -0.014097 -0.008987 0.003268 0.004342 -0.012794 0.040759
#
#
# Mechanical properties :
#
#
# Convention : Reuss Voigt Hill
#
# Bulk Modulus (GPa) = 25.49196 73.09352 49.29274
# Shear Modulus (GPa) = 30.01949 46.82978 38.42464
#
# Velocity S-wave (km/s) = 3.42021 4.27181 3.86951
# Velocity P-wave (km/s) = 5.05278 7.26731 6.25877
#
# Compressibility (1/GPa) = 0.03922805
#
# Stress axis : x y z
#
# Youngs Moduli (GPa) = 45.78606 64.76770 122.25112
#
# Poissons Ratio (x) = -0.13984 0.35338
# Poissons Ratio (y) = -0.09886 0.29153
# Poissons Ratio (z) = 0.13235 0.15445
#
# Static dielectric constant tensor:
#      x y z
#    x 2.124400 -0.027910 0.107280 
#    y -0.027910 2.056000 0.148250 
#    z 0.107280 0.148250 2.174270 
# 
# From -- ./inp_files/320999.got.cif
#   From: 2010.05.17/outbox.cif.g08.bks.cpg/sg2_161_cif.got.tgz:320999.got - 2010.06.03 11:33:40.
