data_PCOD9004063
_publ_section_title
;
Structure prediction by ZEFSAII (Michael W. Deem and Ramdas Pophale) SiO2 
 PCOD9004063
Probable space group: P -1
;
_chemical_formula_sum "Si O2"
_cell_formula_units_Z 16
_cell_length_a 11.232602
_cell_length_b 8.219580
_cell_length_c 8.948679
_cell_angle_alpha 112.425613
_cell_angle_beta 110.502449
_cell_angle_gamma 65.753742
_cell_volume 677.739308
_symmetry_space_group_name_H-M "P -1"
_symmetry_group_IT_number 2
_symmetry_cell_setting 'triclinic'
loop_
_space_group_symop_operation_xyz
x,y,z
-x,-y,-z
loop_
_atom_site_type_symbol
_atom_site_label
_atom_site_fract_x
_atom_site_fract_y
_atom_site_fract_z
Si Si1 0.116261 0.854911 0.802551
Si Si2 0.522482 0.105393 0.196867
Si Si3 0.707227 0.018187 0.651365
Si Si4 0.338526 0.554205 0.938308
Si Si5 0.739963 0.541500 0.802845
Si Si6 0.095814 0.194481 0.092459
Si Si7 0.774277 0.202376 0.477688
Si Si8 0.424784 0.221770 0.657040
O O1 0.263909 0.750027 0.899142
O O2 0.118426 0.824453 0.616329
O O3 0.025064 0.763437 0.828130
O O4 0.071055 0.073145 0.901131
O O5 0.395358 0.287125 0.216290
O O6 0.648120 0.174634 0.320617
O O7 0.537509 0.943255 0.264928
O O8 0.500000 0.000000 0.000000
O O9 0.797788 0.052898 0.569700
O O10 0.575038 0.203952 0.662374
O O11 0.786502 0.955205 0.814950
O O12 0.654885 0.847690 0.526965
O O13 0.331527 0.403145 0.759038
O O14 0.500000 0.500000 0.000000
O O15 0.274074 0.535249 0.063518
O O16 0.858734 0.632971 0.875949
O O17 0.751406 0.393518 0.624233
#
# Coordination Sequence:
#
# PCOD9004063 Si02
#       8
#     2   2   2   2   2   2   2   2
#     4  11  27  46  68  96 133 177 228 273 334 402
#     4  11  20  38  65 100 133 173 219 269 333 394
#     4  10  22  42  66  95 136 170 218 271 332 394
#     4  12  25  42  68  99 138 173 217 278 335 393
#     4  12  24  40  69  98 134 177 220 278 332 392
#     4  11  25  48  70  93 130 182 226 273 331 405
#     4  11  25  40  64 101 135 172 221 279 333 394
#     4  10  21  37  64 100 129 171 216 266 329 396
#
# _framework density 23.607897000000001
#
# number of rings (size 3 to 8) (size 9 to 14) (size 15 to 20)
#    0.000    1.000    2.500    4.125    3.500    1.500 
#    0.000    0.000    0.000    0.000    0.000    0.000 
#    0.000    0.000    0.000    0.000    0.000    0.000 
#
# Total GULP energy -89410.690379 kJ/mol
# GULP energy per Si atom -5588.168149 kJ/mol
# Density = 2.355416 g / cm^3
# Si number density = 23.607897 Si / 1000 Ang^3
#
#
#
# Elastic Constant Matrix: (Units=GPa)
#
#
# Indices 1 2 3 4 5 6 
#
# 1 100.4088 27.1098 48.4800 13.9489 -20.6939 23.8473
# 2 27.1098 38.4259 40.8376 1.4733 -12.0056 14.3198
# 3 48.4800 40.8376 173.7079 32.3418 -34.3180 14.6409
# 4 13.9489 1.4733 32.3418 37.2390 3.1451 -4.3209
# 5 -20.6939 -12.0056 -34.3180 3.1451 41.6968 -3.9779
# 6 23.8473 14.3198 14.6409 -4.3209 -3.9779 34.7707
#
#
#
# Elastic Compliance Matrix: (Units=1/GPa)
#
#
# Indices 1 2 3 4 5 6 
#
# 1 0.015806 -0.006088 0.000368 -0.007529 0.006130 -0.008723
# 2 -0.006088 0.042958 -0.008867 0.007203 0.000665 -0.008811
# 3 0.000368 -0.008867 0.011342 -0.010489 0.007583 -0.001812
# 4 -0.007529 0.007203 -0.010489 0.040735 -0.012389 0.010259
# 5 0.006130 0.000665 0.007583 -0.012389 0.033883 -0.005335
# 6 -0.008723 -0.008811 -0.001812 0.010259 -0.005335 0.039799
#
#
# Mechanical properties :
#
#
# Convention : Reuss Voigt Hill
#
# Bulk Modulus (GPa) = 24.43023 60.59970 42.51496
# Shear Modulus (GPa) = 21.99323 35.81564 28.90443
#
# Velocity S-wave (km/s) = 3.05553 3.89923 3.50287
# Velocity P-wave (km/s) = 4.77694 6.78210 5.86584
#
# Compressibility (1/GPa) = 0.04093290
#
# Stress axis : x y z
#
# Youngs Moduli (GPa) = 63.26528 23.27834 88.16519
#
# Poissons Ratio (x) = 0.14172 -0.03245
# Poissons Ratio (y) = 0.38516 0.78177
# Poissons Ratio (z) = -0.02328 0.20641
#
# Static dielectric constant tensor:
#      x y z
#    x 2.038960 -0.020390 -0.018260 
#    y -0.020390 1.871320 0.033490 
#    z -0.018260 0.033490 1.954450 
# 
# From -- ./inp_files/245081.got.cif
#   From: 2010.05.17/outbox.cif.g08.bks.cpg/sg2_123_cif.got.tgz:245081.got - 2010.06.03 11:33:40.
