data_PCOD9004193
_publ_section_title
;
Structure prediction by ZEFSAII (Michael W. Deem and Ramdas Pophale) SiO2 
 PCOD9004193
Probable space group: P -1
;
_chemical_formula_sum "Si O2"
_cell_formula_units_Z 16
_cell_length_a 5.976729
_cell_length_b 17.485182
_cell_length_c 8.086639
_cell_angle_alpha 98.453466
_cell_angle_beta 112.198549
_cell_angle_gamma 56.093555
_cell_volume 647.155016
_symmetry_space_group_name_H-M "P -1"
_symmetry_group_IT_number 2
_symmetry_cell_setting 'triclinic'
loop_
_space_group_symop_operation_xyz
x,y,z
-x,-y,-z
loop_
_atom_site_type_symbol
_atom_site_label
_atom_site_fract_x
_atom_site_fract_y
_atom_site_fract_z
Si Si1 0.466209 0.291499 0.611612
Si Si2 0.522498 0.109230 0.478814
Si Si3 0.102555 0.166672 0.896486
Si Si4 0.109358 0.990366 0.779475
Si Si5 0.274500 0.512999 0.084431
Si Si6 0.611382 0.351342 0.378874
Si Si7 0.943698 0.166192 0.214111
Si Si8 0.088094 0.310147 0.763338
O O1 0.416531 0.215518 0.498229
O O2 0.802944 0.228232 0.732271
O O3 0.398413 0.362705 0.470519
O O4 0.310731 0.331702 0.754474
O O5 0.766385 0.055524 0.668053
O O6 0.225981 0.113160 0.396829
O O7 0.701688 0.062638 0.346871
O O8 0.201286 0.060914 0.874765
O O9 0.262824 0.207419 0.857393
O O10 0.048958 0.188154 0.082035
O O11 0.143430 0.907018 0.870566
O O12 0.477992 0.440655 0.259083
O O13 0.113992 0.618686 0.132097
O O14 0.500000 0.500000 0.000000
O O15 0.000000 0.500000 0.000000
O O16 0.890232 0.328323 0.553633
O O17 0.704315 0.260534 0.266770
#
# Coordination Sequence:
#
# PCOD9004193 Si02
#       8
#     2   2   2   2   2   2   2   2
#     4  10  22  43  69 100 136 189 229 297 353 431
#     4  10  21  37  64  96 134 182 239 286 355 420
#     4  10  25  40  64 100 142 180 239 291 368 417
#     4  10  22  40  61  96 139 185 235 292 353 428
#     4  12  31  52  79 115 152 187 237 303 374 438
#     4  11  25  44  75 105 140 187 244 288 367 432
#     4  12  22  39  66  99 138 181 235 300 354 423
#     4  11  25  47  74 100 143 187 239 294 362 436
#
# _framework density 24.723600000000001
#
# number of rings (size 3 to 8) (size 9 to 14) (size 15 to 20)
#    0.000    1.250    2.500    1.875    8.750    5.000 
#    0.000    0.000    0.000    0.000    0.000    0.000 
#    0.000    0.000    0.000    0.000    0.000    0.000 
#
# Total GULP energy -89346.687882 kJ/mol
# GULP energy per Si atom -5584.167993 kJ/mol
# Density = 2.466733 g / cm^3
# Si number density = 24.723600 Si / 1000 Ang^3
#
#
#
# Elastic Constant Matrix: (Units=GPa)
#
#
# Indices 1 2 3 4 5 6 
#
# 1 92.0068 45.0838 43.8461 -14.4643 -17.4744 -3.4004
# 2 45.0838 68.6266 18.8907 0.5738 12.6279 7.7940
# 3 43.8461 18.8907 73.0994 -10.2670 -1.6210 0.3094
# 4 -14.4643 0.5738 -10.2670 37.8824 -8.2563 -11.8672
# 5 -17.4744 12.6279 -1.6210 -8.2563 31.9079 2.0991
# 6 -3.4004 7.7940 0.3094 -11.8672 2.0991 35.6873
#
#
#
# Elastic Compliance Matrix: (Units=1/GPa)
#
#
# Indices 1 2 3 4 5 6 
#
# 1 0.071099 -0.058559 -0.019276 0.048298 0.071553 0.031583
# 2 -0.058559 0.066575 0.010221 -0.045095 -0.067512 -0.031233
# 3 -0.019276 0.010221 0.021349 -0.006734 -0.014890 -0.005617
# 4 0.048298 -0.045095 -0.006734 0.067015 0.059104 0.033317
# 5 0.071553 -0.067512 -0.014890 0.059104 0.109486 0.034906
# 6 0.031583 -0.031233 -0.005617 0.033317 0.034906 0.046926
#
#
# Mechanical properties :
#
#
# Convention : Reuss Voigt Hill
#
# Bulk Modulus (GPa) = 42.02713 49.93044 45.97878
# Shear Modulus (GPa) = 9.51277 29.48966 19.50122
#
# Velocity S-wave (km/s) = 1.96367 3.45740 2.81155
# Velocity P-wave (km/s) = 4.70925 6.01477 5.40160
#
# Compressibility (1/GPa) = 0.02379416
#
# Stress axis : x y z
#
# Youngs Moduli (GPa) = 14.06489 15.02068 46.84138
#
# Poissons Ratio (x) = 0.87959 0.90293
# Poissons Ratio (y) = 0.82362 -0.47877
# Poissons Ratio (z) = 0.27112 -0.15353
#
# Static dielectric constant tensor:
#      x y z
#    x 2.180730 0.070470 0.027580 
#    y 0.070470 1.925090 0.036880 
#    z 0.027580 0.036880 1.941220 
# 
# From -- ./inp_files/137731.got.cif
#   From: 2010.05.17/outbox.cif.g08.bks.cpg/sg2_69_cif.got.tgz:137731.got - 2010.06.03 11:33:40.
