data_PCOD9004014
_publ_section_title
;
Structure prediction by ZEFSAII (Michael W. Deem and Ramdas Pophale) SiO2 
 PCOD9004014
Probable space group: P -1
;
_chemical_formula_sum "Si O2"
_cell_formula_units_Z 16
_cell_length_a 15.498848
_cell_length_b 11.235723
_cell_length_c 9.636178
_cell_angle_alpha 97.585110
_cell_angle_beta 113.119089
_cell_angle_gamma 28.998017
_cell_volume 658.687067
_symmetry_space_group_name_H-M "P -1"
_symmetry_group_IT_number 2
_symmetry_cell_setting 'triclinic'
loop_
_space_group_symop_operation_xyz
x,y,z
-x,-y,-z
loop_
_atom_site_type_symbol
_atom_site_label
_atom_site_fract_x
_atom_site_fract_y
_atom_site_fract_z
Si Si1 0.698995 0.837191 0.679157
Si Si2 0.102491 0.961471 0.778136
Si Si3 0.401019 0.771426 0.376810
Si Si4 0.805914 0.357834 0.390627
Si Si5 0.432025 0.771206 0.890540
Si Si6 0.713672 0.353924 0.765135
Si Si7 0.884773 0.674634 0.312025
Si Si8 0.569674 0.830256 0.181216
O O1 0.932033 0.523716 0.722143
O O2 0.500000 0.000000 0.500000
O O3 0.694025 0.985533 0.662157
O O4 0.633751 0.895481 0.808562
O O5 0.985923 0.138988 0.588750
O O6 0.931881 0.167612 0.826141
O O7 0.307815 0.809744 0.899432
O O8 0.141329 0.778194 0.733883
O O9 0.594067 0.539985 0.350580
O O10 0.523162 0.612021 0.575899
O O11 0.254287 0.825501 0.263611
O O12 0.742182 0.567722 0.354764
O O13 0.257260 0.041028 0.722341
O O14 0.625036 0.492946 0.879242
O O15 0.503475 0.794967 0.040143
O O16 0.704802 0.778397 0.184715
O O17 0.000000 0.500000 0.500000
#
# Coordination Sequence:
#
# PCOD9004014 Si02
#       8
#     2   2   2   2   2   2   2   2
#     4  11  24  43  68  97 126 166 223 273 316 383
#     4  10  21  37  67  95 125 175 216 269 317 382
#     4   9  19  38  63  96 125 162 216 273 317 367
#     4   9  19  40  64  92 129 163 226 263 316 378
#     4  12  26  42  62  99 139 169 213 266 337 388
#     4  10  21  37  63  94 132 165 211 271 316 384
#     4  12  25  43  72  94 124 176 224 267 319 385
#     4  11  26  44  64  96 135 175 207 275 330 388
#
# _framework density 24.290745999999999
#
# number of rings (size 3 to 8) (size 9 to 14) (size 15 to 20)
#    0.000    1.500    2.500    1.875    7.000    2.000 
#    0.000    0.625    0.000    0.000    0.000    0.000 
#    0.000    0.000    0.000    0.000    0.000    0.000 
#
# Total GULP energy -89548.173894 kJ/mol
# GULP energy per Si atom -5596.760868 kJ/mol
# Density = 2.423546 g / cm^3
# Si number density = 24.290746 Si / 1000 Ang^3
#
#
#
# Elastic Constant Matrix: (Units=GPa)
#
#
# Indices 1 2 3 4 5 6 
#
# 1 141.3133 59.1655 32.9177 15.4357 25.9782 -28.8731
# 2 59.1655 128.5046 34.1464 27.0803 9.1718 -23.6025
# 3 32.9177 34.1464 69.4527 11.3840 7.9844 -20.4625
# 4 15.4357 27.0803 11.3840 37.3015 7.0679 -18.1379
# 5 25.9782 9.1718 7.9844 7.0679 30.2646 -11.9569
# 6 -28.8731 -23.6025 -20.4625 -18.1379 -11.9569 41.2721
#
#
#
# Elastic Compliance Matrix: (Units=1/GPa)
#
#
# Indices 1 2 3 4 5 6 
#
# 1 0.010801 -0.003765 -0.001798 0.001697 -0.006748 0.003303
# 2 -0.003765 0.011521 -0.003007 -0.006096 0.002114 0.000398
# 3 -0.001798 -0.003007 0.018548 0.000369 -0.000005 0.006380
# 4 0.001697 -0.006096 0.000369 0.037573 -0.003155 0.013482
# 5 -0.006748 0.002114 -0.000005 -0.003155 0.041777 0.007203
# 6 0.003303 0.000398 0.006380 0.013482 0.007203 0.037942
#
#
# Mechanical properties :
#
#
# Convention : Reuss Voigt Hill
#
# Bulk Modulus (GPa) = 42.13660 65.74777 53.94218
# Shear Modulus (GPa) = 27.29085 35.97038 31.63062
#
# Velocity S-wave (km/s) = 3.35551 3.85233 3.61247
# Velocity P-wave (km/s) = 5.69184 6.84931 6.29722
#
# Compressibility (1/GPa) = 0.02373234
#
# Stress axis : x y z
#
# Youngs Moduli (GPa) = 92.57984 86.79937 53.91346
#
# Poissons Ratio (x) = 0.32678 0.09692
# Poissons Ratio (y) = 0.34854 0.16210
# Poissons Ratio (z) = 0.16644 0.26097
#
# Static dielectric constant tensor:
#      x y z
#    x 1.938340 0.012400 -0.043390 
#    y 0.012400 1.926940 -0.062940 
#    z -0.043390 -0.062940 2.000130 
# 
# From -- ./inp_files/307802.got.cif
#   From: 2010.05.17/outbox.cif.g08.bks.cpg/sg2_154_cif.got.tgz:307802.got - 2010.06.03 11:33:40.
