data_PCOD9004223
_publ_section_title
;
Structure prediction by ZEFSAII (Michael W. Deem and Ramdas Pophale) SiO2 
 PCOD9004223
Probable space group: P -1
;
_chemical_formula_sum "Si O2"
_cell_formula_units_Z 14
_cell_length_a 7.483507
_cell_length_b 13.269982
_cell_length_c 8.257419
_cell_angle_alpha 80.461048
_cell_angle_beta 103.215934
_cell_angle_gamma 52.056947
_cell_volume 577.280562
_symmetry_space_group_name_H-M "P -1"
_symmetry_group_IT_number 2
_symmetry_cell_setting 'triclinic'
loop_
_space_group_symop_operation_xyz
x,y,z
-x,-y,-z
loop_
_atom_site_type_symbol
_atom_site_label
_atom_site_fract_x
_atom_site_fract_y
_atom_site_fract_z
Si Si1 0.281158 0.915959 0.651580
Si Si2 0.014438 0.572862 0.311370
Si Si3 0.556078 0.274473 0.560377
Si Si4 0.765170 0.451466 0.240426
Si Si5 0.049668 0.206327 0.560357
Si Si6 0.232534 0.848323 0.021138
Si Si7 0.770207 0.385977 0.915300
O O1 0.272885 0.041865 0.636801
O O2 0.447254 0.805190 0.570802
O O3 0.000000 0.000000 0.500000
O O4 0.314643 0.857705 0.856482
O O5 0.303847 0.434759 0.444227
O O6 0.909034 0.700254 0.372417
O O7 0.021489 0.630575 0.130010
O O8 0.879771 0.516033 0.292659
O O9 0.814260 0.241377 0.593793
O O10 0.586121 0.218973 0.764253
O O11 0.943567 0.286757 0.346947
O O12 0.501587 0.524315 0.249352
O O13 0.711983 0.476417 0.033959
O O14 0.158215 0.758255 0.003686
O O15 0.000000 0.000000 0.000000
#
# Coordination Sequence:
#
# PCOD9004223 Si02
#       7
#     2   2   2   2   2   2   2
#     4  10  21  37  64  99 134 181 226 272 336 404
#     4  12  23  43  66  98 134 173 226 279 337 400
#     4  11  22  39  68  98 136 179 223 277 340 398
#     4  11  25  39  69  97 129 176 222 279 339 400
#     4  11  20  41  63  93 133 175 221 275 335 395
#     4  12  21  37  69 101 130 178 231 268 335 413
#     4  11  23  42  66  98 132 170 224 277 339 398
#
# _framework density 24.251638
#
# number of rings (size 3 to 8) (size 9 to 14) (size 15 to 20)
#    0.000    0.857    5.714    3.857    2.000    0.000 
#    0.000    0.714    3.143    4.286    0.000    0.000 
#    0.000    0.000    0.000    0.000    0.000    0.000 
#
# Total GULP energy -78136.428916 kJ/mol
# GULP energy per Si atom -5581.173494 kJ/mol
# Density = 2.419644 g / cm^3
# Si number density = 24.251638 Si / 1000 Ang^3
#
#
#
# Elastic Constant Matrix: (Units=GPa)
#
#
# Indices 1 2 3 4 5 6 
#
# 1 83.5189 41.6610 38.6156 5.7734 -9.8445 24.4170
# 2 41.6610 148.4344 66.6020 8.9996 -19.7066 22.7400
# 3 38.6156 66.6020 101.4174 14.1929 -18.4769 13.2853
# 4 5.7734 8.9996 14.1929 45.6032 4.0309 -9.2276
# 5 -9.8445 -19.7066 -18.4769 4.0309 24.2729 -7.7933
# 6 24.4170 22.7400 13.2853 -9.2276 -7.7933 26.5702
#
#
#
# Elastic Compliance Matrix: (Units=1/GPa)
#
#
# Indices 1 2 3 4 5 6 
#
# 1 0.019442 -0.000843 -0.004162 -0.004334 -0.000627 -0.016752
# 2 -0.000843 0.010621 -0.005166 -0.001748 0.002874 -0.005496
# 3 -0.004162 -0.005166 0.016758 -0.004219 0.007796 0.000688
# 4 -0.004334 -0.001748 -0.004219 0.027799 -0.006037 0.015472
# 5 -0.000627 0.002874 0.007796 -0.006037 0.052643 0.007561
# 6 -0.016752 -0.005496 0.000688 0.015472 0.007561 0.064982
#
#
# Mechanical properties :
#
#
# Convention : Reuss Voigt Hill
#
# Bulk Modulus (GPa) = 37.76587 69.68087 53.72337
# Shear Modulus (GPa) = 22.58231 31.72206 27.15218
#
# Velocity S-wave (km/s) = 3.05481 3.62060 3.34968
# Velocity P-wave (km/s) = 5.29611 6.80244 6.09598
#
# Compressibility (1/GPa) = 0.02647893
#
# Stress axis : x y z
#
# Youngs Moduli (GPa) = 51.43607 94.15277 59.67316
#
# Poissons Ratio (x) = 0.07939 0.24836
# Poissons Ratio (y) = 0.04337 0.30825
# Poissons Ratio (z) = 0.21408 0.48636
#
# Static dielectric constant tensor:
#      x y z
#    x 1.936580 -0.015690 -0.003800 
#    y -0.015690 1.968430 0.049880 
#    z -0.003800 0.049880 2.080490 
# 
# From -- ./inp_files/178032.got.cif
#   From: 2010.05.17/outbox.cif.g08.bks.cpg/sg2_90_cif.got.tgz:178032.got - 2010.06.03 11:33:40.
