data_PCOD9004488
_publ_section_title
;
Structure prediction by ZEFSAII (Michael W. Deem and Ramdas Pophale) SiO2 
 PCOD9004488
Probable space group: P -1
;
_chemical_formula_sum "Si O2"
_cell_formula_units_Z 14
_cell_length_a 8.359827
_cell_length_b 13.811754
_cell_length_c 7.767197
_cell_angle_alpha 54.970326
_cell_angle_beta 55.129075
_cell_angle_gamma 69.821997
_cell_volume 602.323856
_symmetry_space_group_name_H-M "P -1"
_symmetry_group_IT_number 2
_symmetry_cell_setting 'triclinic'
loop_
_space_group_symop_operation_xyz
x,y,z
-x,-y,-z
loop_
_atom_site_type_symbol
_atom_site_label
_atom_site_fract_x
_atom_site_fract_y
_atom_site_fract_z
Si Si1 0.556708 0.862543 0.966825
Si Si2 0.954686 0.877411 0.066972
Si Si3 0.419062 0.249584 0.553114
Si Si4 0.823600 0.551016 0.670553
Si Si5 0.192632 0.946304 0.256215
Si Si6 0.090092 0.266164 0.270307
Si Si7 0.186084 0.692456 0.917785
O O1 0.566357 0.787486 0.217621
O O2 0.327698 0.894870 0.069305
O O3 0.688015 0.782725 0.842336
O O4 0.649763 0.994372 0.774994
O O5 0.754036 0.834277 0.316718
O O6 0.098055 0.767552 0.055199
O O7 0.918865 0.930425 0.843610
O O8 0.000000 0.000000 0.000000
O O9 0.327639 0.378440 0.431900
O O10 0.630720 0.242485 0.344767
O O11 0.903226 0.639073 0.678008
O O12 0.000000 0.500000 0.500000
O O13 0.742816 0.436166 0.932184
O O14 0.044977 0.845254 0.491052
O O15 0.986647 0.318689 0.107093
#
# Coordination Sequence:
#
# PCOD9004488 Si02
#       7
#     2   2   2   2   2   2   2
#     4  10  21  40  68 103 136 165 220 273 327 400
#     4  11  24  42  69 101 140 176 218 272 336 397
#     4  11  23  46  68 100 134 172 223 275 332 392
#     4  12  26  48  69  92 137 178 224 282 337 389
#     4  10  21  37  68 101 134 170 214 267 334 387
#     4  12  23  43  70 100 129 179 225 272 332 396
#     4  12  25  45  69  99 134 177 227 275 329 395
#
# _framework density 23.243309
#
# number of rings (size 3 to 8) (size 9 to 14) (size 15 to 20)
#    0.000    0.857    5.714    2.143    0.000    1.714 
#    2.571    1.429    0.000    0.000    0.000    0.000 
#    0.000    0.000    0.000    0.000    0.000    0.000 
#
# Total GULP energy -78085.694106 kJ/mol
# GULP energy per Si atom -5577.549579 kJ/mol
# Density = 2.319041 g / cm^3
# Si number density = 23.243309 Si / 1000 Ang^3
#
#
#
# Elastic Constant Matrix: (Units=GPa)
#
#
# Indices 1 2 3 4 5 6 
#
# 1 50.3722 57.9601 22.2480 4.9438 2.4396 -5.3790
# 2 57.9601 149.4735 53.6164 8.3780 -2.3095 -4.6371
# 3 22.2480 53.6164 125.2009 -13.3479 -20.2090 7.8287
# 4 4.9438 8.3780 -13.3479 57.3622 -16.9720 8.0549
# 5 2.4396 -2.3095 -20.2090 -16.9720 29.5316 -2.5063
# 6 -5.3790 -4.6371 7.8287 8.0549 -2.5063 39.1216
#
#
#
# Elastic Compliance Matrix: (Units=1/GPa)
#
#
# Indices 1 2 3 4 5 6 
#
# 1 0.038152 -0.013180 -0.003586 -0.005704 -0.009493 0.004967
# 2 -0.013180 0.013385 -0.004030 -0.002473 -0.001962 0.000964
# 3 -0.003586 -0.004030 0.013912 0.009022 0.014288 -0.004697
# 4 -0.005704 -0.002473 0.009022 0.027865 0.021853 -0.007220
# 5 -0.009493 -0.001962 0.014288 0.021853 0.056381 -0.005284
# 6 0.004967 0.000964 -0.004697 -0.007220 -0.005284 0.028447
#
#
# Mechanical properties :
#
#
# Convention : Reuss Voigt Hill
#
# Bulk Modulus (GPa) = 41.91958 65.85507 53.88733
# Shear Modulus (GPa) = 21.95999 37.95122 29.95560
#
# Velocity S-wave (km/s) = 3.07707 4.04515 3.59386
# Velocity P-wave (km/s) = 5.54065 7.08605 6.36046
#
# Compressibility (1/GPa) = 0.02385520
#
# Stress axis : x y z
#
# Youngs Moduli (GPa) = 26.21097 74.71111 71.87944
#
# Poissons Ratio (x) = 0.98472 0.25777
# Poissons Ratio (y) = 0.34547 0.28970
# Poissons Ratio (z) = 0.09400 0.30111
#
# Static dielectric constant tensor:
#      x y z
#    x 2.190560 -0.036560 0.116500 
#    y -0.036560 1.842100 -0.000540 
#    z 0.116500 -0.000540 1.944240 
# 
# From -- ./inp_files/199224.got.cif
#   From: 2010.05.17/outbox.cif.g08.bks.cpg/sg2_100_cif.got.tgz:199224.got - 2010.06.03 11:33:40.
