data_PCOD9004188
_publ_section_title
;
Structure prediction by ZEFSAII (Michael W. Deem and Ramdas Pophale) SiO2 
 PCOD9004188
Probable space group: P -1
;
_chemical_formula_sum "Si O2"
_cell_formula_units_Z 10
_cell_length_a 14.734843
_cell_length_b 8.921574
_cell_length_c 12.486616
_cell_angle_alpha 123.990003
_cell_angle_beta 159.342894
_cell_angle_gamma 53.921301
_cell_volume 467.822245
_symmetry_space_group_name_H-M "P -1"
_symmetry_group_IT_number 2
_symmetry_cell_setting 'triclinic'
loop_
_space_group_symop_operation_xyz
x,y,z
-x,-y,-z
loop_
_atom_site_type_symbol
_atom_site_label
_atom_site_fract_x
_atom_site_fract_y
_atom_site_fract_z
Si Si1 0.462302 0.326547 0.818596
Si Si2 0.178983 0.044784 0.865642
Si Si3 0.773675 0.861824 0.276828
Si Si4 0.851661 0.447503 0.145268
Si Si5 0.762326 0.568245 0.848051
O O1 0.156419 0.352837 0.463904
O O2 0.500000 0.500000 0.000000
O O3 0.644696 0.334956 0.918497
O O4 0.582262 0.135636 0.937002
O O5 0.088306 0.140817 0.689267
O O6 0.261121 0.209336 0.086217
O O7 0.928646 0.953149 0.573035
O O8 0.786081 0.645349 0.215572
O O9 0.500000 0.000000 0.000000
O O10 0.819765 0.491061 0.001429
O O11 0.500000 0.500000 0.500000
O O12 0.000000 0.500000 0.000000
#
# Coordination Sequence:
#
# PCOD9004188 Si02
#       5
#     2   2   2   2   2
#     4  12  23  41  64 106 140 165 199 266 352 402
#     4  10  24  38  65  96 129 171 217 269 324 390
#     4  10  21  37  64  96 131 169 214 267 330 391
#     4  11  25  41  67  97 137 168 215 268 329 397
#     4  11  26  48  68  90 126 181 236 271 306 369
#
# _framework density 21.375641000000002
#
# number of rings (size 3 to 8) (size 9 to 14) (size 15 to 20)
#    0.000    1.200    2.000    3.000   14.000    0.000 
#    0.000    6.000    0.000    0.000    0.000    0.000 
#    0.000    0.000    0.000    0.000    0.000    0.000 
#
# Total GULP energy -55761.744615 kJ/mol
# GULP energy per Si atom -5576.174461 kJ/mol
# Density = 2.132699 g / cm^3
# Si number density = 21.375641 Si / 1000 Ang^3
#
#
#
# Elastic Constant Matrix: (Units=GPa)
#
#
# Indices 1 2 3 4 5 6 
#
# 1 121.4059 28.8166 41.4207 2.5464 12.2745 20.5603
# 2 28.8166 134.9674 64.9320 3.8292 -0.8589 7.7065
# 3 41.4207 64.9320 177.5346 -3.3951 15.2096 -4.4736
# 4 2.5464 3.8292 -3.3951 41.6664 -2.0070 -4.1806
# 5 12.2745 -0.8589 15.2096 -2.0070 36.5912 -0.4855
# 6 20.5603 7.7065 -4.4736 -4.1806 -0.4855 33.4618
#
#
#
# Elastic Compliance Matrix: (Units=1/GPa)
#
#
# Indices 1 2 3 4 5 6 
#
# 1 0.010653 -0.000825 -0.002140 -0.001579 -0.002881 -0.006880
# 2 -0.000825 0.009447 -0.003502 -0.001241 0.001856 -0.002265
# 3 -0.002140 -0.003502 0.007731 0.001293 -0.002463 0.003281
# 4 -0.001579 -0.001241 0.001293 0.024840 0.001386 0.004552
# 5 -0.002881 0.001856 -0.002463 0.001386 0.029460 0.001614
# 6 -0.006880 -0.002265 0.003281 0.004552 0.001614 0.035665
#
#
# Mechanical properties :
#
#
# Convention : Reuss Voigt Hill
#
# Bulk Modulus (GPa) = 67.13757 78.24961 72.69359
# Shear Modulus (GPa) = 36.84697 42.25979 39.55338
#
# Velocity S-wave (km/s) = 4.15635 4.45118 4.30629
# Velocity P-wave (km/s) = 7.38311 7.94378 7.66857
#
# Compressibility (1/GPa) = 0.01489479
#
# Stress axis : x y z
#
# Youngs Moduli (GPa) = 93.87426 105.85689 129.34207
#
# Poissons Ratio (x) = 0.08738 0.27682
# Poissons Ratio (y) = 0.07749 0.45300
# Poissons Ratio (z) = 0.20091 0.37074
#
# Static dielectric constant tensor:
#      x y z
#    x 1.954390 0.046030 0.041170 
#    y 0.046030 1.802020 0.026280 
#    z 0.041170 0.026280 1.780300 
# 
# From -- ./inp_files/15689.got.cif
#   From: 2010.05.17/outbox.cif.g08.bks.cpg/sg2_8_cif.got.tgz:15689.got - 2010.06.03 11:33:40.
