data_PCOD9004763
_publ_section_title
;
Structure prediction by ZEFSAII (Michael W. Deem and Ramdas Pophale) SiO2 
 PCOD9004763
Probable space group: P -1
;
_chemical_formula_sum "Si O2"
_cell_formula_units_Z 16
_cell_length_a 6.519328
_cell_length_b 11.117985
_cell_length_c 20.226056
_cell_angle_alpha 29.529381
_cell_angle_beta 64.504619
_cell_angle_gamma 63.428363
_cell_volume 643.405293
_symmetry_space_group_name_H-M "P -1"
_symmetry_group_IT_number 2
_symmetry_cell_setting 'triclinic'
loop_
_space_group_symop_operation_xyz
x,y,z
-x,-y,-z
loop_
_atom_site_type_symbol
_atom_site_label
_atom_site_fract_x
_atom_site_fract_y
_atom_site_fract_z
Si Si1 0.625437 0.911721 0.652471
Si Si2 0.045899 0.072609 0.875777
Si Si3 0.888896 0.716092 0.830049
Si Si4 0.394707 0.421561 0.483212
Si Si5 0.677569 0.807318 0.111739
Si Si6 0.359758 0.519010 0.914664
Si Si7 0.964766 0.153029 0.704182
Si Si8 0.627157 0.490828 0.766977
O O1 0.838562 0.787870 0.727204
O O2 0.419197 0.796354 0.773303
O O3 0.642041 0.776355 0.643970
O O4 0.569737 0.205171 0.526329
O O5 0.043484 0.015684 0.826554
O O6 0.862305 0.328064 0.788340
O O7 0.282525 0.128295 0.848113
O O8 0.927437 0.855412 0.028697
O O9 0.123486 0.532407 0.900013
O O10 0.914433 0.967877 0.743248
O O11 0.689805 0.604665 0.950675
O O12 0.500000 0.500000 0.500000
O O13 0.276456 0.658560 0.344733
O O14 0.170254 0.299548 0.589189
O O15 0.582831 0.557432 0.227506
O O16 0.500000 0.000000 0.000000
O O17 0.559827 0.398261 0.894397
#
# Coordination Sequence:
#
# PCOD9004763 Si02
#       8
#     2   2   2   2   2   2   2   2
#     4  10  21  38  59  88 119 159 199 248 302 360
#     4  10  21  38  58  90 122 161 201 241 296 362
#     4  11  19  37  59  91 123 156 199 247 306 360
#     4  11  23  43  62  86 117 161 204 261 307 342
#     4   9  19  38  55  87 124 164 197 231 294 356
#     4   9  21  34  55  92 126 156 191 242 303 369
#     4  11  23  39  64  89 118 155 210 251 299 362
#     4   9  20  35  57  86 123 159 190 239 300 360
#
# _framework density 24.867685000000002
#
# number of rings (size 3 to 8) (size 9 to 14) (size 15 to 20)
#    0.750    1.250    2.500    1.125    1.750    2.000 
#   13.500    0.625    0.000    1.500    0.000    0.000 
#    0.000    0.000    0.000    0.000    0.000    0.000 
#
# Total GULP energy -89251.324796 kJ/mol
# GULP energy per Si atom -5578.207800 kJ/mol
# Density = 2.481108 g / cm^3
# Si number density = 24.867685 Si / 1000 Ang^3
#
#
#
# Elastic Constant Matrix: (Units=GPa)
#
#
# Indices 1 2 3 4 5 6 
#
# 1 129.6962 32.4985 25.1702 -18.3216 1.6743 32.2864
# 2 32.4985 72.3675 18.9872 -34.6973 -2.1641 20.8576
# 3 25.1702 18.9872 40.1768 -17.9240 -1.1308 15.8083
# 4 -18.3216 -34.6973 -17.9240 43.4988 5.1156 -9.9877
# 5 1.6743 -2.1641 -1.1308 5.1156 31.6564 -0.9103
# 6 32.2864 20.8576 15.8083 -9.9877 -0.9103 51.7976
#
#
#
# Elastic Compliance Matrix: (Units=1/GPa)
#
#
# Indices 1 2 3 4 5 6 
#
# 1 0.010066 -0.002392 -0.003523 0.000015 -0.000946 -0.004249
# 2 -0.002392 0.024876 -0.000451 0.017638 -0.001183 -0.005008
# 3 -0.003523 -0.000451 0.034632 0.011103 -0.000576 -0.006061
# 4 0.000015 0.017638 0.011103 0.041665 -0.005205 -0.002558
# 5 -0.000946 -0.001183 -0.000576 -0.005205 0.032402 0.000808
# 6 -0.004249 -0.005008 -0.006061 -0.002558 0.000808 0.025342
#
#
# Mechanical properties :
#
#
# Convention : Reuss Voigt Hill
#
# Bulk Modulus (GPa) = 17.59316 43.95024 30.77170
# Shear Modulus (GPa) = 24.91740 36.42951 30.67346
#
# Velocity S-wave (km/s) = 3.16887 3.83160 3.51588
# Velocity P-wave (km/s) = 4.52538 6.10630 5.37429
#
# Compressibility (1/GPa) = 0.05684027
#
# Stress axis : x y z
#
# Youngs Moduli (GPa) = 99.34739 40.19973 28.87463
#
# Poissons Ratio (x) = 0.09616 0.10174
# Poissons Ratio (y) = 0.23764 0.01304
# Poissons Ratio (z) = 0.35004 0.01815
#
# Static dielectric constant tensor:
#      x y z
#    x 1.999990 -0.009500 0.015380 
#    y -0.009500 2.075670 -0.004490 
#    z 0.015380 -0.004490 2.050280 
# 
# From -- ./inp_files/604393.got.cif
#   From: 2010.05.17/outbox.cif.g08.bks.cpg/sg2_303_cif.got.tgz:604393.got - 2010.06.03 11:33:40.
