data_PCOD9004605
_publ_section_title
;
Structure prediction by ZEFSAII (Michael W. Deem and Ramdas Pophale) SiO2 
 PCOD9004605
Probable space group: P -1
;
_chemical_formula_sum "Si O2"
_cell_formula_units_Z 16
_cell_length_a 18.451126
_cell_length_b 10.106621
_cell_length_c 7.731363
_cell_angle_alpha 77.240711
_cell_angle_beta 146.667902
_cell_angle_gamma 104.116299
_cell_volume 767.901545
_symmetry_space_group_name_H-M "P -1"
_symmetry_group_IT_number 2
_symmetry_cell_setting 'triclinic'
loop_
_space_group_symop_operation_xyz
x,y,z
-x,-y,-z
loop_
_atom_site_type_symbol
_atom_site_label
_atom_site_fract_x
_atom_site_fract_y
_atom_site_fract_z
Si Si1 0.193554 0.710473 0.861205
Si Si2 0.839655 0.576159 0.924391
Si Si3 0.673493 0.884507 0.823176
Si Si4 0.604413 0.392622 0.195289
Si Si5 0.881643 0.455743 0.586521
Si Si6 0.556821 0.623276 0.447828
Si Si7 0.918816 0.743727 0.376165
Si Si8 0.590247 0.151263 0.511319
O O1 0.168309 0.654083 0.633228
O O2 0.074235 0.794815 0.661446
O O3 0.168188 0.571799 0.960820
O O4 0.333077 0.785113 0.182320
O O5 0.684226 0.594120 0.593072
O O6 0.884843 0.686039 0.132816
O O7 0.970451 0.582432 0.061078
O O8 0.611822 0.750719 0.636353
O O9 0.564428 0.897534 0.750559
O O10 0.666758 0.020689 0.658282
O O11 0.816478 0.851674 0.181806
O O12 0.760248 0.447374 0.480782
O O13 0.594727 0.268585 0.344676
O O14 0.500000 0.500000 0.000000
O O15 0.556916 0.348731 0.920137
O O16 0.892802 0.608363 0.483273
O O17 0.500000 0.500000 0.500000
#
# Coordination Sequence:
#
# PCOD9004605 Si02
#       8
#     2   2   2   2   2   2   2   2
#     4   9  16  32  55  78 103 137 177 212 262 319
#     4   8  15  29  53  82 103 130 176 223 264 312
#     4  10  21  38  55  74 106 144 181 217 264 321
#     4  12  23  34  53  82 111 136 178 228 269 316
#     4   9  17  32  56  81 106 134 172 224 271 316
#     4  11  20  36  62  81 103 141 181 220 267 321
#     4   8  15  30  56  80  98 131 181 222 254 311
#     4  11  23  35  50  78 112 142 176 222 267 315
#
# _framework density 20.836005
#
# number of rings (size 3 to 8) (size 9 to 14) (size 15 to 20)
#    0.000    2.250    0.000    7.500    0.000    1.000 
#    0.000    6.875    0.000    6.750    0.000    0.000 
#    0.000    0.000    0.000    0.000    0.000    0.000 
#
# Total GULP energy -89124.570775 kJ/mol
# GULP energy per Si atom -5570.285673 kJ/mol
# Density = 2.078858 g / cm^3
# Si number density = 20.836005 Si / 1000 Ang^3
#
#
#
# Elastic Constant Matrix: (Units=GPa)
#
#
# Indices 1 2 3 4 5 6 
#
# 1 78.0098 17.4015 34.2191 -13.6070 30.7627 6.0592
# 2 17.4015 82.7114 19.0648 -22.5730 1.2221 4.6917
# 3 34.2191 19.0648 130.0806 -17.5558 29.8430 6.7168
# 4 -13.6070 -22.5730 -17.5558 32.8323 -11.1045 -0.2194
# 5 30.7627 1.2221 29.8430 -11.1045 45.7556 -2.7835
# 6 6.0592 4.6917 6.7168 -0.2194 -2.7835 20.4941
#
#
#
# Elastic Compliance Matrix: (Units=1/GPa)
#
#
# Indices 1 2 3 4 5 6 
#
# 1 0.019648 -0.002951 -0.001433 0.001145 -0.012304 -0.006323
# 2 -0.002951 0.015922 -0.001125 0.010734 0.004798 -0.001637
# 3 -0.001433 -0.001125 0.009859 0.002155 -0.005110 -0.003221
# 4 0.001145 0.010734 0.002155 0.042026 0.007615 -0.002018
# 5 -0.012304 0.004798 -0.005110 0.007615 0.035737 0.009149
# 6 -0.006323 -0.001637 -0.003221 -0.002018 0.009149 0.053315
#
#
# Mechanical properties :
#
#
# Convention : Reuss Voigt Hill
#
# Bulk Modulus (GPa) = 29.05914 48.01918 38.53916
# Shear Modulus (GPa) = 25.12644 34.49083 29.80864
#
# Velocity S-wave (km/s) = 3.47640 4.07301 3.78647
# Velocity P-wave (km/s) = 5.48549 6.72425 6.13621
#
# Compressibility (1/GPa) = 0.03441258
#
# Stress axis : x y z
#
# Youngs Moduli (GPa) = 50.89539 62.80742 101.43356
#
# Poissons Ratio (x) = 0.18532 0.14531
# Poissons Ratio (y) = 0.15018 0.11409
# Poissons Ratio (z) = 0.07291 0.07064
#
# Static dielectric constant tensor:
#      x y z
#    x 1.815290 -0.074220 0.039030 
#    y -0.074220 1.784610 0.028930 
#    z 0.039030 0.028930 1.846700 
# 
# From -- ./inp_files/343597.got.cif
#   From: 2010.05.17/outbox.cif.g08.bks.cpg/sg2_172_cif.got.tgz:343597.got - 2010.06.03 11:33:40.
