data_PCOD9004324
_publ_section_title
;
Structure prediction by ZEFSAII (Michael W. Deem and Ramdas Pophale) SiO2 
 PCOD9004324
Probable space group: P -1
;
_chemical_formula_sum "Si O2"
_cell_formula_units_Z 16
_cell_length_a 10.613567
_cell_length_b 11.602277
_cell_length_c 11.258239
_cell_angle_alpha 140.334366
_cell_angle_beta 127.553578
_cell_angle_gamma 58.901218
_cell_volume 698.475040
_symmetry_space_group_name_H-M "P -1"
_symmetry_group_IT_number 2
_symmetry_cell_setting 'triclinic'
loop_
_space_group_symop_operation_xyz
x,y,z
-x,-y,-z
loop_
_atom_site_type_symbol
_atom_site_label
_atom_site_fract_x
_atom_site_fract_y
_atom_site_fract_z
Si Si1 0.096648 0.038495 0.201964
Si Si2 0.611323 0.741457 0.261474
Si Si3 0.672361 0.158873 0.658529
Si Si4 0.208635 0.977730 0.851427
Si Si5 0.323435 0.735446 0.513526
Si Si6 0.820897 0.579823 0.430636
Si Si7 0.338781 0.342845 0.249373
Si Si8 0.562596 0.312635 0.125470
O O1 0.191542 0.211685 0.367294
O O2 0.963093 0.082322 0.260942
O O3 0.207907 0.870927 0.185246
O O4 0.000000 0.000000 0.000000
O O5 0.486146 0.739184 0.296563
O O6 0.766221 0.611440 0.286693
O O7 0.646016 0.951798 0.442259
O O8 0.527527 0.690448 0.052978
O O9 0.724300 0.247379 0.637445
O O10 0.258121 0.905162 0.691546
O O11 0.340101 0.878727 0.937068
O O12 0.217746 0.190955 0.045801
O O13 0.269655 0.549919 0.392218
O O14 0.516821 0.715805 0.622965
O O15 0.697465 0.451610 0.311677
O O16 0.000000 0.500000 0.500000
O O17 0.434240 0.348883 0.184309
#
# Coordination Sequence:
#
# PCOD9004324 Si02
#       8
#     2   2   2   2   2   2   2   2
#     4  11  25  43  64  92 134 174 215 270 332 400
#     4  10  21  37  65  97 129 170 217 277 323 391
#     4  10  21  39  63  94 129 172 224 267 329 385
#     4  11  22  40  64  92 131 174 218 266 331 387
#     4  10  21  39  61  90 126 164 221 276 315 386
#     4  11  23  40  61  98 134 169 210 263 341 396
#     4  10  22  38  65  96 124 170 225 269 323 387
#     4  11  20  39  67  96 131 169 223 273 326 390
#
# _framework density 22.907046000000001
#
# number of rings (size 3 to 8) (size 9 to 14) (size 15 to 20)
#    0.000    1.500    1.250    4.875    0.000    5.500 
#    0.000    0.625    0.000    0.000    0.000    0.000 
#    0.000    0.000    0.000    0.000    0.000    0.000 
#
# Total GULP energy -89474.876097 kJ/mol
# GULP energy per Si atom -5592.179756 kJ/mol
# Density = 2.285491 g / cm^3
# Si number density = 22.907046 Si / 1000 Ang^3
#
#
#
# Elastic Constant Matrix: (Units=GPa)
#
#
# Indices 1 2 3 4 5 6 
#
# 1 45.7073 16.8868 12.3133 -18.6553 3.0663 2.9539
# 2 16.8868 114.3544 37.0941 -24.0708 -0.8336 -0.8413
# 3 12.3133 37.0941 91.8840 -14.0141 14.0562 12.9689
# 4 -18.6553 -24.0708 -14.0141 46.5808 4.6049 3.3648
# 5 3.0663 -0.8336 14.0562 4.6049 20.9431 0.6630
# 6 2.9539 -0.8413 12.9689 3.3648 0.6630 29.6798
#
#
#
# Elastic Compliance Matrix: (Units=1/GPa)
#
#
# Indices 1 2 3 4 5 6 
#
# 1 0.027783 -0.001949 0.000381 0.011196 -0.006733 -0.004106
# 2 -0.001949 0.011213 -0.004526 0.003207 0.002999 0.002059
# 3 0.000381 -0.004526 0.016196 0.004397 -0.011836 -0.007477
# 4 0.011196 0.003207 0.004397 0.030461 -0.010965 -0.006153
# 5 -0.006733 0.002999 -0.011836 -0.010965 0.059023 0.005852
# 6 -0.004106 0.002059 -0.007477 -0.006153 0.005852 0.037994
#
#
# Mechanical properties :
#
#
# Convention : Reuss Voigt Hill
#
# Bulk Modulus (GPa) = 23.25379 42.72600 32.98989
# Shear Modulus (GPa) = 23.90165 31.81751 27.85958
#
# Velocity S-wave (km/s) = 3.23370 3.73095 3.49119
# Velocity P-wave (km/s) = 4.91079 6.10347 5.53933
#
# Compressibility (1/GPa) = 0.04300375
#
# Stress axis : x y z
#
# Youngs Moduli (GPa) = 35.99383 89.18562 61.74411
#
# Poissons Ratio (x) = 0.17379 -0.02351
# Poissons Ratio (y) = 0.07014 0.27943
# Poissons Ratio (z) = -0.01370 0.40362
#
# Static dielectric constant tensor:
#      x y z
#    x 1.852230 -0.022200 -0.005430 
#    y -0.022200 1.903020 0.016310 
#    z -0.005430 0.016310 1.880470 
# 
# From -- ./inp_files/429130.got.cif
#   From: 2010.05.17/outbox.cif.g08.bks.cpg/sg2_215_cif.got.tgz:429130.got - 2010.06.03 11:33:40.
