data_PCOD9004077
_publ_section_title
;
Structure prediction by ZEFSAII (Michael W. Deem and Ramdas Pophale) SiO2 
 PCOD9004077
Probable space group: P -1
;
_chemical_formula_sum "Si O2"
_cell_formula_units_Z 16
_cell_length_a 17.485038
_cell_length_b 8.205495
_cell_length_c 13.552974
_cell_angle_alpha 35.517316
_cell_angle_beta 42.342919
_cell_angle_gamma 42.324620
_cell_volume 712.199500
_symmetry_space_group_name_H-M "P -1"
_symmetry_group_IT_number 2
_symmetry_cell_setting 'triclinic'
loop_
_space_group_symop_operation_xyz
x,y,z
-x,-y,-z
loop_
_atom_site_type_symbol
_atom_site_label
_atom_site_fract_x
_atom_site_fract_y
_atom_site_fract_z
Si Si1 0.883069 0.491994 0.384403
Si Si2 0.358156 0.622345 0.112618
Si Si3 0.267933 0.182696 0.810789
Si Si4 0.623552 0.721182 0.027969
Si Si5 0.788977 0.771584 0.549528
Si Si6 0.365362 0.569650 0.634931
Si Si7 0.149330 0.126077 0.344347
Si Si8 0.516520 0.243128 0.291340
O O1 0.816033 0.747196 0.240695
O O2 0.854097 0.607494 0.468488
O O3 0.028352 0.373670 0.293784
O O4 0.849122 0.196687 0.537163
O O5 0.290363 0.411454 0.239548
O O6 0.390436 0.501001 0.253915
O O7 0.500000 0.500000 0.000000
O O8 0.262567 0.954048 0.015822
O O9 0.274420 0.497135 0.682383
O O10 0.406905 0.989839 0.747937
O O11 0.634704 0.644183 0.170032
O O12 0.602339 0.428872 0.147402
O O13 0.732897 0.806746 0.838063
O O14 0.500000 0.000000 0.000000
O O15 0.859262 0.834409 0.546778
O O16 0.693032 0.086857 0.450117
O O17 0.500000 0.500000 0.500000
O O18 0.500000 0.000000 0.500000
#
# Coordination Sequence:
#
# PCOD9004077 Si02
#       8
#     2   2   2   2   2   2   2   2
#     4  11  26  48  77  98 147 204 245 313 372 438
#     4  10  21  37  64 104 146 185 232 301 364 437
#     4  11  22  41  64  99 141 189 237 295 365 428
#     4  12  26  43  72 110 146 190 241 311 373 445
#     4  12  24  45  76 103 138 195 250 299 378 444
#     4  12  24  41  66 109 151 186 238 300 371 453
#     4  11  26  51  70 110 145 187 260 313 366 438
#     4  11  22  40  66 102 147 190 234 290 375 445
#
# _framework density 22.465613999999999
#
# number of rings (size 3 to 8) (size 9 to 14) (size 15 to 20)
#    0.000    0.750    1.250    7.875    5.250    0.000 
#    0.000    7.500    0.000    0.000    0.000    0.000 
#    0.000    0.000    0.000    0.000    0.000    0.000 
#
# Total GULP energy -89138.628256 kJ/mol
# GULP energy per Si atom -5571.164266 kJ/mol
# Density = 2.241448 g / cm^3
# Si number density = 22.465614 Si / 1000 Ang^3
#
#
#
# Elastic Constant Matrix: (Units=GPa)
#
#
# Indices 1 2 3 4 5 6 
#
# 1 112.2023 48.8771 49.7459 -5.6948 12.8201 -5.2784
# 2 48.8771 113.6657 58.5861 -12.8907 0.1972 -10.0020
# 3 49.7459 58.5861 99.2710 -18.6739 -3.3970 -14.0233
# 4 -5.6948 -12.8907 -18.6739 33.5798 -2.1364 1.4718
# 5 12.8201 0.1972 -3.3970 -2.1364 41.3182 -11.7201
# 6 -5.2784 -10.0020 -14.0233 1.4718 -11.7201 44.6991
#
#
#
# Elastic Compliance Matrix: (Units=1/GPa)
#
#
# Indices 1 2 3 4 5 6 
#
# 1 0.013207 -0.003217 -0.005668 -0.002387 -0.005311 -0.002253
# 2 -0.003217 0.013468 -0.005926 0.001338 0.000781 0.000935
# 3 -0.005668 -0.005926 0.018647 0.007241 0.005100 0.004954
# 4 -0.002387 0.001338 0.007241 0.034057 0.003697 0.002137
# 5 -0.005311 0.000781 0.005100 0.003697 0.028897 0.008603
# 6 -0.002253 0.000935 0.004954 0.002137 0.008603 0.026054
#
#
# Mechanical properties :
#
#
# Convention : Reuss Voigt Hill
#
# Bulk Modulus (GPa) = 63.69392 71.06192 67.37792
# Shear Modulus (GPa) = 29.55326 35.11474 32.33400
#
# Velocity S-wave (km/s) = 3.63090 3.95782 3.79788
# Velocity P-wave (km/s) = 6.78168 7.25161 7.02058
#
# Compressibility (1/GPa) = 0.01570009
#
# Stress axis : x y z
#
# Youngs Moduli (GPa) = 75.71937 74.25002 53.62673
#
# Poissons Ratio (x) = 0.23886 0.30397
# Poissons Ratio (y) = 0.24359 0.31777
# Poissons Ratio (z) = 0.42920 0.43998
#
# Static dielectric constant tensor:
#      x y z
#    x 1.883700 0.149180 -0.287510 
#    y 0.149180 1.862830 0.104120 
#    z -0.287510 0.104120 0.568160 
# 
# From -- ./inp_files/537560.got.cif
#   From: 2010.05.17/outbox.cif.g08.bks.cpg/sg2_269_cif.got.tgz:537560.got - 2010.06.03 11:33:40.
