data_PCOD9004834
_publ_section_title
;
Structure prediction by ZEFSAII (Michael W. Deem and Ramdas Pophale) SiO2 
 PCOD9004834
Probable space group: P -1
;
_chemical_formula_sum "Si O2"
_cell_formula_units_Z 16
_cell_length_a 9.351880
_cell_length_b 9.964014
_cell_length_c 7.461259
_cell_angle_alpha 111.849136
_cell_angle_beta 71.231442
_cell_angle_gamma 89.936720
_cell_volume 605.196233
_symmetry_space_group_name_H-M "P -1"
_symmetry_group_IT_number 2
_symmetry_cell_setting 'triclinic'
loop_
_space_group_symop_operation_xyz
x,y,z
-x,-y,-z
loop_
_atom_site_type_symbol
_atom_site_label
_atom_site_fract_x
_atom_site_fract_y
_atom_site_fract_z
Si Si1 0.780923 0.794929 0.055823
Si Si2 0.336808 0.927085 0.876450
Si Si3 0.776000 0.295535 0.722258
Si Si4 0.400812 0.627098 0.844019
Si Si5 0.047948 0.283182 0.377317
Si Si6 0.953831 0.064873 0.811615
Si Si7 0.685695 0.558898 0.509777
Si Si8 0.494102 0.217954 0.578704
O O1 0.649060 0.759581 0.219630
O O2 0.884800 0.885015 0.184060
O O3 0.689946 0.901016 0.993981
O O4 0.901797 0.691672 0.835815
O O5 0.406101 0.801422 0.920231
O O6 0.437814 0.913403 0.648362
O O7 0.158274 0.900672 0.952718
O O8 0.876179 0.167820 0.735280
O O9 0.641810 0.234229 0.641900
O O10 0.884659 0.352264 0.556489
O O11 0.693862 0.404146 0.958979
O O12 0.576718 0.553017 0.724628
O O13 0.301385 0.583541 0.691679
O O14 0.172305 0.355661 0.476959
O O15 0.043866 0.107636 0.312715
O O16 0.565594 0.662977 0.486673
#
# Coordination Sequence:
#
# PCOD9004834 Si02
#       8
#     2   2   2   2   2   2   2   2
#     4  11  21  37  61  90 124 154 189 238 297 356
#     4   9  19  36  60  86 115 150 191 240 289 341
#     4  11  22  37  60  89 120 155 198 241 291 350
#     4   9  21  41  63  84 114 156 200 247 292 339
#     4  11  22  37  59  88 119 157 195 237 295 352
#     4  10  21  38  59  85 124 159 189 238 296 353
#     4  10  22  42  63  84 117 156 199 245 294 346
#     4  11  22  36  59  91 121 153 195 242 291 350
#
# _framework density 26.437707
#
# number of rings (size 3 to 8) (size 9 to 14) (size 15 to 20)
#    0.000    1.750    0.000    5.250    0.000    4.000 
#    0.000    8.750    0.000   18.750    0.000    0.000 
#    0.000    0.000    0.000    0.000    0.000    0.000 
#
# Total GULP energy -89220.513064 kJ/mol
# GULP energy per Si atom -5576.282066 kJ/mol
# Density = 2.637753 g / cm^3
# Si number density = 26.437707 Si / 1000 Ang^3
#
#
#
# Elastic Constant Matrix: (Units=GPa)
#
#
# Indices 1 2 3 4 5 6 
#
# 1 137.9367 38.4044 38.8640 -5.1275 -2.5190 47.8225
# 2 38.4044 40.4890 30.8119 4.2563 1.1456 5.7125
# 3 38.8640 30.8119 195.8327 -43.8918 -39.6864 30.0877
# 4 -5.1275 4.2563 -43.8918 42.3008 5.9295 -7.5220
# 5 -2.5190 1.1456 -39.6864 5.9295 44.9448 -10.8343
# 6 47.8225 5.7125 30.0877 -7.5220 -10.8343 56.3138
#
#
#
# Elastic Compliance Matrix: (Units=1/GPa)
#
#
# Indices 1 2 3 4 5 6 
#
# 1 0.014857 -0.013870 0.001533 0.002786 -0.000668 -0.011785
# 2 -0.013870 0.046546 -0.010844 -0.014913 -0.007292 0.009456
# 3 0.001533 -0.010844 0.011085 0.011113 0.007934 -0.003114
# 4 0.002786 -0.014913 0.011113 0.036091 0.005362 -0.000938
# 5 -0.000668 -0.007292 0.007934 0.005362 0.029532 0.003466
# 6 -0.011785 0.009456 -0.003114 -0.000938 0.003466 0.029012
#
#
# Mechanical properties :
#
#
# Convention : Reuss Voigt Hill
#
# Bulk Modulus (GPa) = 38.27395 65.60211 51.93803
# Shear Modulus (GPa) = 22.50306 46.45710 34.48008
#
# Velocity S-wave (km/s) = 2.92065 4.19648 3.61529
# Velocity P-wave (km/s) = 5.08744 6.95329 6.09222
#
# Compressibility (1/GPa) = 0.02612743
#
# Stress axis : x y z
#
# Youngs Moduli (GPa) = 67.31040 21.48424 90.20922
#
# Poissons Ratio (x) = 0.29798 -0.13834
# Poissons Ratio (y) = 0.93358 0.97821
# Poissons Ratio (z) = -0.10322 0.23297
#
# Static dielectric constant tensor:
#      x y z
#    x 2.046090 -0.030530 -0.038850 
#    y -0.030530 2.176810 0.033320 
#    z -0.038850 0.033320 2.237230 
# 
# From -- ./inp_files/189798.got.cif
#   From: 2010.05.17/outbox.cif.g08.bks.cpg/sg2_95_cif.got.tgz:189798.got - 2010.06.03 11:33:40.
