data_PCOD9004276
_publ_section_title
;
Structure prediction by ZEFSAII (Michael W. Deem and Ramdas Pophale) SiO2 
 PCOD9004276
Probable space group: P -1
;
_chemical_formula_sum "Si O2"
_cell_formula_units_Z 16
_cell_length_a 12.690257
_cell_length_b 9.607971
_cell_length_c 11.612119
_cell_angle_alpha 47.850975
_cell_angle_beta 125.756777
_cell_angle_gamma 106.737717
_cell_volume 838.982854
_symmetry_space_group_name_H-M "P -1"
_symmetry_group_IT_number 2
_symmetry_cell_setting 'triclinic'
loop_
_space_group_symop_operation_xyz
x,y,z
-x,-y,-z
loop_
_atom_site_type_symbol
_atom_site_label
_atom_site_fract_x
_atom_site_fract_y
_atom_site_fract_z
Si Si1 0.922064 0.525173 0.318882
Si Si2 0.454357 0.193679 0.292560
Si Si3 0.976693 0.569697 0.795284
Si Si4 0.202790 0.091081 0.090551
Si Si5 0.711059 0.286822 0.281658
Si Si6 0.164322 0.790842 0.047594
Si Si7 0.900648 0.929612 0.702071
Si Si8 0.281591 0.569533 0.046548
O O1 0.780916 0.458779 0.275710
O O2 0.000000 0.500000 0.500000
O O3 0.007839 0.394653 0.349603
O O4 0.893829 0.737388 0.129640
O O5 0.346700 0.147379 0.158246
O O6 0.577285 0.262766 0.272264
O O7 0.500000 0.000000 0.500000
O O8 0.377924 0.367680 0.223580
O O9 0.908009 0.385954 0.867064
O O10 0.903268 0.742827 0.728329
O O11 0.130189 0.534205 0.953454
O O12 0.160452 0.072910 0.206903
O O13 0.201016 0.901595 0.120851
O O14 0.689908 0.323904 0.111691
O O15 0.818582 0.102368 0.484073
O O16 0.279925 0.699526 0.085868
O O17 0.054624 0.931438 0.825182
#
# Coordination Sequence:
#
# PCOD9004276 Si02
#       8
#     2   2   2   2   2   2   2   2
#     4  11  24  39  61  98 132 156 198 262 326 365
#     4  12  23  42  68  86 119 170 226 246 290 376
#     4  10  21  37  65  92 130 158 204 260 310 375
#     4  12  23  40  62  94 124 164 213 252 308 371
#     4  11  24  37  68  90 124 165 211 253 306 365
#     4  11  22  36  67  90 129 160 198 263 324 357
#     4  11  21  38  66  97 118 164 209 255 311 378
#     4  10  22  42  60  94 122 166 206 261 304 365
#
# _framework density 19.070710999999999
#
# number of rings (size 3 to 8) (size 9 to 14) (size 15 to 20)
#    0.000    1.000    5.000    3.750    1.750    5.500 
#    0.000    1.250    2.750    0.000    0.000    0.000 
#    0.000    0.000    0.000    0.000    0.000    0.000 
#
# Total GULP energy -89315.455860 kJ/mol
# GULP energy per Si atom -5582.215991 kJ/mol
# Density = 1.902730 g / cm^3
# Si number density = 19.070711 Si / 1000 Ang^3
#
#
#
# Elastic Constant Matrix: (Units=GPa)
#
#
# Indices 1 2 3 4 5 6 
#
# 1 109.4564 60.8888 37.9484 -6.7225 -8.6518 -15.6163
# 2 60.8888 138.6410 37.8374 -1.3584 -4.5809 -32.3171
# 3 37.9484 37.8374 113.6497 -12.1451 -6.9515 -23.9543
# 4 -6.7225 -1.3584 -12.1451 30.3534 -5.9375 -0.6936
# 5 -8.6518 -4.5809 -6.9515 -5.9375 27.5769 -0.8690
# 6 -15.6163 -32.3171 -23.9543 -0.6936 -0.8690 26.2903
#
#
#
# Elastic Compliance Matrix: (Units=1/GPa)
#
#
# Indices 1 2 3 4 5 6 
#
# 1 0.013111 -0.005095 -0.002326 0.002357 0.003175 -0.000427
# 2 -0.005095 0.012285 0.000267 -0.000015 0.000896 0.012348
# 3 -0.002326 0.000267 0.012580 0.005561 0.004020 0.010688
# 4 0.002357 -0.000015 0.005561 0.037934 0.010552 0.007798
# 5 0.003175 0.000896 0.004020 0.010552 0.040953 0.008281
# 6 -0.000427 0.012348 0.010688 0.007798 0.008281 0.063179
#
#
# Mechanical properties :
#
#
# Convention : Reuss Voigt Hill
#
# Bulk Modulus (GPa) = 42.25003 70.56625 56.40814
# Shear Modulus (GPa) = 24.72309 31.84894 28.28602
#
# Velocity S-wave (km/s) = 3.60445 4.09105 3.85543
# Velocity P-wave (km/s) = 6.28691 7.70703 7.03291
#
# Compressibility (1/GPa) = 0.02366862
#
# Stress axis : x y z
#
# Youngs Moduli (GPa) = 76.26902 81.39740 79.49426
#
# Poissons Ratio (x) = 0.41473 0.18487
# Poissons Ratio (y) = 0.38860 -0.02122
# Poissons Ratio (z) = 0.17737 -0.02172
#
# Static dielectric constant tensor:
#      x y z
#    x 1.701570 -0.006570 -0.015300 
#    y -0.006570 1.686450 -0.024330 
#    z -0.015300 -0.024330 1.693770 
# 
# From -- ./inp_files/416370.got.cif
#   From: 2010.05.17/outbox.cif.g08.bks.cpg/sg2_209_cif.got.tgz:416370.got - 2010.06.03 11:33:40.
