data_PCOD9004392
_publ_section_title
;
Structure prediction by ZEFSAII (Michael W. Deem and Ramdas Pophale) SiO2 
 PCOD9004392
Probable space group: P -1
;
_chemical_formula_sum "Si O2"
_cell_formula_units_Z 16
_cell_length_a 15.807192
_cell_length_b 10.665952
_cell_length_c 17.884836
_cell_angle_alpha 31.472637
_cell_angle_beta 147.722221
_cell_angle_gamma 155.394839
_cell_volume 620.538744
_symmetry_space_group_name_H-M "P -1"
_symmetry_group_IT_number 2
_symmetry_cell_setting 'triclinic'
loop_
_space_group_symop_operation_xyz
x,y,z
-x,-y,-z
loop_
_atom_site_type_symbol
_atom_site_label
_atom_site_fract_x
_atom_site_fract_y
_atom_site_fract_z
Si Si1 0.091331 0.840669 0.857194
Si Si2 0.966178 0.202401 0.662352
Si Si3 0.003027 0.472650 0.848105
Si Si4 0.255741 0.261824 0.965980
Si Si5 0.496168 0.643086 0.556584
Si Si6 0.589421 0.313896 0.009571
Si Si7 0.048458 0.265835 0.457566
Si Si8 0.408800 0.102489 0.658692
O O1 0.987357 0.694284 0.773128
O O2 0.030379 0.032709 0.748346
O O3 0.000000 0.500000 0.000000
O O4 0.348829 0.109391 0.908918
O O5 0.112517 0.311022 0.789786
O O6 0.000000 0.500000 0.500000
O O7 0.711277 0.907806 0.628602
O O8 0.250571 0.639229 0.954187
O O9 0.961293 0.502619 0.717044
O O10 0.854899 0.103973 0.948373
O O11 0.278732 0.330989 0.036505
O O12 0.500000 0.500000 0.000000
O O13 0.299035 0.477537 0.550701
O O14 0.492641 0.387329 0.637158
O O15 0.486499 0.803193 0.393270
O O16 0.571352 0.117107 0.167307
O O17 0.000000 0.000000 0.500000
O O18 0.840942 0.081073 0.448381
#
# Coordination Sequence:
#
# PCOD9004392 Si02
#       8
#     2   2   2   2   2   2   2   2
#     4  12  24  44  73 108 138 187 247 303 353 440
#     4  12  27  43  68 109 146 185 247 299 367 431
#     4  11  25  43  74 103 141 184 247 305 366 429
#     4  12  25  47  72 100 143 197 246 292 360 452
#     4  10  21  37  66  93 142 185 225 293 364 419
#     4  11  23  44  70 101 141 183 241 303 362 427
#     4   9  21  39  62 102 137 175 230 295 359 427
#     4   9  20  37  66 100 132 180 238 289 355 430
#
# _framework density 25.784049
#
# number of rings (size 3 to 8) (size 9 to 14) (size 15 to 20)
#    0.000    1.250    2.500    2.250   10.500    0.000 
#    2.250    0.000    0.000    3.000    0.000    0.000 
#    0.000    0.000    0.000    0.000    0.000    0.000 
#
# Total GULP energy -89484.206669 kJ/mol
# GULP energy per Si atom -5592.762917 kJ/mol
# Density = 2.572536 g / cm^3
# Si number density = 25.784049 Si / 1000 Ang^3
#
#
#
# Elastic Constant Matrix: (Units=GPa)
#
#
# Indices 1 2 3 4 5 6 
#
# 1 70.5665 31.9567 14.9355 -5.2684 15.0913 -10.3460
# 2 31.9567 182.0400 62.2526 24.1071 14.3935 8.0560
# 3 14.9355 62.2526 109.9670 -1.8554 1.9584 -0.4593
# 4 -5.2684 24.1071 -1.8554 44.3525 -2.8526 10.4538
# 5 15.0913 14.3935 1.9584 -2.8526 38.1530 4.5840
# 6 -10.3460 8.0560 -0.4593 10.4538 4.5840 49.1916
#
#
#
# Elastic Compliance Matrix: (Units=1/GPa)
#
#
# Indices 1 2 3 4 5 6 
#
# 1 0.017748 -0.002905 -0.000599 0.002245 -0.006243 0.004307
# 2 -0.002905 0.008370 -0.004395 -0.005032 -0.002068 -0.000761
# 3 -0.000599 -0.004395 0.011685 0.002918 0.001520 -0.000059
# 4 0.002245 -0.005032 0.002918 0.027009 0.003449 -0.004738
# 5 -0.006243 -0.002068 0.001520 0.003449 0.030181 -0.004506
# 6 0.004307 -0.000761 -0.000059 -0.004738 -0.004506 0.022785
#
#
# Mechanical properties :
#
#
# Convention : Reuss Voigt Hill
#
# Bulk Modulus (GPa) = 45.44483 64.54034 54.99259
# Shear Modulus (GPa) = 35.48377 43.23466 39.35922
#
# Velocity S-wave (km/s) = 3.71373 4.09932 3.91128
# Velocity P-wave (km/s) = 6.00437 6.89139 6.46312
#
# Compressibility (1/GPa) = 0.02200470
#
# Stress axis : x y z
#
# Youngs Moduli (GPa) = 56.34543 119.47888 85.58144
#
# Poissons Ratio (x) = 0.34710 0.05125
# Poissons Ratio (y) = 0.16369 0.37611
# Poissons Ratio (z) = 0.03374 0.52508
#
# Static dielectric constant tensor:
#      x y z
#    x 2.186580 0.005280 -0.036100 
#    y 0.005280 2.050990 -0.030860 
#    z -0.036100 -0.030860 2.111670 
# 
# From -- ./inp_files/600023.got.cif
#   From: 2010.05.17/outbox.cif.g08.bks.cpg/sg2_301_cif.got.tgz:600023.got - 2010.06.03 11:33:40.
