data_PCOD9004706
_publ_section_title
;
Structure prediction by ZEFSAII (Michael W. Deem and Ramdas Pophale) SiO2 
 PCOD9004706
Probable space group: P -1
;
_chemical_formula_sum "Si O2"
_cell_formula_units_Z 16
_cell_length_a 15.876504
_cell_length_b 8.624108
_cell_length_c 14.164750
_cell_angle_alpha 34.004756
_cell_angle_beta 57.368137
_cell_angle_gamma 69.076300
_cell_volume 896.653371
_symmetry_space_group_name_H-M "P -1"
_symmetry_group_IT_number 2
_symmetry_cell_setting 'triclinic'
loop_
_space_group_symop_operation_xyz
x,y,z
-x,-y,-z
loop_
_atom_site_type_symbol
_atom_site_label
_atom_site_fract_x
_atom_site_fract_y
_atom_site_fract_z
Si Si1 0.083526 0.773551 0.322027
Si Si2 0.936319 0.192473 0.170680
Si Si3 0.256129 0.041968 0.459018
Si Si4 0.401530 0.779294 0.635980
Si Si5 0.403507 0.124032 0.962100
Si Si6 0.217488 0.033802 0.269375
Si Si7 0.217906 0.681247 0.945081
Si Si8 0.272981 0.714054 0.108625
O O1 0.175732 0.746987 0.211974
O O2 0.000000 0.500000 0.500000
O O3 0.128452 0.826307 0.373479
O O4 0.024677 0.014901 0.204663
O O5 0.872321 0.195347 0.111503
O O6 0.848969 0.071037 0.362594
O O7 0.000000 0.500000 0.000000
O O8 0.239466 0.962171 0.399422
O O9 0.285226 0.385506 0.274849
O O10 0.345581 0.903020 0.520225
O O11 0.422962 0.463609 0.763885
O O12 0.316876 0.750861 0.783859
O O13 0.500000 0.000000 0.500000
O O14 0.316724 0.061913 0.127837
O O15 0.500000 0.000000 0.000000
O O16 0.362128 0.943634 0.985315
O O17 0.186790 0.341278 0.135539
O O18 0.250052 0.774387 0.983896
#
# Coordination Sequence:
#
# PCOD9004706 Si02
#       8
#     2   2   2   2   2   2   2   2
#     4  11  21  36  55  86 113 148 186 233 278 319
#     4  11  21  36  59  80 115 152 190 225 274 330
#     4  10  21  38  59  83 108 150 189 228 270 333
#     4  10  21  39  61  83 112 146 185 222 277 342
#     4  10  21  39  61  84 112 145 178 233 284 324
#     4   9  20  38  59  80 111 147 191 224 272 337
#     4   9  20  38  58  82 108 151 188 226 271 333
#     4  10  21  38  58  82 115 142 188 234 276 322
#
# _framework density 17.844131999999998
#
# number of rings (size 3 to 8) (size 9 to 14) (size 15 to 20)
#    0.000    2.000    2.500    0.750    1.750    3.000 
#    2.250    5.000    0.000    0.000    0.000    0.000 
#    0.000    0.000    0.000    0.000    0.000    0.000 
#
# Total GULP energy -89211.942024 kJ/mol
# GULP energy per Si atom -5575.746376 kJ/mol
# Density = 1.780352 g / cm^3
# Si number density = 17.844132 Si / 1000 Ang^3
#
#
#
# Elastic Constant Matrix: (Units=GPa)
#
#
# Indices 1 2 3 4 5 6 
#
# 1 170.6115 77.0793 66.1172 -20.6841 12.6967 24.7482
# 2 77.0793 90.5135 34.4859 -22.9690 15.0206 24.7366
# 3 66.1172 34.4859 85.7811 -25.3168 5.3214 20.9003
# 4 -20.6841 -22.9690 -25.3168 29.1883 7.5110 8.1846
# 5 12.6967 15.0206 5.3214 7.5110 36.2846 -3.2308
# 6 24.7482 24.7366 20.9003 8.1846 -3.2308 41.6012
#
#
#
# Elastic Compliance Matrix: (Units=1/GPa)
#
#
# Indices 1 2 3 4 5 6 
#
# 1 0.014932 -0.022814 -0.018629 -0.033765 0.015892 0.021919
# 2 -0.022814 0.088472 0.056801 0.151691 -0.077583 -0.103441
# 3 -0.018629 0.056801 0.065538 0.127939 -0.060704 -0.085504
# 4 -0.033765 0.151691 0.127939 0.341737 -0.159539 -0.214011
# 5 0.015892 -0.077583 -0.060704 -0.159539 0.105549 0.106760
# 6 0.021919 -0.103441 -0.085504 -0.214011 0.106760 0.165859
#
#
# Mechanical properties :
#
#
# Convention : Reuss Voigt Hill
#
# Bulk Modulus (GPa) = 5.00853 78.03011 41.51932
# Shear Modulus (GPa) = 6.11305 32.69639 19.40472
#
# Velocity S-wave (km/s) = 1.85290 4.28522 3.30124
# Velocity P-wave (km/s) = 2.71856 8.26485 6.15217
#
# Compressibility (1/GPa) = 0.19965951
#
# Stress axis : x y z
#
# Youngs Moduli (GPa) = 66.97175 11.30296 15.25827
#
# Poissons Ratio (x) = 0.25786 0.28424
# Poissons Ratio (y) = 1.52788 -0.86669
# Poissons Ratio (z) = 1.24760 -0.64202
#
# Static dielectric constant tensor:
#      x y z
#    x 1.573320 0.006660 0.038050 
#    y 0.006660 1.581990 0.017780 
#    z 0.038050 0.017780 1.525420 
# 
# From -- ./inp_files/196287.got.cif
#   From: 2010.05.17/outbox.cif.g08.bks.cpg/sg2_99_cif.got.tgz:196287.got - 2010.06.03 11:33:40.
