data_PCOD9004879
_publ_section_title
;
Structure prediction by ZEFSAII (Michael W. Deem and Ramdas Pophale) SiO2 
 PCOD9004879
Probable space group: P -1
;
_chemical_formula_sum "Si O2"
_cell_formula_units_Z 16
_cell_length_a 25.687843
_cell_length_b 10.407228
_cell_length_c 13.417698
_cell_angle_alpha 32.645902
_cell_angle_beta 158.283455
_cell_angle_gamma 146.080952
_cell_volume 695.362290
_symmetry_space_group_name_H-M "P -1"
_symmetry_group_IT_number 2
_symmetry_cell_setting 'triclinic'
loop_
_space_group_symop_operation_xyz
x,y,z
-x,-y,-z
loop_
_atom_site_type_symbol
_atom_site_label
_atom_site_fract_x
_atom_site_fract_y
_atom_site_fract_z
Si Si1 0.410801 0.854765 0.795415
Si Si2 0.943066 0.302902 0.311774
Si Si3 0.298792 0.883396 0.364566
Si Si4 0.987004 0.977969 0.759746
Si Si5 0.652050 0.344329 0.866503
Si Si6 0.440702 0.430719 0.269107
Si Si7 0.863495 0.450987 0.863338
Si Si8 0.097033 0.822436 0.330763
O O1 0.369913 0.793661 0.646863
O O2 0.267936 0.910318 0.556943
O O3 0.539097 0.098732 0.862780
O O4 0.451216 0.632778 0.071505
O O5 0.048937 0.559035 0.364894
O O6 0.001219 0.081837 0.605039
O O7 0.793851 0.285936 0.114626
O O8 0.904202 0.309964 0.122819
O O9 0.269725 0.700167 0.339108
O O10 0.392104 0.153163 0.326338
O O11 0.141121 0.919073 0.095864
O O12 0.862681 0.727089 0.713501
O O13 0.945395 0.174888 0.630726
O O14 0.579191 0.452594 0.572905
O O15 0.676869 0.526313 0.885743
O O16 0.000000 0.500000 0.000000
O O17 0.000000 0.000000 0.000000
#
# Coordination Sequence:
#
# PCOD9004879 Si02
#       8
#     2   2   2   2   2   2   2   2
#     4  11  22  40  61  92 124 164 198 244 304 366
#     4  12  24  40  64  93 123 159 203 252 308 362
#     4  10  21  38  59  88 119 158 208 251 297 359
#     4  11  22  37  62  93 126 158 199 253 308 359
#     4  10  24  39  61  94 125 156 202 247 303 369
#     4  10  21  38  65  85 124 164 199 244 303 359
#     4  10  23  40  59  88 122 161 206 253 301 357
#     4  12  21  37  65  93 128 158 192 251 308 359
#
# _framework density 23.009588999999998
#
# number of rings (size 3 to 8) (size 9 to 14) (size 15 to 20)
#    0.000    1.250    2.500    3.750    3.500    4.000 
#    0.000    2.500    0.000    4.500    0.000    0.000 
#    0.000    0.000    0.000    0.000    0.000    0.000 
#
# Total GULP energy -89517.376326 kJ/mol
# GULP energy per Si atom -5594.836020 kJ/mol
# Density = 2.295722 g / cm^3
# Si number density = 23.009589 Si / 1000 Ang^3
#
#
#
# Elastic Constant Matrix: (Units=GPa)
#
#
# Indices 1 2 3 4 5 6 
#
# 1 51.8737 21.8699 37.7686 3.3131 -27.1393 5.7182
# 2 21.8699 105.9426 34.8119 -3.0374 -24.7270 3.3702
# 3 37.7686 34.8119 82.1689 -22.4403 -39.1823 20.0983
# 4 3.3131 -3.0374 -22.4403 29.6078 16.1360 -7.1086
# 5 -27.1393 -24.7270 -39.1823 16.1360 57.0926 4.2389
# 6 5.7182 3.3702 20.0983 -7.1086 4.2389 39.7726
#
#
#
# Elastic Compliance Matrix: (Units=1/GPa)
#
#
# Indices 1 2 3 4 5 6 
#
# 1 0.044687 0.000512 -0.020482 -0.030034 0.016134 -0.003205
# 2 0.000512 0.011516 -0.004897 -0.004143 0.003014 0.000364
# 3 -0.020482 -0.004897 0.036254 0.022297 0.007597 -0.011785
# 4 -0.030034 -0.004143 0.022297 0.066318 -0.020061 0.007393
# 5 0.016134 0.003014 0.007597 -0.020061 0.038419 -0.014094
# 6 -0.003205 0.000364 -0.011785 0.007393 -0.014094 0.034352
#
#
# Mechanical properties :
#
#
# Convention : Reuss Voigt Hill
#
# Bulk Modulus (GPa) = 23.40738 47.65398 35.53068
# Shear Modulus (GPa) = 16.91934 34.99691 25.95812
#
# Velocity S-wave (km/s) = 2.71461 3.90419 3.36243
# Velocity P-wave (km/s) = 4.47442 6.40930 5.52719
#
# Compressibility (1/GPa) = 0.04272157
#
# Stress axis : x y z
#
# Youngs Moduli (GPa) = 22.37803 86.83807 27.58348
#
# Poissons Ratio (x) = -0.04445 0.56496
# Poissons Ratio (y) = -0.01146 0.13509
# Poissons Ratio (z) = 0.45834 0.42528
#
# Static dielectric constant tensor:
#      x y z
#    x 1.896690 -0.004420 -0.032210 
#    y -0.004420 1.924470 -0.041760 
#    z -0.032210 -0.041760 1.939010 
# 
# From -- ./inp_files/544948.got.cif
#   From: 2010.05.17/outbox.cif.g08.bks.cpg/sg2_273_cif.got.tgz:544948.got - 2010.06.03 11:33:40.
