data_PCOD9004391
_publ_section_title
;
Structure prediction by ZEFSAII (Michael W. Deem and Ramdas Pophale) SiO2 
 PCOD9004391
Probable space group: P -1
;
_chemical_formula_sum "Si O2"
_cell_formula_units_Z 14
_cell_length_a 19.763628
_cell_length_b 5.310202
_cell_length_c 11.651859
_cell_angle_alpha 67.848081
_cell_angle_beta 44.744066
_cell_angle_gamma 96.207249
_cell_volume 651.390303
_symmetry_space_group_name_H-M "P -1"
_symmetry_group_IT_number 2
_symmetry_cell_setting 'triclinic'
loop_
_space_group_symop_operation_xyz
x,y,z
-x,-y,-z
loop_
_atom_site_type_symbol
_atom_site_label
_atom_site_fract_x
_atom_site_fract_y
_atom_site_fract_z
Si Si1 0.997082 0.600718 0.353935
Si Si2 0.347873 0.427396 0.503877
Si Si3 0.369200 0.826767 0.636082
Si Si4 0.756566 0.454383 0.586589
Si Si5 0.866209 0.670025 0.858625
Si Si6 0.598231 0.859299 0.016289
Si Si7 0.725325 0.546398 0.848033
O O1 0.867637 0.449984 0.486836
O O2 0.000000 0.500000 0.500000
O O3 0.065043 0.497315 0.210919
O O4 0.935293 0.002471 0.791539
O O5 0.359226 0.613691 0.575115
O O6 0.245084 0.392113 0.556761
O O7 0.464929 0.661505 0.246499
O O8 0.344918 0.101406 0.586031
O O9 0.500000 0.000000 0.500000
O O10 0.264651 0.579936 0.891463
O O11 0.747394 0.650253 0.670515
O O12 0.641213 0.076665 0.810637
O O13 0.843823 0.744411 0.743677
O O14 0.636170 0.611130 0.000333
O O15 0.673751 0.155250 0.968208
#
# Coordination Sequence:
#
# PCOD9004391 Si02
#       7
#     2   2   2   2   2   2   2
#     4  12  24  41  71 100 135 170 217 271 332 391
#     4  12  25  44  69  97 133 176 221 269 328 389
#     4  12  28  47  71  93 132 179 225 263 318 397
#     4  10  26  39  68 102 135 166 218 274 341 383
#     4  12  24  44  64  99 132 173 224 269 321 382
#     4  10  21  38  63  98 135 163 207 275 338 386
#     4  10  21  37  66  93 135 162 214 265 342 375
#
# _framework density 21.49249
#
# number of rings (size 3 to 8) (size 9 to 14) (size 15 to 20)
#    0.857    0.000    1.429    6.429    4.000    0.571 
#    0.000    4.286    0.000    0.000    0.000    0.000 
#    0.000    0.000    0.000    0.000    0.000    0.000 
#
# Total GULP energy -78210.997451 kJ/mol
# GULP energy per Si atom -5586.499818 kJ/mol
# Density = 2.144357 g / cm^3
# Si number density = 21.492490 Si / 1000 Ang^3
#
#
#
# Elastic Constant Matrix: (Units=GPa)
#
#
# Indices 1 2 3 4 5 6 
#
# 1 58.6081 15.3882 13.8005 15.6788 4.8114 -14.9529
# 2 15.3882 135.0550 43.3357 31.9451 -2.8422 -8.7482
# 3 13.8005 43.3357 87.2072 12.7811 -8.2442 -7.9617
# 4 15.6788 31.9451 12.7811 41.3147 -6.9769 -4.4077
# 5 4.8114 -2.8422 -8.2442 -6.9769 16.4221 -1.8611
# 6 -14.9529 -8.7482 -7.9617 -4.4077 -1.8611 21.8329
#
#
#
# Elastic Compliance Matrix: (Units=1/GPa)
#
#
# Indices 1 2 3 4 5 6 
#
# 1 0.024258 0.001010 -0.002768 -0.009567 -0.010896 0.013148
# 2 0.001010 0.010558 -0.004520 -0.007645 -0.003826 0.001404
# 3 -0.002768 -0.004520 0.014975 0.001661 0.008572 0.002820
# 4 -0.009567 -0.007645 0.001661 0.036196 0.017669 -0.000197
# 5 -0.010896 -0.003826 0.008572 0.017669 0.075704 0.004150
# 6 0.013148 0.001404 0.002820 -0.000197 0.004150 0.056713
#
#
# Mechanical properties :
#
#
# Convention : Reuss Voigt Hill
#
# Bulk Modulus (GPa) = 26.85598 47.32438 37.09018
# Shear Modulus (GPa) = 20.54474 29.80367 25.17421
#
# Velocity S-wave (km/s) = 3.09512 3.72788 3.42614
# Velocity P-wave (km/s) = 5.02948 6.37152 5.73986
#
# Compressibility (1/GPa) = 0.03723566
#
# Stress axis : x y z
#
# Youngs Moduli (GPa) = 41.22382 94.71174 66.77669
#
# Poissons Ratio (x) = -0.09563 0.18484
# Poissons Ratio (y) = -0.04162 0.30180
# Poissons Ratio (z) = 0.11411 0.42805
#
# Static dielectric constant tensor:
#      x y z
#    x 1.874210 0.014860 0.018110 
#    y 0.014860 1.801930 -0.026830 
#    z 0.018110 -0.026830 1.795400 
# 
# From -- ./inp_files/458750.got.cif
#   From: 2010.05.17/outbox.cif.g08.bks.cpg/sg2_230_cif.got.tgz:458750.got - 2010.06.03 11:33:40.
