data_PCOD9004554
_publ_section_title
;
Structure prediction by ZEFSAII (Michael W. Deem and Ramdas Pophale) SiO2 
 PCOD9004554
Probable space group: P -1
;
_chemical_formula_sum "Si O2"
_cell_formula_units_Z 16
_cell_length_a 11.289380
_cell_length_b 7.994849
_cell_length_c 8.334469
_cell_angle_alpha 90.028941
_cell_angle_beta 90.026075
_cell_angle_gamma 57.366286
_cell_volume 633.490435
_symmetry_space_group_name_H-M "P -1"
_symmetry_group_IT_number 2
_symmetry_cell_setting 'triclinic'
loop_
_space_group_symop_operation_xyz
x,y,z
-x,-y,-z
loop_
_atom_site_type_symbol
_atom_site_label
_atom_site_fract_x
_atom_site_fract_y
_atom_site_fract_z
Si Si1 0.985588 0.303385 0.160478
Si Si2 0.316827 0.953372 0.806727
Si Si3 0.282727 0.353589 0.706227
Si Si4 0.879117 0.431444 0.822389
Si Si5 0.917250 0.934727 0.389488
Si Si6 0.539647 0.311431 0.894345
Si Si7 0.385445 0.247445 0.340819
Si Si8 0.743419 0.012207 0.692380
O O1 0.861805 0.432270 0.287424
O O2 0.067727 0.418570 0.156556
O O3 0.112387 0.085535 0.205712
O O4 0.913435 0.320834 0.991446
O O5 0.454020 0.831127 0.694457
O O6 0.260329 0.185428 0.781736
O O7 0.187323 0.933000 0.755394
O O8 0.375627 0.874346 0.983427
O O9 0.396437 0.349398 0.822704
O O10 0.342918 0.298784 0.526472
O O11 0.718487 0.565303 0.769361
O O12 0.970133 0.276511 0.684106
O O13 0.804305 0.946781 0.514316
O O14 0.000000 0.000000 0.500000
O O15 0.645223 0.240770 0.742244
O O16 0.500000 0.500000 0.000000
O O17 0.353151 0.079920 0.289856
#
# Coordination Sequence:
#
# PCOD9004554 Si02
#       8
#     2   2   2   2   2   2   2   2
#     4  10  21  37  70 100 134 171 230 285 331 398
#     4  12  24  45  72 102 135 184 236 284 338 407
#     4  12  22  42  73 105 136 179 234 286 340 405
#     4  10  21  39  62 103 134 175 222 280 341 397
#     4  12  26  44  68  99 142 184 226 282 351 417
#     4  12  29  46  67 102 145 184 227 284 354 419
#     4  11  22  40  75 105 134 173 236 296 333 400
#     4  11  23  44  70 101 137 180 232 286 346 404
#
# _framework density 25.256893000000002
#
# number of rings (size 3 to 8) (size 9 to 14) (size 15 to 20)
#    0.000    0.750    3.750    3.750    3.500    6.000 
#    0.000    3.750    0.000    0.000    0.000    0.000 
#    0.000    0.000    0.000    0.000    0.000    0.000 
#
# Total GULP energy -89618.855962 kJ/mol
# GULP energy per Si atom -5601.178498 kJ/mol
# Density = 2.519941 g / cm^3
# Si number density = 25.256893 Si / 1000 Ang^3
#
#
#
# Elastic Constant Matrix: (Units=GPa)
#
#
# Indices 1 2 3 4 5 6 
#
# 1 91.6035 40.6926 24.7356 1.6543 32.3588 -27.0808
# 2 40.6926 90.6936 26.4496 23.7260 12.8272 -29.1649
# 3 24.7356 26.4496 108.5001 13.1480 26.4412 -0.0494
# 4 1.6543 23.7260 13.1480 49.5124 -14.7456 2.5723
# 5 32.3588 12.8272 26.4412 -14.7456 52.2729 -1.8515
# 6 -27.0808 -29.1649 -0.0494 2.5723 -1.8515 44.9375
#
#
#
# Elastic Compliance Matrix: (Units=1/GPa)
#
#
# Indices 1 2 3 4 5 6 
#
# 1 0.019261 -0.003166 -0.000496 -0.002863 -0.011375 0.009247
# 2 -0.003166 0.020371 -0.001656 -0.011309 -0.004975 0.011754
# 3 -0.000496 -0.001656 0.011825 -0.004194 -0.006500 -0.001388
# 4 -0.002863 -0.011309 -0.004194 0.031918 0.015309 -0.010266
# 5 -0.011375 -0.004975 -0.006500 0.015309 0.034662 -0.009540
# 6 0.009247 0.011754 -0.001388 -0.010266 -0.009540 0.035647
#
#
# Mechanical properties :
#
#
# Convention : Reuss Voigt Hill
#
# Bulk Modulus (GPa) = 24.49687 52.72807 38.61247
# Shear Modulus (GPa) = 28.10145 42.60584 35.35365
#
# Velocity S-wave (km/s) = 3.33922 4.11164 3.74540
# Velocity P-wave (km/s) = 4.95856 6.59264 5.83310
#
# Compressibility (1/GPa) = 0.04082153
#
# Stress axis : x y z
#
# Youngs Moduli (GPa) = 51.91931 49.08831 84.56648
#
# Poissons Ratio (x) = 0.15540 0.04194
# Poissons Ratio (y) = 0.16436 0.14005
# Poissons Ratio (z) = 0.02575 0.08130
#
# Static dielectric constant tensor:
#      x y z
#    x 2.024590 0.056410 -0.057000 
#    y 0.056410 1.985020 -0.045550 
#    z -0.057000 -0.045550 2.042830 
# 
# From -- ./inp_files/244634.got.cif
#   From: 2010.05.17/outbox.cif.g08.bks.cpg/sg2_123_cif.got.tgz:244634.got - 2010.06.03 11:33:40.
