data_PCOD9004005
_publ_section_title
;
Structure prediction by ZEFSAII (Michael W. Deem and Ramdas Pophale) SiO2 
 PCOD9004005
Probable space group: P -1
;
_chemical_formula_sum "Si O2"
_cell_formula_units_Z 14
_cell_length_a 6.714221
_cell_length_b 15.077546
_cell_length_c 13.932678
_cell_angle_alpha 140.889267
_cell_angle_beta 67.706876
_cell_angle_gamma 134.826359
_cell_volume 585.070614
_symmetry_space_group_name_H-M "P -1"
_symmetry_group_IT_number 2
_symmetry_cell_setting 'triclinic'
loop_
_space_group_symop_operation_xyz
x,y,z
-x,-y,-z
loop_
_atom_site_type_symbol
_atom_site_label
_atom_site_fract_x
_atom_site_fract_y
_atom_site_fract_z
Si Si1 0.340441 0.294340 0.132353
Si Si2 0.102708 0.274457 0.525702
Si Si3 0.456262 0.603866 0.019712
Si Si4 0.189829 0.757719 0.260600
Si Si5 0.652222 0.018058 0.084316
Si Si6 0.179287 0.686211 0.553066
Si Si7 0.240111 0.075510 0.434125
O O1 0.584981 0.511591 0.315682
O O2 0.014331 0.169306 0.132787
O O3 0.305034 0.294761 0.024587
O O4 0.454151 0.186533 0.038632
O O5 0.121069 0.114680 0.399814
O O6 0.853771 0.210451 0.595969
O O7 0.030506 0.305260 0.462008
O O8 0.422600 0.737547 0.190392
O O9 0.500000 0.500000 0.000000
O O10 0.141505 0.442046 0.883046
O O11 0.261139 0.918717 0.312293
O O12 0.611533 0.121417 0.256051
O O13 0.500000 0.000000 0.000000
O O14 0.404091 0.716306 0.459717
O O15 0.000000 0.500000 0.500000
O O16 0.000000 0.000000 0.500000
#
# Coordination Sequence:
#
# PCOD9004005 Si02
#       7
#     2   2   2   2   2   2   2
#     4  10  23  43  65  93 127 171 222 271 329 393
#     4  10  23  43  67  96 135 173 220 278 335 394
#     4  10  21  37  63  93 129 171 213 265 326 390
#     4   9  21  39  61  96 130 167 217 268 324 394
#     4  11  25  43  65  92 127 171 221 276 329 391
#     4  12  26  42  67  99 134 177 224 277 337 397
#     4  10  23  42  65  96 134 174 218 270 332 396
#
# _framework density 23.928735
#
# number of rings (size 3 to 8) (size 9 to 14) (size 15 to 20)
#    0.000    1.714    0.000    2.571    0.000   18.286 
#    0.000    0.000    0.000    0.000    0.000    0.000 
#    0.000    0.000    0.000    0.000    0.000    0.000 
#
# Total GULP energy -78226.821151 kJ/mol
# GULP energy per Si atom -5587.630082 kJ/mol
# Density = 2.387427 g / cm^3
# Si number density = 23.928735 Si / 1000 Ang^3
#
#
#
# Elastic Constant Matrix: (Units=GPa)
#
#
# Indices 1 2 3 4 5 6 
#
# 1 141.4362 40.4383 42.7243 -2.7257 -21.4862 -43.7459
# 2 40.4383 135.6750 22.1302 5.8369 -15.7396 -19.2617
# 3 42.7243 22.1302 79.8329 0.4742 -10.1752 -16.9871
# 4 -2.7257 5.8369 0.4742 31.0880 -5.9629 2.5639
# 5 -21.4862 -15.7396 -10.1752 -5.9629 38.2841 6.7488
# 6 -43.7459 -19.2617 -16.9871 2.5639 6.7488 55.8935
#
#
#
# Elastic Compliance Matrix: (Units=1/GPa)
#
#
# Indices 1 2 3 4 5 6 
#
# 1 0.011280 -0.001427 -0.003746 0.001494 0.003805 0.006670
# 2 -0.001427 0.008438 -0.001042 -0.001429 0.001938 0.001306
# 3 -0.003746 -0.001042 0.015238 -0.000219 0.001274 0.001197
# 4 0.001494 -0.001429 -0.000219 0.033806 0.005746 -0.001635
# 5 0.003805 0.001938 0.001274 0.005746 0.030266 0.000115
# 6 0.006670 0.001306 0.001197 -0.001635 0.000115 0.023986
#
#
# Mechanical properties :
#
#
# Convention : Reuss Voigt Hill
#
# Bulk Modulus (GPa) = 44.39251 63.05885 53.72568
# Shear Modulus (GPa) = 34.97688 41.82988 38.40338
#
# Velocity S-wave (km/s) = 3.82738 4.18557 4.01047
# Velocity P-wave (km/s) = 6.17447 7.05469 6.62920
#
# Compressibility (1/GPa) = 0.02252632
#
# Stress axis : x y z
#
# Youngs Moduli (GPa) = 88.65541 118.51815 65.62589
#
# Poissons Ratio (x) = 0.16911 0.24581
# Poissons Ratio (y) = 0.12650 0.06838
# Poissons Ratio (z) = 0.33207 0.12349
#
# Static dielectric constant tensor:
#      x y z
#    x 1.897440 0.039040 -0.022700 
#    y 0.039040 2.072350 -0.044950 
#    z -0.022700 -0.044950 1.997740 
# 
# From -- ./inp_files/484467.got.cif
#   From: 2010.05.17/outbox.cif.g08.bks.cpg/sg2_243_cif.got.tgz:484467.got - 2010.06.03 11:33:40.
