data_PCOD9004836
_publ_section_title
;
Structure prediction by ZEFSAII (Michael W. Deem and Ramdas Pophale) SiO2 
 PCOD9004836
Probable space group: P -1
;
_chemical_formula_sum "Si O2"
_cell_formula_units_Z 15
_cell_length_a 5.387741
_cell_length_b 14.517864
_cell_length_c 14.653418
_cell_angle_alpha 42.390342
_cell_angle_beta 97.829015
_cell_angle_gamma 100.437192
_cell_volume 759.930859
_symmetry_space_group_name_H-M "P -1"
_symmetry_group_IT_number 2
_symmetry_cell_setting 'triclinic'
loop_
_space_group_symop_operation_xyz
x,y,z
-x,-y,-z
loop_
_atom_site_type_symbol
_atom_site_label
_atom_site_fract_x
_atom_site_fract_y
_atom_site_fract_z
Si Si1 0.355102 0.106797 0.287097
Si Si2 0.521342 0.049942 0.067916
Si Si3 0.000000 0.000000 0.500000
Si Si4 0.681942 0.388335 0.068629
Si Si5 0.087454 0.191765 0.033744
Si Si6 0.027700 0.253953 0.463264
Si Si7 0.971076 0.484673 0.850959
Si Si8 0.532563 0.150119 0.619391
O O1 0.558936 0.238088 0.196453
O O2 0.150472 0.131286 0.180824
O O3 0.219462 0.093069 0.386079
O O4 0.498998 0.979209 0.358146
O O5 0.472585 0.921532 0.229757
O O6 0.299754 0.142221 0.014737
O O7 0.802762 0.128574 0.040694
O O8 0.500000 0.000000 0.000000
O O9 0.028871 0.868718 0.524528
O O10 0.907582 0.424853 0.124228
O O11 0.500000 0.500000 0.000000
O O12 0.737774 0.402189 0.954035
O O13 0.113742 0.357456 0.919252
O O14 0.294303 0.231747 0.537289
O O15 0.054490 0.404343 0.308791
O O16 0.797518 0.232334 0.540266
#
# Coordination Sequence:
#
# PCOD9004836 Si02
#       8
#     2   2   1   2   2   2   2   2
#     4  10  21  38  59  85 129 166 215 261 306 349
#     4  11  23  44  75  98 116 150 204 271 342 398
#     4  10  22  34  52  84 118 174 220 242 292 350
#     4  11  22  37  57  85 125 178 233 261 285 350
#     4  11  23  41  65  95 128 157 205 270 322 374
#     4  11  25  37  58  85 130 174 210 248 302 362
#     4  11  25  37  58  89 127 179 219 260 302 363
#     4  10  23  40  59  88 123 158 202 265 314 373
#
# _framework density 19.738637000000001
#
# number of rings (size 3 to 8) (size 9 to 14) (size 15 to 20)
#    0.000    1.333    1.333    5.200    7.467    1.067 
#    0.000    0.000    0.000    4.800    0.000    0.000 
#    0.000    0.000    0.000    0.000    0.000    0.000 
#
# Total GULP energy -83543.527128 kJ/mol
# GULP energy per Si atom -5569.568475 kJ/mol
# Density = 1.969371 g / cm^3
# Si number density = 19.738637 Si / 1000 Ang^3
#
#
#
# Elastic Constant Matrix: (Units=GPa)
#
#
# Indices 1 2 3 4 5 6 
#
# 1 140.4183 49.2264 76.2673 0.7661 -12.0904 -12.4067
# 2 49.2264 66.9289 48.1811 14.0040 -8.3460 -3.2501
# 3 76.2673 48.1811 148.0570 -3.5663 -14.7429 -12.5904
# 4 0.7661 14.0040 -3.5663 22.6098 -8.6915 -4.6438
# 5 -12.0904 -8.3460 -14.7429 -8.6915 35.8203 -3.2733
# 6 -12.4067 -3.2501 -12.5904 -4.6438 -3.2733 26.9648
#
#
#
# Elastic Compliance Matrix: (Units=1/GPa)
#
#
# Indices 1 2 3 4 5 6 
#
# 1 0.011873 -0.007195 -0.002966 0.005627 0.002890 0.004531
# 2 -0.007195 0.029435 -0.007569 -0.022665 -0.004897 -0.007794
# 3 -0.002966 -0.007569 0.011958 0.009761 0.005037 0.005599
# 4 0.005627 -0.022665 0.009761 0.071067 0.019620 0.019036
# 5 0.002890 -0.004897 0.005037 0.019620 0.035571 0.010788
# 6 0.004531 -0.007794 0.005599 0.019036 0.010788 0.045433
#
#
# Mechanical properties :
#
#
# Convention : Reuss Voigt Hill
#
# Bulk Modulus (GPa) = 56.15973 78.08378 67.12175
# Shear Modulus (GPa) = 20.26482 29.19427 24.72954
#
# Velocity S-wave (km/s) = 3.20763 3.85000 3.54340
# Velocity P-wave (km/s) = 6.49861 7.70766 7.12882
#
# Compressibility (1/GPa) = 0.01780635
#
# Stress axis : x y z
#
# Youngs Moduli (GPa) = 84.22215 33.97332 83.62499
#
# Poissons Ratio (x) = 0.24442 0.24806
# Poissons Ratio (y) = 0.60594 0.63297
# Poissons Ratio (z) = 0.24983 0.25715
#
# Static dielectric constant tensor:
#      x y z
#    x 1.800180 -0.016220 0.054000 
#    y -0.016220 1.659290 0.045860 
#    z 0.054000 0.045860 1.652770 
# 
# From -- ./inp_files/97269.got.cif
#   From: 2010.05.17/outbox.cif.g08.bks.cpg/sg2_49_cif.got.tgz:97269.got - 2010.06.03 11:33:40.
