data_PCOD9004086
_publ_section_title
;
Structure prediction by ZEFSAII (Michael W. Deem and Ramdas Pophale) SiO2 
 PCOD9004086
Probable space group: P -1
;
_chemical_formula_sum "Si O2"
_cell_formula_units_Z 16
_cell_length_a 9.908921
_cell_length_b 15.620176
_cell_length_c 15.471706
_cell_angle_alpha 41.311620
_cell_angle_beta 102.621470
_cell_angle_gamma 135.113888
_cell_volume 824.844752
_symmetry_space_group_name_H-M "P -1"
_symmetry_group_IT_number 2
_symmetry_cell_setting 'triclinic'
loop_
_space_group_symop_operation_xyz
x,y,z
-x,-y,-z
loop_
_atom_site_type_symbol
_atom_site_label
_atom_site_fract_x
_atom_site_fract_y
_atom_site_fract_z
Si Si1 0.448740 0.607602 0.642720
Si Si2 0.688902 0.495583 0.980720
Si Si3 0.958525 0.252970 0.471909
Si Si4 0.418711 0.870912 0.746757
Si Si5 0.206010 0.270533 0.017854
Si Si6 0.266728 0.268263 0.583322
Si Si7 0.111155 0.867168 0.631596
Si Si8 0.845975 0.378836 0.481363
O O1 0.606616 0.677678 0.530023
O O2 0.255495 0.564121 0.610355
O O3 0.661860 0.846897 0.552222
O O4 0.291243 0.380332 0.850839
O O5 0.750250 0.573546 0.029675
O O6 0.902106 0.741254 0.769261
O O7 0.716426 0.365842 0.061713
O O8 0.409849 0.326582 0.041250
O O9 0.082701 0.244940 0.556719
O O10 0.037021 0.279968 0.365968
O O11 0.001360 0.427007 0.389927
O O12 0.645484 0.998379 0.618578
O O13 0.245261 0.839215 0.700375
O O14 0.588980 0.084632 0.678432
O O15 0.918069 0.986425 0.205849
O O16 0.500000 0.500000 0.500000
O O17 0.000000 0.500000 0.500000
#
# Coordination Sequence:
#
# PCOD9004086 Si02
#       8
#     2   2   2   2   2   2   2   2
#     4  11  24  39  66  95 127 165 209 265 312 380
#     4  11  21  37  59  93 136 157 204 263 320 381
#     4  10  21  37  64  87 121 165 211 259 312 367
#     4   9  20  35  60  89 123 165 200 259 314 372
#     4  11  24  39  62  94 127 167 204 262 322 367
#     4  12  25  45  65  90 127 174 217 253 309 379
#     4  11  21  36  62  97 126 160 212 257 329 371
#     4   9  20  40  62  88 122 171 212 253 311 370
#
# _framework density 19.397590000000001
#
# number of rings (size 3 to 8) (size 9 to 14) (size 15 to 20)
#    0.750    0.750    2.500    3.000    3.500    1.500 
#    0.000    1.250    0.000    2.250    0.000    0.000 
#    0.000    0.000    0.000    0.000    0.000    0.000 
#
# Total GULP energy -89180.615273 kJ/mol
# GULP energy per Si atom -5573.788455 kJ/mol
# Density = 1.935344 g / cm^3
# Si number density = 19.397590 Si / 1000 Ang^3
#
#
#
# Elastic Constant Matrix: (Units=GPa)
#
#
# Indices 1 2 3 4 5 6 
#
# 1 68.0718 14.8580 21.5616 -5.4577 1.1171 -1.7439
# 2 14.8580 91.8549 39.5397 -10.7492 6.9649 -2.6488
# 3 21.5616 39.5397 114.6648 -9.5583 -7.5139 -3.0442
# 4 -5.4577 -10.7492 -9.5583 16.8612 -9.7491 -6.8850
# 5 1.1171 6.9649 -7.5139 -9.7491 25.8625 4.3755
# 6 -1.7439 -2.6488 -3.0442 -6.8850 4.3755 18.4057
#
#
#
# Elastic Compliance Matrix: (Units=1/GPa)
#
#
# Indices 1 2 3 4 5 6 
#
# 1 0.016039 -0.001068 -0.002195 0.004446 0.000190 0.002621
# 2 -0.001068 0.013953 -0.004233 0.005889 -0.003436 0.004227
# 3 -0.002195 -0.004233 0.011889 0.008773 0.007550 0.002636
# 4 0.004446 0.005889 0.008773 0.102520 0.033829 0.033027
# 5 0.000190 -0.003436 0.007550 0.033829 0.054447 0.000483
# 6 0.002621 0.004227 0.002636 0.033027 0.000483 0.067863
#
#
# Mechanical properties :
#
#
# Convention : Reuss Voigt Hill
#
# Bulk Modulus (GPa) = 37.18819 47.39002 42.28911
# Shear Modulus (GPa) = 17.20178 25.46803 21.33490
#
# Velocity S-wave (km/s) = 2.98115 3.62739 3.32003
# Velocity P-wave (km/s) = 5.57340 6.48289 6.04528
#
# Compressibility (1/GPa) = 0.02689025
#
# Stress axis : x y z
#
# Youngs Moduli (GPa) = 62.34686 71.66870 84.10862
#
# Poissons Ratio (x) = 0.07654 0.18463
# Poissons Ratio (y) = 0.06659 0.35600
# Poissons Ratio (z) = 0.13686 0.30335
#
# Static dielectric constant tensor:
#      x y z
#    x 1.698420 -0.010690 -0.021300 
#    y -0.010690 1.654330 0.006980 
#    z -0.021300 0.006980 1.728480 
# 
# From -- ./inp_files/505287.got.cif
#   From: 2010.05.17/outbox.cif.g08.bks.cpg/sg2_253_cif.got.tgz:505287.got - 2010.06.03 11:33:40.
