data_PCOD9004640
_publ_section_title
;
Structure prediction by ZEFSAII (Michael W. Deem and Ramdas Pophale) SiO2 
 PCOD9004640
Probable space group: P -1
;
_chemical_formula_sum "Si O2"
_cell_formula_units_Z 10
_cell_length_a 5.822993
_cell_length_b 14.787311
_cell_length_c 5.200480
_cell_angle_alpha 117.421123
_cell_angle_beta 96.052138
_cell_angle_gamma 77.588631
_cell_volume 388.182914
_symmetry_space_group_name_H-M "P -1"
_symmetry_group_IT_number 2
_symmetry_cell_setting 'triclinic'
loop_
_space_group_symop_operation_xyz
x,y,z
-x,-y,-z
loop_
_atom_site_type_symbol
_atom_site_label
_atom_site_fract_x
_atom_site_fract_y
_atom_site_fract_z
Si Si1 0.345412 0.650281 0.788643
Si Si2 0.712767 0.970878 0.686339
Si Si3 0.545812 0.170220 0.221186
Si Si4 0.841243 0.416235 0.820830
Si Si5 0.075438 0.794515 0.289543
O O1 0.525468 0.722439 0.806742
O O2 0.282474 0.578237 0.461513
O O3 0.126672 0.745349 0.950605
O O4 0.346005 0.591542 0.982119
O O5 0.653039 0.890907 0.789468
O O6 0.918453 0.904537 0.457699
O O7 0.500000 0.000000 0.500000
O O8 0.722214 0.078598 0.968912
O O9 0.679284 0.199521 0.529189
O O10 0.007827 0.301607 0.702486
O O11 0.000000 0.500000 0.000000
#
# Coordination Sequence:
#
# PCOD9004640 Si02
#       5
#     2   2   2   2   2
#     4   9  19  34  61  85 117 148 191 244 290 343
#     4  11  23  35  57  87 120 162 196 237 288 350
#     4  10  21  38  56  84 122 159 196 238 289 345
#     4   9  18  35  62  89 111 150 195 241 297 349
#     4   9  21  37  57  87 117 155 197 241 289 346
#
# _framework density 25.761051999999999
#
# number of rings (size 3 to 8) (size 9 to 14) (size 15 to 20)
#    1.200    1.200    0.000    2.400    0.000    9.600 
#    0.000    0.000    0.000    6.000    0.000    0.000 
#    0.000    0.000    0.000    0.000    0.000    0.000 
#
# Total GULP energy -55768.947480 kJ/mol
# GULP energy per Si atom -5576.894748 kJ/mol
# Density = 2.570242 g / cm^3
# Si number density = 25.761052 Si / 1000 Ang^3
#
#
#
# Elastic Constant Matrix: (Units=GPa)
#
#
# Indices 1 2 3 4 5 6 
#
# 1 31.9764 36.7280 24.8541 3.2671 -2.3399 17.3022
# 2 36.7280 107.8085 41.4679 5.7918 18.6165 29.5888
# 3 24.8541 41.4679 186.2663 6.8425 -1.2561 16.3587
# 4 3.2671 5.7918 6.8425 47.2178 12.9811 5.2327
# 5 -2.3399 18.6165 -1.2561 12.9811 34.2952 11.2296
# 6 17.3022 29.5888 16.3587 5.2327 11.2296 46.1194
#
#
#
# Elastic Compliance Matrix: (Units=1/GPa)
#
#
# Indices 1 2 3 4 5 6 
#
# 1 0.070371 -0.022417 -0.002545 -0.006752 0.024798 -0.016388
# 2 -0.022417 0.019886 -0.001558 0.003081 -0.013246 -0.000920
# 3 -0.002545 -0.001558 0.006136 -0.000847 0.001368 -0.000459
# 4 -0.006752 0.003081 -0.000847 0.024517 -0.011751 0.000936
# 5 0.024798 -0.013246 0.001368 -0.011751 0.046209 -0.011208
# 6 -0.016388 -0.000920 -0.000459 0.000936 -0.011208 0.031207
#
#
# Mechanical properties :
#
#
# Convention : Reuss Voigt Hill
#
# Bulk Modulus (GPa) = 23.06582 59.12794 41.09688
# Shear Modulus (GPa) = 18.81003 40.39320 29.60161
#
# Velocity S-wave (km/s) = 2.70510 3.96409 3.39349
# Velocity P-wave (km/s) = 4.32781 6.62980 5.59840
#
# Compressibility (1/GPa) = 0.04335420
#
# Stress axis : x y z
#
# Youngs Moduli (GPa) = 14.21049 50.28615 162.98126
#
# Poissons Ratio (x) = 1.12725 0.41474
# Poissons Ratio (y) = 0.31855 0.25389
# Poissons Ratio (z) = 0.03616 0.07833
#
# Static dielectric constant tensor:
#      x y z
#    x 2.071520 -0.001540 -0.075270 
#    y -0.001540 2.136580 -0.018110 
#    z -0.075270 -0.018110 2.060070 
# 
# From -- ./inp_files/2967.got.cif
#   From: 2010.05.17/outbox.cif.g08.bks.cpg/sg2_2_cif.got.tgz:2967.got - 2010.06.03 11:33:40.
