data_PCOD9004516
_publ_section_title
;
Structure prediction by ZEFSAII (Michael W. Deem and Ramdas Pophale) SiO2 
 PCOD9004516
Probable space group: P -1
;
_chemical_formula_sum "Si O2"
_cell_formula_units_Z 16
_cell_length_a 8.354351
_cell_length_b 12.408737
_cell_length_c 8.669944
_cell_angle_alpha 122.175170
_cell_angle_beta 114.617910
_cell_angle_gamma 73.990438
_cell_volume 689.903114
_symmetry_space_group_name_H-M "P -1"
_symmetry_group_IT_number 2
_symmetry_cell_setting 'triclinic'
loop_
_space_group_symop_operation_xyz
x,y,z
-x,-y,-z
loop_
_atom_site_type_symbol
_atom_site_label
_atom_site_fract_x
_atom_site_fract_y
_atom_site_fract_z
Si Si1 0.647216 0.648346 0.782014
Si Si2 0.780327 0.146306 0.987622
Si Si3 0.166458 0.116069 0.060366
Si Si4 0.343845 0.405598 0.887375
Si Si5 0.547919 0.862476 0.334810
Si Si6 0.972884 0.470373 0.646785
Si Si7 0.286688 0.735631 0.618391
Si Si8 0.189215 0.993081 0.649947
O O1 0.686823 0.790083 0.848509
O O2 0.814156 0.562363 0.721261
O O3 0.456748 0.636159 0.617039
O O4 0.647854 0.632836 0.956408
O O5 0.710122 0.202496 0.163121
O O6 0.977159 0.186027 0.073141
O O7 0.639363 0.183651 0.831222
O O8 0.789174 0.991151 0.875693
O O9 0.144874 0.033211 0.836483
O O10 0.361547 0.276728 0.688083
O O11 0.155028 0.473941 0.815873
O O12 0.500000 0.500000 0.000000
O O13 0.500000 0.000000 0.500000
O O14 0.680664 0.909180 0.293166
O O15 0.894192 0.331992 0.524285
O O16 0.000000 0.500000 0.500000
O O17 0.283820 0.850794 0.583224
O O18 0.000000 0.000000 0.500000
#
# Coordination Sequence:
#
# PCOD9004516 Si02
#       8
#     2   2   2   2   2   2   2   2
#     4  12  24  46  73 100 143 196 248 296 374 438
#     4  10  21  41  67 103 141 182 227 293 371 429
#     4  10  21  37  68  96 134 184 229 283 359 434
#     4  12  28  50  74 104 152 199 246 305 378 444
#     4  12  25  43  71 103 142 183 241 297 363 435
#     4  12  28  47  72 104 145 193 255 305 364 445
#     4  11  23  42  72 102 141 182 238 302 361 433
#     4  11  22  40  64 101 141 178 230 298 363 427
#
# _framework density 23.191662999999998
#
# number of rings (size 3 to 8) (size 9 to 14) (size 15 to 20)
#    0.000    0.750    2.500    4.500    1.750    7.000 
#    0.000    0.000    0.000    0.000    0.000    0.000 
#    0.000    0.000    0.000    0.000    0.000    0.000 
#
# Total GULP energy -89354.303874 kJ/mol
# GULP energy per Si atom -5584.643992 kJ/mol
# Density = 2.313888 g / cm^3
# Si number density = 23.191663 Si / 1000 Ang^3
#
#
#
# Elastic Constant Matrix: (Units=GPa)
#
#
# Indices 1 2 3 4 5 6 
#
# 1 126.4350 53.2365 26.9102 -5.0615 17.8373 -12.3713
# 2 53.2365 89.5993 25.5136 9.1928 12.4407 -7.0509
# 3 26.9102 25.5136 46.3495 2.4431 16.2999 -10.6904
# 4 -5.0615 9.1928 2.4431 39.0386 -10.7545 8.7733
# 5 17.8373 12.4407 16.2999 -10.7545 42.6300 2.9444
# 6 -12.3713 -7.0509 -10.6904 8.7733 2.9444 54.1366
#
#
#
# Elastic Compliance Matrix: (Units=1/GPa)
#
#
# Indices 1 2 3 4 5 6 
#
# 1 0.011400 -0.005970 -0.002733 0.002442 -0.001434 0.000970
# 2 -0.005970 0.016922 -0.004653 -0.005227 -0.002041 0.000879
# 3 -0.002733 -0.004653 0.031608 -0.005894 -0.011526 0.006593
# 4 0.002442 -0.005227 -0.005894 0.032274 0.011392 -0.007137
# 5 -0.001434 -0.002041 -0.011526 0.011392 0.032382 -0.006477
# 6 0.000970 0.000879 0.006593 -0.007137 -0.006477 0.021619
#
#
# Mechanical properties :
#
#
# Convention : Reuss Voigt Hill
#
# Bulk Modulus (GPa) = 30.10439 52.63383 41.36911
# Shear Modulus (GPa) = 27.17568 37.60927 32.39248
#
# Velocity S-wave (km/s) = 3.42685 4.03137 3.74134
# Velocity P-wave (km/s) = 5.35412 6.66436 6.04484
#
# Compressibility (1/GPa) = 0.03321775
#
# Stress axis : x y z
#
# Youngs Moduli (GPa) = 87.72249 59.09571 31.63753
#
# Poissons Ratio (x) = 0.35281 0.08647
# Poissons Ratio (y) = 0.52371 0.14720
# Poissons Ratio (z) = 0.23975 0.27495
#
# Static dielectric constant tensor:
#      x y z
#    x 1.875560 -0.042630 -0.008940 
#    y -0.042630 1.938950 0.028100 
#    z -0.008940 0.028100 1.865970 
# 
# From -- ./inp_files/184865.got.cif
#   From: 2010.05.17/outbox.cif.g08.bks.cpg/sg2_93_cif.got.tgz:184865.got - 2010.06.03 11:33:40.
