data_PCOD9004805
_publ_section_title
;
Structure prediction by ZEFSAII (Michael W. Deem and Ramdas Pophale) SiO2 
 PCOD9004805
Probable space group: P -1
;
_chemical_formula_sum "Si O2"
_cell_formula_units_Z 16
_cell_length_a 11.887589
_cell_length_b 7.742084
_cell_length_c 15.641991
_cell_angle_alpha 73.530237
_cell_angle_beta 141.001190
_cell_angle_gamma 128.629630
_cell_volume 645.443562
_symmetry_space_group_name_H-M "P -1"
_symmetry_group_IT_number 2
_symmetry_cell_setting 'triclinic'
loop_
_space_group_symop_operation_xyz
x,y,z
-x,-y,-z
loop_
_atom_site_type_symbol
_atom_site_label
_atom_site_fract_x
_atom_site_fract_y
_atom_site_fract_z
Si Si1 0.216547 0.363250 0.338489
Si Si2 0.584492 0.871991 0.765258
Si Si3 0.848822 0.917990 0.507500
Si Si4 0.412597 0.693576 0.856790
Si Si5 0.624662 0.448243 0.970056
Si Si6 0.673446 0.548932 0.798115
Si Si7 0.840295 0.257445 0.721925
Si Si8 0.860684 0.298311 0.547972
O O1 0.500000 0.500000 0.500000
O O2 0.077574 0.137433 0.353878
O O3 0.167287 0.336279 0.210700
O O4 0.161675 0.528579 0.312600
O O5 0.569419 0.906653 0.850874
O O6 0.709802 0.770185 0.830099
O O7 0.312759 0.667714 0.597032
O O8 0.702268 0.105288 0.745887
O O9 0.586943 0.669075 0.363417
O O10 0.853267 0.130550 0.501915
O O11 0.000000 0.000000 0.500000
O O12 0.468478 0.524226 0.882273
O O13 0.130858 0.539821 0.694559
O O14 0.468099 0.747450 0.982287
O O15 0.662925 0.422267 0.897108
O O16 0.900019 0.661600 0.131820
O O17 0.745248 0.140013 0.589153
#
# Coordination Sequence:
#
# PCOD9004805 Si02
#       8
#     2   2   2   2   2   2   2   2
#     4  10  21  39  57  83 118 149 186 238 297 339
#     4  11  20  35  61  93 116 147 198 246 290 336
#     4  11  22  37  59  86 116 149 189 238 295 343
#     4   9  20  36  59  86 119 152 190 244 289 338
#     4   9  20  39  57  82 119 158 195 230 287 347
#     4  10  21  38  59  83 122 157 186 235 292 349
#     4  11  23  38  62  88 116 153 198 243 281 345
#     4  11  21  37  61  88 117 149 194 243 290 345
#
# _framework density 24.789155999999998
#
# number of rings (size 3 to 8) (size 9 to 14) (size 15 to 20)
#    0.000    1.750    0.000    6.000    0.000    4.500 
#    0.000    2.500    0.000    6.000    0.000    0.000 
#    0.000    0.000    0.000    0.000    0.000    0.000 
#
# Total GULP energy -89275.604907 kJ/mol
# GULP energy per Si atom -5579.725307 kJ/mol
# Density = 2.473273 g / cm^3
# Si number density = 24.789156 Si / 1000 Ang^3
#
#
#
# Elastic Constant Matrix: (Units=GPa)
#
#
# Indices 1 2 3 4 5 6 
#
# 1 138.3115 31.4898 30.7629 -20.8437 -32.3098 37.9186
# 2 31.4898 52.2427 5.2018 -14.8545 -14.6423 19.9977
# 3 30.7629 5.2018 66.9748 -10.6304 -14.7045 21.1104
# 4 -20.8437 -14.8545 -10.6304 19.9197 19.0552 -13.9895
# 5 -32.3098 -14.6423 -14.7045 19.0552 55.2788 -26.0825
# 6 37.9186 19.9977 21.1104 -13.9895 -26.0825 54.7798
#
#
#
# Elastic Compliance Matrix: (Units=1/GPa)
#
#
# Indices 1 2 3 4 5 6 
#
# 1 0.010353 -0.003395 -0.002588 0.002720 0.001970 -0.003297
# 2 -0.003395 0.027134 0.003391 0.016738 -0.002359 -0.005711
# 3 -0.002588 0.003391 0.018394 0.006381 -0.000304 -0.005050
# 4 0.002720 0.016738 0.006381 0.092640 -0.023193 0.002163
# 5 0.001970 -0.002359 -0.000304 -0.023193 0.030379 0.008156
# 6 -0.003297 -0.005711 -0.005050 0.002163 0.008156 0.029004
#
#
# Mechanical properties :
#
#
# Convention : Reuss Voigt Hill
#
# Bulk Modulus (GPa) = 19.72531 43.60423 31.66477
# Shear Modulus (GPa) = 21.74034 38.66729 30.20381
#
# Velocity S-wave (km/s) = 2.96465 3.95377 3.49439
# Velocity P-wave (km/s) = 4.43772 6.20253 5.39281
#
# Compressibility (1/GPa) = 0.05069628
#
# Stress axis : x y z
#
# Youngs Moduli (GPa) = 96.59454 36.85398 54.36488
#
# Poissons Ratio (x) = 0.12512 0.14070
# Poissons Ratio (y) = 0.32793 -0.18433
# Poissons Ratio (z) = 0.24999 -0.12496
#
# Static dielectric constant tensor:
#      x y z
#    x 1.983190 0.117550 -0.012760 
#    y 0.117550 1.987000 -0.049310 
#    z -0.012760 -0.049310 2.029560 
# 
# From -- ./inp_files/515445.got.cif
#   From: 2010.05.17/outbox.cif.g08.bks.cpg/sg2_258_cif.got.tgz:515445.got - 2010.06.03 11:33:40.
