data_PCOD9004938
_publ_section_title
;
Structure prediction by ZEFSAII (Michael W. Deem and Ramdas Pophale) SiO2 
 PCOD9004938
Probable space group: P -1
;
_chemical_formula_sum "Si O2"
_cell_formula_units_Z 14
_cell_length_a 6.259963
_cell_length_b 11.699452
_cell_length_c 11.601866
_cell_angle_alpha 102.184407
_cell_angle_beta 84.113688
_cell_angle_gamma 53.000194
_cell_volume 633.983699
_symmetry_space_group_name_H-M "P -1"
_symmetry_group_IT_number 2
_symmetry_cell_setting 'triclinic'
loop_
_space_group_symop_operation_xyz
x,y,z
-x,-y,-z
loop_
_atom_site_type_symbol
_atom_site_label
_atom_site_fract_x
_atom_site_fract_y
_atom_site_fract_z
Si Si1 0.322592 0.174626 0.750165
Si Si2 0.201469 0.662663 0.025485
Si Si3 0.227644 0.917483 0.111668
Si Si4 0.596443 0.120214 0.273803
Si Si5 0.135645 0.210289 0.149003
Si Si6 0.742347 0.689752 0.460704
Si Si7 0.810412 0.401073 0.416120
O O1 0.530010 0.167020 0.824588
O O2 0.344753 0.223815 0.635150
O O3 0.008316 0.280708 0.842360
O O4 0.425998 0.005181 0.706762
O O5 0.249879 0.783920 0.021510
O O6 0.500000 0.500000 0.000000
O O7 0.018398 0.682874 0.930600
O O8 0.242664 0.040913 0.079204
O O9 0.915325 0.026113 0.203010
O O10 0.388633 0.194907 0.190715
O O11 0.491729 0.234329 0.410158
O O12 0.906572 0.287837 0.281063
O O13 0.851049 0.521026 0.397662
O O14 0.982636 0.683750 0.505488
O O15 0.500000 0.500000 0.500000
#
# Coordination Sequence:
#
# PCOD9004938 Si02
#       7
#     2   2   2   2   2   2   2
#     4  10  23  39  62  91 127 158 205 250 301 368
#     4  11  26  42  60  92 124 162 205 254 308 356
#     4  10  22  41  64  91 118 166 203 248 310 357
#     4   9  20  40  64  92 121 158 203 251 306 360
#     4  10  22  41  63  88 122 160 208 252 295 368
#     4  10  21  38  59  94 125 157 200 252 302 362
#     4  10  22  37  62  89 122 164 202 245 307 361
#
# _framework density 22.082587
#
# number of rings (size 3 to 8) (size 9 to 14) (size 15 to 20)
#    0.000    2.000    0.000    1.714    4.000    8.571 
#    0.000    0.000    0.000    0.000    0.000    0.000 
#    0.000    0.000    0.000    0.000    0.000    0.000 
#
# Total GULP energy -78199.388211 kJ/mol
# GULP energy per Si atom -5585.670586 kJ/mol
# Density = 2.203233 g / cm^3
# Si number density = 22.082587 Si / 1000 Ang^3
#
#
#
# Elastic Constant Matrix: (Units=GPa)
#
#
# Indices 1 2 3 4 5 6 
#
# 1 67.8850 31.6464 31.3258 2.0291 -15.6381 -14.1885
# 2 31.6464 107.9029 55.7871 -0.3784 9.8239 -25.7998
# 3 31.3258 55.7871 84.9366 1.0806 3.7033 -9.4838
# 4 2.0291 -0.3784 1.0806 43.0337 -8.9344 3.1571
# 5 -15.6381 9.8239 3.7033 -8.9344 28.2797 12.4356
# 6 -14.1885 -25.7998 -9.4838 3.1571 12.4356 33.8289
#
#
#
# Elastic Compliance Matrix: (Units=1/GPa)
#
#
# Indices 1 2 3 4 5 6 
#
# 1 0.024018 -0.006794 -0.005730 0.003239 0.019208 -0.004078
# 2 -0.006794 0.022653 -0.009172 -0.005033 -0.020797 0.019970
# 3 -0.005730 -0.009172 0.019574 -0.000275 -0.001102 -0.003480
# 4 0.003239 -0.005033 -0.000275 0.027484 0.017309 -0.011485
# 5 0.019208 -0.020797 -0.001102 0.017309 0.075264 -0.037396
# 6 -0.004078 0.019970 -0.003480 -0.011485 -0.037396 0.056924
#
#
# Mechanical properties :
#
#
# Convention : Reuss Voigt Hill
#
# Bulk Modulus (GPa) = 43.75843 55.36035 49.55939
# Shear Modulus (GPa) = 18.05528 30.49280 24.27404
#
# Velocity S-wave (km/s) = 2.86252 3.72001 3.31907
# Velocity P-wave (km/s) = 5.54835 6.60117 6.09752
#
# Compressibility (1/GPa) = 0.02285274
#
# Stress axis : x y z
#
# Youngs Moduli (GPa) = 41.63583 44.14385 51.08786
#
# Poissons Ratio (x) = 0.29992 0.29271
# Poissons Ratio (y) = 0.28288 0.46860
# Poissons Ratio (z) = 0.23856 0.40491
#
# Static dielectric constant tensor:
#      x y z
#    x 1.851720 0.004120 0.010760 
#    y 0.004120 1.787070 0.014220 
#    z 0.010760 0.014220 1.817480 
# 
# From -- ./inp_files/37179.got.cif
#   From: 2010.05.17/outbox.cif.g08.bks.cpg/sg2_19_cif.got.tgz:37179.got - 2010.06.03 11:33:40.
