data_PCOD9004264
_publ_section_title
;
Structure prediction by ZEFSAII (Michael W. Deem and Ramdas Pophale) SiO2 
 PCOD9004264
Probable space group: P -1
;
_chemical_formula_sum "Si O2"
_cell_formula_units_Z 16
_cell_length_a 16.493154
_cell_length_b 8.561438
_cell_length_c 8.448482
_cell_angle_alpha 57.139043
_cell_angle_beta 121.173231
_cell_angle_gamma 78.924307
_cell_volume 645.558734
_symmetry_space_group_name_H-M "P -1"
_symmetry_group_IT_number 2
_symmetry_cell_setting 'triclinic'
loop_
_space_group_symop_operation_xyz
x,y,z
-x,-y,-z
loop_
_atom_site_type_symbol
_atom_site_label
_atom_site_fract_x
_atom_site_fract_y
_atom_site_fract_z
Si Si1 0.149415 0.344089 0.742844
Si Si2 0.354658 0.856907 0.096327
Si Si3 0.118136 0.305713 0.069422
Si Si4 0.990793 0.187102 0.185346
Si Si5 0.224420 0.673244 0.599897
Si Si6 0.751366 0.350740 0.734028
Si Si7 0.642774 0.156203 0.261128
Si Si8 0.454270 0.091000 0.724118
O O1 0.205374 0.479368 0.716179
O O2 0.000000 0.500000 0.500000
O O3 0.186159 0.212860 0.022625
O O4 0.219700 0.132263 0.800564
O O5 0.339597 0.693888 0.274711
O O6 0.448352 0.884276 0.255699
O O7 0.387612 0.777597 0.991178
O O8 0.011995 0.284030 0.993309
O O9 0.220230 0.114965 0.409666
O O10 0.053168 0.590975 0.865128
O O11 0.878112 0.189227 0.051926
O O12 0.117109 0.904384 0.476243
O O13 0.209883 0.713775 0.373787
O O14 0.344845 0.651890 0.763789
O O15 0.679540 0.635048 0.543642
O O16 0.554571 0.098941 0.259776
O O17 0.500000 0.000000 0.000000
#
# Coordination Sequence:
#
# PCOD9004264 Si02
#       8
#     2   2   2   2   2   2   2   2
#     4  12  26  42  65  97 135 170 213 258 322 383
#     4  11  25  43  66  94 126 173 218 259 324 386
#     4  10  22  39  63  94 128 170 211 262 317 378
#     4  10  21  37  65  90 130 166 210 253 327 369
#     4  11  24  38  64  98 130 165 214 266 314 380
#     4  12  22  43  66  94 129 169 213 264 318 384
#     4  10  22  43  65  94 128 169 215 270 318 373
#     4  10  22  43  68  91 126 173 212 262 325 383
#
# _framework density 24.784732999999999
#
# number of rings (size 3 to 8) (size 9 to 14) (size 15 to 20)
#    0.000    1.250    1.250    5.250    7.000    0.500 
#    0.000    8.125    0.000    0.000    0.000    0.000 
#    0.000    0.000    0.000    0.000    0.000    0.000 
#
# Total GULP energy -89319.474211 kJ/mol
# GULP energy per Si atom -5582.467138 kJ/mol
# Density = 2.472832 g / cm^3
# Si number density = 24.784733 Si / 1000 Ang^3
#
#
#
# Elastic Constant Matrix: (Units=GPa)
#
#
# Indices 1 2 3 4 5 6 
#
# 1 119.1078 24.9791 6.3515 16.7123 -0.5434 40.8943
# 2 24.9791 91.2474 15.9690 -9.4490 2.5672 32.3403
# 3 6.3515 15.9690 43.1688 -4.9321 3.0249 10.2083
# 4 16.7123 -9.4490 -4.9321 29.5678 2.5471 0.8060
# 5 -0.5434 2.5672 3.0249 2.5471 31.8807 7.7212
# 6 40.8943 32.3403 10.2083 0.8060 7.7212 45.1273
#
#
#
# Elastic Compliance Matrix: (Units=1/GPa)
#
#
# Indices 1 2 3 4 5 6 
#
# 1 0.014119 -0.000090 -0.000112 -0.008021 0.004112 -0.013265
# 2 -0.000090 0.015805 -0.002788 0.004827 0.001248 -0.010913
# 3 -0.000112 -0.002788 0.025568 0.003674 -0.001657 -0.003467
# 4 -0.008021 0.004827 0.003674 0.040846 -0.004884 0.003084
# 5 0.004112 0.001248 -0.001657 -0.004884 0.034313 -0.010029
# 6 -0.013265 -0.010913 -0.003467 0.003084 -0.010029 0.044446
#
#
# Mechanical properties :
#
#
# Convention : Reuss Voigt Hill
#
# Bulk Modulus (GPa) = 20.19733 38.68036 29.43885
# Shear Modulus (GPa) = 25.30591 35.06346 30.18469
#
# Velocity S-wave (km/s) = 3.19882 3.76536 3.49359
# Velocity P-wave (km/s) = 4.67012 5.87744 5.30822
#
# Compressibility (1/GPa) = 0.04951149
#
# Stress axis : x y z
#
# Youngs Moduli (GPa) = 70.82534 63.27272 39.11068
#
# Poissons Ratio (x) = 0.00572 0.00436
# Poissons Ratio (y) = 0.00640 0.10906
# Poissons Ratio (z) = 0.00790 0.17643
#
# Static dielectric constant tensor:
#      x y z
#    x 2.107220 0.076910 0.155790 
#    y 0.076910 1.988730 -0.005670 
#    z 0.155790 -0.005670 2.058140 
# 
# From -- ./inp_files/297712.got.cif
#   From: 2010.05.17/outbox.cif.g08.bks.cpg/sg2_149_cif.got.tgz:297712.got - 2010.06.03 11:33:40.
