data_PCOD9004455
_publ_section_title
;
Structure prediction by ZEFSAII (Michael W. Deem and Ramdas Pophale) SiO2 
 PCOD9004455
Probable space group: P -1
;
_chemical_formula_sum "Si O2"
_cell_formula_units_Z 16
_cell_length_a 11.186231
_cell_length_b 9.393249
_cell_length_c 17.312392
_cell_angle_alpha 157.550748
_cell_angle_beta 106.781765
_cell_angle_gamma 83.631989
_cell_volume 601.541447
_symmetry_space_group_name_H-M "P -1"
_symmetry_group_IT_number 2
_symmetry_cell_setting 'triclinic'
loop_
_space_group_symop_operation_xyz
x,y,z
-x,-y,-z
loop_
_atom_site_type_symbol
_atom_site_label
_atom_site_fract_x
_atom_site_fract_y
_atom_site_fract_z
Si Si1 0.368880 0.679008 0.714513
Si Si2 0.423310 0.872153 0.340224
Si Si3 0.201390 0.333590 0.651432
Si Si4 0.297335 0.774000 0.466325
Si Si5 0.111648 0.028530 0.642774
Si Si6 0.844936 0.892551 0.709969
Si Si7 0.610946 0.814699 0.741581
Si Si8 0.137708 0.326689 0.970979
O O1 0.315755 0.675534 0.790339
O O2 0.512385 0.983715 0.853761
O O3 0.392690 0.258908 0.507441
O O4 0.237194 0.544939 0.566508
O O5 0.287806 0.450707 0.097763
O O6 0.500000 0.000000 0.500000
O O7 0.547837 0.883035 0.315141
O O8 0.182674 0.374943 0.761193
O O9 0.238272 0.934074 0.463496
O O10 0.049852 0.197508 0.520234
O O11 0.325017 0.372601 0.272929
O O12 0.189787 0.741071 0.495847
O O13 0.135376 0.173749 0.806805
O O14 0.873737 0.238447 0.821313
O O15 0.743771 0.982151 0.793916
O O16 0.999347 0.006816 0.825648
O O17 0.500000 0.500000 0.500000
#
# Coordination Sequence:
#
# PCOD9004455 Si02
#       8
#     2   2   2   2   2   2   2   2
#     4   9  15  29  53  74  98 131 175 214 252 305
#     4  10  17  28  47  77  97 131 170 217 260 295
#     4   9  16  30  54  79 100 132 176 212 260 304
#     4   9  18  30  51  78 103 136 173 216 254 311
#     4   9  18  31  50  81 103 134 174 215 265 302
#     4   9  18  31  49  78 101 138 170 218 261 302
#     4   9  18  31  50  76 111 137 178 213 253 310
#     4  10  19  30  52  73 107 135 172 221 259 310
#
# _framework density 26.598334999999999
#
# number of rings (size 3 to 8) (size 9 to 14) (size 15 to 20)
#    0.750    2.000    2.500    0.750    0.000    0.500 
#    0.000    0.625    0.000    7.500    0.000    0.000 
#    0.000    3.000    0.000    0.125    0.000    0.000 
#
# Total GULP energy -89077.776794 kJ/mol
# GULP energy per Si atom -5567.361050 kJ/mol
# Density = 2.653780 g / cm^3
# Si number density = 26.598335 Si / 1000 Ang^3
#
#
#
# Elastic Constant Matrix: (Units=GPa)
#
#
# Indices 1 2 3 4 5 6 
#
# 1 154.0253 36.9149 67.8872 1.3730 49.1205 35.1840
# 2 36.9149 111.0259 31.9000 -8.0354 8.1360 19.9011
# 3 67.8872 31.9000 92.7667 -16.2441 34.3719 15.8349
# 4 1.3730 -8.0354 -16.2441 37.1022 2.2189 2.1258
# 5 49.1205 8.1360 34.3719 2.2189 60.2064 8.5216
# 6 35.1840 19.9011 15.8349 2.1258 8.5216 65.7136
#
#
#
# Elastic Compliance Matrix: (Units=1/GPa)
#
#
# Indices 1 2 3 4 5 6 
#
# 1 0.012287 -0.001393 -0.006312 -0.002968 -0.005583 -0.003816
# 2 -0.001393 0.010564 -0.002570 0.001247 0.001422 -0.002059
# 3 -0.006312 -0.002570 0.020232 0.008926 -0.006356 -0.000182
# 4 -0.002968 0.001247 0.008926 0.031551 -0.003798 -0.001468
# 5 -0.005583 0.001422 -0.006356 -0.003798 0.024597 0.001024
# 6 -0.003816 -0.002059 -0.000182 -0.001468 0.001024 0.017842
#
#
# Mechanical properties :
#
#
# Convention : Reuss Voigt Hill
#
# Bulk Modulus (GPa) = 44.38220 70.13578 57.25899
# Shear Modulus (GPa) = 34.45067 47.34550 40.89809
#
# Velocity S-wave (km/s) = 3.60282 4.22360 3.92550
# Velocity P-wave (km/s) = 5.83347 7.08596 6.49000
#
# Compressibility (1/GPa) = 0.02253156
#
# Stress axis : x y z
#
# Youngs Moduli (GPa) = 81.38558 94.66432 49.42676
#
# Poissons Ratio (x) = 0.13190 0.31200
# Poissons Ratio (y) = 0.11340 0.12702
# Poissons Ratio (z) = 0.51373 0.24328
#
# Static dielectric constant tensor:
#      x y z
#    x 2.164660 0.065080 0.038610 
#    y 0.065080 2.281160 0.087950 
#    z 0.038610 0.087950 2.210120 
# 
# From -- ./inp_files/594855.got.cif
#   From: 2010.05.17/outbox.cif.g08.bks.cpg/sg2_298_cif.got.tgz:594855.got - 2010.06.03 11:33:40.
