data_PCOD9004195
_publ_section_title
;
Structure prediction by ZEFSAII (Michael W. Deem and Ramdas Pophale) SiO2 
 PCOD9004195
Probable space group: P -1
;
_chemical_formula_sum "Si O2"
_cell_formula_units_Z 14
_cell_length_a 14.720711
_cell_length_b 15.147257
_cell_length_c 8.411530
_cell_angle_alpha 81.214698
_cell_angle_beta 51.751993
_cell_angle_gamma 38.628771
_cell_volume 678.521279
_symmetry_space_group_name_H-M "P -1"
_symmetry_group_IT_number 2
_symmetry_cell_setting 'triclinic'
loop_
_space_group_symop_operation_xyz
x,y,z
-x,-y,-z
loop_
_atom_site_type_symbol
_atom_site_label
_atom_site_fract_x
_atom_site_fract_y
_atom_site_fract_z
Si Si1 0.642741 0.309818 0.867491
Si Si2 0.888897 0.078845 0.347533
Si Si3 0.906943 0.766154 0.330310
Si Si4 0.776059 0.545528 0.694852
Si Si5 0.534476 0.864281 0.700046
Si Si6 0.234191 0.139084 0.208427
Si Si7 0.200331 0.993769 0.806034
O O1 0.897814 0.124364 0.738484
O O2 0.500000 0.500000 0.000000
O O3 0.458315 0.357242 0.109930
O O4 0.714858 0.241861 0.624701
O O5 0.756461 0.104220 0.358543
O O6 0.034471 0.054522 0.096263
O O7 0.682619 0.853018 0.501344
O O8 0.836167 0.861733 0.550443
O O9 0.941829 0.820743 0.154192
O O10 0.128476 0.549504 0.207361
O O11 0.698198 0.698352 0.697201
O O12 0.007817 0.362313 0.381569
O O13 0.455531 0.856211 0.642692
O O14 0.280649 0.057111 0.018034
O O15 0.500000 0.000000 0.000000
#
# Coordination Sequence:
#
# PCOD9004195 Si02
#       7
#     2   2   2   2   2   2   2
#     4  11  23  42  70  93 118 168 229 267 302 375
#     4  10  25  43  63  94 128 172 213 262 323 375
#     4   9  21  38  63  93 128 162 213 259 313 378
#     4  10  21  37  64  97 118 160 219 266 306 372
#     4  11  20  39  67  92 129 169 209 261 317 380
#     4   8  20  36  63  92 120 165 212 260 303 371
#     4  11  22  41  64  93 137 172 197 263 341 375
#
# _framework density 20.633105
#
# number of rings (size 3 to 8) (size 9 to 14) (size 15 to 20)
#    0.857    1.143    1.429    1.714    4.000    0.000 
#    0.000    9.286    0.000    3.429    0.000    0.000 
#    0.000    0.000    0.000    0.000    0.000    0.000 
#
# Total GULP energy -77992.136332 kJ/mol
# GULP energy per Si atom -5570.866881 kJ/mol
# Density = 2.058614 g / cm^3
# Si number density = 20.633105 Si / 1000 Ang^3
#
#
#
# Elastic Constant Matrix: (Units=GPa)
#
#
# Indices 1 2 3 4 5 6 
#
# 1 132.5605 22.9290 35.7012 -3.1699 3.9905 3.3858
# 2 22.9290 88.9950 16.2417 -4.2149 9.8563 22.1072
# 3 35.7012 16.2417 60.9577 13.7998 12.8801 18.5474
# 4 -3.1699 -4.2149 13.7998 30.8975 7.1863 -4.9805
# 5 3.9905 9.8563 12.8801 7.1863 26.8110 0.4237
# 6 3.3858 22.1072 18.5474 -4.9805 0.4237 28.9080
#
#
#
# Elastic Compliance Matrix: (Units=1/GPa)
#
#
# Indices 1 2 3 4 5 6 
#
# 1 0.010528 -0.002995 -0.009712 0.005750 0.002528 0.008242
# 2 -0.002995 0.015482 0.003155 -0.000269 -0.006477 -0.013465
# 3 -0.009712 0.003155 0.036323 -0.018500 -0.011770 -0.027595
# 4 0.005750 -0.000269 -0.018500 0.045290 -0.004313 0.019268
# 5 0.002528 -0.006477 -0.011770 -0.004313 0.045943 0.010792
# 6 0.008242 -0.013465 -0.027595 0.019268 0.010792 0.064791
#
#
# Mechanical properties :
#
#
# Convention : Reuss Voigt Hill
#
# Bulk Modulus (GPa) = 23.13195 48.02856 35.58026
# Shear Modulus (GPa) = 19.85156 31.16606 25.50881
#
# Velocity S-wave (km/s) = 3.10517 3.89072 3.51993
# Velocity P-wave (km/s) = 4.90832 6.59633 5.81391
#
# Compressibility (1/GPa) = 0.04323024
#
# Stress axis : x y z
#
# Youngs Moduli (GPa) = 94.98283 64.59221 27.53063
#
# Poissons Ratio (x) = 0.19347 0.26737
# Poissons Ratio (y) = 0.28450 -0.08687
# Poissons Ratio (z) = 0.92244 -0.20382
#
# Static dielectric constant tensor:
#      x y z
#    x 1.785570 -0.025490 0.006460 
#    y -0.025490 1.754750 0.002650 
#    z 0.006460 0.002650 1.730790 
# 
# From -- ./inp_files/315032.got.cif
#   From: 2010.05.17/outbox.cif.g08.bks.cpg/sg2_158_cif.got.tgz:315032.got - 2010.06.03 11:33:40.
