data_PCOD9004830
_publ_section_title
;
Structure prediction by ZEFSAII (Michael W. Deem and Ramdas Pophale) SiO2 
 PCOD9004830
Probable space group: P -1
;
_chemical_formula_sum "Si O2"
_cell_formula_units_Z 16
_cell_length_a 9.563744
_cell_length_b 15.909844
_cell_length_c 15.895802
_cell_angle_alpha 26.597790
_cell_angle_beta 88.071468
_cell_angle_gamma 106.687826
_cell_volume 763.256447
_symmetry_space_group_name_H-M "P -1"
_symmetry_group_IT_number 2
_symmetry_cell_setting 'triclinic'
loop_
_space_group_symop_operation_xyz
x,y,z
-x,-y,-z
loop_
_atom_site_type_symbol
_atom_site_label
_atom_site_fract_x
_atom_site_fract_y
_atom_site_fract_z
Si Si1 0.419521 0.220639 0.334669
Si Si2 0.457193 0.637415 0.613409
Si Si3 0.574124 0.856222 0.123279
Si Si4 0.256550 0.803988 0.469862
Si Si5 0.263385 0.232776 0.653385
Si Si6 0.832333 0.976162 0.851890
Si Si7 0.048343 0.664227 0.768770
Si Si8 0.385900 0.630795 0.966133
O O1 0.456248 0.195011 0.451960
O O2 0.576898 0.284651 0.208741
O O3 0.208135 0.967939 0.525526
O O4 0.436344 0.460214 0.123543
O O5 0.324004 0.674676 0.541903
O O6 0.635501 0.740305 0.459136
O O7 0.310975 0.323694 0.912484
O O8 0.387460 0.535710 0.407310
O O9 0.697544 0.895535 0.165395
O O10 0.712105 0.952235 0.953326
O O11 0.500000 0.000000 0.000000
O O12 0.144430 0.657507 0.691216
O O13 0.133820 0.828313 0.392122
O O14 0.458639 0.108100 0.215323
O O15 0.036528 0.075242 0.787614
O O16 0.000000 0.500000 0.000000
O O17 0.840538 0.551789 0.843680
#
# Coordination Sequence:
#
# PCOD9004830 Si02
#       8
#     2   2   2   2   2   2   2   2
#     4  10  21  38  59  85 118 168 207 264 310 366
#     4  11  23  40  61  89 129 163 204 257 314 360
#     4  10  22  44  69  94 127 160 197 248 306 367
#     4  11  24  40  61  91 126 165 213 261 311 367
#     4  10  24  41  65  97 126 161 202 246 306 373
#     4  11  24  41  64  95 127 160 206 251 303 375
#     4  11  23  37  58  89 119 165 222 263 311 370
#     4  10  21  39  59  83 121 164 214 260 315 360
#
# _framework density 20.962809
#
# number of rings (size 3 to 8) (size 9 to 14) (size 15 to 20)
#    0.000    1.500    1.250    3.000    1.750    6.500 
#    0.000    0.000    0.000    0.000    0.000    0.000 
#    0.000    0.000    0.000    0.000    0.000    0.000 
#
# Total GULP energy -89404.111049 kJ/mol
# GULP energy per Si atom -5587.756941 kJ/mol
# Density = 2.091510 g / cm^3
# Si number density = 20.962809 Si / 1000 Ang^3
#
#
#
# Elastic Constant Matrix: (Units=GPa)
#
#
# Indices 1 2 3 4 5 6 
#
# 1 144.4838 39.0634 38.0490 -1.6489 -5.9558 -2.1569
# 2 39.0634 50.5953 12.2590 3.2058 -8.7327 6.8451
# 3 38.0490 12.2590 64.6659 8.0930 -3.9405 -4.6388
# 4 -1.6489 3.2058 8.0930 12.7575 6.1357 8.5667
# 5 -5.9558 -8.7327 -3.9405 6.1357 45.0531 -1.6745
# 6 -2.1569 6.8451 -4.6388 8.5667 -1.6745 30.4056
#
#
#
# Elastic Compliance Matrix: (Units=1/GPa)
#
#
# Indices 1 2 3 4 5 6 
#
# 1 0.010514 -0.007363 -0.006050 0.008600 -0.001776 -0.001040
# 2 -0.007363 0.027379 0.000097 -0.007538 0.005210 -0.004260
# 3 -0.006050 0.000097 0.023169 -0.024882 0.005020 0.010371
# 4 0.008600 -0.007538 -0.024882 0.135433 -0.022464 -0.040884
# 5 -0.001776 0.005210 0.005020 -0.022464 0.026740 0.007269
# 6 -0.001040 -0.004260 0.010371 -0.040884 0.007269 0.047275
#
#
# Mechanical properties :
#
#
# Convention : Reuss Voigt Hill
#
# Bulk Modulus (GPa) = 29.04307 48.72086 38.88196
# Shear Modulus (GPa) = 16.20116 29.00150 22.60133
#
# Velocity S-wave (km/s) = 2.78304 3.72354 3.28710
# Velocity P-wave (km/s) = 4.92054 6.46362 5.74413
#
# Compressibility (1/GPa) = 0.03443162
#
# Stress axis : x y z
#
# Youngs Moduli (GPa) = 95.10700 36.52416 43.16046
#
# Poissons Ratio (x) = 0.26892 0.26112
# Poissons Ratio (y) = 0.70025 -0.00419
# Poissons Ratio (z) = 0.57540 -0.00355
#
# Static dielectric constant tensor:
#      x y z
#    x 1.751960 0.029490 0.034070 
#    y 0.029490 1.759910 0.033450 
#    z 0.034070 0.033450 1.776080 
# 
# From -- ./inp_files/47569.got.cif
#   From: 2010.05.17/outbox.cif.g08.bks.cpg/sg2_24_cif.got.tgz:47569.got - 2010.06.03 11:33:40.
