data_PCOD9004910
_publ_section_title
;
Structure prediction by ZEFSAII (Michael W. Deem and Ramdas Pophale) SiO2 
 PCOD9004910
Probable space group: P -1
;
_chemical_formula_sum "Si O2"
_cell_formula_units_Z 14
_cell_length_a 14.580806
_cell_length_b 8.942508
_cell_length_c 13.719775
_cell_angle_alpha 94.806998
_cell_angle_beta 58.015924
_cell_angle_gamma 140.922627
_cell_volume 756.209976
_symmetry_space_group_name_H-M "P -1"
_symmetry_group_IT_number 2
_symmetry_cell_setting 'triclinic'
loop_
_space_group_symop_operation_xyz
x,y,z
-x,-y,-z
loop_
_atom_site_type_symbol
_atom_site_label
_atom_site_fract_x
_atom_site_fract_y
_atom_site_fract_z
Si Si1 0.939986 0.288612 0.588590
Si Si2 0.653875 0.365140 0.675354
Si Si3 0.832616 0.718959 0.005742
Si Si4 0.203517 0.676994 0.950142
Si Si5 0.254740 0.385298 0.168591
Si Si6 0.624495 0.666247 0.734546
Si Si7 0.342280 0.955373 0.082909
O O1 0.795129 0.175408 0.752273
O O2 0.000000 0.500000 0.500000
O O3 0.171907 0.491134 0.488970
O O4 0.787534 0.977647 0.609945
O O5 0.773385 0.524286 0.723925
O O6 0.599522 0.473211 0.688839
O O7 0.435126 0.007658 0.793191
O O8 0.804420 0.511733 0.042040
O O9 0.606706 0.535780 0.134064
O O10 0.880204 0.777878 0.864481
O O11 0.000000 0.000000 0.000000
O O12 0.191337 0.738787 0.065989
O O13 0.000000 0.500000 0.000000
O O14 0.262339 0.243655 0.220672
O O15 0.497725 0.716757 0.015446
O O16 0.500000 0.000000 0.000000
#
# Coordination Sequence:
#
# PCOD9004910 Si02
#       7
#     2   2   2   2   2   2   2
#     4  12  22  34  61  95 124 163 203 250 310 367
#     4   9  22  38  61  88 123 156 207 249 307 357
#     4  12  22  34  61  93 120 156 202 258 310 355
#     4  11  23  41  62  91 127 160 205 260 307 363
#     4   9  20  36  62  85 120 152 212 253 302 347
#     4  10  21  38  59  90 123 155 206 253 302 361
#     4  11  20  39  65  92 119 161 209 258 298 361
#
# _framework density 18.513376999999998
#
# number of rings (size 3 to 8) (size 9 to 14) (size 15 to 20)
#    0.857    0.571    2.857    4.286    0.000    0.000 
#    0.000    0.714    0.000    2.571    0.000    0.000 
#    0.000    0.000    0.000    0.000    0.000    0.000 
#
# Total GULP energy -77939.197388 kJ/mol
# GULP energy per Si atom -5567.085528 kJ/mol
# Density = 1.847124 g / cm^3
# Si number density = 18.513377 Si / 1000 Ang^3
#
#
#
# Elastic Constant Matrix: (Units=GPa)
#
#
# Indices 1 2 3 4 5 6 
#
# 1 88.3876 37.9408 19.7672 -4.6009 -7.4105 -1.4567
# 2 37.9408 106.8459 20.2085 -11.6452 5.6372 2.6441
# 3 19.7672 20.2085 110.1905 -1.2778 -3.7086 -6.0924
# 4 -4.6009 -11.6452 -1.2778 22.6904 -8.2381 2.0017
# 5 -7.4105 5.6372 -3.7086 -8.2381 28.6940 -2.4938
# 6 -1.4567 2.6441 -6.0924 2.0017 -2.4938 43.1905
#
#
#
# Elastic Compliance Matrix: (Units=1/GPa)
#
#
# Indices 1 2 3 4 5 6 
#
# 1 0.014271 -0.004857 -0.001429 0.002115 0.005130 0.000775
# 2 -0.004857 0.011999 -0.001452 0.004236 -0.002710 -0.001456
# 3 -0.001429 -0.001452 0.009721 -0.000164 0.001255 0.001492
# 4 0.002115 0.004236 -0.000164 0.052084 0.014491 -0.001788
# 5 0.005130 -0.002710 0.001255 0.014491 0.041223 0.002225
# 6 0.000775 -0.001456 0.001492 -0.001788 0.002225 0.023690
#
#
# Mechanical properties :
#
#
# Convention : Reuss Voigt Hill
#
# Bulk Modulus (GPa) = 48.74460 51.25077 49.99768
# Shear Modulus (GPa) = 28.52199 34.08214 31.30207
#
# Velocity S-wave (km/s) = 3.92933 4.29528 4.11637
# Velocity P-wave (km/s) = 6.85366 7.23481 7.04681
#
# Compressibility (1/GPa) = 0.02051509
#
# Stress axis : x y z
#
# Youngs Moduli (GPa) = 70.07154 83.33889 102.87298
#
# Poissons Ratio (x) = 0.40475 0.14705
# Poissons Ratio (y) = 0.34031 0.14936
# Poissons Ratio (z) = 0.10016 0.12100
#
# Static dielectric constant tensor:
#      x y z
#    x -3.526440 -4.715230 0.954870 
#    y -4.715230 -2.549860 0.891760 
#    z 0.954870 0.891760 1.488560 
# 
# From -- ./inp_files/529898.got.cif
#   From: 2010.05.17/outbox.cif.g08.bks.cpg/sg2_265_cif.got.tgz:529898.got - 2010.06.03 11:33:40.
