data_PCOD9004723
_publ_section_title
;
Structure prediction by ZEFSAII (Michael W. Deem and Ramdas Pophale) SiO2 
 PCOD9004723
Probable space group: P -1
;
_chemical_formula_sum "Si O2"
_cell_formula_units_Z 16
_cell_length_a 13.323240
_cell_length_b 14.288018
_cell_length_c 7.804677
_cell_angle_alpha 108.020434
_cell_angle_beta 89.604794
_cell_angle_gamma 149.128387
_cell_volume 614.740084
_symmetry_space_group_name_H-M "P -1"
_symmetry_group_IT_number 2
_symmetry_cell_setting 'triclinic'
loop_
_space_group_symop_operation_xyz
x,y,z
-x,-y,-z
loop_
_atom_site_type_symbol
_atom_site_label
_atom_site_fract_x
_atom_site_fract_y
_atom_site_fract_z
Si Si1 0.331732 0.068155 0.774489
Si Si2 0.597804 0.980262 0.811341
Si Si3 0.333798 0.750081 0.349993
Si Si4 0.240776 0.189928 0.688561
Si Si5 0.722592 0.691999 0.864751
Si Si6 0.123344 0.610740 0.749720
Si Si7 0.607847 0.784055 0.778286
Si Si8 0.155764 0.395986 0.346584
O O1 0.521374 0.158567 0.761450
O O2 0.286836 0.114052 0.663268
O O3 0.411691 0.197509 0.014671
O O4 0.087463 0.802050 0.669263
O O5 0.510550 0.941250 0.605502
O O6 0.354184 0.752863 0.788282
O O7 0.706393 0.967880 0.786193
O O8 0.757742 0.191284 0.042343
O O9 0.233149 0.557465 0.323923
O O10 0.101363 0.609395 0.256434
O O11 0.454722 0.423442 0.715539
O O12 0.238240 0.235847 0.902947
O O13 0.000000 0.000000 0.500000
O O14 0.744548 0.802615 0.797233
O O15 0.866473 0.723235 0.830821
O O16 0.000000 0.500000 0.500000
O O17 0.358248 0.549128 0.563832
#
# Coordination Sequence:
#
# PCOD9004723 Si02
#       8
#     2   2   2   2   2   2   2   2
#     4  11  23  39  57  91 124 166 213 253 306 360
#     4   9  19  38  64  96 117 160 205 245 319 373
#     4  10  21  39  61  91 128 161 203 256 303 366
#     4  10  21  38  58  84 119 167 217 257 301 357
#     4  10  21  38  58  86 124 168 209 256 302 355
#     4   9  18  37  67  91 121 156 199 254 310 375
#     4  10  22  37  61  89 126 159 210 257 301 369
#     4  11  22  39  60  88 127 169 211 255 301 358
#
# _framework density 26.027259999999998
#
# number of rings (size 3 to 8) (size 9 to 14) (size 15 to 20)
#    0.000    2.000    1.250    1.875    0.000    4.000 
#    2.250    0.625    0.000   30.750    0.000    0.000 
#    0.000    0.000    0.000    0.000    0.000    0.000 
#
# Total GULP energy -89562.743071 kJ/mol
# GULP energy per Si atom -5597.671442 kJ/mol
# Density = 2.596802 g / cm^3
# Si number density = 26.027260 Si / 1000 Ang^3
#
#
#
# Elastic Constant Matrix: (Units=GPa)
#
#
# Indices 1 2 3 4 5 6 
#
# 1 54.2692 12.0239 29.4392 -0.9531 -11.7242 8.2179
# 2 12.0239 107.5689 31.4142 28.2306 -15.2853 33.8766
# 3 29.4392 31.4142 142.0355 8.3788 3.3155 6.0954
# 4 -0.9531 28.2306 8.3788 42.8650 5.8146 -2.4088
# 5 -11.7242 -15.2853 3.3155 5.8146 41.6532 1.0734
# 6 8.2179 33.8766 6.0954 -2.4088 1.0734 42.8398
#
#
#
# Elastic Compliance Matrix: (Units=1/GPa)
#
#
# Indices 1 2 3 4 5 6 
#
# 1 0.023368 0.002264 -0.005203 -0.001389 0.008166 -0.005815
# 2 0.002264 0.021883 -0.003835 -0.016235 0.011713 -0.018399
# 3 -0.005203 -0.003835 0.008850 0.001367 -0.003843 0.002945
# 4 -0.001389 -0.016235 0.001367 0.036194 -0.011903 0.015243
# 5 0.008166 0.011713 -0.003843 -0.011903 0.032876 -0.011775
# 6 -0.005815 -0.018399 0.002945 0.015243 -0.011775 0.039741
#
#
# Mechanical properties :
#
#
# Convention : Reuss Voigt Hill
#
# Bulk Modulus (GPa) = 24.66009 49.95867 37.30938
# Shear Modulus (GPa) = 26.31878 40.87137 33.59508
#
# Velocity S-wave (km/s) = 3.18339 3.96704 3.59662
# Velocity P-wave (km/s) = 4.79659 6.34189 5.62258
#
# Compressibility (1/GPa) = 0.04055135
#
# Stress axis : x y z
#
# Youngs Moduli (GPa) = 42.79349 45.69767 112.99609
#
# Poissons Ratio (x) = -0.10344 0.58794
# Poissons Ratio (y) = -0.09687 0.43336
# Poissons Ratio (z) = 0.22266 0.17526
#
# Static dielectric constant tensor:
#      x y z
#    x 2.125040 -0.065440 -0.002820 
#    y -0.065440 2.071310 -0.011290 
#    z -0.002820 -0.011290 2.031090 
# 
# From -- ./inp_files/318080.got.cif
#   From: 2010.05.17/outbox.cif.g08.bks.cpg/sg2_160_cif.got.tgz:318080.got - 2010.06.03 11:33:40.
