data_PCOD9004564
_publ_section_title
;
Structure prediction by ZEFSAII (Michael W. Deem and Ramdas Pophale) SiO2 
 PCOD9004564
Probable space group: P -1
;
_chemical_formula_sum "Si O2"
_cell_formula_units_Z 15
_cell_length_a 8.026775
_cell_length_b 9.902091
_cell_length_c 21.755687
_cell_angle_alpha 35.499970
_cell_angle_beta 45.947065
_cell_angle_gamma 67.309057
_cell_volume 650.843439
_symmetry_space_group_name_H-M "P -1"
_symmetry_group_IT_number 2
_symmetry_cell_setting 'triclinic'
loop_
_space_group_symop_operation_xyz
x,y,z
-x,-y,-z
loop_
_atom_site_type_symbol
_atom_site_label
_atom_site_fract_x
_atom_site_fract_y
_atom_site_fract_z
Si Si1 0.158563 0.566381 0.334662
Si Si2 0.817925 0.975642 0.133386
Si Si3 0.493026 0.040919 0.558990
Si Si4 0.000000 0.000000 0.500000
Si Si5 0.682224 0.042571 0.008651
Si Si6 0.672624 0.551591 0.784178
Si Si7 0.135196 0.517424 0.895518
Si Si8 0.658031 0.504303 0.549627
O O1 0.142270 0.369162 0.356074
O O2 0.241971 0.497348 0.404908
O O3 0.895800 0.582027 0.412997
O O4 0.391470 0.826939 0.150761
O O5 0.561073 0.780408 0.305112
O O6 0.060936 0.918820 0.108402
O O7 0.737628 0.933309 0.098545
O O8 0.929702 0.281328 0.998142
O O9 0.237029 0.797743 0.737332
O O10 0.738656 0.024253 0.530962
O O11 0.500000 0.000000 0.500000
O O12 0.472538 0.300994 0.486220
O O13 0.817584 0.830331 0.672167
O O14 0.680812 0.320099 0.905794
O O15 0.389973 0.475868 0.859525
O O16 0.000000 0.500000 0.000000
#
# Coordination Sequence:
#
# PCOD9004564 Si02
#       8
#     2   2   2   1   2   2   2   2
#     4  10  21  39  65 100 132 170 224 291 335 412
#     4  10  22  41  66  98 128 171 230 282 326 419
#     4  11  25  45  72  97 140 194 223 283 358 423
#     4  10  24  40  62 100 134 170 240 270 330 428
#     4  10  21  37  70  91 125 170 228 271 343 398
#     4  11  22  40  63  92 130 174 217 278 341 402
#     4  11  26  43  64  98 140 174 227 282 346 414
#     4  10  22  40  68 100 134 172 234 281 343 403
#
# _framework density 23.047017
#
# number of rings (size 3 to 8) (size 9 to 14) (size 15 to 20)
#    0.000    1.600    1.333    2.800    7.467    2.133 
#    0.000    5.333    0.000    0.000    0.000    0.000 
#    0.000    0.000    0.000    0.000    0.000    0.000 
#
# Total GULP energy -83538.452465 kJ/mol
# GULP energy per Si atom -5569.230164 kJ/mol
# Density = 2.299456 g / cm^3
# Si number density = 23.047017 Si / 1000 Ang^3
#
#
#
# Elastic Constant Matrix: (Units=GPa)
#
#
# Indices 1 2 3 4 5 6 
#
# 1 73.4116 20.4727 31.9123 7.1829 -10.9391 -14.0232
# 2 20.4727 49.1076 25.7135 22.5284 -6.6620 -8.6019
# 3 31.9123 25.7135 165.1104 5.0898 -17.7545 -6.6357
# 4 7.1829 22.5284 5.0898 41.5067 0.2203 9.2442
# 5 -10.9391 -6.6620 -17.7545 0.2203 39.3268 -5.3811
# 6 -14.0232 -8.6019 -6.6357 9.2442 -5.3811 26.4399
#
#
#
# Elastic Compliance Matrix: (Units=1/GPa)
#
#
# Indices 1 2 3 4 5 6 
#
# 1 0.018467 -0.001778 -0.002107 -0.004538 0.005468 0.011387
# 2 -0.001778 0.039340 -0.003298 -0.025473 0.007768 0.021515
# 3 -0.002107 -0.003298 0.007131 0.001375 0.002002 -0.000474
# 4 -0.004538 -0.025473 0.001375 0.044784 -0.009017 -0.027842
# 5 0.005468 0.007768 0.002002 -0.009017 0.031335 0.015460
# 6 0.011387 0.021515 -0.000474 -0.027842 0.015460 0.063623
#
#
# Mechanical properties :
#
#
# Convention : Reuss Voigt Hill
#
# Bulk Modulus (GPa) = 19.77310 49.31408 34.54359
# Shear Modulus (GPa) = 21.19517 35.42343 28.30930
#
# Velocity S-wave (km/s) = 3.03586 3.92472 3.50855
# Velocity P-wave (km/s) = 4.57020 6.47932 5.60661
#
# Compressibility (1/GPa) = 0.05057377
#
# Stress axis : x y z
#
# Youngs Moduli (GPa) = 54.14934 25.41952 140.22803
#
# Poissons Ratio (x) = 0.04518 0.29546
# Poissons Ratio (y) = 0.09625 0.46245
# Poissons Ratio (z) = 0.11409 0.08383
#
# Static dielectric constant tensor:
#      x y z
#    x 1.864190 0.166760 -0.158340 
#    y 0.166760 2.471490 -0.656080 
#    z -0.158340 -0.656080 2.603210 
# 
# From -- ./inp_files/616888.got.cif
#   From: 2010.05.17/outbox.cif.g08.bks.cpg/sg2_309_cif.got.tgz:616888.got - 2010.06.03 11:33:40.
