data_PCOD9004259
_publ_section_title
;
Structure prediction by ZEFSAII (Michael W. Deem and Ramdas Pophale) SiO2 
 PCOD9004259
Probable space group: P -1
;
_chemical_formula_sum "Si O2"
_cell_formula_units_Z 16
_cell_length_a 9.285489
_cell_length_b 9.146053
_cell_length_c 12.136965
_cell_angle_alpha 114.862789
_cell_angle_beta 55.139972
_cell_angle_gamma 95.619346
_cell_volume 753.217695
_symmetry_space_group_name_H-M "P -1"
_symmetry_group_IT_number 2
_symmetry_cell_setting 'triclinic'
loop_
_space_group_symop_operation_xyz
x,y,z
-x,-y,-z
loop_
_atom_site_type_symbol
_atom_site_label
_atom_site_fract_x
_atom_site_fract_y
_atom_site_fract_z
Si Si1 0.881018 0.903599 0.102139
Si Si2 0.647401 0.195139 0.585737
Si Si3 0.083829 0.625757 0.078521
Si Si4 0.496889 0.115247 0.403900
Si Si5 0.950249 0.351450 0.404835
Si Si6 0.619332 0.567872 0.557509
Si Si7 0.192362 0.368212 0.119717
Si Si8 0.494183 0.477296 0.156676
O O1 0.988212 0.805190 0.129260
O O2 0.700070 0.025913 0.258542
O O3 0.815396 0.762428 0.013987
O O4 0.000000 0.000000 0.000000
O O5 0.520241 0.211697 0.537702
O O6 0.842113 0.232971 0.480321
O O7 0.557640 0.324257 0.757497
O O8 0.633606 0.012736 0.566066
O O9 0.083015 0.545383 0.176710
O O10 0.297145 0.597316 0.958080
O O11 0.000000 0.500000 0.000000
O O12 0.406843 0.241779 0.393287
O O13 0.805957 0.450541 0.416325
O O14 0.000000 0.500000 0.500000
O O15 0.114867 0.286993 0.234336
O O16 0.500000 0.500000 0.500000
O O17 0.576875 0.550440 0.698381
O O18 0.380766 0.404726 0.091284
#
# Coordination Sequence:
#
# PCOD9004259 Si02
#       8
#     2   2   2   2   2   2   2   2
#     4  11  24  42  65  95 134 171 214 264 321 393
#     4  10  21  37  65  89 131 163 206 276 315 370
#     4  10  23  38  64  96 122 170 219 259 308 391
#     4  11  22  39  61  99 129 164 215 266 328 368
#     4  11  21  41  65  95 125 164 221 265 328 376
#     4  11  22  38  70  95 123 172 219 267 310 397
#     4  11  23  41  68  89 132 171 212 271 318 390
#     4  11  21  42  65  94 128 169 222 260 328 377
#
# _framework density 21.242198999999999
#
# number of rings (size 3 to 8) (size 9 to 14) (size 15 to 20)
#    0.000    1.250    5.000    3.375    3.500    2.000 
#    0.000    4.375    0.000    0.000    0.000    0.000 
#    0.000    0.000    0.000    0.000    0.000    0.000 
#
# Total GULP energy -89107.356644 kJ/mol
# GULP energy per Si atom -5569.209790 kJ/mol
# Density = 2.119385 g / cm^3
# Si number density = 21.242199 Si / 1000 Ang^3
#
#
#
# Elastic Constant Matrix: (Units=GPa)
#
#
# Indices 1 2 3 4 5 6 
#
# 1 98.1763 27.1397 5.2329 3.7997 9.8231 30.7328
# 2 27.1397 129.3474 9.1163 -14.7050 -2.9671 14.0314
# 3 5.2329 9.1163 55.0502 -5.5164 4.8870 18.9045
# 4 3.7997 -14.7050 -5.5164 31.0475 6.9840 -2.1482
# 5 9.8231 -2.9671 4.8870 6.9840 35.3596 -2.9015
# 6 30.7328 14.0314 18.9045 -2.1482 -2.9015 35.9738
#
#
#
# Elastic Compliance Matrix: (Units=1/GPa)
#
#
# Indices 1 2 3 4 5 6 
#
# 1 0.016370 -0.002385 0.004762 -0.001980 -0.006343 -0.016187
# 2 -0.002385 0.008850 -0.000596 0.004189 0.000594 -0.000803
# 3 0.004762 -0.000596 0.024711 0.003906 -0.006967 -0.017150
# 4 -0.001980 0.004189 0.003906 0.036658 -0.006908 -0.000363
# 5 -0.006343 0.000594 -0.006967 -0.006908 0.033333 0.011124
# 6 -0.016187 -0.000803 -0.017150 -0.000363 0.011124 0.051828
#
#
# Mechanical properties :
#
#
# Convention : Reuss Voigt Hill
#
# Bulk Modulus (GPa) = 18.69404 40.61683 29.65543
# Shear Modulus (GPa) = 26.87906 36.54852 31.71379
#
# Velocity S-wave (km/s) = 3.56105 4.15247 3.86808
# Velocity P-wave (km/s) = 5.07224 6.49253 5.82583
#
# Compressibility (1/GPa) = 0.05349300
#
# Stress axis : x y z
#
# Youngs Moduli (GPa) = 61.08870 112.98801 40.46848
#
# Poissons Ratio (x) = 0.26948 -0.19272
# Poissons Ratio (y) = 0.14570 0.02413
# Poissons Ratio (z) = -0.29092 0.06736
#
# Static dielectric constant tensor:
#      x y z
#    x 1.731480 -0.025890 -0.008090 
#    y -0.025890 1.870100 -0.017850 
#    z -0.008090 -0.017850 1.802450 
# 
# From -- ./inp_files/283280.got.cif
#   From: 2010.05.17/outbox.cif.g08.bks.cpg/sg2_142_cif.got.tgz:283280.got - 2010.06.03 11:33:40.
