data_PCOD9004078
_publ_section_title
;
Structure prediction by ZEFSAII (Michael W. Deem and Ramdas Pophale) SiO2 
 PCOD9004078
Probable space group: P -1
;
_chemical_formula_sum "Si O2"
_cell_formula_units_Z 12
_cell_length_a 9.130252
_cell_length_b 8.886812
_cell_length_c 9.828614
_cell_angle_alpha 117.193031
_cell_angle_beta 57.977266
_cell_angle_gamma 107.582437
_cell_volume 599.512628
_symmetry_space_group_name_H-M "P -1"
_symmetry_group_IT_number 2
_symmetry_cell_setting 'triclinic'
loop_
_space_group_symop_operation_xyz
x,y,z
-x,-y,-z
loop_
_atom_site_type_symbol
_atom_site_label
_atom_site_fract_x
_atom_site_fract_y
_atom_site_fract_z
Si Si1 0.211816 0.656758 0.776240
Si Si2 0.401755 0.014551 0.913069
Si Si3 0.327949 0.467107 0.881142
Si Si4 0.840651 0.682626 0.842581
Si Si5 0.300949 0.513293 0.397524
Si Si6 0.526481 0.161309 0.646573
O O1 0.200228 0.555899 0.882466
O O2 0.288460 0.533343 0.573561
O O3 0.027117 0.699987 0.827431
O O4 0.328621 0.831527 0.816376
O O5 0.247937 0.140901 0.049515
O O6 0.531509 0.104206 0.775357
O O7 0.500000 0.000000 0.000000
O O8 0.518180 0.551182 0.777329
O O9 0.359750 0.271281 0.752531
O O10 0.273576 0.452815 0.059302
O O11 0.842707 0.603002 0.658463
O O12 0.314283 0.708351 0.420478
O O13 0.500000 0.000000 0.500000
#
# Coordination Sequence:
#
# PCOD9004078 Si02
#       6
#     2   2   2   2   2   2
#     4  12  22  38  60  91 119 150 190 246 293 340
#     4  11  23  38  62  86 115 153 203 234 280 351
#     4   9  21  36  62  83 114 155 200 227 284 346
#     4  11  23  39  58  89 122 151 186 247 298 333
#     4  10  21  37  64  81 118 152 202 226 287 346
#     4   9  19  38  60  84 111 151 198 238 276 333
#
# _framework density 20.016258000000001
#
# number of rings (size 3 to 8) (size 9 to 14) (size 15 to 20)
#    1.000    0.667    1.667    3.500    2.333    1.333 
#    0.000    0.000    0.000    2.000    0.000    0.000 
#    0.000    0.000    0.000    0.000    0.000    0.000 
#
# Total GULP energy -66850.772888 kJ/mol
# GULP energy per Si atom -5570.897741 kJ/mol
# Density = 1.997070 g / cm^3
# Si number density = 20.016258 Si / 1000 Ang^3
#
#
#
# Elastic Constant Matrix: (Units=GPa)
#
#
# Indices 1 2 3 4 5 6 
#
# 1 99.3550 15.2385 12.6513 -1.3141 13.2858 -17.9167
# 2 15.2385 65.1175 7.0039 -0.9362 14.6021 -17.2799
# 3 12.6513 7.0039 55.4988 2.9041 15.7657 -2.8351
# 4 -1.3141 -0.9362 2.9041 29.4181 4.3149 5.4868
# 5 13.2858 14.6021 15.7657 4.3149 29.9893 -2.9309
# 6 -17.9167 -17.2799 -2.8351 5.4868 -2.9309 23.2145
#
#
#
# Elastic Compliance Matrix: (Units=1/GPa)
#
#
# Indices 1 2 3 4 5 6 
#
# 1 0.012381 0.000686 -0.001210 -0.000463 -0.004188 0.009499
# 2 0.000686 0.021336 0.000659 -0.000870 -0.009398 0.015511
# 3 -0.001210 0.000659 0.021373 -0.000738 -0.010819 0.000975
# 4 -0.000463 -0.000870 -0.000738 0.036742 -0.005291 -0.010447
# 5 -0.004188 -0.009398 -0.010819 -0.005291 0.045784 -0.004518
# 6 0.009499 0.015511 0.000975 -0.010447 -0.004518 0.063971
#
#
# Mechanical properties :
#
#
# Convention : Reuss Voigt Hill
#
# Bulk Modulus (GPa) = 18.06372 32.19541 25.12956
# Shear Modulus (GPa) = 22.75105 28.86288 25.80697
#
# Velocity S-wave (km/s) = 3.37505 3.80145 3.59458
# Velocity P-wave (km/s) = 4.92261 5.94875 5.45984
#
# Compressibility (1/GPa) = 0.05535959
#
# Stress axis : x y z
#
# Youngs Moduli (GPa) = 80.77194 46.86821 46.78812
#
# Poissons Ratio (x) = -0.03215 0.05660
# Poissons Ratio (y) = -0.05541 -0.03081
# Poissons Ratio (z) = 0.09771 -0.03086
#
# Static dielectric constant tensor:
#      x y z
#    x 1.749920 0.019380 -0.040290 
#    y 0.019380 1.696390 -0.029490 
#    z -0.040290 -0.029490 1.742620 
# 
# From -- ./inp_files/146670.got.cif
#   From: 2010.05.17/outbox.cif.g08.bks.cpg/sg2_74_cif.got.tgz:146670.got - 2010.06.03 11:33:40.
