data_PCOD9004920
_publ_section_title
;
Structure prediction by ZEFSAII (Michael W. Deem and Ramdas Pophale) SiO2 
 PCOD9004920
Probable space group: P -1
;
_chemical_formula_sum "Si O2"
_cell_formula_units_Z 14
_cell_length_a 11.030885
_cell_length_b 7.745142
_cell_length_c 9.057675
_cell_angle_alpha 53.615957
_cell_angle_beta 75.105948
_cell_angle_gamma 96.324155
_cell_volume 566.725393
_symmetry_space_group_name_H-M "P -1"
_symmetry_group_IT_number 2
_symmetry_cell_setting 'triclinic'
loop_
_space_group_symop_operation_xyz
x,y,z
-x,-y,-z
loop_
_atom_site_type_symbol
_atom_site_label
_atom_site_fract_x
_atom_site_fract_y
_atom_site_fract_z
Si Si1 0.931014 0.629432 0.200856
Si Si2 0.029175 0.996585 0.746140
Si Si3 0.680067 0.724671 0.224323
Si Si4 0.452518 0.094942 0.320359
Si Si5 0.385623 0.440077 0.351448
Si Si6 0.157707 0.891973 0.473810
Si Si7 0.635519 0.146466 0.966410
O O1 0.781398 0.601763 0.208439
O O2 0.931271 0.376837 0.357738
O O3 0.949556 0.788632 0.259784
O O4 0.018141 0.783007 0.964716
O O5 0.135161 0.999085 0.583493
O O6 0.898656 0.983553 0.697405
O O7 0.534645 0.595644 0.272807
O O8 0.667422 0.710914 0.412035
O O9 0.724323 0.986868 0.029193
O O10 0.407645 0.305792 0.272343
O O11 0.575562 0.165696 0.135297
O O12 0.500000 0.000000 0.500000
O O13 0.313375 0.920330 0.389357
O O14 0.305912 0.609076 0.250777
O O15 0.500000 0.000000 0.000000
#
# Coordination Sequence:
#
# PCOD9004920 Si02
#       7
#     2   2   2   2   2   2   2
#     4  11  23  43  74  93 126 172 217 271 330 371
#     4  10  25  46  67  99 124 168 228 267 319 385
#     4  10  21  38  63  96 129 165 209 264 318 386
#     4  12  23  41  64  98 132 171 210 260 325 388
#     4  10  21  38  59  90 137 170 207 254 319 387
#     4  11  25  45  68  95 135 167 215 274 321 378
#     4  10  23  38  59  90 133 167 211 255 308 393
#
# _framework density 24.703319
#
# number of rings (size 3 to 8) (size 9 to 14) (size 15 to 20)
#    0.000    1.429    1.429    3.000    8.000    0.000 
#    2.571    5.714    0.000    0.000    0.000    0.000 
#    0.000    0.000    0.000    0.000    0.000    0.000 
#
# Total GULP energy -78311.476417 kJ/mol
# GULP energy per Si atom -5593.676887 kJ/mol
# Density = 2.464709 g / cm^3
# Si number density = 24.703319 Si / 1000 Ang^3
#
#
#
# Elastic Constant Matrix: (Units=GPa)
#
#
# Indices 1 2 3 4 5 6 
#
# 1 65.1135 -18.1162 4.5980 2.6116 -4.2908 4.7280
# 2 -18.1162 87.0514 39.9544 -2.1338 0.1211 -3.5812
# 3 4.5980 39.9544 81.9182 0.4904 10.3293 -3.5267
# 4 2.6116 -2.1338 0.4904 35.0942 -18.4470 5.0677
# 5 -4.2908 0.1211 10.3293 -18.4470 23.2759 4.5629
# 6 4.7280 -3.5812 -3.5267 5.0677 4.5629 32.9863
#
#
#
# Elastic Compliance Matrix: (Units=1/GPa)
#
#
# Indices 1 2 3 4 5 6 
#
# 1 0.018501 0.006509 -0.005966 0.006076 0.011850 -0.005156
# 2 0.006509 0.017895 -0.010905 0.007998 0.012906 -0.003170
# 3 -0.005966 -0.010905 0.021046 -0.013215 -0.022233 0.007027
# 4 0.006076 0.007998 -0.013215 0.063834 0.061399 -0.019715
# 5 0.011850 0.012906 -0.022233 0.061399 0.108935 -0.027176
# 6 -0.005156 -0.003170 0.007027 -0.019715 -0.027176 0.038250
#
#
# Mechanical properties :
#
#
# Convention : Reuss Voigt Hill
#
# Bulk Modulus (GPa) = 27.23413 31.88397 29.55905
# Shear Modulus (GPa) = 16.58793 32.11440 24.35116
#
# Velocity S-wave (km/s) = 2.59412 3.60947 3.14306
# Velocity P-wave (km/s) = 4.47448 5.50507 5.01631
#
# Compressibility (1/GPa) = 0.03671863
#
# Stress axis : x y z
#
# Youngs Moduli (GPa) = 54.04978 55.88221 47.51508
#
# Poissons Ratio (x) = -0.36372 0.28345
# Poissons Ratio (y) = -0.35179 0.51815
# Poissons Ratio (z) = 0.32243 0.60939
#
# Static dielectric constant tensor:
#      x y z
#    x 1.994670 0.030590 -0.048660 
#    y 0.030590 1.986440 -0.020520 
#    z -0.048660 -0.020520 1.965430 
# 
# From -- ./inp_files/236704.got.cif
#   From: 2010.05.17/outbox.cif.g08.bks.cpg/sg2_119_cif.got.tgz:236704.got - 2010.06.03 11:33:40.
