data_PCOD9004468
_publ_section_title
;
Structure prediction by ZEFSAII (Michael W. Deem and Ramdas Pophale) SiO2 
 PCOD9004468
Probable space group: P -1
;
_chemical_formula_sum "Si O2"
_cell_formula_units_Z 14
_cell_length_a 7.915891
_cell_length_b 8.392853
_cell_length_c 10.974671
_cell_angle_alpha 64.040542
_cell_angle_beta 82.310712
_cell_angle_gamma 66.009967
_cell_volume 598.061465
_symmetry_space_group_name_H-M "P -1"
_symmetry_group_IT_number 2
_symmetry_cell_setting 'triclinic'
loop_
_space_group_symop_operation_xyz
x,y,z
-x,-y,-z
loop_
_atom_site_type_symbol
_atom_site_label
_atom_site_fract_x
_atom_site_fract_y
_atom_site_fract_z
Si Si1 0.213621 0.487994 0.466430
Si Si2 0.704568 0.503087 0.825017
Si Si3 0.924772 0.740917 0.836095
Si Si4 0.072302 0.897777 0.398694
Si Si5 0.224168 0.375815 0.879899
Si Si6 0.753336 0.837382 0.290713
Si Si7 0.583871 0.240677 0.047835
O O1 0.273521 0.513266 0.315696
O O2 0.211012 0.675757 0.474835
O O3 0.333402 0.270729 0.571611
O O4 0.000000 0.500000 0.500000
O O5 0.823511 0.624030 0.812782
O O6 0.510717 0.629321 0.868261
O O7 0.743627 0.297711 0.954131
O O8 0.137344 0.605994 0.832022
O O9 0.857895 0.958100 0.727604
O O10 0.878322 0.716228 0.987186
O O11 0.906682 0.886143 0.334119
O O12 0.000000 0.000000 0.500000
O O13 0.183397 0.323101 0.767689
O O14 0.433663 0.286422 0.937722
O O15 0.637696 0.027615 0.163692
#
# Coordination Sequence:
#
# PCOD9004468 Si02
#       7
#     2   2   2   2   2   2   2
#     4  10  22  43  65  94 129 169 222 275 316 385
#     4  10  22  44  68  97 135 171 221 271 328 388
#     4  10  21  37  67  96 128 174 217 275 325 376
#     4  11  23  39  66  97 129 169 224 277 326 380
#     4  10  22  40  63  97 139 163 222 268 326 390
#     4  11  23  40  68  93 131 179 215 269 330 393
#     4  10  24  41  70  97 138 173 213 270 330 397
#
# _framework density 23.408965999999999
#
# number of rings (size 3 to 8) (size 9 to 14) (size 15 to 20)
#    0.000    1.714    0.000    4.714   10.000    1.143 
#    0.000    0.714    0.000    0.000    0.000    0.000 
#    0.000    0.000    0.000    0.000    0.000    0.000 
#
# Total GULP energy -78095.863900 kJ/mol
# GULP energy per Si atom -5578.275993 kJ/mol
# Density = 2.335569 g / cm^3
# Si number density = 23.408966 Si / 1000 Ang^3
#
#
#
# Elastic Constant Matrix: (Units=GPa)
#
#
# Indices 1 2 3 4 5 6 
#
# 1 67.9135 28.7643 8.6401 -3.1623 6.7833 26.2097
# 2 28.7643 78.3244 65.4586 -13.8540 -12.1990 26.5118
# 3 8.6401 65.4586 135.9443 -11.9958 -19.8886 16.5953
# 4 -3.1623 -13.8540 -11.9958 73.7191 8.9205 1.1701
# 5 6.7833 -12.1990 -19.8886 8.9205 29.2001 3.6264
# 6 26.2097 26.5118 16.5953 1.1701 3.6264 18.7287
#
#
#
# Elastic Compliance Matrix: (Units=1/GPa)
#
#
# Indices 1 2 3 4 5 6 
#
# 1 0.035723 0.007349 0.002830 0.003974 0.003410 -0.063812
# 2 0.007349 0.047795 -0.011693 0.006447 0.017182 -0.071309
# 3 0.002830 -0.011693 0.013283 -0.000352 0.003594 0.000147
# 4 0.003974 0.006447 -0.000352 0.015282 -0.001264 -0.015086
# 5 0.003410 0.017182 0.003594 -0.001264 0.048635 -0.041618
# 6 -0.063812 -0.071309 0.000147 -0.015086 -0.041618 0.252508
#
#
# Mechanical properties :
#
#
# Convention : Reuss Voigt Hill
#
# Bulk Modulus (GPa) = 10.66401 54.21203 32.43802
# Shear Modulus (GPa) = 11.17289 36.28419 23.72854
#
# Velocity S-wave (km/s) = 2.18707 3.94129 3.18724
# Velocity P-wave (km/s) = 3.30804 6.62726 5.23754
#
# Compressibility (1/GPa) = 0.09377332
#
# Stress axis : x y z
#
# Youngs Moduli (GPa) = 27.99310 20.92286 75.28347
#
# Poissons Ratio (x) = -0.15376 -0.21308
# Poissons Ratio (y) = -0.20571 0.88028
# Poissons Ratio (z) = -0.07923 0.24465
#
# Static dielectric constant tensor:
#      x y z
#    x 2.012040 -0.038730 0.038700 
#    y -0.038730 1.938330 -0.048350 
#    z 0.038700 -0.048350 1.983730 
# 
# From -- ./inp_files/375574.got.cif
#   From: 2010.05.17/outbox.cif.g08.bks.cpg/sg2_188_cif.got.tgz:375574.got - 2010.06.03 11:33:40.
