data_PCOD9004884
_publ_section_title
;
Structure prediction by ZEFSAII (Michael W. Deem and Ramdas Pophale) SiO2 
 PCOD9004884
Probable space group: P -1
;
_chemical_formula_sum "Si O2"
_cell_formula_units_Z 16
_cell_length_a 21.218200
_cell_length_b 8.292071
_cell_length_c 18.516458
_cell_angle_alpha 131.920144
_cell_angle_beta 160.745132
_cell_angle_gamma 56.398072
_cell_volume 758.685899
_symmetry_space_group_name_H-M "P -1"
_symmetry_group_IT_number 2
_symmetry_cell_setting 'triclinic'
loop_
_space_group_symop_operation_xyz
x,y,z
-x,-y,-z
loop_
_atom_site_type_symbol
_atom_site_label
_atom_site_fract_x
_atom_site_fract_y
_atom_site_fract_z
Si Si1 0.387889 0.958563 0.591435
Si Si2 0.613779 0.609678 0.759732
Si Si3 0.396974 0.846703 0.976216
Si Si4 0.760528 0.927298 0.306388
Si Si5 0.114240 0.377890 0.533616
Si Si6 0.190037 0.212075 0.834822
Si Si7 0.439227 0.084951 0.384708
Si Si8 0.939292 0.976220 0.123990
O O1 0.437731 0.727868 0.600077
O O2 0.480147 0.014288 0.628113
O O3 0.154171 0.939440 0.333373
O O4 0.508050 0.134398 0.835620
O O5 0.541359 0.358503 0.574362
O O6 0.687956 0.604565 0.920920
O O7 0.800601 0.781501 0.969275
O O8 0.564072 0.976156 0.137584
O O9 0.298805 0.587819 0.768046
O O10 0.234349 0.980840 0.840335
O O11 0.810982 0.793747 0.388682
O O12 0.742639 0.768232 0.169257
O O13 0.949510 0.151179 0.561487
O O14 0.000000 0.500000 0.500000
O O15 0.982089 0.222214 0.282039
O O16 0.500000 0.000000 0.500000
O O17 0.200665 0.034042 0.099838
#
# Coordination Sequence:
#
# PCOD9004884 Si02
#       8
#     2   2   2   2   2   2   2   2
#     4  10  21  40  69  89 118 165 207 255 296 368
#     4  10  21  42  64  89 118 163 210 253 303 366
#     4  11  21  38  60  92 125 159 205 244 295 359
#     4  11  21  36  58  88 127 160 199 243 296 358
#     4  12  21  37  60  90 128 165 204 250 293 363
#     4  10  21  38  59  88 125 163 199 244 299 359
#     4  11  26  44  63  91 123 154 200 267 326 365
#     4  11  22  42  64  91 120 162 218 248 299 370
#
# _framework density 21.089096000000001
#
# number of rings (size 3 to 8) (size 9 to 14) (size 15 to 20)
#    0.000    1.250    3.750    3.750    0.000    4.500 
#    0.000    0.000    0.000    0.000    0.000    0.000 
#    0.000    0.000    0.000    0.000    0.000    0.000 
#
# Total GULP energy -89374.454149 kJ/mol
# GULP energy per Si atom -5585.903384 kJ/mol
# Density = 2.104110 g / cm^3
# Si number density = 21.089096 Si / 1000 Ang^3
#
#
#
# Elastic Constant Matrix: (Units=GPa)
#
#
# Indices 1 2 3 4 5 6 
#
# 1 95.9817 8.3196 51.4013 -7.7346 -10.9876 -3.0386
# 2 8.3196 36.8837 32.2306 4.6042 4.6179 -5.6903
# 3 51.4013 32.2306 134.9645 -4.1606 -8.2492 -3.9555
# 4 -7.7346 4.6042 -4.1606 31.9357 -7.6772 -3.0782
# 5 -10.9876 4.6179 -8.2492 -7.6772 45.9208 -15.0547
# 6 -3.0386 -5.6903 -3.9555 -3.0782 -15.0547 23.0849
#
#
#
# Elastic Compliance Matrix: (Units=1/GPa)
#
#
# Indices 1 2 3 4 5 6 
#
# 1 0.014044 0.000823 -0.004990 0.004215 0.004658 0.004796
# 2 0.000823 0.037580 -0.009774 -0.007547 -0.005604 0.003036
# 3 -0.004990 -0.009774 0.011918 0.002505 0.002700 0.001070
# 4 0.004215 -0.007547 0.002505 0.037987 0.012645 0.012435
# 5 0.004658 -0.005604 0.002700 0.012645 0.033715 0.023367
# 6 0.004796 0.003036 0.001070 0.012435 0.023367 0.061778
#
#
# Mechanical properties :
#
#
# Convention : Reuss Voigt Hill
#
# Bulk Modulus (GPa) = 28.04279 50.19256 39.11768
# Shear Modulus (GPa) = 21.11577 31.91349 26.51463
#
# Velocity S-wave (km/s) = 3.16771 3.89430 3.54964
# Velocity P-wave (km/s) = 5.16772 6.63872 5.94886
#
# Compressibility (1/GPa) = 0.03565978
#
# Stress axis : x y z
#
# Youngs Moduli (GPa) = 71.20238 26.61018 83.90919
#
# Poissons Ratio (x) = -0.02191 0.41873
# Poissons Ratio (y) = -0.05863 0.82014
# Poissons Ratio (z) = 0.35532 0.26009
#
# Static dielectric constant tensor:
#      x y z
#    x 1.805890 -0.010970 -0.005630 
#    y -0.010970 1.753740 -0.020850 
#    z -0.005630 -0.020850 1.815850 
# 
# From -- ./inp_files/577450.got.cif
#   From: 2010.05.17/outbox.cif.g08.bks.cpg/sg2_289_cif.got.tgz:577450.got - 2010.06.03 11:33:40.
