data_PCOD9004633
_publ_section_title
;
Structure prediction by ZEFSAII (Michael W. Deem and Ramdas Pophale) SiO2 
 PCOD9004633
Probable space group: P -1
;
_chemical_formula_sum "Si O2"
_cell_formula_units_Z 10
_cell_length_a 8.191365
_cell_length_b 15.396412
_cell_length_c 6.562346
_cell_angle_alpha 57.262989
_cell_angle_beta 101.074546
_cell_angle_gamma 53.434742
_cell_volume 362.634225
_symmetry_space_group_name_H-M "P -1"
_symmetry_group_IT_number 2
_symmetry_cell_setting 'triclinic'
loop_
_space_group_symop_operation_xyz
x,y,z
-x,-y,-z
loop_
_atom_site_type_symbol
_atom_site_label
_atom_site_fract_x
_atom_site_fract_y
_atom_site_fract_z
Si Si1 0.332798 0.540512 0.106735
Si Si2 0.049145 0.568475 0.677056
Si Si3 0.131114 0.822603 0.014207
Si Si4 0.316389 0.086639 0.058366
Si Si5 0.492148 0.805783 0.973053
O O1 0.190159 0.708287 0.992710
O O2 0.589553 0.344980 0.546927
O O3 0.500000 0.500000 0.000000
O O4 0.071842 0.600884 0.868327
O O5 0.017171 0.681648 0.367665
O O6 0.742477 0.670031 0.394414
O O7 0.350411 0.345001 0.973203
O O8 0.180625 0.913768 0.836644
O O9 0.794385 0.968036 0.839811
O O10 0.498205 0.079453 0.235989
O O11 0.500000 0.000000 0.000000
#
# Coordination Sequence:
#
# PCOD9004633 Si02
#       5
#     2   2   2   2   2
#     4  11  18  34  61  90 116 139 193 242 282 335
#     4   9  18  36  56  84 119 136 181 251 269 320
#     4  11  21  34  61  85 111 158 182 233 296 322
#     4  10  21  38  56  81 122 152 185 235 279 337
#     4   9  19  37  57  89 111 141 200 235 272 343
#
# _framework density 27.575997000000001
#
# number of rings (size 3 to 8) (size 9 to 14) (size 15 to 20)
#    1.200    0.800    4.000    1.200    0.000    1.600 
#    0.000    1.000    0.000    4.800    0.000    0.000 
#    0.000    0.000    0.000    0.000    0.000    0.000 
#
# Total GULP energy -55865.982166 kJ/mol
# GULP energy per Si atom -5586.598217 kJ/mol
# Density = 2.751323 g / cm^3
# Si number density = 27.575997 Si / 1000 Ang^3
#
#
#
# Elastic Constant Matrix: (Units=GPa)
#
#
# Indices 1 2 3 4 5 6 
#
# 1 220.1691 40.6604 30.7085 -1.6012 21.5661 -39.6450
# 2 40.6604 87.9228 -6.9481 15.3555 6.8570 -8.2589
# 3 30.7085 -6.9481 158.6367 15.5688 23.2830 3.4656
# 4 -1.6012 15.3555 15.5688 31.3729 15.1668 12.9729
# 5 21.5661 6.8570 23.2830 15.1668 33.8566 -0.9754
# 6 -39.6450 -8.2589 3.4656 12.9729 -0.9754 47.3544
#
#
#
# Elastic Compliance Matrix: (Units=1/GPa)
#
#
# Indices 1 2 3 4 5 6 
#
# 1 0.006329 -0.002723 -0.001129 0.002187 -0.003562 0.004234
# 2 -0.002723 0.014756 0.001805 -0.010716 0.002396 0.003147
# 3 -0.001129 0.001805 0.007396 -0.002688 -0.003543 -0.000508
# 4 0.002187 -0.010716 -0.002688 0.056173 -0.022990 -0.015704
# 5 -0.003562 0.002396 -0.003543 -0.022990 0.044197 0.004904
# 6 0.004234 0.003147 -0.000508 -0.015704 0.004904 0.029652
#
#
# Mechanical properties :
#
#
# Convention : Reuss Voigt Hill
#
# Bulk Modulus (GPa) = 41.00461 66.17447 53.58954
# Shear Modulus (GPa) = 29.28667 49.33728 39.31198
#
# Velocity S-wave (km/s) = 3.26242 4.23441 3.77979
# Velocity P-wave (km/s) = 5.39381 6.92504 6.20683
#
# Compressibility (1/GPa) = 0.02438750
#
# Stress axis : x y z
#
# Youngs Moduli (GPa) = 157.99081 67.77047 135.20390
#
# Poissons Ratio (x) = 0.18452 0.15263
# Poissons Ratio (y) = 0.43016 -0.24399
# Poissons Ratio (z) = 0.17835 -0.12230
#
# Static dielectric constant tensor:
#      x y z
#    x 2.244670 0.001860 0.026640 
#    y 0.001860 2.195850 -0.013370 
#    z 0.026640 -0.013370 2.168910 
# 
# From -- ./inp_files/15891.got.cif
#   From: 2010.05.17/outbox.cif.g08.bks.cpg/sg2_8_cif.got.tgz:15891.got - 2010.06.03 11:33:40.
