data_PCOD9004415
_publ_section_title
;
Structure prediction by ZEFSAII (Michael W. Deem and Ramdas Pophale) SiO2 
 PCOD9004415
Probable space group: P -1
;
_chemical_formula_sum "Si O2"
_cell_formula_units_Z 16
_cell_length_a 15.772072
_cell_length_b 6.713868
_cell_length_c 11.616863
_cell_angle_alpha 86.189657
_cell_angle_beta 142.556528
_cell_angle_gamma 106.331514
_cell_volume 691.309857
_symmetry_space_group_name_H-M "P -1"
_symmetry_group_IT_number 2
_symmetry_cell_setting 'triclinic'
loop_
_space_group_symop_operation_xyz
x,y,z
-x,-y,-z
loop_
_atom_site_type_symbol
_atom_site_label
_atom_site_fract_x
_atom_site_fract_y
_atom_site_fract_z
Si Si1 0.947542 0.951945 0.778019
Si Si2 0.728991 0.486542 0.556477
Si Si3 0.041610 0.834939 0.465453
Si Si4 0.227243 0.638497 0.808743
Si Si5 0.654018 0.341391 0.738898
Si Si6 0.439817 0.462651 0.161237
Si Si7 0.740215 0.031609 0.961354
Si Si8 0.004214 0.394015 0.888211
O O1 0.931496 0.047129 0.632063
O O2 0.963597 0.144439 0.871950
O O3 0.809032 0.737654 0.662123
O O4 0.103283 0.918728 0.936142
O O5 0.658796 0.371181 0.605921
O O6 0.604881 0.457228 0.326747
O O7 0.869419 0.423931 0.671094
O O8 0.181958 0.766745 0.653011
O O9 0.902522 0.602250 0.318474
O O10 0.000000 0.000000 0.500000
O O11 0.378358 0.588433 0.996782
O O12 0.228851 0.803399 0.906165
O O13 0.552413 0.420552 0.710066
O O14 0.633068 0.099293 0.758699
O O15 0.821621 0.495524 0.961332
O O16 0.327496 0.214497 0.062184
O O17 0.000000 0.500000 0.000000
#
# Coordination Sequence:
#
# PCOD9004415 Si02
#       8
#     2   2   2   2   2   2   2   2
#     4  12  22  39  65  95 126 169 205 270 320 374
#     4  11  26  38  58  93 134 164 214 261 322 369
#     4  11  21  38  68 103 120 158 216 270 316 373
#     4  10  21  37  66  97 124 150 215 265 311 375
#     4  10  21  39  61  89 122 171 222 261 297 382
#     4  11  22  41  62  90 128 172 208 265 314 378
#     4  11  20  37  67  90 124 165 214 255 316 369
#     4  10  22  39  59  93 124 166 212 259 307 370
#
# _framework density 23.144470999999999
#
# number of rings (size 3 to 8) (size 9 to 14) (size 15 to 20)
#    0.000    1.250    5.000    1.125    0.000    6.500 
#    0.000    0.625    0.000    3.750    0.000    0.000 
#    0.000    0.000    0.000    0.000    0.000    0.000 
#
# Total GULP energy -89318.275864 kJ/mol
# GULP energy per Si atom -5582.392242 kJ/mol
# Density = 2.309179 g / cm^3
# Si number density = 23.144471 Si / 1000 Ang^3
#
#
#
# Elastic Constant Matrix: (Units=GPa)
#
#
# Indices 1 2 3 4 5 6 
#
# 1 24.6589 20.9242 15.0285 -2.3836 -5.8392 -12.8441
# 2 20.9242 134.3749 26.3765 -12.4862 -10.3102 -18.1797
# 3 15.0285 26.3765 102.7293 -26.1331 17.8318 -18.7675
# 4 -2.3836 -12.4862 -26.1331 45.8139 -5.0526 -0.5420
# 5 -5.8392 -10.3102 17.8318 -5.0526 34.9852 -4.3388
# 6 -12.8441 -18.1797 -18.7675 -0.5420 -4.3388 25.9805
#
#
#
# Elastic Compliance Matrix: (Units=1/GPa)
#
#
# Indices 1 2 3 4 5 6 
#
# 1 0.066581 -0.003905 -0.006163 0.001075 0.016800 0.028560
# 2 -0.003905 0.009334 -0.001067 0.002172 0.003510 0.004462
# 3 -0.006163 -0.001067 0.015135 0.007294 -0.007249 0.006081
# 4 0.001075 0.002172 0.007294 0.026955 0.002014 0.008219
# 5 0.016800 0.003510 -0.007249 0.002014 0.037883 0.011893
# 6 0.028560 0.004462 0.006081 0.008219 0.011893 0.062282
#
#
# Mechanical properties :
#
#
# Convention : Reuss Voigt Hill
#
# Bulk Modulus (GPa) = 14.53908 42.93575 28.73741
# Shear Modulus (GPa) = 18.98494 34.65151 26.81823
#
# Velocity S-wave (km/s) = 2.86716 3.87354 3.40771
# Velocity P-wave (km/s) = 4.15407 6.21267 5.28458
#
# Compressibility (1/GPa) = 0.06878016
#
# Stress axis : x y z
#
# Youngs Moduli (GPa) = 15.01925 107.13377 66.07354
#
# Poissons Ratio (x) = 0.41838 0.40720
# Poissons Ratio (y) = 0.05865 0.07049
# Poissons Ratio (z) = 0.09256 0.11430
#
# Static dielectric constant tensor:
#      x y z
#    x 1.877390 0.001680 -0.007410 
#    y 0.001680 1.881940 -0.055310 
#    z -0.007410 -0.055310 1.973370 
# 
# From -- ./inp_files/98163.got.cif
#   From: 2010.05.17/outbox.cif.g08.bks.cpg/sg2_50_cif.got.tgz:98163.got - 2010.06.03 11:33:40.
