data_PCOD9004899
_publ_section_title
;
Structure prediction by ZEFSAII (Michael W. Deem and Ramdas Pophale) SiO2 
 PCOD9004899
Probable space group: P -1
;
_chemical_formula_sum "Si O2"
_cell_formula_units_Z 16
_cell_length_a 9.569115
_cell_length_b 5.018533
_cell_length_c 20.030289
_cell_angle_alpha 64.545824
_cell_angle_beta 134.998639
_cell_angle_gamma 116.105222
_cell_volume 600.044805
_symmetry_space_group_name_H-M "P -1"
_symmetry_group_IT_number 2
_symmetry_cell_setting 'triclinic'
loop_
_space_group_symop_operation_xyz
x,y,z
-x,-y,-z
loop_
_atom_site_type_symbol
_atom_site_label
_atom_site_fract_x
_atom_site_fract_y
_atom_site_fract_z
Si Si1 0.840470 0.619874 0.478655
Si Si2 0.673963 0.020657 0.290653
Si Si3 0.528929 0.433557 0.109925
Si Si4 0.063704 0.266450 0.845349
Si Si5 0.259928 0.829020 0.026564
Si Si6 0.740726 0.489091 0.807249
Si Si7 0.583543 0.810397 0.609084
Si Si8 0.058293 0.351761 0.336379
O O1 0.630721 0.389099 0.423210
O O2 0.889604 0.616723 0.572658
O O3 0.000000 0.500000 0.500000
O O4 0.784136 0.935670 0.403070
O O5 0.608316 0.336323 0.219585
O O6 0.861906 0.073428 0.295042
O O7 0.472333 0.763537 0.243299
O O8 0.711780 0.517217 0.110171
O O9 0.429640 0.716956 0.054087
O O10 0.363608 0.139330 0.065277
O O11 0.914614 0.377755 0.834907
O O12 0.984960 0.334140 0.738653
O O13 0.096727 0.940071 0.912765
O O14 0.203099 0.565167 0.090961
O O15 0.689539 0.791890 0.722518
O O16 0.749974 0.691256 0.635335
O O17 0.500000 0.000000 0.500000
#
# Coordination Sequence:
#
# PCOD9004899 Si02
#       8
#     2   2   2   2   2   2   2   2
#     4  11  22  37  61  91 125 168 211 265 327 390
#     4   9  20  38  60  88 123 163 212 264 319 385
#     4  10  23  41  68  97 130 172 219 270 330 392
#     4  10  21  40  63  93 128 169 217 273 326 386
#     4  11  22  44  68  97 131 174 221 272 327 391
#     4   9  21  40  63  92 128 167 217 270 329 389
#     4  10  21  38  59  89 124 163 212 267 325 390
#     4  10  21  38  60  87 122 166 213 263 323 389
#
# _framework density 26.664677000000001
#
# number of rings (size 3 to 8) (size 9 to 14) (size 15 to 20)
#    0.000    2.000    0.000    2.625    0.000    7.000 
#    0.000   14.375    0.000    0.000    0.000    0.000 
#    0.000    0.000    0.000    0.000    0.000    0.000 
#
# Total GULP energy -89190.766805 kJ/mol
# GULP energy per Si atom -5574.422925 kJ/mol
# Density = 2.660399 g / cm^3
# Si number density = 26.664677 Si / 1000 Ang^3
#
#
#
# Elastic Constant Matrix: (Units=GPa)
#
#
# Indices 1 2 3 4 5 6 
#
# 1 141.9132 24.8595 51.2782 2.8289 3.0826 20.1284
# 2 24.8595 56.1647 37.1575 -21.6172 0.3311 15.0474
# 3 51.2782 37.1575 263.7732 -54.6723 -20.4661 6.2693
# 4 2.8289 -21.6172 -54.6723 39.9890 11.9960 -7.1874
# 5 3.0826 0.3311 -20.4661 11.9960 48.1191 -4.4892
# 6 20.1284 15.0474 6.2693 -7.1874 -4.4892 41.8500
#
#
#
# Elastic Compliance Matrix: (Units=1/GPa)
#
#
# Indices 1 2 3 4 5 6 
#
# 1 0.009436 -0.004114 -0.002667 -0.007155 -0.000293 -0.003920
# 2 -0.004114 0.026986 -0.000081 0.015032 -0.004225 -0.005584
# 3 -0.002667 -0.000081 0.006126 0.008631 0.000809 0.001963
# 4 -0.007155 0.015032 0.008631 0.048503 -0.007670 0.004251
# 5 -0.000293 -0.004225 0.000809 -0.007670 0.023340 0.002725
# 6 -0.003920 -0.005584 0.001963 0.004251 0.002725 0.028516
#
#
# Mechanical properties :
#
#
# Convention : Reuss Voigt Hill
#
# Bulk Modulus (GPa) = 34.69443 76.49349 55.59396
# Shear Modulus (GPa) = 30.07712 49.22870 39.65291
#
# Velocity S-wave (km/s) = 3.36218 4.30142 3.86047
# Velocity P-wave (km/s) = 5.30207 7.30884 6.38479
#
# Compressibility (1/GPa) = 0.02882307
#
# Stress axis : x y z
#
# Youngs Moduli (GPa) = 105.97742 37.05655 163.23708
#
# Poissons Ratio (x) = 0.15244 0.43542
# Poissons Ratio (y) = 0.43596 0.01326
# Poissons Ratio (z) = 0.28269 0.00301
#
# Static dielectric constant tensor:
#      x y z
#    x 2.024760 0.059670 -0.004150 
#    y 0.059670 2.133190 0.031360 
#    z -0.004150 0.031360 2.264530 
# 
# From -- ./inp_files/585567.got.cif
#   From: 2010.05.17/outbox.cif.g08.bks.cpg/sg2_293_cif.got.tgz:585567.got - 2010.06.03 11:33:40.
