data_PCOD9004543
_publ_section_title
;
Structure prediction by ZEFSAII (Michael W. Deem and Ramdas Pophale) SiO2 
 PCOD9004543
Probable space group: P -1
;
_chemical_formula_sum "Si O2"
_cell_formula_units_Z 16
_cell_length_a 21.522166
_cell_length_b 6.400526
_cell_length_c 8.583141
_cell_angle_alpha 118.875938
_cell_angle_beta 59.048799
_cell_angle_gamma 134.470972
_cell_volume 708.919450
_symmetry_space_group_name_H-M "P -1"
_symmetry_group_IT_number 2
_symmetry_cell_setting 'triclinic'
loop_
_space_group_symop_operation_xyz
x,y,z
-x,-y,-z
loop_
_atom_site_type_symbol
_atom_site_label
_atom_site_fract_x
_atom_site_fract_y
_atom_site_fract_z
Si Si1 0.034003 0.120172 0.830133
Si Si2 0.365544 0.857718 0.732239
Si Si3 0.399335 0.255420 0.098673
Si Si4 0.156346 0.898265 0.558977
Si Si5 0.545524 0.450082 0.561998
Si Si6 0.909691 0.745619 0.613833
Si Si7 0.233937 0.175529 0.226106
Si Si8 0.193330 0.804869 0.826004
O O1 0.097113 0.473749 0.843453
O O2 0.097405 0.020404 0.672180
O O3 0.936416 0.920700 0.802085
O O4 0.000000 0.000000 0.000000
O O5 0.383123 0.611395 0.604822
O O6 0.277699 0.784425 0.727922
O O7 0.458766 0.155151 0.651812
O O8 0.359413 0.946667 0.949305
O O9 0.405843 0.273185 0.282058
O O10 0.341831 0.370366 0.156720
O O11 0.500000 0.500000 0.000000
O O12 0.094614 0.543650 0.488117
O O13 0.196405 0.940414 0.699871
O O14 0.211743 0.011585 0.364296
O O15 0.500000 0.500000 0.500000
O O16 0.815811 0.670309 0.651214
O O17 0.000000 0.000000 0.500000
O O18 0.203025 0.979445 0.036251
#
# Coordination Sequence:
#
# PCOD9004543 Si02
#       8
#     2   2   2   2   2   2   2   2
#     4  12  26  42  67  94 134 181 225 280 337 398
#     4   9  22  42  60  96 134 168 218 278 328 401
#     4   9  21  44  67  95 138 174 215 283 335 395
#     4  12  25  42  68  97 130 181 226 276 337 406
#     4  10  21  37  69  96 128 173 216 267 342 406
#     4  12  24  42  64  96 134 174 223 280 332 397
#     4  11  25  44  69  99 135 178 227 277 341 404
#     4  11  25  43  66  97 136 173 228 282 333 396
#
# _framework density 22.569561
#
# number of rings (size 3 to 8) (size 9 to 14) (size 15 to 20)
#    0.000    1.250    2.500    1.875    7.000    1.500 
#    0.000    7.500    0.000    0.000    0.000    0.000 
#    0.000    0.000    0.000    0.000    0.000    0.000 
#
# Total GULP energy -89195.021300 kJ/mol
# GULP energy per Si atom -5574.688831 kJ/mol
# Density = 2.251819 g / cm^3
# Si number density = 22.569561 Si / 1000 Ang^3
#
#
#
# Elastic Constant Matrix: (Units=GPa)
#
#
# Indices 1 2 3 4 5 6 
#
# 1 145.1647 10.3599 65.4615 6.6381 10.8983 1.9619
# 2 10.3599 36.9793 4.2805 -0.5343 4.5459 6.1013
# 3 65.4615 4.2805 101.4484 5.7157 14.5337 -0.1264
# 4 6.6381 -0.5343 5.7157 18.3329 2.2096 1.6653
# 5 10.8983 4.5459 14.5337 2.2096 51.7834 1.3102
# 6 1.9619 6.1013 -0.1264 1.6653 1.3102 27.3558
#
#
#
# Elastic Compliance Matrix: (Units=1/GPa)
#
#
# Indices 1 2 3 4 5 6 
#
# 1 0.009920 -0.002045 -0.006207 -0.001689 -0.000090 -0.000177
# 2 -0.002045 0.028926 0.000264 0.002333 -0.002122 -0.006344
# 3 -0.006207 0.000264 0.014346 -0.001958 -0.002677 0.000700
# 4 -0.001689 0.002333 -0.001958 0.056373 -0.001610 -0.003763
# 5 -0.000090 -0.002122 -0.002677 -0.001610 0.020347 -0.000409
# 6 -0.000177 -0.006344 0.000700 -0.003763 -0.000409 0.038235
#
#
# Mechanical properties :
#
#
# Convention : Reuss Voigt Hill
#
# Bulk Modulus (GPa) = 26.87058 49.31070 38.09064
# Shear Modulus (GPa) = 25.44164 33.06045 29.25105
#
# Velocity S-wave (km/s) = 3.36110 3.83146 3.60396
# Velocity P-wave (km/s) = 5.19559 6.43965 5.85078
#
# Compressibility (1/GPa) = 0.03721543
#
# Stress axis : x y z
#
# Youngs Moduli (GPa) = 100.80558 34.57119 69.70533
#
# Poissons Ratio (x) = 0.07069 0.43266
# Poissons Ratio (y) = 0.20613 -0.01838
# Poissons Ratio (z) = 0.62570 -0.00911
#
# Static dielectric constant tensor:
#      x y z
#    x 1.818590 0.020270 -0.067940 
#    y 0.020270 1.645970 -0.024710 
#    z -0.067940 -0.024710 2.114400 
# 
# From -- ./inp_files/288471.got.cif
#   From: 2010.05.17/outbox.cif.g08.bks.cpg/sg2_145_cif.got.tgz:288471.got - 2010.06.03 11:33:40.
