data_PCOD9004833
_publ_section_title
;
Structure prediction by ZEFSAII (Michael W. Deem and Ramdas Pophale) SiO2 
 PCOD9004833
Probable space group: P -1
;
_chemical_formula_sum "Si O2"
_cell_formula_units_Z 16
_cell_length_a 21.167775
_cell_length_b 22.907662
_cell_length_c 9.406291
_cell_angle_alpha 135.740075
_cell_angle_beta 32.031962
_cell_angle_gamma 159.438025
_cell_volume 772.517418
_symmetry_space_group_name_H-M "P -1"
_symmetry_group_IT_number 2
_symmetry_cell_setting 'triclinic'
loop_
_space_group_symop_operation_xyz
x,y,z
-x,-y,-z
loop_
_atom_site_type_symbol
_atom_site_label
_atom_site_fract_x
_atom_site_fract_y
_atom_site_fract_z
Si Si1 0.969590 0.421421 0.785534
Si Si2 0.660903 0.702644 0.147801
Si Si3 0.876561 0.670715 0.600725
Si Si4 0.208083 0.655463 0.488417
Si Si5 0.578381 0.973617 0.908945
Si Si6 0.756582 0.141423 0.167231
Si Si7 0.193077 0.002561 0.122783
Si Si8 0.991893 0.984205 0.742841
O O1 0.024851 0.357492 0.585299
O O2 0.179557 0.581316 0.550914
O O3 0.000000 0.500000 0.000000
O O4 0.669756 0.241386 0.991359
O O5 0.348533 0.497754 0.374527
O O6 0.747437 0.659721 0.927571
O O7 0.779505 0.811923 0.959651
O O8 0.783644 0.836595 0.270707
O O9 0.141034 0.884633 0.425554
O O10 0.113614 0.687960 0.776595
O O11 0.000000 0.500000 0.500000
O O12 0.497005 0.821863 0.166821
O O13 0.646213 0.053952 0.070755
O O14 0.500000 0.000000 0.000000
O O15 0.500000 0.000000 0.500000
O O16 0.913085 0.159286 0.956493
O O17 0.120624 0.012027 0.138969
O O18 0.102393 0.989602 0.420343
#
# Coordination Sequence:
#
# PCOD9004833 Si02
#       8
#     2   2   2   2   2   2   2   2
#     4  11  23  38  61  93 125 157 199 247 299 360
#     4  10  22  40  63  88 116 157 205 256 303 352
#     4  10  22  38  60  89 122 154 199 251 302 358
#     4  11  23  38  59  90 126 161 199 243 296 362
#     4  10  21  38  60  87 120 158 197 243 301 358
#     4  10  21  38  59  85 121 160 195 238 297 359
#     4  10  22  40  60  88 124 158 198 246 303 364
#     4  10  22  40  64  88 116 158 205 255 304 353
#
# _framework density 20.711507000000001
#
# number of rings (size 3 to 8) (size 9 to 14) (size 15 to 20)
#    0.000    1.750    0.000    4.500    0.000   11.000 
#    0.000    0.000    0.000    9.000    0.000    0.000 
#    0.000    0.000    0.000    0.000    0.000    0.000 
#
# Total GULP energy -89097.062628 kJ/mol
# GULP energy per Si atom -5568.566414 kJ/mol
# Density = 2.066437 g / cm^3
# Si number density = 20.711507 Si / 1000 Ang^3
#
#
#
# Elastic Constant Matrix: (Units=GPa)
#
#
# Indices 1 2 3 4 5 6 
#
# 1 92.9076 8.9257 40.2200 14.1005 -6.8719 -7.2420
# 2 8.9257 91.7789 22.0261 6.2753 -16.0847 5.9218
# 3 40.2200 22.0261 76.0818 3.2445 -16.5159 -0.5234
# 4 14.1005 6.2753 3.2445 36.5002 -1.5421 -5.7732
# 5 -6.8719 -16.0847 -16.5159 -1.5421 30.8178 6.3046
# 6 -7.2420 5.9218 -0.5234 -5.7732 6.3046 23.7830
#
#
#
# Elastic Compliance Matrix: (Units=1/GPa)
#
#
# Indices 1 2 3 4 5 6 
#
# 1 0.015188 0.000252 -0.008297 -0.004660 -0.001931 0.003760
# 2 0.000252 0.013177 -0.002423 -0.002767 0.006662 -0.005695
# 3 -0.008297 -0.002423 0.019945 0.001681 0.008331 -0.003284
# 4 -0.004660 -0.002767 0.001681 0.030588 -0.001511 0.007132
# 5 -0.001931 0.006662 0.008331 -0.001511 0.042697 -0.013748
# 6 0.003760 -0.005695 -0.003284 0.007132 -0.013748 0.049914
#
#
# Mechanical properties :
#
#
# Convention : Reuss Voigt Hill
#
# Bulk Modulus (GPa) = 36.52987 44.79020 40.66003
# Shear Modulus (GPa) = 24.80539 30.85997 27.83268
#
# Velocity S-wave (km/s) = 3.46448 3.86423 3.66980
# Velocity P-wave (km/s) = 5.80338 6.44844 6.13440
#
# Compressibility (1/GPa) = 0.02737486
#
# Stress axis : x y z
#
# Youngs Moduli (GPa) = 65.83984 75.89058 50.13739
#
# Poissons Ratio (x) = -0.01910 0.41597
# Poissons Ratio (y) = -0.01657 0.12148
# Poissons Ratio (z) = 0.54624 0.18387
#
# Static dielectric constant tensor:
#      x y z
#    x 1.839570 -0.128600 0.009700 
#    y -0.128600 1.850440 -0.055420 
#    z 0.009700 -0.055420 1.798820 
# 
# From -- ./inp_files/350014.got.cif
#   From: 2010.05.17/outbox.cif.g08.bks.cpg/sg2_176_cif.got.tgz:350014.got - 2010.06.03 11:33:40.
