data_PCOD9004565
_publ_section_title
;
Structure prediction by ZEFSAII (Michael W. Deem and Ramdas Pophale) SiO2 
 PCOD9004565
Probable space group: P -1
;
_chemical_formula_sum "Si O2"
_cell_formula_units_Z 16
_cell_length_a 10.466493
_cell_length_b 31.201265
_cell_length_c 5.709835
_cell_angle_alpha 123.024626
_cell_angle_beta 108.584481
_cell_angle_gamma 31.090631
_cell_volume 758.685962
_symmetry_space_group_name_H-M "P -1"
_symmetry_group_IT_number 2
_symmetry_cell_setting 'triclinic'
loop_
_space_group_symop_operation_xyz
x,y,z
-x,-y,-z
loop_
_atom_site_type_symbol
_atom_site_label
_atom_site_fract_x
_atom_site_fract_y
_atom_site_fract_z
Si Si1 0.718863 0.561102 0.030801
Si Si2 0.498316 0.060322 0.685207
Si Si3 0.002763 0.058827 0.118309
Si Si4 0.488573 0.224765 0.102939
Si Si5 0.194372 0.243982 0.293764
Si Si6 0.315585 0.388603 0.339148
Si Si7 0.646058 0.463786 0.727906
Si Si8 0.604103 0.096672 0.476455
O O1 0.588787 0.620781 0.380131
O O2 0.591961 0.616589 0.868146
O O3 0.734746 0.494532 0.860865
O O4 0.000000 0.500000 0.000000
O O5 0.449290 0.102589 0.534487
O O6 0.500000 0.000000 0.500000
O O7 0.790033 0.982730 0.709379
O O8 0.279234 0.159869 0.010385
O O9 0.704172 0.174619 0.267201
O O10 0.150902 0.011638 0.815985
O O11 0.000000 0.000000 0.000000
O O12 0.251591 0.268631 0.204285
O O13 0.382729 0.306636 0.138860
O O14 0.650597 0.128592 0.770962
O O15 0.417839 0.182180 0.429863
O O16 0.905688 0.344290 0.519136
O O17 0.000000 0.500000 0.500000
O O18 0.500000 0.500000 0.500000
O O19 0.500000 0.500000 0.000000
#
# Coordination Sequence:
#
# PCOD9004565 Si02
#       8
#     2   2   2   2   2   2   2   2
#     4  10  22  44  68  97 136 173 227 288 351 401
#     4  10  23  43  65  93 140 181 221 282 353 427
#     4  11  20  39  60 105 131 162 228 286 341 415
#     4  11  22  36  68 100 134 175 227 286 359 413
#     4  10  23  41  69  98 127 183 240 274 358 430
#     4  10  22  37  62  98 138 174 220 284 345 410
#     4  12  28  48  75 102 143 191 244 301 350 426
#     4  10  21  37  70  91 131 173 225 281 344 428
#
# _framework density 21.089096000000001
#
# number of rings (size 3 to 8) (size 9 to 14) (size 15 to 20)
#    0.000    1.500    3.750    2.625    8.750    2.000 
#    2.250    2.500    0.000    0.000    0.000    0.000 
#    0.000    0.000    0.000    0.000    0.000    0.000 
#
# Total GULP energy -89123.989286 kJ/mol
# GULP energy per Si atom -5570.249330 kJ/mol
# Density = 2.104110 g / cm^3
# Si number density = 21.089096 Si / 1000 Ang^3
#
#
#
# Elastic Constant Matrix: (Units=GPa)
#
#
# Indices 1 2 3 4 5 6 
#
# 1 98.0039 45.1474 42.4389 -1.4721 24.3531 15.5857
# 2 45.1474 62.0448 33.8767 17.1419 -7.4117 22.8234
# 3 42.4389 33.8767 90.4577 -16.9926 -3.6881 9.8404
# 4 -1.4721 17.1419 -16.9926 30.2121 8.7292 -5.7215
# 5 24.3531 -7.4117 -3.6881 8.7292 35.7497 7.5357
# 6 15.5857 22.8234 9.8404 -5.7215 7.5357 36.0863
#
#
#
# Elastic Compliance Matrix: (Units=1/GPa)
#
#
# Indices 1 2 3 4 5 6 
#
# 1 -0.003748 0.042351 -0.018509 -0.049312 0.028613 -0.033913
# 2 0.042351 -0.085561 0.020336 0.097487 -0.081523 0.062758
# 3 -0.018509 0.020336 0.011865 -0.016110 0.025345 -0.015950
# 4 -0.049312 0.097487 -0.016110 -0.069757 0.082728 -0.064302
# 5 0.028613 -0.081523 0.025345 0.082728 -0.037216 0.053179
# 6 -0.033913 0.062758 -0.015950 -0.064302 0.053179 -0.014285
#
#
# Mechanical properties :
#
#
# Convention : Reuss Voigt Hill
#
# Bulk Modulus (GPa) = 91.66081 54.82583 73.24332
# Shear Modulus (GPa) = -17.64165 29.01253 5.68544
#
# Velocity S-wave (km/s) = -2.89542 3.71308 1.64370
# Velocity P-wave (km/s) = 5.69034 6.66606 6.19743
#
# Compressibility (1/GPa) = 0.01090979
#
# Stress axis : x y z
#
# Youngs Moduli (GPa) = -266.77559 -11.68756 84.28129
#
# Poissons Ratio (x) = 0.49498 1.56000
# Poissons Ratio (y) = 11.29814 -1.71393
# Poissons Ratio (z) = -4.93785 0.23768
#
# Static dielectric constant tensor:
#      x y z
#    x 1.806740 -0.025140 -0.078150 
#    y -0.025140 1.777550 -0.053620 
#    z -0.078150 -0.053620 1.888130 
# 
# From -- ./inp_files/56545.got.cif
#   From: 2010.05.17/outbox.cif.g08.bks.cpg/sg2_29_cif.got.tgz:56545.got - 2010.06.03 11:33:40.
