data_PCOD9004480
_publ_section_title
;
Structure prediction by ZEFSAII (Michael W. Deem and Ramdas Pophale) SiO2 
 PCOD9004480
Probable space group: P -1
;
_chemical_formula_sum "Si O2"
_cell_formula_units_Z 16
_cell_length_a 6.254012
_cell_length_b 8.740615
_cell_length_c 14.651710
_cell_angle_alpha 70.922615
_cell_angle_beta 80.899004
_cell_angle_gamma 71.848516
_cell_volume 717.846343
_symmetry_space_group_name_H-M "P -1"
_symmetry_group_IT_number 2
_symmetry_cell_setting 'triclinic'
loop_
_space_group_symop_operation_xyz
x,y,z
-x,-y,-z
loop_
_atom_site_type_symbol
_atom_site_label
_atom_site_fract_x
_atom_site_fract_y
_atom_site_fract_z
Si Si1 0.146367 0.168017 0.548709
Si Si2 0.301429 0.214327 0.272274
Si Si3 0.996584 0.144128 0.900103
Si Si4 0.429336 0.811595 0.549952
Si Si5 0.203079 0.889854 0.268795
Si Si6 0.340150 0.328239 0.789389
Si Si7 0.110640 0.598668 0.627437
Si Si8 0.577646 0.478689 0.894080
O O1 0.395427 0.190876 0.542894
O O2 0.967538 0.146609 0.638147
O O3 0.030510 0.335238 0.465996
O O4 0.228931 0.985829 0.526189
O O5 0.450890 0.191053 0.359098
O O6 0.364976 0.353648 0.178609
O O7 0.042767 0.285687 0.307644
O O8 0.308535 0.040221 0.258578
O O9 0.938781 0.074499 0.821196
O O10 0.798357 0.316528 0.901390
O O11 0.232793 0.190203 0.866972
O O12 0.000000 0.000000 0.000000
O O13 0.336255 0.652032 0.586433
O O14 0.418429 0.735831 0.262125
O O15 0.167356 0.416758 0.703706
O O16 0.385820 0.445245 0.845727
O O17 0.500000 0.500000 0.000000
#
# Coordination Sequence:
#
# PCOD9004480 Si02
#       8
#     2   2   2   2   2   2   2   2
#     4  10  23  37  64 103 135 179 232 273 325 397
#     4  11  23  41  69 103 133 175 231 277 325 403
#     4  11  28  49  69  97 139 177 216 279 349 406
#     4  10  21  37  67  98 140 174 227 284 326 376
#     4  11  27  42  67 104 139 175 229 273 337 403
#     4  11  26  47  68  97 144 179 211 283 346 394
#     4  11  21  42  67  95 138 182 227 275 327 393
#     4  11  26  45  73 103 129 172 234 279 333 404
#
# _framework density 22.288895
#
# number of rings (size 3 to 8) (size 9 to 14) (size 15 to 20)
#    0.000    1.250    3.750    0.375    8.750    3.000 
#    0.000    1.250    0.000    0.000    0.000    0.000 
#    0.000    0.000    0.000    0.000    0.000    0.000 
#
# Total GULP energy -89361.633656 kJ/mol
# GULP energy per Si atom -5585.102103 kJ/mol
# Density = 2.223816 g / cm^3
# Si number density = 22.288895 Si / 1000 Ang^3
#
#
#
# Elastic Constant Matrix: (Units=GPa)
#
#
# Indices 1 2 3 4 5 6 
#
# 1 94.2145 22.5912 49.2512 -1.3643 -13.6303 0.2576
# 2 22.5912 58.2187 48.8085 -2.6461 -1.6995 6.0749
# 3 49.2512 48.8085 149.9654 -22.1578 -15.0045 -12.1584
# 4 -1.3643 -2.6461 -22.1578 36.6808 5.5970 -3.4810
# 5 -13.6303 -1.6995 -15.0045 5.5970 34.4446 -4.0441
# 6 0.2576 6.0749 -12.1584 -3.4810 -4.0441 30.9880
#
#
#
# Elastic Compliance Matrix: (Units=1/GPa)
#
#
# Indices 1 2 3 4 5 6 
#
# 1 0.013672 -0.001852 -0.003993 -0.002737 0.003893 -0.001116
# 2 -0.001852 0.027191 -0.010194 -0.004594 -0.004306 -0.010393
# 3 -0.003993 -0.010194 0.013466 0.007524 0.003573 0.008626
# 4 -0.002737 -0.004594 0.007524 0.032432 -0.002457 0.007198
# 5 0.003893 -0.004306 0.003573 -0.002457 0.033050 0.006251
# 6 -0.001116 -0.010393 0.008626 0.007198 0.006251 0.039326
#
#
# Mechanical properties :
#
#
# Convention : Reuss Voigt Hill
#
# Bulk Modulus (GPa) = 44.94008 60.41116 52.67562
# Shear Modulus (GPa) = 25.17219 32.53918 28.85569
#
# Velocity S-wave (km/s) = 3.36424 3.82499 3.60199
# Velocity P-wave (km/s) = 5.94114 6.83154 6.40184
#
# Compressibility (1/GPa) = 0.02225185
#
# Stress axis : x y z
#
# Youngs Moduli (GPa) = 73.14169 36.77643 74.26267
#
# Poissons Ratio (x) = 0.06812 0.29651
# Poissons Ratio (y) = 0.13548 0.75701
# Poissons Ratio (z) = 0.29203 0.37489
#
# Static dielectric constant tensor:
#      x y z
#    x 1.862410 -0.013870 0.025120 
#    y -0.013870 1.845950 0.000220 
#    z 0.025120 0.000220 1.807590 
# 
# From -- ./inp_files/480276.got.cif
#   From: 2010.05.17/outbox.cif.g08.bks.cpg/sg2_241_cif.got.tgz:480276.got - 2010.06.03 11:33:40.
