data_PCOD9004006
_publ_section_title
;
Structure prediction by ZEFSAII (Michael W. Deem and Ramdas Pophale) SiO2 
 PCOD9004006
Probable space group: P -1
;
_chemical_formula_sum "Si O2"
_cell_formula_units_Z 16
_cell_length_a 5.526380
_cell_length_b 13.649468
_cell_length_c 12.227670
_cell_angle_alpha 126.114148
_cell_angle_beta 109.643049
_cell_angle_gamma 57.107749
_cell_volume 625.498831
_symmetry_space_group_name_H-M "P -1"
_symmetry_group_IT_number 2
_symmetry_cell_setting 'triclinic'
loop_
_space_group_symop_operation_xyz
x,y,z
-x,-y,-z
loop_
_atom_site_type_symbol
_atom_site_label
_atom_site_fract_x
_atom_site_fract_y
_atom_site_fract_z
Si Si1 0.608934 0.656497 0.979581
Si Si2 0.144828 0.431023 0.622367
Si Si3 0.894347 0.073937 0.913184
Si Si4 0.283875 0.283481 0.191543
Si Si5 0.745529 0.350408 0.404716
Si Si6 0.443844 0.960062 0.761257
Si Si7 0.975999 0.350310 0.773894
Si Si8 0.746471 0.206856 0.520877
O O1 0.735231 0.714075 0.939382
O O2 0.000172 0.589913 0.725290
O O3 0.712382 0.494975 0.869634
O O4 0.764871 0.669078 0.120519
O O5 0.059002 0.380165 0.686272
O O6 0.478686 0.353312 0.601699
O O7 0.016572 0.380479 0.470089
O O8 0.641725 0.033547 0.813402
O O9 0.153040 0.032664 0.838343
O O10 0.727367 0.238270 0.001561
O O11 0.000000 0.000000 0.000000
O O12 0.568740 0.309731 0.265116
O O13 0.355375 0.157839 0.198787
O O14 0.500000 0.500000 0.500000
O O15 0.841135 0.231482 0.431695
O O16 0.368668 0.901240 0.599469
O O17 0.939024 0.212794 0.655496
#
# Coordination Sequence:
#
# PCOD9004006 Si02
#       8
#     2   2   2   2   2   2   2   2
#     4  10  21  43  69  91 137 172 234 277 341 406
#     4   9  18  34  58  91 129 168 214 274 348 393
#     4  12  26  47  70 100 141 187 225 274 333 414
#     4   9  18  35  58  97 126 171 215 279 334 409
#     4   8  16  29  49  83 124 156 203 256 338 395
#     4  11  26  43  69 103 137 182 229 273 339 408
#     4   9  21  43  65  99 125 176 223 293 344 392
#     4  10  21  37  63  93 133 168 226 286 335 407
#
# _framework density 25.579581000000001
#
# number of rings (size 3 to 8) (size 9 to 14) (size 15 to 20)
#    0.000    2.250    1.250    1.125    5.250    5.500 
#    6.750    4.375    0.000    0.000    0.000    0.000 
#    0.000    0.000    0.000    0.000    0.000    0.000 
#
# Total GULP energy -89237.810584 kJ/mol
# GULP energy per Si atom -5577.363162 kJ/mol
# Density = 2.552136 g / cm^3
# Si number density = 25.579581 Si / 1000 Ang^3
#
#
#
# Elastic Constant Matrix: (Units=GPa)
#
#
# Indices 1 2 3 4 5 6 
#
# 1 76.5327 11.5787 39.9149 19.9860 17.3290 -1.2749
# 2 11.5787 89.0570 19.2825 18.7409 -2.1480 -19.9190
# 3 39.9149 19.2825 149.2627 -1.6990 22.3774 -1.3301
# 4 19.9860 18.7409 -1.6990 26.8037 -4.2596 -2.7333
# 5 17.3290 -2.1480 22.3774 -4.2596 49.3163 21.1544
# 6 -1.2749 -19.9190 -1.3301 -2.7333 21.1544 27.0666
#
#
#
# Elastic Compliance Matrix: (Units=1/GPa)
#
#
# Indices 1 2 3 4 5 6 
#
# 1 0.024343 0.005472 -0.005333 -0.023125 -0.013536 0.013155
# 2 0.005472 0.018908 -0.002390 -0.017001 -0.010193 0.020305
# 3 -0.005333 -0.002390 0.008798 0.005953 -0.001939 0.000539
# 4 -0.023125 -0.017001 0.005953 0.067742 0.020022 -0.022116
# 5 -0.013536 -0.010193 -0.001939 0.020022 0.044925 -0.041324
# 6 0.013155 0.020305 0.000539 -0.022116 -0.041324 0.082599
#
#
# Mechanical properties :
#
#
# Convention : Reuss Voigt Hill
#
# Bulk Modulus (GPa) = 21.03243 50.71163 35.87203
# Shear Modulus (GPa) = 18.67996 36.90907 27.79452
#
# Velocity S-wave (km/s) = 2.70528 3.80269 3.29992
# Velocity P-wave (km/s) = 4.24243 6.25689 5.34541
#
# Compressibility (1/GPa) = 0.04754563
#
# Stress axis : x y z
#
# Youngs Moduli (GPa) = 41.07993 52.88696 113.66425
#
# Poissons Ratio (x) = -0.28940 0.60620
# Poissons Ratio (y) = -0.22479 0.27171
# Poissons Ratio (z) = 0.21909 0.12642
#
# Static dielectric constant tensor:
#      x y z
#    x 2.117740 -0.126110 0.078800 
#    y -0.126110 2.350140 -0.119050 
#    z 0.078800 -0.119050 2.140980 
# 
# From -- ./inp_files/369522.got.cif
#   From: 2010.05.17/outbox.cif.g08.bks.cpg/sg2_185_cif.got.tgz:369522.got - 2010.06.03 11:33:40.
