data_PCOD9004619
_publ_section_title
;
Structure prediction by ZEFSAII (Michael W. Deem and Ramdas Pophale) SiO2 
 PCOD9004619
Probable space group: P -1
;
_chemical_formula_sum "Si O2"
_cell_formula_units_Z 14
_cell_length_a 11.334578
_cell_length_b 15.637262
_cell_length_c 15.851642
_cell_angle_alpha 18.758986
_cell_angle_beta 73.385192
_cell_angle_gamma 64.028974
_cell_volume 727.336018
_symmetry_space_group_name_H-M "P -1"
_symmetry_group_IT_number 2
_symmetry_cell_setting 'triclinic'
loop_
_space_group_symop_operation_xyz
x,y,z
-x,-y,-z
loop_
_atom_site_type_symbol
_atom_site_label
_atom_site_fract_x
_atom_site_fract_y
_atom_site_fract_z
Si Si1 0.164185 0.485180 0.410742
Si Si2 0.058335 0.864517 0.432960
Si Si3 0.461674 0.093952 0.619960
Si Si4 0.528777 0.452259 0.138036
Si Si5 0.987668 0.157013 0.733406
Si Si6 0.146160 0.741813 0.761138
Si Si7 0.790613 0.765352 0.898911
O O1 0.324400 0.330199 0.484291
O O2 0.108217 0.248794 0.633866
O O3 0.143519 0.601298 0.403173
O O4 0.054439 0.803212 0.083708
O O5 0.054829 0.822446 0.373935
O O6 0.155594 0.003221 0.310243
O O7 0.124397 0.529546 0.778837
O O8 0.897781 0.133675 0.250931
O O9 0.473954 0.256299 0.380852
O O10 0.616194 0.953107 0.767207
O O11 0.453365 0.795975 0.874508
O O12 0.704184 0.287361 0.267411
O O13 0.500000 0.500000 0.000000
O O14 0.172240 0.406053 0.040950
O O15 0.000000 0.000000 0.500000
#
# Coordination Sequence:
#
# PCOD9004619 Si02
#       7
#     2   2   2   2   2   2   2
#     4  10  22  40  63  83 120 154 193 240 315 341
#     4  11  21  36  61  84 117 148 205 240 288 332
#     4  11  22  40  61  79 123 159 188 232 316 345
#     4  11  24  38  55  91 121 152 204 246 282 362
#     4  10  22  40  60  92 113 149 201 254 282 355
#     4   9  20  36  57  81 118 159 193 233 293 346
#     4  10  21  38  55  87 116 159 189 240 285 362
#
# _framework density 19.248324
#
# number of rings (size 3 to 8) (size 9 to 14) (size 15 to 20)
#    0.000    1.714    0.000    5.143    4.000    3.429 
#    0.000    1.429    0.000    0.000    0.000    0.000 
#    0.000    0.000    0.000    0.000    0.000    0.000 
#
# Total GULP energy -78182.059586 kJ/mol
# GULP energy per Si atom -5584.432828 kJ/mol
# Density = 1.920451 g / cm^3
# Si number density = 19.248324 Si / 1000 Ang^3
#
#
#
# Elastic Constant Matrix: (Units=GPa)
#
#
# Indices 1 2 3 4 5 6 
#
# 1 33.3961 33.6032 7.0449 -12.3957 6.8788 -8.5342
# 2 33.6032 142.8495 20.9593 -4.7689 29.1603 -0.2125
# 3 7.0449 20.9593 54.0705 3.8506 -2.2589 4.8540
# 4 -12.3957 -4.7689 3.8506 29.0278 -6.4812 7.7124
# 5 6.8788 29.1603 -2.2589 -6.4812 22.0874 -3.7719
# 6 -8.5342 -0.2125 4.8540 7.7124 -3.7719 31.0325
#
#
#
# Elastic Compliance Matrix: (Units=1/GPa)
#
#
# Indices 1 2 3 4 5 6 
#
# 1 0.051720 -0.012444 -0.003956 0.019345 0.007447 0.010854
# 2 -0.012444 0.013710 -0.003700 -0.005401 -0.016776 -0.003447
# 3 -0.003956 -0.003700 0.021193 -0.002784 0.006974 -0.002889
# 4 0.019345 -0.005401 -0.002784 0.046354 0.013717 -0.004134
# 5 0.007447 -0.016776 0.006974 0.013717 0.070874 0.006048
# 6 0.010854 -0.003447 -0.002889 -0.004134 0.006048 0.037400
#
#
# Mechanical properties :
#
#
# Convention : Reuss Voigt Hill
#
# Bulk Modulus (GPa) = 21.54124 39.28122 30.41123
# Shear Modulus (GPa) = 16.83936 27.67679 22.25807
#
# Velocity S-wave (km/s) = 2.96099 3.79605 3.40422
# Velocity P-wave (km/s) = 4.78597 6.29804 5.59333
#
# Compressibility (1/GPa) = 0.04642259
#
# Stress axis : x y z
#
# Youngs Moduli (GPa) = 19.33505 72.94168 47.18589
#
# Poissons Ratio (x) = 0.90769 0.18666
# Poissons Ratio (y) = 0.24061 0.17457
# Poissons Ratio (z) = 0.07649 0.26986
#
# Static dielectric constant tensor:
#      x y z
#    x 1.661150 -0.005490 -0.003000 
#    y -0.005490 1.697890 0.012760 
#    z -0.003000 0.012760 1.677510 
# 
# From -- ./inp_files/54970.got.cif
#   From: 2010.05.17/outbox.cif.g08.bks.cpg/sg2_28_cif.got.tgz:54970.got - 2010.06.03 11:33:40.
