data_PCOD9004146
_publ_section_title
;
Structure prediction by ZEFSAII (Michael W. Deem and Ramdas Pophale) SiO2 
 PCOD9004146
Probable space group: P -1
;
_chemical_formula_sum "Si O2"
_cell_formula_units_Z 11
_cell_length_a 12.216541
_cell_length_b 14.694869
_cell_length_c 14.414678
_cell_angle_alpha 20.840246
_cell_angle_beta 35.784724
_cell_angle_gamma 29.812628
_cell_volume 457.699362
_symmetry_space_group_name_H-M "P -1"
_symmetry_group_IT_number 2
_symmetry_cell_setting 'triclinic'
loop_
_space_group_symop_operation_xyz
x,y,z
-x,-y,-z
loop_
_atom_site_type_symbol
_atom_site_label
_atom_site_fract_x
_atom_site_fract_y
_atom_site_fract_z
Si Si1 0.749445 0.487276 0.993676
Si Si2 0.608263 0.067822 0.445578
Si Si3 0.916716 0.831016 0.780553
Si Si4 0.500000 0.000000 0.000000
Si Si5 0.337738 0.828116 0.097622
Si Si6 0.183389 0.409225 0.540347
O O1 0.689002 0.294203 0.152586
O O2 0.551291 0.651073 0.050197
O O3 0.965835 0.243868 0.129800
O O4 0.776345 0.742937 0.684101
O O5 0.415168 0.234150 0.494358
O O6 0.500000 0.000000 0.500000
O O7 0.657294 0.010848 0.800678
O O8 0.000000 0.000000 0.500000
O O9 0.000000 0.500000 0.000000
O O10 0.577145 0.169611 0.860598
O O11 0.192158 0.676561 0.330216
O O12 0.192553 0.169501 0.834272
O O13 0.000000 0.500000 0.500000
#
# Coordination Sequence:
#
# PCOD9004146 Si02
#       6
#     2   2   2   1   2   2
#     4  10  21  42  62  93 137 177 226 293 350 406
#     4  10  21  37  64  93 127 179 228 280 351 425
#     4  12  27  46  72 102 145 187 238 300 354 421
#     4  12  28  46  76 110 144 194 252 282 374 450
#     4  10  23  40  66  97 135 185 231 290 354 425
#     4  10  22  40  63  93 137 176 229 299 347 408
#
# _framework density 24.033242999999999
#
# number of rings (size 3 to 8) (size 9 to 14) (size 15 to 20)
#    0.000    1.455    1.818    2.182    5.091    5.818 
#    0.000    0.000    0.000    0.000    0.000    0.000 
#    0.000    0.000    0.000    0.000    0.000    0.000 
#
# Total GULP energy -61278.791146 kJ/mol
# GULP energy per Si atom -5570.799195 kJ/mol
# Density = 2.397854 g / cm^3
# Si number density = 24.033243 Si / 1000 Ang^3
#
#
#
# Elastic Constant Matrix: (Units=GPa)
#
#
# Indices 1 2 3 4 5 6 
#
# 1 135.2367 -14.4494 39.4797 -7.1548 -46.4604 15.7940
# 2 -14.4494 82.8309 36.1728 15.4241 -12.3250 1.6374
# 3 39.4797 36.1728 151.6244 6.7677 -33.6466 3.9140
# 4 -7.1548 15.4241 6.7677 25.6223 -4.2155 -1.6876
# 5 -46.4604 -12.3250 -33.6466 -4.2155 46.7803 -5.3979
# 6 15.7940 1.6374 3.9140 -1.6876 -5.3979 35.8320
#
#
#
# Elastic Compliance Matrix: (Units=1/GPa)
#
#
# Indices 1 2 3 4 5 6 
#
# 1 0.013590 0.004536 -0.001719 0.003457 0.013324 -0.003840
# 2 0.004536 0.016572 -0.003562 -0.006993 0.005463 -0.001874
# 3 -0.001719 -0.003562 0.008693 0.000006 0.003667 0.000524
# 4 0.003457 -0.006993 0.000006 0.045290 0.005886 0.001815
# 5 0.013324 0.005463 0.003667 0.005886 0.039177 -0.000344
# 6 -0.003840 -0.001874 0.000524 0.001815 -0.000344 0.029662
#
#
# Mechanical properties :
#
#
# Convention : Reuss Voigt Hill
#
# Bulk Modulus (GPa) = 26.76359 54.67757 40.72058
# Shear Modulus (GPa) = 29.95302 42.21284 36.08293
#
# Velocity S-wave (km/s) = 3.53415 4.19553 3.87896
# Velocity P-wave (km/s) = 5.27389 6.80222 6.08622
#
# Compressibility (1/GPa) = 0.03736420
#
# Stress axis : x y z
#
# Youngs Moduli (GPa) = 73.58501 60.34408 115.04004
#
# Poissons Ratio (x) = -0.27372 0.19777
# Poissons Ratio (y) = -0.33379 0.40975
# Poissons Ratio (z) = 0.12650 0.21493
#
# Static dielectric constant tensor:
#      x y z
#    x 1.996660 0.086620 -0.026620 
#    y 0.086620 2.146220 -0.069420 
#    z -0.026620 -0.069420 1.903050 
# 
# From -- ./inp_files/74949.got.cif
#   From: 2010.05.17/outbox.cif.g08.bks.cpg/sg2_38_cif.got.tgz:74949.got - 2010.06.03 11:33:40.
