data_PCOD9004719
_publ_section_title
;
Structure prediction by ZEFSAII (Michael W. Deem and Ramdas Pophale) SiO2 
 PCOD9004719
Probable space group: P -1
;
_chemical_formula_sum "Si O2"
_cell_formula_units_Z 16
_cell_length_a 4.993335
_cell_length_b 11.277213
_cell_length_c 12.985875
_cell_angle_alpha 101.898167
_cell_angle_beta 50.844973
_cell_angle_gamma 104.176875
_cell_volume 548.475627
_symmetry_space_group_name_H-M "P -1"
_symmetry_group_IT_number 2
_symmetry_cell_setting 'triclinic'
loop_
_space_group_symop_operation_xyz
x,y,z
-x,-y,-z
loop_
_atom_site_type_symbol
_atom_site_label
_atom_site_fract_x
_atom_site_fract_y
_atom_site_fract_z
Si Si1 0.580765 0.472744 0.607172
Si Si2 0.261518 0.774506 0.939256
Si Si3 0.534729 0.281974 0.348321
Si Si4 0.275355 0.770977 0.441262
Si Si5 0.556890 0.280760 0.843806
Si Si6 0.447793 0.975182 0.658690
Si Si7 0.419363 0.529203 0.893380
Si Si8 0.308521 0.973265 0.162994
O O1 0.387286 0.574411 0.614510
O O2 0.482834 0.326319 0.593052
O O3 0.500203 0.502257 0.750217
O O4 0.000000 0.500000 0.500000
O O5 0.272303 0.741131 0.808538
O O6 0.496084 0.676813 0.911299
O O7 0.408222 0.918782 0.933614
O O8 0.862853 0.748828 0.067109
O O9 0.118014 0.260269 0.428336
O O10 0.591542 0.167991 0.385849
O O11 0.279442 0.736935 0.310986
O O12 0.389076 0.916255 0.435755
O O13 0.615247 0.426508 0.884071
O O14 0.659209 0.170885 0.869439
O O15 0.666741 0.993513 0.714583
O O16 0.064368 0.003459 0.780775
O O17 0.000000 0.500000 0.000000
#
# Coordination Sequence:
#
# PCOD9004719 Si02
#       8
#     2   2   2   2   2   2   2   2
#     4   8  14  26  49  76 106 140 180 224 274 328
#     4   9  17  32  53  80 110 145 184 229 278 332
#     4   9  17  32  53  80 110 145 184 229 278 332
#     4   9  17  32  53  80 110 145 184 229 278 332
#     4   9  17  32  53  80 110 145 184 229 278 332
#     4  10  21  38  58  84 114 150 190 234 282 336
#     4   8  14  26  49  76 106 140 180 224 274 328
#     4  10  21  38  58  84 114 150 190 234 282 336
#
# _framework density 29.171762000000001
#
# number of rings (size 3 to 8) (size 9 to 14) (size 15 to 20)
#    0.000    3.000    0.000    0.750    0.000    0.000 
#    0.000   21.250    0.000    0.000    0.000   52.500 
#    0.000    0.000    0.000    0.000    0.000    0.000 
#
# Total GULP energy -89655.249776 kJ/mol
# GULP energy per Si atom -5603.453111 kJ/mol
# Density = 2.910537 g / cm^3
# Si number density = 29.171762 Si / 1000 Ang^3
#
#
#
# Elastic Constant Matrix: (Units=GPa)
#
#
# Indices 1 2 3 4 5 6 
#
# 1 56.2001 59.8982 40.5384 5.7019 -7.9241 5.7912
# 2 59.8982 321.3568 12.0325 39.3595 18.7708 -15.6794
# 3 40.5384 12.0325 133.5672 9.5823 -18.1166 8.1286
# 4 5.7019 39.3595 9.5823 68.2148 -3.8809 21.5379
# 5 -7.9241 18.7708 -18.1166 -3.8809 36.0977 -5.8111
# 6 5.7912 -15.6794 8.1286 21.5379 -5.8111 61.2762
#
#
#
# Elastic Compliance Matrix: (Units=1/GPa)
#
#
# Indices 1 2 3 4 5 6 
#
# 1 0.031763 -0.006689 -0.008242 0.004126 0.006034 -0.004498
# 2 -0.006689 0.005089 0.001195 -0.003599 -0.003466 0.002712
# 3 -0.008242 0.001195 0.010317 -0.001449 0.002669 0.000478
# 4 0.004126 -0.003599 -0.001449 0.019151 0.002889 -0.007576
# 5 0.006034 -0.003466 0.002669 0.002889 0.032521 0.000258
# 6 -0.004498 0.002712 0.000478 -0.007576 0.000258 0.020063
#
#
# Mechanical properties :
#
#
# Convention : Reuss Voigt Hill
#
# Bulk Modulus (GPa) = 50.76547 81.78471 66.27509
# Shear Modulus (GPa) = 32.69201 59.69473 46.19337
#
# Velocity S-wave (km/s) = 3.35128 4.52853 3.98363
# Velocity P-wave (km/s) = 5.69340 7.44580 6.62777
#
# Compressibility (1/GPa) = 0.01969843
#
# Stress axis : x y z
#
# Youngs Moduli (GPa) = 31.48278 196.48681 96.92345
#
# Poissons Ratio (x) = 1.31432 0.79880
# Poissons Ratio (y) = 0.21059 -0.11580
# Poissons Ratio (z) = 0.25947 -0.23476
#
# Static dielectric constant tensor:
#      x y z
#    x 2.254580 0.031470 0.228720 
#    y 0.031470 2.378370 -0.045710 
#    z 0.228720 -0.045710 2.267840 
# 
# From -- ./inp_files/549162.got.cif
#   From: 2010.05.17/outbox.cif.g08.bks.cpg/sg2_275_cif.got.tgz:549162.got - 2010.06.03 11:33:40.
