data_PCOD9004487
_publ_section_title
;
Structure prediction by ZEFSAII (Michael W. Deem and Ramdas Pophale) SiO2 
 PCOD9004487
Probable space group: P -1
;
_chemical_formula_sum "Si O2"
_cell_formula_units_Z 14
_cell_length_a 22.113609
_cell_length_b 4.992107
_cell_length_c 8.279739
_cell_angle_alpha 113.313632
_cell_angle_beta 138.865040
_cell_angle_gamma 59.457997
_cell_volume 517.719947
_symmetry_space_group_name_H-M "P -1"
_symmetry_group_IT_number 2
_symmetry_cell_setting 'triclinic'
loop_
_space_group_symop_operation_xyz
x,y,z
-x,-y,-z
loop_
_atom_site_type_symbol
_atom_site_label
_atom_site_fract_x
_atom_site_fract_y
_atom_site_fract_z
Si Si1 0.358451 0.291478 0.453463
Si Si2 0.335983 0.288837 0.780984
Si Si3 0.788456 0.942087 0.029251
Si Si4 0.444625 0.733399 0.088083
Si Si5 0.017708 0.782210 0.196496
Si Si6 0.154837 0.480221 0.658989
Si Si7 0.152488 0.678710 0.164391
O O1 0.360998 0.185271 0.621276
O O2 0.463947 0.297946 0.619707
O O3 0.267364 0.624278 0.353766
O O4 0.320906 0.072611 0.211842
O O5 0.226177 0.324699 0.616042
O O6 0.357292 0.608579 0.922464
O O7 0.402500 0.062155 0.994395
O O8 0.838040 0.773416 0.253134
O O9 0.799310 0.272783 0.116740
O O10 0.840491 0.679456 0.935750
O O11 0.500000 0.500000 0.000000
O O12 0.051431 0.674660 0.419005
O O13 0.109564 0.810488 0.283456
O O14 0.000000 0.500000 0.000000
O O15 0.928187 0.099345 0.064304
#
# Coordination Sequence:
#
# PCOD9004487 Si02
#       7
#     2   2   2   2   2   2   2
#     4   9  20  44  64  94 130 172 215 273 316 389
#     4  11  22  41  67  99 128 172 221 274 312 381
#     4  10  26  42  67  94 137 179 209 259 340 384
#     4  10  21  37  68 101 124 167 227 269 321 370
#     4  11  25  42  71  98 124 172 222 273 328 381
#     4  12  25  45  65  98 138 171 217 267 324 393
#     4   9  23  45  65  96 128 170 220 261 336 378
#
# _framework density 27.041647999999999
#
# number of rings (size 3 to 8) (size 9 to 14) (size 15 to 20)
#    0.857    0.857    1.429    2.571    6.000    6.857 
#    2.571    4.286    0.000    0.000    0.000    0.000 
#    0.000    0.000    0.000    0.000    0.000    0.000 
#
# Total GULP energy -78345.859964 kJ/mol
# GULP energy per Si atom -5596.132855 kJ/mol
# Density = 2.698010 g / cm^3
# Si number density = 27.041648 Si / 1000 Ang^3
#
#
#
# Elastic Constant Matrix: (Units=GPa)
#
#
# Indices 1 2 3 4 5 6 
#
# 1 72.1075 -10.5084 12.8743 -11.4556 -4.6062 1.0105
# 2 -10.5084 76.1229 10.7293 5.4847 1.3570 4.3693
# 3 12.8743 10.7293 136.9183 -10.7974 15.9024 6.3862
# 4 -11.4556 5.4847 -10.7974 47.2052 -6.9088 5.4616
# 5 -4.6062 1.3570 15.9024 -6.9088 38.3293 -5.4065
# 6 1.0105 4.3693 6.3862 5.4616 -5.4065 23.8949
#
#
#
# Elastic Compliance Matrix: (Units=1/GPa)
#
#
# Indices 1 2 3 4 5 6 
#
# 1 0.015231 0.002060 -0.001620 0.003607 0.002976 -0.000739
# 2 0.002060 0.013804 -0.001246 -0.001184 -0.000228 -0.002059
# 3 -0.001620 -0.001246 0.008247 0.001447 -0.003747 -0.003086
# 4 0.003607 -0.001184 0.001447 0.023602 0.003433 -0.004941
# 5 0.002976 -0.000228 -0.003747 0.003433 0.029592 0.006828
# 6 -0.000739 -0.002059 -0.003086 -0.004941 0.006828 0.045757
#
#
# Mechanical properties :
#
#
# Convention : Reuss Voigt Hill
#
# Bulk Modulus (GPa) = 28.03476 34.59323 31.31400
# Shear Modulus (GPa) = 33.39230 40.02278 36.70754
#
# Velocity S-wave (km/s) = 3.51785 3.85131 3.68835
# Velocity P-wave (km/s) = 5.18557 5.70939 5.45377
#
# Compressibility (1/GPa) = 0.03567000
#
# Stress axis : x y z
#
# Youngs Moduli (GPa) = 65.65440 72.44109 121.25878
#
# Poissons Ratio (x) = -0.14926 0.19648
# Poissons Ratio (y) = -0.13528 0.15113
# Poissons Ratio (z) = 0.10638 0.09029
#
# Static dielectric constant tensor:
#      x y z
#    x 2.278400 0.020460 0.039880 
#    y 0.020460 2.060140 0.038270 
#    z 0.039880 0.038270 2.211340 
# 
# From -- ./inp_files/358118.got.cif
#   From: 2010.05.17/outbox.cif.g08.bks.cpg/sg2_180_cif.got.tgz:358118.got - 2010.06.03 11:33:40.
