data_PCOD9004603
_publ_section_title
;
Structure prediction by ZEFSAII (Michael W. Deem and Ramdas Pophale) SiO2 
 PCOD9004603
Probable space group: P -1
;
_chemical_formula_sum "Si O2"
_cell_formula_units_Z 16
_cell_length_a 9.040374
_cell_length_b 9.773158
_cell_length_c 12.320573
_cell_angle_alpha 109.204111
_cell_angle_beta 133.019411
_cell_angle_gamma 67.211355
_cell_volume 730.359161
_symmetry_space_group_name_H-M "P -1"
_symmetry_group_IT_number 2
_symmetry_cell_setting 'triclinic'
loop_
_space_group_symop_operation_xyz
x,y,z
-x,-y,-z
loop_
_atom_site_type_symbol
_atom_site_label
_atom_site_fract_x
_atom_site_fract_y
_atom_site_fract_z
Si Si1 0.410203 0.898558 0.846905
Si Si2 0.224521 0.628798 0.862756
Si Si3 0.627167 0.188904 0.410389
Si Si4 0.780697 0.631906 0.642568
Si Si5 0.371882 0.303382 0.935222
Si Si6 0.365007 0.529275 0.663918
Si Si7 0.845261 0.422222 0.832766
Si Si8 0.964430 0.871136 0.265089
O O1 0.432518 0.920266 0.736905
O O2 0.165560 0.957484 0.768615
O O3 0.562425 0.743131 0.920036
O O4 0.500000 0.000000 0.000000
O O5 0.273658 0.476642 0.916588
O O6 0.273023 0.570217 0.747925
O O7 0.981943 0.699550 0.770626
O O8 0.395510 0.720336 0.004425
O O9 0.435588 0.254861 0.408733
O O10 0.661203 0.321197 0.382747
O O11 0.838728 0.127589 0.562735
O O12 0.758350 0.567486 0.495416
O O13 0.809677 0.502312 0.716333
O O14 0.206708 0.211971 0.790408
O O15 0.610433 0.446201 0.766356
O O16 0.950392 0.246291 0.820151
O O17 0.000000 0.500000 0.000000
#
# Coordination Sequence:
#
# PCOD9004603 Si02
#       8
#     2   2   2   2   2   2   2   2
#     4  10  23  38  62  88 116 156 206 248 288 350
#     4  11  21  35  62  84 130 157 187 245 300 358
#     4  11  20  39  59  93 118 149 203 252 291 345
#     4  11  22  35  58  91 125 151 191 246 304 353
#     4  10  21  38  54  91 116 155 201 238 292 351
#     4  11  20  36  58  90 122 154 194 245 297 357
#     4  11  21  33  58  93 122 149 195 253 295 339
#     4  11  20  39  62  86 121 154 202 244 292 343
#
# _framework density 21.907029000000001
#
# number of rings (size 3 to 8) (size 9 to 14) (size 15 to 20)
#    0.000    1.250    5.000    2.250    7.000    0.000 
#    0.000    0.000    0.000    7.500    0.000    0.000 
#    0.000    0.000    0.000    0.000    0.000    0.000 
#
# Total GULP energy -89136.961300 kJ/mol
# GULP energy per Si atom -5571.060081 kJ/mol
# Density = 2.185717 g / cm^3
# Si number density = 21.907029 Si / 1000 Ang^3
#
#
#
# Elastic Constant Matrix: (Units=GPa)
#
#
# Indices 1 2 3 4 5 6 
#
# 1 80.9940 15.8437 33.2770 -13.0174 20.0261 -14.7453
# 2 15.8437 37.6648 12.3270 -9.8492 -2.6628 -21.8190
# 3 33.2770 12.3270 127.7940 -11.5312 10.5048 -11.2350
# 4 -13.0174 -9.8492 -11.5312 37.0540 -13.1599 9.6051
# 5 20.0261 -2.6628 10.5048 -13.1599 39.9822 3.0102
# 6 -14.7453 -21.8190 -11.2350 9.6051 3.0102 23.1137
#
#
#
# Elastic Compliance Matrix: (Units=1/GPa)
#
#
# Indices 1 2 3 4 5 6 
#
# 1 0.017858 -0.001666 -0.002928 -0.001012 -0.009375 0.010038
# 2 -0.001666 0.058886 -0.000521 0.001537 0.001375 0.053453
# 3 -0.002928 -0.000521 0.008930 0.000907 -0.000744 0.001701
# 4 -0.001012 0.001537 0.000907 0.036111 0.013424 -0.015508
# 5 -0.009375 0.001375 -0.000744 0.013424 0.035561 -0.015255
# 6 0.010038 0.053453 0.001701 -0.015508 -0.015255 0.109385
#
#
# Mechanical properties :
#
#
# Convention : Reuss Voigt Hill
#
# Bulk Modulus (GPa) = 13.25491 41.03870 27.14680
# Shear Modulus (GPa) = 16.55030 32.36366 24.45698
#
# Velocity S-wave (km/s) = 2.75158 3.84776 3.34488
# Velocity P-wave (km/s) = 4.01977 6.20597 5.22842
#
# Compressibility (1/GPa) = 0.07544376
#
# Stress axis : x y z
#
# Youngs Moduli (GPa) = 55.99629 16.98206 111.97858
#
# Poissons Ratio (x) = 0.02830 0.32783
# Poissons Ratio (y) = 0.09331 0.05837
# Poissons Ratio (z) = 0.16394 0.00885
#
# Static dielectric constant tensor:
#      x y z
#    x 1.845040 0.020350 0.007980 
#    y 0.020350 1.981950 0.070580 
#    z 0.007980 0.070580 1.855650 
# 
# From -- ./inp_files/239318.got.cif
#   From: 2010.05.17/outbox.cif.g08.bks.cpg/sg2_120_cif.got.tgz:239318.got - 2010.06.03 11:33:40.
