data_PCOD9004140
_publ_section_title
;
Structure prediction by ZEFSAII (Michael W. Deem and Ramdas Pophale) SiO2 
 PCOD9004140
Probable space group: P -1
;
_chemical_formula_sum "Si O2"
_cell_formula_units_Z 15
_cell_length_a 13.351838
_cell_length_b 19.356371
_cell_length_c 7.115072
_cell_angle_alpha 56.804218
_cell_angle_beta 129.098709
_cell_angle_gamma 156.998580
_cell_volume 554.311510
_symmetry_space_group_name_H-M "P -1"
_symmetry_group_IT_number 2
_symmetry_cell_setting 'triclinic'
loop_
_space_group_symop_operation_xyz
x,y,z
-x,-y,-z
loop_
_atom_site_type_symbol
_atom_site_label
_atom_site_fract_x
_atom_site_fract_y
_atom_site_fract_z
Si Si1 0.939926 0.591782 0.914427
Si Si2 0.500000 0.500000 0.000000
Si Si3 0.590329 0.735091 0.758679
Si Si4 0.177215 0.223268 0.715347
Si Si5 0.241826 0.885799 0.591121
Si Si6 0.583061 0.267023 0.763192
Si Si7 0.976508 0.867306 0.751115
Si Si8 0.111716 0.766267 0.205607
O O1 0.044342 0.738412 0.739914
O O2 0.676314 0.399740 0.795003
O O3 0.188261 0.672589 0.029013
O O4 0.940383 0.603708 0.121656
O O5 0.434669 0.560806 0.794427
O O6 0.368450 0.398248 0.786977
O O7 0.424961 0.713753 0.495765
O O8 0.865569 0.080625 0.611979
O O9 0.716815 0.799406 0.019767
O O10 0.852576 0.869300 0.728358
O O11 0.181361 0.224796 0.495428
O O12 0.172383 0.795732 0.453971
O O13 0.569712 0.059772 0.757758
O O14 0.295161 0.065697 0.789880
O O15 0.957206 0.768732 0.988673
#
# Coordination Sequence:
#
# PCOD9004140 Si02
#       8
#     2   1   2   2   2   2   2   2
#     4  11  23  44  66  92 129 171 210 267 312 377
#     4   8  20  42  60  94 118 162 208 266 304 356
#     4  10  23  43  62  93 133 164 208 263 312 383
#     4  10  21  37  64  93 125 160 208 264 318 355
#     4  11  20  39  66  96 126 154 216 278 303 370
#     4  11  25  43  63  91 137 171 207 256 326 380
#     4  12  22  41  66  97 125 172 212 256 321 382
#     4  11  22  37  70  99 117 165 223 261 318 366
#
# _framework density 27.060597000000001
#
# number of rings (size 3 to 8) (size 9 to 14) (size 15 to 20)
#    0.800    0.533    4.000    2.400    0.000    1.067 
#    2.400    5.333    0.000    0.000    0.000    0.000 
#    0.000    0.000    0.000    0.000    0.000    0.000 
#
# Total GULP energy -83753.071072 kJ/mol
# GULP energy per Si atom -5583.538071 kJ/mol
# Density = 2.699901 g / cm^3
# Si number density = 27.060597 Si / 1000 Ang^3
#
#
#
# Elastic Constant Matrix: (Units=GPa)
#
#
# Indices 1 2 3 4 5 6 
#
# 1 69.6662 -6.9949 14.6925 25.6297 -8.9748 7.9437
# 2 -6.9949 104.1125 34.0202 29.4091 -14.9867 -17.0786
# 3 14.6925 34.0202 140.9694 27.4713 -14.2916 -10.1242
# 4 25.6297 29.4091 27.4713 48.6025 -9.7272 -10.9721
# 5 -8.9748 -14.9867 -14.2916 -9.7272 64.8026 16.0072
# 6 7.9437 -17.0786 -10.1242 -10.9721 16.0072 23.5366
#
#
#
# Elastic Compliance Matrix: (Units=1/GPa)
#
#
# Indices 1 2 3 4 5 6 
#
# 1 0.024555 0.005083 -0.000876 -0.018300 0.005977 -0.017572
# 2 0.005083 0.013681 -0.001729 -0.009189 0.001588 0.002105
# 3 -0.000876 -0.001729 0.008286 -0.002856 0.000677 0.000814
# 4 -0.018300 -0.009189 -0.002856 0.041151 -0.004118 0.020264
# 5 0.005977 0.001588 0.000677 -0.004118 0.020160 -0.016205
# 6 -0.017572 0.002105 0.000814 0.020264 -0.016205 0.070762
#
#
# Mechanical properties :
#
#
# Convention : Reuss Voigt Hill
#
# Bulk Modulus (GPa) = 19.42515 44.24262 31.83389
# Shear Modulus (GPa) = 26.20578 45.59036 35.89807
#
# Velocity S-wave (km/s) = 3.11531 4.10902 3.64618
# Velocity P-wave (km/s) = 4.48711 6.23675 5.43283
#
# Compressibility (1/GPa) = 0.05147965
#
# Stress axis : x y z
#
# Youngs Moduli (GPa) = 40.72416 73.09562 120.68755
#
# Poissons Ratio (x) = -0.37156 0.10570
# Poissons Ratio (y) = -0.20701 0.20862
# Poissons Ratio (z) = 0.03567 0.12635
#
# Static dielectric constant tensor:
#      x y z
#    x 2.205720 0.196030 0.009080 
#    y 0.196030 2.258450 -0.025340 
#    z 0.009080 -0.025340 2.058150 
# 
# From -- ./inp_files/316439.got.cif
#   From: 2010.05.17/outbox.cif.g08.bks.cpg/sg2_159_cif.got.tgz:316439.got - 2010.06.03 11:33:40.
