data_PCOD9004730
_publ_section_title
;
Structure prediction by ZEFSAII (Michael W. Deem and Ramdas Pophale) SiO2 
 PCOD9004730
Probable space group: P -1
;
_chemical_formula_sum "Si O2"
_cell_formula_units_Z 16
_cell_length_a 6.233551
_cell_length_b 21.970830
_cell_length_c 11.971311
_cell_angle_alpha 142.922349
_cell_angle_beta 84.725127
_cell_angle_gamma 114.008345
_cell_volume 818.419165
_symmetry_space_group_name_H-M "P -1"
_symmetry_group_IT_number 2
_symmetry_cell_setting 'triclinic'
loop_
_space_group_symop_operation_xyz
x,y,z
-x,-y,-z
loop_
_atom_site_type_symbol
_atom_site_label
_atom_site_fract_x
_atom_site_fract_y
_atom_site_fract_z
Si Si1 0.837070 0.468857 0.848390
Si Si2 0.581186 0.911307 0.412081
Si Si3 0.949080 0.873785 0.185494
Si Si4 0.917914 0.835830 0.872242
Si Si5 0.757308 0.747052 0.408024
Si Si6 0.344417 0.103445 0.208847
Si Si7 0.006814 0.731267 0.164838
Si Si8 0.944187 0.295990 0.485708
O O1 0.541748 0.363016 0.735777
O O2 0.937440 0.414643 0.672112
O O3 0.000000 0.500000 0.000000
O O4 0.859985 0.587618 0.974237
O O5 0.730379 0.883837 0.272439
O O6 0.304437 0.790347 0.275198
O O7 0.500000 0.000000 0.500000
O O8 0.785412 0.992343 0.617519
O O9 0.990892 0.781807 0.120123
O O10 0.884365 0.832330 0.000723
O O11 0.715296 0.854205 0.842470
O O12 0.919154 0.724976 0.655063
O O13 0.195365 0.959600 0.011135
O O14 0.785215 0.858581 0.635747
O O15 0.874424 0.775064 0.320819
O O16 0.916418 0.708014 0.416020
O O17 0.646913 0.182323 0.333451
#
# Coordination Sequence:
#
# PCOD9004730 Si02
#       8
#     2   2   2   2   2   2   2   2
#     4  11  23  38  62  92 118 155 197 258 300 352
#     4   9  22  39  56  91 119 161 195 239 292 359
#     4  10  23  38  59  85 128 159 197 245 288 363
#     4  10  21  38  58  85 119 161 200 240 297 352
#     4  10  22  36  60  94 119 148 196 251 307 359
#     4   9  21  36  59  88 117 155 197 247 297 356
#     4  11  23  37  60  91 122 157 198 242 310 353
#     4  10  21  39  59  86 120 153 199 254 294 353
#
# _framework density 19.549885
#
# number of rings (size 3 to 8) (size 9 to 14) (size 15 to 20)
#    0.000    2.000    1.250    0.750    8.750    2.000 
#    0.000    0.625    0.000    7.500    0.000    0.000 
#    0.000    0.000    0.000    0.000    0.000    0.000 
#
# Total GULP energy -89332.756327 kJ/mol
# GULP energy per Si atom -5583.297270 kJ/mol
# Density = 1.950539 g / cm^3
# Si number density = 19.549885 Si / 1000 Ang^3
#
#
#
# Elastic Constant Matrix: (Units=GPa)
#
#
# Indices 1 2 3 4 5 6 
#
# 1 69.8729 25.4371 29.1620 -7.3757 4.9916 -4.6896
# 2 25.4371 84.2835 36.8625 -27.3000 0.2338 -13.0575
# 3 29.1620 36.8625 89.6129 -15.6121 -5.8189 -4.9794
# 4 -7.3757 -27.3000 -15.6121 29.0814 0.2570 0.8840
# 5 4.9916 0.2338 -5.8189 0.2570 40.0828 1.0515
# 6 -4.6896 -13.0575 -4.9794 0.8840 1.0515 22.4479
#
#
#
# Elastic Compliance Matrix: (Units=1/GPa)
#
#
# Indices 1 2 3 4 5 6 
#
# 1 0.017682 -0.003645 -0.004649 -0.001430 -0.002866 0.000733
# 2 -0.003645 0.022034 -0.004362 0.017107 -0.000692 0.010446
# 3 -0.004649 -0.004362 0.015119 0.002830 0.002792 -0.000397
# 4 -0.001430 0.017107 0.002830 0.051351 -0.000057 0.008260
# 5 -0.002866 -0.000692 0.002792 -0.000057 0.025757 -0.001586
# 6 0.000733 0.010446 -0.000397 0.008260 -0.001586 0.050438
#
#
# Mechanical properties :
#
#
# Convention : Reuss Voigt Hill
#
# Bulk Modulus (GPa) = 33.87216 47.41027 40.64122
# Shear Modulus (GPa) = 22.98513 28.47625 25.73069
#
# Velocity S-wave (km/s) = 3.43259 3.82068 3.63182
# Velocity P-wave (km/s) = 5.75099 6.61566 6.19842
#
# Compressibility (1/GPa) = 0.02952277
#
# Stress axis : x y z
#
# Youngs Moduli (GPa) = 56.55490 45.38523 66.14402
#
# Poissons Ratio (x) = 0.16541 0.30752
# Poissons Ratio (y) = 0.20612 0.28850
# Poissons Ratio (z) = 0.26294 0.19796
#
# Static dielectric constant tensor:
#      x y z
#    x 1.716110 -0.002320 -0.004160 
#    y -0.002320 1.669770 0.006380 
#    z -0.004160 0.006380 1.692800 
# 
# From -- ./inp_files/71988.got.cif
#   From: 2010.05.17/outbox.cif.g08.bks.cpg/sg2_36_cif.got.tgz:71988.got - 2010.06.03 11:33:40.
