data_PCOD9004561
_publ_section_title
;
Structure prediction by ZEFSAII (Michael W. Deem and Ramdas Pophale) SiO2 
 PCOD9004561
Probable space group: P -1
;
_chemical_formula_sum "Si O2"
_cell_formula_units_Z 14
_cell_length_a 8.483822
_cell_length_b 11.007165
_cell_length_c 12.096901
_cell_angle_alpha 94.091577
_cell_angle_beta 46.323402
_cell_angle_gamma 59.664379
_cell_volume 521.517812
_symmetry_space_group_name_H-M "P -1"
_symmetry_group_IT_number 2
_symmetry_cell_setting 'triclinic'
loop_
_space_group_symop_operation_xyz
x,y,z
-x,-y,-z
loop_
_atom_site_type_symbol
_atom_site_label
_atom_site_fract_x
_atom_site_fract_y
_atom_site_fract_z
Si Si1 0.378419 0.813847 0.928171
Si Si2 0.815495 0.625433 0.276491
Si Si3 0.136670 0.755054 0.863133
Si Si4 0.861786 0.279278 0.794433
Si Si5 0.997911 0.142776 0.472472
Si Si6 0.904758 0.376998 0.354597
Si Si7 0.323597 0.248020 0.873929
O O1 0.729106 0.723000 0.794064
O O2 0.419047 0.698874 0.800236
O O3 0.175792 0.828563 0.124328
O O4 0.135181 0.023387 0.015229
O O5 0.587752 0.722596 0.282590
O O6 0.859181 0.743300 0.302669
O O7 0.707907 0.586305 0.427853
O O8 0.166993 0.413696 0.044455
O O9 0.143099 0.678997 0.739067
O O10 0.978034 0.714722 0.011558
O O11 0.936827 0.227412 0.626822
O O12 0.500000 0.500000 0.000000
O O13 0.823619 0.311818 0.483005
O O14 0.391451 0.962159 0.227652
O O15 0.000000 0.000000 0.500000
#
# Coordination Sequence:
#
# PCOD9004561 Si02
#       7
#     2   2   2   2   2   2   2
#     4  11  21  39  69 104 136 184 236 283 345 423
#     4  10  22  40  69 101 142 182 228 281 362 410
#     4  10  21  37  70 103 137 181 240 282 345 418
#     4  12  24  42  68 100 139 184 234 286 349 421
#     4  12  27  44  69 102 140 187 238 290 350 414
#     4  11  23  43  71 101 139 186 229 292 350 416
#     4  10  21  43  68 103 140 184 235 286 344 424
#
# _framework density 26.844721
#
# number of rings (size 3 to 8) (size 9 to 14) (size 15 to 20)
#    0.000    1.143    4.286    2.143    4.000    1.143 
#    0.000    2.143    0.000    0.000    0.000    0.000 
#    0.000    0.000    0.000    0.000    0.000    0.000 
#
# Total GULP energy -78137.919219 kJ/mol
# GULP energy per Si atom -5581.279944 kJ/mol
# Density = 2.678362 g / cm^3
# Si number density = 26.844721 Si / 1000 Ang^3
#
#
#
# Elastic Constant Matrix: (Units=GPa)
#
#
# Indices 1 2 3 4 5 6 
#
# 1 139.6442 64.0777 34.2110 -40.5175 8.9453 7.7997
# 2 64.0777 169.0671 47.9402 -44.8821 4.4811 7.9059
# 3 34.2110 47.9402 49.3478 -30.1628 17.0661 3.3545
# 4 -40.5175 -44.8821 -30.1628 70.1807 -3.7439 -6.9207
# 5 8.9453 4.4811 17.0661 -3.7439 53.5705 -11.1345
# 6 7.7997 7.9059 3.3545 -6.9207 -11.1345 44.7885
#
#
#
# Elastic Compliance Matrix: (Units=1/GPa)
#
#
# Indices 1 2 3 4 5 6 
#
# 1 0.009721 -0.002086 -0.002592 0.003055 -0.000576 -0.000802
# 2 -0.002086 0.009097 -0.007030 0.001699 0.001952 0.000032
# 3 -0.002592 -0.007030 0.039014 0.009931 -0.011231 -0.002487
# 4 0.003055 0.001699 0.009931 0.021376 -0.002070 0.001213
# 5 -0.000576 0.001952 -0.011231 -0.002070 0.023294 0.006068
# 6 -0.000802 0.000032 -0.002487 0.001213 0.006068 0.024343
#
#
# Mechanical properties :
#
#
# Convention : Reuss Voigt Hill
#
# Bulk Modulus (GPa) = 29.05644 72.27965 50.66805
# Shear Modulus (GPa) = 30.91510 47.82994 39.37252
#
# Velocity S-wave (km/s) = 3.39724 4.22563 3.83388
# Velocity P-wave (km/s) = 5.12208 7.12681 6.20593
#
# Compressibility (1/GPa) = 0.03441577
#
# Stress axis : x y z
#
# Youngs Moduli (GPa) = 102.86852 109.93230 25.63192
#
# Poissons Ratio (x) = 0.22928 0.06645
# Poissons Ratio (y) = 0.21455 0.18019
# Poissons Ratio (z) = 0.26668 0.77280
#
# Static dielectric constant tensor:
#      x y z
#    x 2.173940 0.023030 -0.163650 
#    y 0.023030 1.942940 -0.116430 
#    z -0.163650 -0.116430 2.161650 
# 
# From -- ./inp_files/392547.got.cif
#   From: 2010.05.17/outbox.cif.g08.bks.cpg/sg2_197_cif.got.tgz:392547.got - 2010.06.03 11:33:40.
