data_PCOD9004218
_publ_section_title
;
Structure prediction by ZEFSAII (Michael W. Deem and Ramdas Pophale) SiO2 
 PCOD9004218
Probable space group: P -1
;
_chemical_formula_sum "Si O2"
_cell_formula_units_Z 15
_cell_length_a 10.714705
_cell_length_b 10.383616
_cell_length_c 8.521527
_cell_angle_alpha 57.794730
_cell_angle_beta 66.166852
_cell_angle_gamma 57.490727
_cell_volume 667.253142
_symmetry_space_group_name_H-M "P -1"
_symmetry_group_IT_number 2
_symmetry_cell_setting 'triclinic'
loop_
_space_group_symop_operation_xyz
x,y,z
-x,-y,-z
loop_
_atom_site_type_symbol
_atom_site_label
_atom_site_fract_x
_atom_site_fract_y
_atom_site_fract_z
Si Si1 0.720433 0.847599 0.949480
Si Si2 0.446856 0.788282 0.679479
Si Si3 0.943763 0.354914 0.431663
Si Si4 0.538416 0.952124 0.266249
Si Si5 0.112929 0.934104 0.220020
Si Si6 0.794237 0.562541 0.680451
Si Si7 0.830262 0.244425 0.030115
Si Si8 0.000000 0.500000 0.000000
O O1 0.579527 0.898126 0.874158
O O2 0.766188 0.003456 0.821404
O O3 0.668533 0.839544 0.158093
O O4 0.858945 0.682510 0.940554
O O5 0.460194 0.846939 0.459461
O O6 0.616314 0.660355 0.719461
O O7 0.324277 0.719072 0.826877
O O8 0.401466 0.958536 0.692883
O O9 0.112642 0.326676 0.415634
O O10 0.924795 0.183622 0.565998
O O11 0.840539 0.476094 0.543026
O O12 0.913065 0.442046 0.223613
O O13 0.168949 0.830971 0.095260
O O14 0.966721 0.101841 0.142824
O O15 0.854482 0.413818 0.878554
#
# Coordination Sequence:
#
# PCOD9004218 Si02
#       8
#     2   2   2   2   2   2   2   1
#     4  11  23  45  62  93 125 173 203 269 306 384
#     4  11  21  38  66  95 122 166 209 262 301 387
#     4  10  23  40  62  94 124 169 203 264 307 379
#     4  10  24  39  67  91 129 162 216 251 324 365
#     4  10  22  40  64  89 131 161 214 252 319 367
#     4  10  21  40  65  92 129 158 211 256 320 359
#     4  10  21  37  64  99 122 165 204 266 305 375
#     4  12  24  38  64  88 126 160 216 246 322 356
#
# _framework density 22.480224
#
# number of rings (size 3 to 8) (size 9 to 14) (size 15 to 20)
#    0.000    1.600    1.333    2.800    5.600    2.667 
#    2.400    0.000    0.000    3.200    0.000    0.000 
#    0.000    0.000    0.000    0.000    0.000    0.000 
#
# Total GULP energy -83692.253900 kJ/mol
# GULP energy per Si atom -5579.483593 kJ/mol
# Density = 2.242906 g / cm^3
# Si number density = 22.480224 Si / 1000 Ang^3
#
#
#
# Elastic Constant Matrix: (Units=GPa)
#
#
# Indices 1 2 3 4 5 6 
#
# 1 37.4237 11.7307 11.5159 7.5674 -20.2210 -0.4735
# 2 11.7307 87.9177 26.3113 14.8663 -7.7317 -10.0748
# 3 11.5159 26.3113 151.4124 -1.6258 -22.9614 10.2192
# 4 7.5674 14.8663 -1.6258 27.8861 -9.8502 -6.3771
# 5 -20.2210 -7.7317 -22.9614 -9.8502 30.6994 4.2128
# 6 -0.4735 -10.0748 10.2192 -6.3771 4.2128 24.9414
#
#
#
# Elastic Compliance Matrix: (Units=1/GPa)
#
#
# Indices 1 2 3 4 5 6 
#
# 1 0.043907 -0.004787 0.002644 -0.000057 0.030687 -0.007381
# 2 -0.004787 0.014491 -0.003438 -0.007030 -0.005188 0.006250
# 3 0.002644 -0.003438 0.008853 0.003685 0.009450 -0.005620
# 4 -0.000057 -0.007030 0.003685 0.046311 0.015130 0.004935
# 5 0.030687 -0.005188 0.009450 0.015130 0.065120 -0.012516
# 6 -0.007381 0.006250 -0.005620 0.004935 -0.012516 0.048157
#
#
# Mechanical properties :
#
#
# Convention : Reuss Voigt Hill
#
# Bulk Modulus (GPa) = 17.82936 41.76332 29.79634
# Shear Modulus (GPa) = 19.47815 31.85177 25.66496
#
# Velocity S-wave (km/s) = 2.94676 3.76823 3.38252
# Velocity P-wave (km/s) = 4.41884 6.12788 5.34215
#
# Compressibility (1/GPa) = 0.05608727
#
# Stress axis : x y z
#
# Youngs Moduli (GPa) = 22.77535 69.01043 112.95796
#
# Poissons Ratio (x) = 0.33036 -0.29861
# Poissons Ratio (y) = 0.10903 0.38836
# Poissons Ratio (z) = -0.06021 0.23727
#
# Static dielectric constant tensor:
#      x y z
#    x 1.896550 0.059130 0.069450 
#    y 0.059130 1.820000 0.042370 
#    z 0.069450 0.042370 1.864970 
# 
# From -- ./inp_files/172303.got.cif
#   From: 2010.05.17/outbox.cif.g08.bks.cpg/sg2_87_cif.got.tgz:172303.got - 2010.06.03 11:33:40.
