data_PCOD9004109
_publ_section_title
;
Structure prediction by ZEFSAII (Michael W. Deem and Ramdas Pophale) SiO2 
 PCOD9004109
Probable space group: P -1
;
_chemical_formula_sum "Si O2"
_cell_formula_units_Z 16
_cell_length_a 12.244156
_cell_length_b 8.044918
_cell_length_c 8.287973
_cell_angle_alpha 84.264379
_cell_angle_beta 119.229604
_cell_angle_gamma 93.764202
_cell_volume 708.740599
_symmetry_space_group_name_H-M "P -1"
_symmetry_group_IT_number 2
_symmetry_cell_setting 'triclinic'
loop_
_space_group_symop_operation_xyz
x,y,z
-x,-y,-z
loop_
_atom_site_type_symbol
_atom_site_label
_atom_site_fract_x
_atom_site_fract_y
_atom_site_fract_z
Si Si1 0.123272 0.098060 0.373969
Si Si2 0.463689 0.159086 0.234737
Si Si3 0.760436 0.707484 0.125762
Si Si4 0.589968 0.812142 0.424467
Si Si5 0.627753 0.485342 0.323049
Si Si6 0.131557 0.577274 0.309258
Si Si7 0.069463 0.289037 0.044436
Si Si8 0.983701 0.227827 0.537714
O O1 0.261174 0.171126 0.502079
O O2 0.104440 0.115753 0.167563
O O3 0.009264 0.190360 0.374444
O O4 0.111889 0.911282 0.449451
O O5 0.428677 0.188945 0.395540
O O6 0.551962 0.318468 0.238187
O O7 0.525815 0.977772 0.293347
O O8 0.346000 0.172878 0.029392
O O9 0.700778 0.567634 0.214528
O O10 0.876797 0.798481 0.289281
O O11 0.831325 0.644475 0.022914
O O12 0.549192 0.637970 0.327436
O O13 0.724354 0.431742 0.539476
O O14 0.088694 0.415241 0.194795
O O15 0.066042 0.605098 0.432566
O O16 0.066856 0.712839 0.134102
#
# Coordination Sequence:
#
# PCOD9004109 Si02
#       8
#     2   2   2   2   2   2   2   2
#     4  11  20  43  62  94 132 168 208 273 326 389
#     4  11  25  43  70  95 124 178 227 264 331 379
#     4  11  22  42  63  96 132 172 214 277 314 386
#     4  11  23  45  68  93 132 169 220 284 312 388
#     4  12  23  43  69  93 136 175 217 269 326 385
#     4  10  21  38  60  97 122 168 208 256 326 387
#     4  10  21  37  64  90 135 163 209 267 319 392
#     4  10  23  37  69  93 130 171 209 263 339 388
#
# _framework density 22.575254000000001
#
# number of rings (size 3 to 8) (size 9 to 14) (size 15 to 20)
#    0.000    1.250    3.750    1.500    0.000    8.000 
#    4.500    0.000    2.750    0.000    0.000    0.000 
#    0.000    0.000    0.000    0.000    0.000    0.000 
#
# Total GULP energy -89229.754028 kJ/mol
# GULP energy per Si atom -5576.859627 kJ/mol
# Density = 2.252387 g / cm^3
# Si number density = 22.575254 Si / 1000 Ang^3
#
#
#
# Elastic Constant Matrix: (Units=GPa)
#
#
# Indices 1 2 3 4 5 6 
#
# 1 61.5436 29.8837 7.9120 -8.5698 -12.3145 -8.1557
# 2 29.8837 55.9602 7.9302 -0.4469 2.8920 -3.5851
# 3 7.9120 7.9302 42.3408 -16.2846 17.6744 2.0986
# 4 -8.5698 -0.4469 -16.2846 29.1090 -5.2030 -5.2261
# 5 -12.3145 2.8920 17.6744 -5.2030 40.5846 -3.2585
# 6 -8.1557 -3.5851 2.0986 -5.2261 -3.2585 35.6560
#
#
#
# Elastic Compliance Matrix: (Units=1/GPa)
#
#
# Indices 1 2 3 4 5 6 
#
# 1 0.029584 -0.015165 -0.005417 0.009484 0.014295 0.008257
# 2 -0.015165 0.026360 -0.001720 -0.006646 -0.006768 -0.002310
# 3 -0.005417 -0.001720 0.038157 0.016324 -0.016266 -0.002752
# 4 0.009484 -0.006646 0.016324 0.048134 0.003045 0.007874
# 5 0.014295 -0.006768 -0.016266 0.003045 0.037530 0.007423
# 6 0.008257 -0.002310 -0.002752 0.007874 0.007423 0.031697
#
#
# Mechanical properties :
#
#
# Convention : Reuss Voigt Hill
#
# Bulk Modulus (GPa) = 20.20259 27.92183 24.06221
# Shear Modulus (GPa) = 18.34434 28.67782 23.51108
#
# Velocity S-wave (km/s) = 2.85368 3.56802 3.23066
# Velocity P-wave (km/s) = 4.45269 5.41937 4.95964
#
# Compressibility (1/GPa) = 0.04949861
#
# Stress axis : x y z
#
# Youngs Moduli (GPa) = 33.80238 37.93556 26.20751
#
# Poissons Ratio (x) = 0.57528 0.14196
# Poissons Ratio (y) = 0.51260 0.04507
# Poissons Ratio (z) = 0.18310 0.06525
#
# Static dielectric constant tensor:
#      x y z
#    x 1.862860 -0.043500 -0.031730 
#    y -0.043500 1.895030 -0.012420 
#    z -0.031730 -0.012420 1.854820 
# 
# From -- ./inp_files/238729.got.cif
#   From: 2010.05.17/outbox.cif.g08.bks.cpg/sg2_120_cif.got.tgz:238729.got - 2010.06.03 11:33:40.
