data_PCOD9004747
_publ_section_title
;
Structure prediction by ZEFSAII (Michael W. Deem and Ramdas Pophale) SiO2 
 PCOD9004747
Probable space group: P -1
;
_chemical_formula_sum "Si O2"
_cell_formula_units_Z 16
_cell_length_a 14.294615
_cell_length_b 9.987820
_cell_length_c 12.482036
_cell_angle_alpha 85.372045
_cell_angle_beta 29.507582
_cell_angle_gamma 67.481020
_cell_volume 674.349602
_symmetry_space_group_name_H-M "P -1"
_symmetry_group_IT_number 2
_symmetry_cell_setting 'triclinic'
loop_
_space_group_symop_operation_xyz
x,y,z
-x,-y,-z
loop_
_atom_site_type_symbol
_atom_site_label
_atom_site_fract_x
_atom_site_fract_y
_atom_site_fract_z
Si Si1 0.687997 0.376005 0.414502
Si Si2 0.736689 0.479734 0.020919
Si Si3 0.896095 0.738987 0.135680
Si Si4 0.672534 0.830177 0.065366
Si Si5 0.593883 0.119154 0.468703
Si Si6 0.650447 0.099163 0.797007
Si Si7 0.932798 0.210217 0.447652
Si Si8 0.762078 0.513620 0.750572
O O1 0.500000 0.500000 0.500000
O O2 0.709238 0.205457 0.387820
O O3 0.521664 0.466416 0.681496
O O4 0.928399 0.349019 0.137725
O O5 0.776818 0.435334 0.857836
O O6 0.947430 0.347361 0.905707
O O7 0.729722 0.645492 0.020777
O O8 0.657019 0.751486 0.359339
O O9 0.788865 0.937866 0.228561
O O10 0.508491 0.923530 0.326809
O O11 0.507824 0.927459 0.117151
O O12 0.919622 0.802110 0.800341
O O13 0.777671 0.147367 0.585816
O O14 0.469660 0.279446 0.032542
O O15 0.862163 0.931557 0.662122
O O16 0.778471 0.395122 0.649571
O O17 0.000000 0.500000 0.500000
#
# Coordination Sequence:
#
# PCOD9004747 Si02
#       8
#     2   2   2   2   2   2   2   2
#     4   9  19  37  59  79 115 151 192 240 290 341
#     4   9  20  36  59  89 111 157 200 233 296 352
#     4  10  21  39  59  86 121 148 197 245 295 357
#     4  10  21  38  58  88 118 156 196 242 297 354
#     4  10  22  36  61  89 116 153 192 245 297 352
#     4  10  23  39  59  90 119 161 208 241 296 360
#     4  11  22  40  64  85 126 164 193 253 300 346
#     4  11  21  38  65  89 124 161 199 245 300 354
#
# _framework density 23.726565999999998
#
# number of rings (size 3 to 8) (size 9 to 14) (size 15 to 20)
#    0.000    2.000    2.500    1.125    1.750    7.500 
#    0.000    2.500    5.500    0.000    0.000    0.000 
#    0.000    0.000    0.000    0.000    0.000    0.000 
#
# Total GULP energy -89382.877823 kJ/mol
# GULP energy per Si atom -5586.429864 kJ/mol
# Density = 2.367256 g / cm^3
# Si number density = 23.726566 Si / 1000 Ang^3
#
#
#
# Elastic Constant Matrix: (Units=GPa)
#
#
# Indices 1 2 3 4 5 6 
#
# 1 69.8283 15.0110 7.3273 8.5453 6.0111 -15.0429
# 2 15.0110 48.9799 18.2264 5.9184 5.9563 -13.8819
# 3 7.3273 18.2264 106.4904 -9.1397 -0.5538 -9.9573
# 4 8.5453 5.9184 -9.1397 42.0006 -4.4361 -7.8987
# 5 6.0111 5.9563 -0.5538 -4.4361 38.6309 -8.1860
# 6 -15.0429 -13.8819 -9.9573 -7.8987 -8.1860 35.3799
#
#
#
# Elastic Compliance Matrix: (Units=1/GPa)
#
#
# Indices 1 2 3 4 5 6 
#
# 1 0.016460 -0.003108 -0.000339 -0.002203 -0.001304 0.004890
# 2 -0.003108 0.025194 -0.003761 -0.002807 -0.002439 0.006314
# 3 -0.000339 -0.003761 0.010614 0.003575 0.001740 0.002568
# 4 -0.002203 -0.002807 0.003575 0.027163 0.005271 0.006252
# 5 -0.001304 -0.002439 0.001740 0.005271 0.028527 0.006755
# 6 0.004890 0.006314 0.002568 0.006252 0.006755 0.036503
#
#
# Mechanical properties :
#
#
# Convention : Reuss Voigt Hill
#
# Bulk Modulus (GPa) = 26.41940 34.04756 30.23348
# Shear Modulus (GPa) = 29.15560 35.51789 32.33675
#
# Velocity S-wave (km/s) = 3.50925 3.87326 3.69574
# Velocity P-wave (km/s) = 5.25156 5.86379 5.56610
#
# Compressibility (1/GPa) = 0.03785098
#
# Stress axis : x y z
#
# Youngs Moduli (GPa) = 60.75430 39.69206 94.21850
#
# Poissons Ratio (x) = 0.12334 0.03196
# Poissons Ratio (y) = 0.18880 0.35439
# Poissons Ratio (z) = 0.02061 0.14930
#
# Static dielectric constant tensor:
#      x y z
#    x 1.968060 -0.047000 -0.023510 
#    y -0.047000 1.889990 -0.004940 
#    z -0.023510 -0.004940 1.954880 
# 
# From -- ./inp_files/259251.got.cif
#   From: 2010.05.17/outbox.cif.g08.bks.cpg/sg2_130_cif.got.tgz:259251.got - 2010.06.03 11:33:40.
