data_PCOD9004608
_publ_section_title
;
Structure prediction by ZEFSAII (Michael W. Deem and Ramdas Pophale) SiO2 
 PCOD9004608
Probable space group: P -1
;
_chemical_formula_sum "Si O2"
_cell_formula_units_Z 16
_cell_length_a 12.551864
_cell_length_b 5.282551
_cell_length_c 11.721907
_cell_angle_alpha 92.785354
_cell_angle_beta 107.798968
_cell_angle_gamma 74.377612
_cell_volume 712.208167
_symmetry_space_group_name_H-M "P -1"
_symmetry_group_IT_number 2
_symmetry_cell_setting 'triclinic'
loop_
_space_group_symop_operation_xyz
x,y,z
-x,-y,-z
loop_
_atom_site_type_symbol
_atom_site_label
_atom_site_fract_x
_atom_site_fract_y
_atom_site_fract_z
Si Si1 0.124853 0.795134 0.064857
Si Si2 0.807614 0.377261 0.588962
Si Si3 0.389148 0.793974 0.364055
Si Si4 0.871963 0.359946 0.185419
Si Si5 0.252032 0.813737 0.651789
Si Si6 0.940634 0.711621 0.389237
Si Si7 0.503234 0.218925 0.347731
Si Si8 0.863049 0.727214 0.789752
O O1 0.172468 0.661516 0.957033
O O2 0.185047 0.008070 0.145233
O O3 0.115881 0.545489 0.133942
O O4 0.000000 0.000000 0.000000
O O5 0.736660 0.211195 0.630913
O O6 0.752604 0.416189 0.445159
O O7 0.794774 0.648600 0.658419
O O8 0.944486 0.237803 0.626816
O O9 0.434730 0.518038 0.307068
O O10 0.457954 0.780865 0.506938
O O11 0.424026 0.019876 0.309692
O O12 0.800272 0.226392 0.244480
O O13 0.870196 0.622829 0.261448
O O14 0.012212 0.252751 0.216784
O O15 0.378409 0.856737 0.687730
O O16 0.151266 0.054883 0.575087
O O17 0.000000 0.500000 0.500000
#
# Coordination Sequence:
#
# PCOD9004608 Si02
#       8
#     2   2   2   2   2   2   2   2
#     4  10  21  38  55  78 112 158 203 238 273 334
#     4  10  22  37  56  86 121 155 192 234 298 355
#     4   9  19  37  55  79 107 156 191 245 277 333
#     4  10  22  35  56  80 116 157 193 237 284 347
#     4  11  23  35  57  87 122 159 187 238 295 359
#     4  11  23  34  52  88 127 159 182 224 298 371
#     4   9  20  36  56  78 113 146 203 235 282 332
#     4  10  23  36  57  82 115 156 196 238 284 343
#
# _framework density 22.465340000000001
#
# number of rings (size 3 to 8) (size 9 to 14) (size 15 to 20)
#    0.000    2.000    1.250    1.875   10.500    5.000 
#    0.000    0.000    0.000    0.000    0.000    5.250 
#    0.000    0.000    0.000    0.000    0.000    0.000 
#
# Total GULP energy -89213.578720 kJ/mol
# GULP energy per Si atom -5575.848670 kJ/mol
# Density = 2.241421 g / cm^3
# Si number density = 22.465340 Si / 1000 Ang^3
#
#
#
# Elastic Constant Matrix: (Units=GPa)
#
#
# Indices 1 2 3 4 5 6 
#
# 1 166.3200 74.1103 25.5128 3.3347 -32.2287 25.7997
# 2 74.1103 128.2771 42.8969 9.4590 -16.4483 26.7296
# 3 25.5128 42.8969 122.5499 17.2355 -16.3098 18.3947
# 4 3.3347 9.4590 17.2355 33.6297 10.5543 4.9188
# 5 -32.2287 -16.4483 -16.3098 10.5543 28.9077 0.3964
# 6 25.7997 26.7296 18.3947 4.9188 0.3964 31.7166
#
#
#
# Elastic Compliance Matrix: (Units=1/GPa)
#
#
# Indices 1 2 3 4 5 6 
#
# 1 0.010989 -0.003749 0.002400 -0.004429 0.013181 -0.006649
# 2 -0.003749 0.012336 -0.002047 -0.001967 0.002483 -0.005885
# 3 0.002400 -0.002047 0.012010 -0.008543 0.011488 -0.006011
# 4 -0.004429 -0.001967 -0.008543 0.042881 -0.026587 0.003898
# 5 0.013181 0.002483 0.011488 -0.026587 0.067112 -0.016193
# 6 -0.006649 -0.005885 -0.006011 0.003898 -0.016193 0.044982
#
#
# Mechanical properties :
#
#
# Convention : Reuss Voigt Hill
#
# Bulk Modulus (GPa) = 35.03605 78.02077 56.52841
# Shear Modulus (GPa) = 24.19947 37.15926 30.67936
#
# Velocity S-wave (km/s) = 3.28562 4.07144 3.69945
# Velocity P-wave (km/s) = 5.47934 7.54367 6.59280
#
# Compressibility (1/GPa) = 0.02854203
#
# Stress axis : x y z
#
# Youngs Moduli (GPa) = 90.99742 81.06319 83.26678
#
# Poissons Ratio (x) = 0.30392 -0.19982
# Poissons Ratio (y) = 0.34117 0.17044
# Poissons Ratio (z) = -0.21837 0.16593
#
# Static dielectric constant tensor:
#      x y z
#    x 1.866660 -0.018780 0.051020 
#    y -0.018780 1.992110 -0.013330 
#    z 0.051020 -0.013330 1.924990 
# 
# From -- ./inp_files/410815.got.cif
#   From: 2010.05.17/outbox.cif.g08.bks.cpg/sg2_206_cif.got.tgz:410815.got - 2010.06.03 11:33:40.
