data_PCOD9004081
_publ_section_title
;
Structure prediction by ZEFSAII (Michael W. Deem and Ramdas Pophale) SiO2 
 PCOD9004081
Probable space group: P -1
;
_chemical_formula_sum "Si O2"
_cell_formula_units_Z 16
_cell_length_a 21.053579
_cell_length_b 10.922619
_cell_length_c 13.418027
_cell_angle_alpha 147.343473
_cell_angle_beta 38.912599
_cell_angle_gamma 117.534390
_cell_volume 860.115090
_symmetry_space_group_name_H-M "P -1"
_symmetry_group_IT_number 2
_symmetry_cell_setting 'triclinic'
loop_
_space_group_symop_operation_xyz
x,y,z
-x,-y,-z
loop_
_atom_site_type_symbol
_atom_site_label
_atom_site_fract_x
_atom_site_fract_y
_atom_site_fract_z
Si Si1 0.706962 0.021737 0.664624
Si Si2 0.909632 0.197558 0.158809
Si Si3 0.494435 0.359131 0.008255
Si Si4 0.630444 0.259667 0.130540
Si Si5 0.220341 0.598672 0.838913
Si Si6 0.689635 0.804917 0.904199
Si Si7 0.290105 0.810300 0.712552
Si Si8 0.019116 0.224700 0.835209
O O1 0.740772 0.712713 0.419875
O O2 0.834985 0.995624 0.494339
O O3 0.627349 0.159907 0.758352
O O4 0.626470 0.198736 0.978902
O O5 0.807993 0.495819 0.533425
O O6 0.832521 0.085186 0.129750
O O7 0.973094 0.243454 0.018076
O O8 0.000000 0.000000 0.000000
O O9 0.429694 0.202464 0.955302
O O10 0.405542 0.599309 0.359606
O O11 0.500000 0.500000 0.000000
O O12 0.500000 0.500000 0.500000
O O13 0.727627 0.336106 0.085047
O O14 0.678099 0.982842 0.944500
O O15 0.283124 0.641372 0.696991
O O16 0.074184 0.804342 0.138276
O O17 0.701069 0.954225 0.087620
O O18 0.000000 0.500000 0.000000
#
# Coordination Sequence:
#
# PCOD9004081 Si02
#       8
#     2   2   2   2   2   2   2   2
#     4  11  21  35  58  84 119 151 190 241 298 347
#     4  10  21  37  64  86 115 159 207 241 291 362
#     4  11  24  37  56  81 117 160 197 240 296 346
#     4  11  21  35  63  91 116 149 196 240 298 360
#     4   9  19  37  59  88 114 146 190 240 297 355
#     4  10  21  39  61  83 116 151 193 250 295 344
#     4   9  20  39  60  85 113 149 198 243 292 353
#     4   9  19  36  58  85 119 152 190 243 301 351
#
# _framework density 18.602163999999998
#
# number of rings (size 3 to 8) (size 9 to 14) (size 15 to 20)
#    0.000    2.000    0.000    5.250    3.500    3.000 
#    0.000    3.750    0.000    0.000    0.000    0.000 
#    0.000    0.000    0.000    0.000    0.000    0.000 
#
# Total GULP energy -89265.986930 kJ/mol
# GULP energy per Si atom -5579.124183 kJ/mol
# Density = 1.855982 g / cm^3
# Si number density = 18.602164 Si / 1000 Ang^3
#
#
#
# Elastic Constant Matrix: (Units=GPa)
#
#
# Indices 1 2 3 4 5 6 
#
# 1 143.6005 51.0021 56.8664 11.8027 -9.8364 0.8197
# 2 51.0021 57.6662 33.0304 -2.3108 -4.9699 -1.1418
# 3 56.8664 33.0304 80.0875 3.7726 -21.5376 3.2385
# 4 11.8027 -2.3108 3.7726 18.2844 0.0637 -9.2395
# 5 -9.8364 -4.9699 -21.5376 0.0637 35.1388 7.6790
# 6 0.8197 -1.1418 3.2385 -9.2395 7.6790 28.3577
#
#
#
# Elastic Compliance Matrix: (Units=1/GPa)
#
#
# Indices 1 2 3 4 5 6 
#
# 1 0.013031 -0.009307 -0.004693 -0.010497 0.000285 -0.003713
# 2 -0.009307 0.031032 -0.008913 0.016594 -0.005788 0.009510
# 3 -0.004693 -0.008913 0.024077 -0.007861 0.014250 -0.009393
# 4 -0.010497 0.016594 -0.007861 0.081263 -0.012491 0.031729
# 5 0.000285 -0.005788 0.014250 -0.012491 0.040151 -0.016811
# 6 -0.003713 0.009510 -0.009393 0.031729 -0.016811 0.051717
#
#
# Mechanical properties :
#
#
# Convention : Reuss Voigt Hill
#
# Bulk Modulus (GPa) = 44.81369 62.57245 53.69307
# Shear Modulus (GPa) = 16.97597 25.71986 21.34792
#
# Velocity S-wave (km/s) = 3.02417 3.72240 3.39131
# Velocity P-wave (km/s) = 6.02802 7.22394 6.65291
#
# Compressibility (1/GPa) = 0.02231461
#
# Stress axis : x y z
#
# Youngs Moduli (GPa) = 76.73934 32.22491 41.53326
#
# Poissons Ratio (x) = 0.29990 0.19492
# Poissons Ratio (y) = 0.71418 0.37019
# Poissons Ratio (z) = 0.36015 0.28722
#
# Static dielectric constant tensor:
#      x y z
#    x 1.667780 -0.001120 -0.008750 
#    y -0.001120 1.545550 0.004550 
#    z -0.008750 0.004550 1.633820 
# 
# From -- ./inp_files/470195.got.cif
#   From: 2010.05.17/outbox.cif.g08.bks.cpg/sg2_236_cif.got.tgz:470195.got - 2010.06.03 11:33:40.
