data_PCOD9004985
_publ_section_title
;
Structure prediction by ZEFSAII (Michael W. Deem and Ramdas Pophale) SiO2 
 PCOD9004985
Probable space group: P -1
;
_chemical_formula_sum "Si O2"
_cell_formula_units_Z 16
_cell_length_a 20.061329
_cell_length_b 11.353534
_cell_length_c 9.060598
_cell_angle_alpha 40.555991
_cell_angle_beta 100.559416
_cell_angle_gamma 128.913325
_cell_volume 849.675540
_symmetry_space_group_name_H-M "P -1"
_symmetry_group_IT_number 2
_symmetry_cell_setting 'triclinic'
loop_
_space_group_symop_operation_xyz
x,y,z
-x,-y,-z
loop_
_atom_site_type_symbol
_atom_site_label
_atom_site_fract_x
_atom_site_fract_y
_atom_site_fract_z
Si Si1 0.727708 0.234060 0.578057
Si Si2 0.804113 0.684990 0.382753
Si Si3 0.543604 0.137817 0.549418
Si Si4 0.775625 0.883162 0.613518
Si Si5 0.966319 0.109230 0.293959
Si Si6 0.798961 0.331050 0.182473
Si Si7 0.723457 0.796423 0.007661
Si Si8 0.669506 0.347788 0.927659
O O1 0.805467 0.503925 0.460140
O O2 0.620109 0.129865 0.636108
O O3 0.768642 0.331911 0.333493
O O4 0.714834 0.995247 0.837553
O O5 0.705774 0.461941 0.668132
O O6 0.905396 0.928287 0.292935
O O7 0.783458 0.812746 0.145904
O O8 0.500000 0.000000 0.500000
O O9 0.612984 0.462767 0.265126
O O10 0.446803 0.957515 0.794499
O O11 0.782307 0.886624 0.789451
O O12 0.687582 0.567272 0.819519
O O13 0.882721 0.045605 0.420457
O O14 0.748259 0.032286 0.421185
O O15 0.000000 0.000000 0.500000
O O16 0.075511 0.432866 0.999892
O O17 0.753156 0.377623 0.002161
#
# Coordination Sequence:
#
# PCOD9004985 Si02
#       8
#     2   2   2   2   2   2   2   2
#     4  10  23  40  60  89 123 159 194 242 297 353
#     4  10  23  40  59  83 125 157 191 247 295 356
#     4  11  20  37  67  89 119 153 201 247 290 346
#     4  10  21  38  60  85 122 151 196 246 290 349
#     4  11  22  40  63  89 115 155 201 248 295 346
#     4  11  21  39  61  88 119 154 199 245 294 349
#     4  10  22  41  59  89 124 157 195 240 297 355
#     4  11  21  39  60  93 116 157 197 244 298 340
#
# _framework density 18.830715999999999
#
# number of rings (size 3 to 8) (size 9 to 14) (size 15 to 20)
#    0.000    1.500    5.000    1.125    0.000    6.000 
#    2.250    2.500    0.000    0.000    0.000    0.000 
#    0.000    0.000    0.000    0.000    0.000    0.000 
#
# Total GULP energy -89301.586003 kJ/mol
# GULP energy per Si atom -5581.349125 kJ/mol
# Density = 1.878786 g / cm^3
# Si number density = 18.830716 Si / 1000 Ang^3
#
#
#
# Elastic Constant Matrix: (Units=GPa)
#
#
# Indices 1 2 3 4 5 6 
#
# 1 65.2409 45.9285 34.5157 -8.7684 11.6008 -19.1367
# 2 45.9285 82.8526 32.8106 6.9213 23.2602 6.8985
# 3 34.5157 32.8106 73.4291 -5.3971 16.6222 -0.8266
# 4 -8.7684 6.9213 -5.3971 21.2823 6.0953 -11.3533
# 5 11.6008 23.2602 16.6222 6.0953 40.6828 -5.0499
# 6 -19.1367 6.8985 -0.8266 -11.3533 -5.0499 15.0302
#
#
#
# Elastic Compliance Matrix: (Units=1/GPa)
#
#
# Indices 1 2 3 4 5 6 
#
# 1 -0.009462 0.014509 -0.003815 -0.032096 -0.004787 -0.044769
# 2 0.014509 0.002106 -0.005177 0.022493 -0.002452 0.033388
# 3 -0.003815 -0.005177 0.019414 0.008015 -0.004705 0.003061
# 4 -0.032096 0.022493 0.008015 0.004899 -0.014147 -0.051801
# 5 -0.004787 -0.002452 -0.004705 -0.014147 0.030694 -0.005602
# 6 -0.044769 0.033388 0.003061 -0.051801 -0.005602 -0.046635
#
#
# Mechanical properties :
#
#
# Convention : Reuss Voigt Hill
#
# Bulk Modulus (GPa) = 43.30500 49.78133 46.54317
# Shear Modulus (GPa) = -2154.98871 22.61690 -1066.18590
#
# Velocity S-wave (km/s) = -33.86569 3.46940 -23.82067
# Velocity P-wave (km/s) = 38.80893 6.52247 27.05172
#
# Compressibility (1/GPa) = 0.02309202
#
# Stress axis : x y z
#
# Youngs Moduli (GPa) = -105.68404 474.74556 51.51014
#
# Poissons Ratio (x) = -6.88788 0.19649
# Poissons Ratio (y) = 1.53332 0.26666
# Poissons Ratio (z) = -0.40315 2.45767
#
# Static dielectric constant tensor:
#      x y z
#    x 1.621180 0.002620 -0.020400 
#    y 0.002620 1.645520 0.002270 
#    z -0.020400 0.002270 1.655480 
# 
# From -- ./inp_files/337765.got.cif
#   From: 2010.05.17/outbox.cif.g08.bks.cpg/sg2_169_cif.got.tgz:337765.got - 2010.06.03 11:33:40.
