data_PCOD9004349
_publ_section_title
;
Structure prediction by ZEFSAII (Michael W. Deem and Ramdas Pophale) SiO2 
 PCOD9004349
Probable space group: P -1
;
_chemical_formula_sum "Si O2"
_cell_formula_units_Z 16
_cell_length_a 19.927588
_cell_length_b 12.476858
_cell_length_c 15.426395
_cell_angle_alpha 27.660879
_cell_angle_beta 151.644181
_cell_angle_gamma 132.066865
_cell_volume 734.152734
_symmetry_space_group_name_H-M "P -1"
_symmetry_group_IT_number 2
_symmetry_cell_setting 'triclinic'
loop_
_space_group_symop_operation_xyz
x,y,z
-x,-y,-z
loop_
_atom_site_type_symbol
_atom_site_label
_atom_site_fract_x
_atom_site_fract_y
_atom_site_fract_z
Si Si1 0.658445 0.982486 0.236476
Si Si2 0.817154 0.942782 0.615351
Si Si3 0.780306 0.229766 0.716587
Si Si4 0.116859 0.327271 0.682577
Si Si5 0.991880 0.498529 0.744440
Si Si6 0.825585 0.062480 0.222367
Si Si7 0.309753 0.639931 0.670318
Si Si8 0.821084 0.378745 0.826042
O O1 0.672436 0.052267 0.302036
O O2 0.708142 0.147416 0.109890
O O3 0.792904 0.665252 0.615471
O O4 0.500000 0.000000 0.000000
O O5 0.776009 0.162710 0.486498
O O6 0.848266 0.672246 0.894345
O O7 0.990546 0.828707 0.841028
O O8 0.924749 0.291333 0.809962
O O9 0.714518 0.229760 0.546414
O O10 0.710520 0.425625 0.580494
O O11 0.813050 0.966674 0.992295
O O12 0.001691 0.400852 0.414882
O O13 0.247164 0.425802 0.745996
O O14 0.000000 0.500000 0.500000
O O15 0.857648 0.771705 0.439017
O O16 0.000000 0.000000 0.500000
O O17 0.778793 0.250741 0.950924
O O18 0.500000 0.500000 0.000000
#
# Coordination Sequence:
#
# PCOD9004349 Si02
#       8
#     2   2   2   2   2   2   2   2
#     4  12  27  44  70 101 143 180 218 286 350 397
#     4  11  22  45  68  97 136 182 228 276 335 412
#     4  10  21  41  67  96 136 173 224 277 334 401
#     4  11  21  38  69  99 126 174 233 276 330 399
#     4  10  21  37  66 101 127 169 224 287 323 388
#     4  12  22  39  70 101 133 177 233 274 330 409
#     4  11  27  43  66 101 144 180 220 284 351 403
#     4  11  22  42  73 103 132 178 234 277 331 412
#
# _framework density 21.79383
#
# number of rings (size 3 to 8) (size 9 to 14) (size 15 to 20)
#    0.000    1.000    5.000    3.375    1.750    4.500 
#    0.000    0.000    0.000    0.000    0.000    0.000 
#    0.000    0.000    0.000    0.000    0.000    0.000 
#
# Total GULP energy -89069.417065 kJ/mol
# GULP energy per Si atom -5566.838567 kJ/mol
# Density = 2.174423 g / cm^3
# Si number density = 21.793830 Si / 1000 Ang^3
#
#
#
# Elastic Constant Matrix: (Units=GPa)
#
#
# Indices 1 2 3 4 5 6 
#
# 1 109.8398 41.4004 49.9263 12.5544 -48.4911 -9.8624
# 2 41.4004 66.7922 28.4140 3.1327 -24.4674 -15.3706
# 3 49.9263 28.4140 65.6586 9.4604 -32.2054 -2.2500
# 4 12.5544 3.1327 9.4604 45.7896 -6.0487 -6.6997
# 5 -48.4911 -24.4674 -32.2054 -6.0487 43.8055 8.0782
# 6 -9.8624 -15.3706 -2.2500 -6.6997 8.0782 45.1715
#
#
#
# Elastic Compliance Matrix: (Units=1/GPa)
#
#
# Indices 1 2 3 4 5 6 
#
# 1 0.020603 -0.004573 -0.005569 -0.002152 0.015955 -0.000508
# 2 -0.004573 0.022240 -0.004742 0.002003 0.003027 0.006089
# 3 -0.005569 -0.004742 0.027585 -0.002873 0.011807 -0.003993
# 4 -0.002152 0.002003 -0.002873 0.023313 -0.000834 0.003675
# 5 0.015955 0.003027 0.011807 -0.000834 0.051527 -0.004237
# 6 -0.000508 0.006089 -0.003993 0.003675 -0.004237 0.025203
#
#
# Mechanical properties :
#
#
# Convention : Reuss Voigt Hill
#
# Bulk Modulus (GPa) = 24.59403 53.53022 39.06213
# Shear Modulus (GPa) = 23.38715 35.12331 29.25523
#
# Velocity S-wave (km/s) = 3.27939 4.01885 3.66780
# Velocity P-wave (km/s) = 5.06444 6.79340 5.99161
#
# Compressibility (1/GPa) = 0.04066027
#
# Stress axis : x y z
#
# Youngs Moduli (GPa) = 48.53641 44.96453 36.25101
#
# Poissons Ratio (x) = 0.20561 0.20188
# Poissons Ratio (y) = 0.22194 0.17191
# Poissons Ratio (z) = 0.27030 0.21323
#
# Static dielectric constant tensor:
#      x y z
#    x 1.825630 -0.004930 -0.026820 
#    y -0.004930 1.434750 0.183580 
#    z -0.026820 0.183580 1.801830 
# 
# From -- ./inp_files/540931.got.cif
#   From: 2010.05.17/outbox.cif.g08.bks.cpg/sg2_271_cif.got.tgz:540931.got - 2010.06.03 11:33:40.
