data_PCOD9004969
_publ_section_title
;
Structure prediction by ZEFSAII (Michael W. Deem and Ramdas Pophale) SiO2 
 PCOD9004969
Probable space group: P -1
;
_chemical_formula_sum "Si O2"
_cell_formula_units_Z 16
_cell_length_a 14.345758
_cell_length_b 9.542329
_cell_length_c 13.597688
_cell_angle_alpha 137.218319
_cell_angle_beta 44.824940
_cell_angle_gamma 111.235128
_cell_volume 841.086296
_symmetry_space_group_name_H-M "P -1"
_symmetry_group_IT_number 2
_symmetry_cell_setting 'triclinic'
loop_
_space_group_symop_operation_xyz
x,y,z
-x,-y,-z
loop_
_atom_site_type_symbol
_atom_site_label
_atom_site_fract_x
_atom_site_fract_y
_atom_site_fract_z
Si Si1 0.105191 0.254714 0.811800
Si Si2 0.649889 0.135942 0.991578
Si Si3 0.899068 0.855241 0.010764
Si Si4 0.056047 0.459557 0.546378
Si Si5 0.344847 0.307445 0.326040
Si Si6 0.665103 0.619433 0.403973
Si Si7 0.339880 0.846197 0.792943
Si Si8 0.049452 0.975241 0.338040
O O1 0.111828 0.192612 0.890069
O O2 0.251896 0.271285 0.672261
O O3 0.048417 0.099243 0.703612
O O4 0.000000 0.500000 0.000000
O O5 0.789524 0.183500 0.879592
O O6 0.637910 0.945424 0.832362
O O7 0.498507 0.325556 0.203206
O O8 0.664454 0.032459 0.037542
O O9 0.757340 0.003141 0.138439
O O10 0.965019 0.633454 0.783499
O O11 0.000000 0.000000 0.000000
O O12 0.216717 0.453871 0.432699
O O13 0.000000 0.500000 0.500000
O O14 0.056165 0.215284 0.437391
O O15 0.299138 0.352202 0.495289
O O16 0.497992 0.735085 0.579703
O O17 0.704633 0.357043 0.236673
O O18 0.000000 0.000000 0.500000
#
# Coordination Sequence:
#
# PCOD9004969 Si02
#       8
#     2   2   2   2   2   2   2   2
#     4  12  23  37  59  86 119 155 195 241 293 350
#     4   9  17  32  55  79 105 141 186 232 279 334
#     4  12  23  37  59  86 119 155 195 241 293 350
#     4  11  22  37  57  84 116 150 192 240 290 344
#     4   9  17  32  55  79 105 141 186 232 279 334
#     4  10  21  38  60  85 113 147 191 242 294 349
#     4  10  21  38  60  85 113 147 191 242 294 349
#     4  11  22  37  57  84 116 150 192 240 290 344
#
# _framework density 19.023019999999999
#
# number of rings (size 3 to 8) (size 9 to 14) (size 15 to 20)
#    0.000    1.500    0.000    8.250    0.000    0.500 
#    0.000    0.000    0.000    6.000    0.000    0.000 
#    0.000    0.000    0.000    0.000    0.000    0.000 
#
# Total GULP energy -89202.884859 kJ/mol
# GULP energy per Si atom -5575.180304 kJ/mol
# Density = 1.897972 g / cm^3
# Si number density = 19.023020 Si / 1000 Ang^3
#
#
#
# Elastic Constant Matrix: (Units=GPa)
#
#
# Indices 1 2 3 4 5 6 
#
# 1 135.7693 57.5453 60.1440 -15.9962 -6.4339 -21.4578
# 2 57.5453 86.0563 46.9540 -21.1969 -9.4980 -2.3002
# 3 60.1440 46.9540 102.2129 -19.9631 4.3789 -5.0823
# 4 -15.9962 -21.1969 -19.9631 34.6238 4.1160 2.2945
# 5 -6.4339 -9.4980 4.3789 4.1160 43.3530 4.3930
# 6 -21.4578 -2.3002 -5.0823 2.2945 4.3930 35.9053
#
#
#
# Elastic Compliance Matrix: (Units=1/GPa)
#
#
# Indices 1 2 3 4 5 6 
#
# 1 0.013034 -0.006146 -0.004720 -0.000965 0.000474 0.006731
# 2 -0.006146 0.020273 -0.004757 0.006641 0.003778 -0.003934
# 3 -0.004720 -0.004757 0.015740 0.004469 -0.003683 -0.000733
# 4 -0.000965 0.006641 0.004469 0.035457 -0.002354 -0.001496
# 5 0.000474 0.003778 -0.003683 -0.002354 0.024853 -0.002886
# 6 0.006731 -0.003934 -0.000733 -0.001496 -0.002886 0.031967
#
#
# Mechanical properties :
#
#
# Convention : Reuss Voigt Hill
#
# Bulk Modulus (GPa) = 56.17613 72.59167 64.38390
# Shear Modulus (GPa) = 28.01066 33.40277 30.70671
#
# Velocity S-wave (km/s) = 3.84143 4.19491 4.02205
# Velocity P-wave (km/s) = 7.01927 7.85530 7.44902
#
# Compressibility (1/GPa) = 0.01780115
#
# Stress axis : x y z
#
# Youngs Moduli (GPa) = 76.72323 49.32688 63.53054
#
# Poissons Ratio (x) = 0.30314 0.29988
# Poissons Ratio (y) = 0.47150 0.30223
# Poissons Ratio (z) = 0.36216 0.23466
#
# Static dielectric constant tensor:
#      x y z
#    x 1.730160 0.045270 -0.014880 
#    y 0.045270 1.581650 -0.000670 
#    z -0.014880 -0.000670 1.733950 
# 
# From -- ./inp_files/448171.got.cif
#   From: 2010.05.17/outbox.cif.g08.bks.cpg/sg2_225_cif.got.tgz:448171.got - 2010.06.03 11:33:40.
