data_PCOD9004226
_publ_section_title
;
Structure prediction by ZEFSAII (Michael W. Deem and Ramdas Pophale) SiO2 
 PCOD9004226
Probable space group: P -1
;
_chemical_formula_sum "Si O2"
_cell_formula_units_Z 16
_cell_length_a 23.728335
_cell_length_b 13.453595
_cell_length_c 9.181279
_cell_angle_alpha 53.519594
_cell_angle_beta 43.050223
_cell_angle_gamma 23.081114
_cell_volume 750.576740
_symmetry_space_group_name_H-M "P -1"
_symmetry_group_IT_number 2
_symmetry_cell_setting 'triclinic'
loop_
_space_group_symop_operation_xyz
x,y,z
-x,-y,-z
loop_
_atom_site_type_symbol
_atom_site_label
_atom_site_fract_x
_atom_site_fract_y
_atom_site_fract_z
Si Si1 0.062918 0.335191 0.662099
Si Si2 0.531923 0.917460 0.848248
Si Si3 0.420430 0.414904 0.025530
Si Si4 0.793275 0.270916 0.121179
Si Si5 0.067694 0.583058 0.562672
Si Si6 0.735408 0.097668 0.543115
Si Si7 0.768348 0.523952 0.142770
Si Si8 0.857299 0.293844 0.477786
O O1 0.058136 0.445176 0.704059
O O2 0.000000 0.500000 0.500000
O O3 0.238945 0.035089 0.524725
O O4 0.923999 0.411246 0.897714
O O5 0.738939 0.655181 0.661656
O O6 0.407354 0.164702 0.765309
O O7 0.486214 0.836779 0.976670
O O8 0.500000 0.000000 0.000000
O O9 0.258639 0.660760 0.008502
O O10 0.575625 0.301379 0.783609
O O11 0.326626 0.511261 0.271923
O O12 0.721678 0.246747 0.360181
O O13 0.720840 0.493438 0.129941
O O14 0.000000 0.000000 0.000000
O O15 0.078278 0.660377 0.613867
O O16 0.914086 0.840469 0.524309
O O17 0.829489 0.359589 0.304512
O O18 0.000000 0.000000 0.500000
#
# Coordination Sequence:
#
# PCOD9004226 Si02
#       8
#     2   2   2   2   2   2   2   2
#     4  10  21  37  65 100 128 166 216 281 329 376
#     4  11  19  38  65  97 127 166 221 274 330 384
#     4  11  24  40  68  95 135 171 220 283 328 392
#     4  12  22  40  66  98 130 175 227 272 331 391
#     4  10  22  40  65  92 135 173 213 274 330 391
#     4  11  21  40  67 100 132 167 225 279 336 387
#     4  12  24  41  69  97 134 180 222 270 330 401
#     4  11  26  47  66  95 136 184 222 261 333 409
#
# _framework density 21.316942000000001
#
# number of rings (size 3 to 8) (size 9 to 14) (size 15 to 20)
#    0.000    1.000    2.500    7.125    1.750    2.500 
#    0.000    3.750    0.000    0.000    0.000    0.000 
#    0.000    0.000    0.000    0.000    0.000    0.000 
#
# Total GULP energy -89259.553681 kJ/mol
# GULP energy per Si atom -5578.722105 kJ/mol
# Density = 2.126842 g / cm^3
# Si number density = 21.316942 Si / 1000 Ang^3
#
#
#
# Elastic Constant Matrix: (Units=GPa)
#
#
# Indices 1 2 3 4 5 6 
#
# 1 35.8064 -2.6360 13.8711 3.1056 -4.2061 11.5832
# 2 -2.6360 72.1074 26.2291 -3.8008 -3.8495 -8.1560
# 3 13.8711 26.2291 117.2836 -14.1835 -6.8325 1.3187
# 4 3.1056 -3.8008 -14.1835 32.6823 6.0193 -2.8932
# 5 -4.2061 -3.8495 -6.8325 6.0193 23.2080 -7.9278
# 6 11.5832 -8.1560 1.3187 -2.8932 -7.9278 38.6320
#
#
#
# Elastic Compliance Matrix: (Units=1/GPa)
#
#
# Indices 1 2 3 4 5 6 
#
# 1 0.034002 0.001804 -0.004917 -0.006637 0.003517 -0.009422
# 2 0.001804 0.015814 -0.003628 -0.000170 0.003140 0.003553
# 3 -0.004917 -0.003628 0.010501 0.004547 0.000705 0.000835
# 4 -0.006637 -0.000170 0.004547 0.034900 -0.007998 0.002771
# 5 0.003517 0.003140 0.000705 -0.007998 0.049663 0.009177
# 6 -0.009422 0.003553 0.000835 0.002771 0.009177 0.031523
#
#
# Mechanical properties :
#
#
# Convention : Reuss Voigt Hill
#
# Bulk Modulus (GPa) = 21.35120 33.34733 27.34927
# Shear Modulus (GPa) = 24.33141 31.41999 27.87570
#
# Velocity S-wave (km/s) = 3.38214 3.84336 3.62011
# Velocity P-wave (km/s) = 5.02888 5.94750 5.50738
#
# Compressibility (1/GPa) = 0.04683577
#
# Stress axis : x y z
#
# Youngs Moduli (GPa) = 29.41003 63.23412 95.23279
#
# Poissons Ratio (x) = -0.11405 0.46822
# Poissons Ratio (y) = -0.05305 0.34547
# Poissons Ratio (z) = 0.14460 0.22939
#
# Static dielectric constant tensor:
#      x y z
#    x 1.701030 -0.010990 0.017630 
#    y -0.010990 1.783920 0.029370 
#    z 0.017630 0.029370 1.771250 
# 
# From -- ./inp_files/357366.got.cif
#   From: 2010.05.17/outbox.cif.g08.bks.cpg/sg2_179_cif.got.tgz:357366.got - 2010.06.03 11:33:40.
