data_PCOD9004885
_publ_section_title
;
Structure prediction by ZEFSAII (Michael W. Deem and Ramdas Pophale) SiO2 
 PCOD9004885
Probable space group: P -1
;
_chemical_formula_sum "Si O2"
_cell_formula_units_Z 14
_cell_length_a 5.496497
_cell_length_b 7.862208
_cell_length_c 16.767659
_cell_angle_alpha 135.807753
_cell_angle_beta 96.721991
_cell_angle_gamma 89.708504
_cell_volume 498.365177
_symmetry_space_group_name_H-M "P -1"
_symmetry_group_IT_number 2
_symmetry_cell_setting 'triclinic'
loop_
_space_group_symop_operation_xyz
x,y,z
-x,-y,-z
loop_
_atom_site_type_symbol
_atom_site_label
_atom_site_fract_x
_atom_site_fract_y
_atom_site_fract_z
Si Si1 0.364762 0.351608 0.539546
Si Si2 0.440255 0.400649 0.125296
Si Si3 0.191090 0.431231 0.285699
Si Si4 0.924549 0.957299 0.075153
Si Si5 0.648551 0.148968 0.351530
Si Si6 0.645464 0.276590 0.896152
Si Si7 0.844034 0.765472 0.333075
O O1 0.639169 0.501203 0.611301
O O2 0.418982 0.168709 0.410476
O O3 0.234204 0.586390 0.586425
O O4 0.285666 0.243688 0.587029
O O5 0.359039 0.341696 0.192014
O O6 0.279616 0.598604 0.144940
O O7 0.706596 0.550521 0.198303
O O8 0.358029 0.162161 0.988290
O O9 0.103060 0.682214 0.336589
O O10 0.969237 0.215381 0.208845
O O11 0.117200 0.792766 0.069763
O O12 0.000000 0.000000 0.000000
O O13 0.538859 0.963477 0.215548
O O14 0.835044 0.013787 0.368090
O O15 0.500000 0.500000 0.000000
#
# Coordination Sequence:
#
# PCOD9004885 Si02
#       7
#     2   2   2   2   2   2   2
#     4  10  21  44  65  91 128 170 203 259 318 360
#     4   9  22  38  60  88 125 164 203 255 313 359
#     4  10  21  41  63  91 129 158 212 255 313 373
#     4  10  21  38  59  88 126 162 202 259 309 369
#     4  10  22  41  66  92 130 163 210 262 308 372
#     4  11  23  40  64  91 124 164 212 254 312 377
#     4  10  22  40  65  95 122 166 212 255 310 382
#
# _framework density 28.091850000000001
#
# number of rings (size 3 to 8) (size 9 to 14) (size 15 to 20)
#    0.000    2.000    1.429    0.857    8.000    2.286 
#    2.571    2.857    0.000    0.000    0.000    0.000 
#    0.000    0.000    0.000    0.000    0.000    0.000 
#
# Total GULP energy -78265.231279 kJ/mol
# GULP energy per Si atom -5590.373663 kJ/mol
# Density = 2.802791 g / cm^3
# Si number density = 28.091850 Si / 1000 Ang^3
#
#
#
# Elastic Constant Matrix: (Units=GPa)
#
#
# Indices 1 2 3 4 5 6 
#
# 1 48.4364 30.6186 25.2205 0.0762 2.9333 -18.4669
# 2 30.6186 146.4840 28.6821 -4.4053 3.5639 -41.5076
# 3 25.2205 28.6821 160.8174 -4.6227 -6.0257 -3.1636
# 4 0.0762 -4.4053 -4.6227 47.8600 1.8397 -0.3962
# 5 2.9333 3.5639 -6.0257 1.8397 40.7494 -0.1149
# 6 -18.4669 -41.5076 -3.1636 -0.3962 -0.1149 43.7787
#
#
#
# Elastic Compliance Matrix: (Units=1/GPa)
#
#
# Indices 1 2 3 4 5 6 
#
# 1 0.027810 -0.002427 -0.003849 -0.000475 -0.002312 0.009141
# 2 -0.002427 0.010000 -0.001246 0.000908 -0.000901 0.008373
# 3 -0.003849 -0.001246 0.007066 0.000501 0.001402 -0.002286
# 4 -0.000475 0.000908 0.000501 0.021070 -0.000920 0.000885
# 5 -0.002312 -0.000901 0.001402 -0.000920 0.025030 -0.001671
# 6 0.009141 0.008373 -0.002286 0.000885 -0.001671 0.034475
#
#
# Mechanical properties :
#
#
# Convention : Reuss Voigt Hill
#
# Bulk Modulus (GPa) = 33.52105 58.30892 45.91499
# Shear Modulus (GPa) = 33.23637 44.55874 38.89756
#
# Velocity S-wave (km/s) = 3.44340 3.98701 3.72513
# Velocity P-wave (km/s) = 5.26953 6.48048 5.90612
#
# Compressibility (1/GPa) = 0.02983200
#
# Stress axis : x y z
#
# Youngs Moduli (GPa) = 35.95844 100.00267 141.52282
#
# Poissons Ratio (x) = 0.24272 0.54471
# Poissons Ratio (y) = 0.08727 0.17631
# Poissons Ratio (z) = 0.13840 0.12458
#
# Static dielectric constant tensor:
#      x y z
#    x 2.188670 0.095380 0.014780 
#    y 0.095380 2.283100 0.027100 
#    z 0.014780 0.027100 2.206510 
# 
# From -- ./inp_files/135282.got.cif
#   From: 2010.05.17/outbox.cif.g08.bks.cpg/sg2_68_cif.got.tgz:135282.got - 2010.06.03 11:33:40.
