data_PCOD9004537
_publ_section_title
;
Structure prediction by ZEFSAII (Michael W. Deem and Ramdas Pophale) SiO2 
 PCOD9004537
Probable space group: P -1
;
_chemical_formula_sum "Si O2"
_cell_formula_units_Z 16
_cell_length_a 14.320673
_cell_length_b 6.691808
_cell_length_c 23.421009
_cell_angle_alpha 80.487960
_cell_angle_beta 158.718261
_cell_angle_gamma 103.170021
_cell_volume 786.150374
_symmetry_space_group_name_H-M "P -1"
_symmetry_group_IT_number 2
_symmetry_cell_setting 'triclinic'
loop_
_space_group_symop_operation_xyz
x,y,z
-x,-y,-z
loop_
_atom_site_type_symbol
_atom_site_label
_atom_site_fract_x
_atom_site_fract_y
_atom_site_fract_z
Si Si1 0.642865 0.204736 0.608038
Si Si2 0.182266 0.760592 0.456459
Si Si3 0.085503 0.742147 0.534529
Si Si4 0.259685 0.975809 0.224397
Si Si5 0.873178 0.264271 0.952950
Si Si6 0.803076 0.587475 0.597384
Si Si7 0.401884 0.068216 0.768280
Si Si8 0.749145 0.006186 0.181768
O O1 0.785977 0.389927 0.639310
O O2 0.432153 0.306195 0.519423
O O3 0.500000 0.000000 0.500000
O O4 0.848649 0.150529 0.774506
O O5 0.154867 0.791028 0.506479
O O6 0.460457 0.909772 0.597428
O O7 0.210856 0.531659 0.465490
O O8 0.934988 0.839043 0.284316
O O9 0.000000 0.500000 0.500000
O O10 0.823057 0.827121 0.392656
O O11 0.330097 0.841793 0.708857
O O12 0.269632 0.832607 0.181992
O O13 0.101858 0.143737 0.104955
O O14 0.671516 0.208360 0.893279
O O15 0.000000 0.500000 0.000000
O O16 0.057570 0.771172 0.728849
O O17 0.355416 0.037108 0.810669
O O18 0.500000 0.000000 0.000000
#
# Coordination Sequence:
#
# PCOD9004537 Si02
#       8
#     2   2   2   2   2   2   2   2
#     4  11  23  41  68 101 134 170 229 278 325 402
#     4  11  22  42  68  96 130 172 230 278 333 396
#     4  10  21  37  69  92 124 167 221 277 324 396
#     4  11  24  43  64  96 138 169 220 285 326 398
#     4  11  27  42  66  98 136 179 216 276 343 398
#     4  11  23  40  70 101 124 183 223 271 346 391
#     4  10  23  42  61  97 127 172 222 268 332 393
#     4  11  25  44  65  96 141 175 222 283 330 397
#
# _framework density 20.352342
#
# number of rings (size 3 to 8) (size 9 to 14) (size 15 to 20)
#    0.000    1.250    3.750    0.750    3.500    3.500 
#    0.000    1.250    0.000    0.000    0.000    0.000 
#    0.000    0.000    0.000    0.000    0.000    0.000 
#
# Total GULP energy -89174.512948 kJ/mol
# GULP energy per Si atom -5573.407059 kJ/mol
# Density = 2.030602 g / cm^3
# Si number density = 20.352342 Si / 1000 Ang^3
#
#
#
# Elastic Constant Matrix: (Units=GPa)
#
#
# Indices 1 2 3 4 5 6 
#
# 1 89.3926 39.4321 43.5734 6.6755 8.3572 2.3704
# 2 39.4321 124.7802 35.4346 9.6715 6.8940 2.8960
# 3 43.5734 35.4346 79.3523 6.2313 -5.4492 -1.9219
# 4 6.6755 9.6715 6.2313 22.9703 10.8596 2.0022
# 5 8.3572 6.8940 -5.4492 10.8596 30.7386 0.8399
# 6 2.3704 2.8960 -1.9219 2.0022 0.8399 41.0823
#
#
#
# Elastic Compliance Matrix: (Units=1/GPa)
#
#
# Indices 1 2 3 4 5 6 
#
# 1 0.017138 -0.002674 -0.008785 0.001525 -0.006124 -0.001160
# 2 -0.002674 0.009923 -0.002914 -0.001940 -0.001314 -0.000560
# 3 -0.008785 -0.002914 0.019811 -0.005790 0.008552 0.001746
# 4 0.001525 -0.001940 -0.005790 0.055392 -0.020507 -0.002502
# 5 -0.006124 -0.001314 0.008552 -0.020507 0.043227 0.000962
# 6 -0.001160 -0.000560 0.001746 -0.002502 0.000962 0.024632
#
#
# Mechanical properties :
#
#
# Convention : Reuss Voigt Hill
#
# Bulk Modulus (GPa) = 55.16985 58.93392 57.05189
# Shear Modulus (GPa) = 24.40104 30.63059 27.51582
#
# Velocity S-wave (km/s) = 3.46631 3.88366 3.68091
# Velocity P-wave (km/s) = 6.57166 7.00929 6.79400
#
# Compressibility (1/GPa) = 0.01812584
#
# Stress axis : x y z
#
# Youngs Moduli (GPa) = 58.35123 100.77991 50.47597
#
# Poissons Ratio (x) = 0.26948 0.44342
# Poissons Ratio (y) = 0.15603 0.14709
# Poissons Ratio (z) = 0.51261 0.29369
#
# Static dielectric constant tensor:
#      x y z
#    x 1.751930 -0.017320 0.020210 
#    y -0.017320 1.780470 -0.000280 
#    z 0.020210 -0.000280 1.719080 
# 
# From -- ./inp_files/364624.got.cif
#   From: 2010.05.17/outbox.cif.g08.bks.cpg/sg2_183_cif.got.tgz:364624.got - 2010.06.03 11:33:40.
