data_PCOD9004246
_publ_section_title
;
Structure prediction by ZEFSAII (Michael W. Deem and Ramdas Pophale) SiO2 
 PCOD9004246
Probable space group: P -1
;
_chemical_formula_sum "Si O2"
_cell_formula_units_Z 16
_cell_length_a 6.247262
_cell_length_b 9.458969
_cell_length_c 24.723456
_cell_angle_alpha 135.997180
_cell_angle_beta 47.107068
_cell_angle_gamma 125.894806
_cell_volume 730.015543
_symmetry_space_group_name_H-M "P -1"
_symmetry_group_IT_number 2
_symmetry_cell_setting 'triclinic'
loop_
_space_group_symop_operation_xyz
x,y,z
-x,-y,-z
loop_
_atom_site_type_symbol
_atom_site_label
_atom_site_fract_x
_atom_site_fract_y
_atom_site_fract_z
Si Si1 0.491236 0.593479 0.968289
Si Si2 0.537503 0.589603 0.578484
Si Si3 0.959983 0.328189 0.240302
Si Si4 0.609365 0.839160 0.476061
Si Si5 0.418595 0.371757 0.807445
Si Si6 0.272493 0.982681 0.374948
Si Si7 0.341657 0.004214 0.086162
Si Si8 0.169573 0.650611 0.848711
O O1 0.387715 0.438251 0.893362
O O2 0.836017 0.693153 0.923414
O O3 0.500000 0.500000 0.000000
O O4 0.298384 0.772432 0.051303
O O5 0.500000 0.500000 0.500000
O O6 0.226850 0.641431 0.667011
O O7 0.583469 0.393550 0.552712
O O8 0.751267 0.813684 0.600482
O O9 0.785076 0.376448 0.230140
O O10 0.274827 0.481979 0.225295
O O11 0.047509 0.101783 0.159988
O O12 0.948533 0.839286 0.398885
O O13 0.500000 0.000000 0.500000
O O14 0.628382 0.933277 0.559185
O O15 0.488249 0.143914 0.724856
O O16 0.187887 0.451317 0.828354
O O17 0.583693 0.157881 0.121912
O O18 0.500000 0.000000 0.000000
#
# Coordination Sequence:
#
# PCOD9004246 Si02
#       8
#     2   2   2   2   2   2   2   2
#     4  11  24  38  58  92 129 159 207 266 310 371
#     4  10  22  42  64  95 130 163 209 264 312 377
#     4  10  21  38  64  89 127 165 214 262 309 380
#     4  10  22  40  66  91 124 165 207 261 315 380
#     4  10  21  39  60  89 125 167 210 257 318 373
#     4  10  22  40  63  90 128 165 204 261 320 369
#     4  11  20  40  62  89 121 170 213 255 309 375
#     4  10  21  37  65  88 120 170 210 253 316 375
#
# _framework density 21.917339999999999
#
# number of rings (size 3 to 8) (size 9 to 14) (size 15 to 20)
#    0.000    1.750    5.000    0.375    1.750    3.000 
#    0.000    6.250    0.000    0.000    0.000    0.000 
#    0.000    0.000    0.000    0.000    0.000    0.000 
#
# Total GULP energy -89315.589537 kJ/mol
# GULP energy per Si atom -5582.224346 kJ/mol
# Density = 2.186746 g / cm^3
# Si number density = 21.917340 Si / 1000 Ang^3
#
#
#
# Elastic Constant Matrix: (Units=GPa)
#
#
# Indices 1 2 3 4 5 6 
#
# 1 75.2744 25.1563 34.1322 5.6219 -2.0637 -22.9171
# 2 25.1563 121.3994 42.7497 16.4150 3.6825 -31.1523
# 3 34.1322 42.7497 128.1556 8.1571 -1.0504 -26.4478
# 4 5.6219 16.4150 8.1571 38.9327 -12.1586 -9.6893
# 5 -2.0637 3.6825 -1.0504 -12.1586 13.4098 7.5636
# 6 -22.9171 -31.1523 -26.4478 -9.6893 7.5636 41.1904
#
#
#
# Elastic Compliance Matrix: (Units=1/GPa)
#
#
# Indices 1 2 3 4 5 6 
#
# 1 0.016995 -0.000455 -0.002792 -0.000469 -0.002196 0.007612
# 2 -0.000455 0.012951 -0.001887 -0.007657 -0.016063 0.009478
# 3 -0.002792 -0.001887 0.009932 -0.000490 -0.001594 0.003574
# 4 -0.000469 -0.007657 -0.000490 0.040997 0.041627 -0.004366
# 5 -0.002196 -0.016063 -0.001594 0.041627 0.132591 -0.028949
# 6 0.007612 0.009478 0.003574 -0.004366 -0.028949 0.042264
#
#
# Mechanical properties :
#
#
# Convention : Reuss Voigt Hill
#
# Bulk Modulus (GPa) = 33.77342 58.76729 46.27035
# Shear Modulus (GPa) = 18.12461 33.55934 25.84197
#
# Velocity S-wave (km/s) = 2.87880 3.91727 3.43748
# Velocity P-wave (km/s) = 5.14712 6.87978 6.07554
#
# Compressibility (1/GPa) = 0.02960909
#
# Stress axis : x y z
#
# Youngs Moduli (GPa) = 58.84105 77.21479 100.68712
#
# Poissons Ratio (x) = 0.03516 0.28110
# Poissons Ratio (y) = 0.02679 0.19001
# Poissons Ratio (z) = 0.16427 0.14571
#
# Static dielectric constant tensor:
#      x y z
#    x 1.618850 -0.137280 -0.009310 
#    y -0.137280 1.797620 0.022700 
#    z -0.009310 0.022700 1.825230 
# 
# From -- ./inp_files/46840.got.cif
#   From: 2010.05.17/outbox.cif.g08.bks.cpg/sg2_24_cif.got.tgz:46840.got - 2010.06.03 11:33:40.
