data_PCOD9004725
_publ_section_title
;
Structure prediction by ZEFSAII (Michael W. Deem and Ramdas Pophale) SiO2 
 PCOD9004725
Probable space group: P -1
;
_chemical_formula_sum "Si O2"
_cell_formula_units_Z 16
_cell_length_a 9.002871
_cell_length_b 14.796439
_cell_length_c 27.132412
_cell_angle_alpha 159.596644
_cell_angle_beta 137.905943
_cell_angle_gamma 51.779320
_cell_volume 797.763068
_symmetry_space_group_name_H-M "P -1"
_symmetry_group_IT_number 2
_symmetry_cell_setting 'triclinic'
loop_
_space_group_symop_operation_xyz
x,y,z
-x,-y,-z
loop_
_atom_site_type_symbol
_atom_site_label
_atom_site_fract_x
_atom_site_fract_y
_atom_site_fract_z
Si Si1 0.712296 0.752790 0.163333
Si Si2 0.592613 0.372292 0.336495
Si Si3 0.397975 0.800835 0.024036
Si Si4 0.967835 0.791668 0.340139
Si Si5 0.863385 0.190178 0.763528
Si Si6 0.443706 0.691784 0.375192
Si Si7 0.673851 0.632758 0.920235
Si Si8 0.986097 0.846044 0.706594
O O1 0.838480 0.898381 0.318409
O O2 0.913044 0.667180 0.142006
O O3 0.500000 0.500000 0.000000
O O4 0.597406 0.876547 0.154973
O O5 0.492434 0.514993 0.341993
O O6 0.740758 0.603372 0.530379
O O7 0.806841 0.278248 0.319061
O O8 0.385253 0.103886 0.166474
O O9 0.191477 0.524856 0.848035
O O10 0.494449 0.719698 0.954857
O O11 0.215432 0.773168 0.373641
O O12 0.000000 0.000000 0.500000
O O13 0.755496 0.426125 0.869920
O O14 0.668501 0.964165 0.568640
O O15 0.931916 0.017819 0.735162
O O16 0.420722 0.526244 0.234275
O O17 0.889890 0.906288 0.099292
#
# Coordination Sequence:
#
# PCOD9004725 Si02
#       8
#     2   2   2   2   2   2   2   2
#     4  10  21  38  58  85 114 157 188 239 294 340
#     4   9  19  39  54  84 117 159 198 227 291 341
#     4  10  22  39  63  83 119 163 189 239 289 351
#     4  11  24  42  58  89 121 153 191 241 305 349
#     4  11  19  35  58  88 115 149 192 243 291 337
#     4  11  24  35  60  89 123 153 189 248 285 353
#     4  11  20  34  59  94 116 148 196 243 296 337
#     4   9  19  33  58  83 116 151 191 250 275 340
#
# _framework density 20.056080000000001
#
# number of rings (size 3 to 8) (size 9 to 14) (size 15 to 20)
#    0.000    1.750    3.750    1.500    1.750    2.500 
#    2.250    1.250    0.000    1.500    0.000    0.000 
#    0.000    0.000    0.000    0.000    0.000    0.000 
#
# Total GULP energy -89081.526418 kJ/mol
# GULP energy per Si atom -5567.595401 kJ/mol
# Density = 2.001043 g / cm^3
# Si number density = 20.056080 Si / 1000 Ang^3
#
#
#
# Elastic Constant Matrix: (Units=GPa)
#
#
# Indices 1 2 3 4 5 6 
#
# 1 45.6627 -2.0721 34.7861 -8.4624 8.3662 4.1585
# 2 -2.0721 58.0074 29.8036 -6.6167 -2.6807 -2.4065
# 3 34.7861 29.8036 124.6292 -5.9177 0.1181 2.3190
# 4 -8.4624 -6.6167 -5.9177 35.4539 10.3815 0.0492
# 5 8.3662 -2.6807 0.1181 10.3815 33.5327 -5.4276
# 6 4.1585 -2.4065 2.3190 0.0492 -5.4276 15.6568
#
#
#
# Elastic Compliance Matrix: (Units=1/GPa)
#
#
# Indices 1 2 3 4 5 6 
#
# 1 0.036808 0.007331 -0.011196 0.012511 -0.014376 -0.012014
# 2 0.007331 0.021708 -0.007035 0.005005 -0.001300 0.001965
# 3 -0.011196 -0.007035 0.012673 -0.002822 0.003246 0.001149
# 4 0.012511 0.005005 -0.002822 0.036085 -0.015094 -0.007482
# 5 -0.014376 -0.001300 0.003246 -0.015094 0.040769 0.017318
# 6 -0.012014 0.001965 0.001149 -0.007482 0.017318 0.073220
#
#
# Mechanical properties :
#
#
# Convention : Reuss Voigt Hill
#
# Bulk Modulus (GPa) = 20.24710 39.25940 29.75325
# Shear Modulus (GPa) = 19.26591 27.98078 23.62335
#
# Velocity S-wave (km/s) = 3.10272 3.73919 3.43573
# Velocity P-wave (km/s) = 4.79093 6.18542 5.53229
#
# Compressibility (1/GPa) = 0.04938978
#
# Stress axis : x y z
#
# Youngs Moduli (GPa) = 27.16786 46.06591 78.91001
#
# Poissons Ratio (x) = -0.33773 0.88346
# Poissons Ratio (y) = -0.19918 0.55515
# Poissons Ratio (z) = 0.30417 0.32408
#
# Static dielectric constant tensor:
#      x y z
#    x 1.683630 0.015060 0.021330 
#    y 0.015060 1.761880 -0.012240 
#    z 0.021330 -0.012240 1.769810 
# 
# From -- ./inp_files/180493.got.cif
#   From: 2010.05.17/outbox.cif.g08.bks.cpg/sg2_91_cif.got.tgz:180493.got - 2010.06.03 11:33:40.
