data_PCOD9004919
_publ_section_title
;
Structure prediction by ZEFSAII (Michael W. Deem and Ramdas Pophale) SiO2 
 PCOD9004919
Probable space group: P -1
;
_chemical_formula_sum "Si O2"
_cell_formula_units_Z 10
_cell_length_a 5.188448
_cell_length_b 5.304682
_cell_length_c 15.643655
_cell_angle_alpha 114.462080
_cell_angle_beta 96.841283
_cell_angle_gamma 65.506665
_cell_volume 355.925228
_symmetry_space_group_name_H-M "P -1"
_symmetry_group_IT_number 2
_symmetry_cell_setting 'triclinic'
loop_
_space_group_symop_operation_xyz
x,y,z
-x,-y,-z
loop_
_atom_site_type_symbol
_atom_site_label
_atom_site_fract_x
_atom_site_fract_y
_atom_site_fract_z
Si Si1 0.319835 0.862097 0.530059
Si Si2 0.691584 0.896076 0.077421
Si Si3 0.174537 0.589906 0.872614
Si Si4 0.433542 0.151172 0.289559
Si Si5 0.250983 0.683384 0.254311
O O1 0.500000 0.500000 0.500000
O O2 0.330293 0.970162 0.644322
O O3 0.191902 0.036902 0.294129
O O4 0.000000 0.000000 0.500000
O O5 0.770309 0.543448 0.048488
O O6 0.912225 0.055221 0.095599
O O7 0.539545 0.032906 0.181436
O O8 0.500000 0.000000 0.000000
O O9 0.459531 0.449189 0.808505
O O10 0.957677 0.449892 0.813509
O O11 0.323763 0.512756 0.323860
O O12 0.500000 0.000000 0.500000
#
# Coordination Sequence:
#
# PCOD9004919 Si02
#       5
#     2   2   2   2   2
#     4  12  28  50  79 114 152 199 256 318 387 459
#     4  10  21  40  65  98 136 182 233 290 357 434
#     4  10  21  38  59  90 129 174 226 280 339 417
#     4  10  23  43  68 101 142 187 239 303 367 441
#     4  10  21  39  64  93 128 178 227 283 354 421
#
# _framework density 28.095789
#
# number of rings (size 3 to 8) (size 9 to 14) (size 15 to 20)
#    0.000    1.600    0.000    3.600    0.000    9.600 
#    0.000   24.000    0.000    0.000    0.000    0.000 
#    0.000    0.000    0.000    0.000    0.000    0.000 
#
# Total GULP energy -55903.467935 kJ/mol
# GULP energy per Si atom -5590.346793 kJ/mol
# Density = 2.803184 g / cm^3
# Si number density = 28.095789 Si / 1000 Ang^3
#
#
#
# Elastic Constant Matrix: (Units=GPa)
#
#
# Indices 1 2 3 4 5 6 
#
# 1 249.4564 95.5049 66.3342 -33.2495 12.9499 37.9398
# 2 95.5049 248.6611 63.9329 -40.8487 -4.2912 63.7356
# 3 66.3342 63.9329 172.6483 -37.1929 12.2029 -2.6027
# 4 -33.2495 -40.8487 -37.1929 72.1414 -12.6370 -9.9769
# 5 12.9499 -4.2912 12.2029 -12.6370 46.0452 -15.7497
# 6 37.9398 63.7356 -2.6027 -9.9769 -15.7497 73.7623
#
#
#
# Elastic Compliance Matrix: (Units=1/GPa)
#
#
# Indices 1 2 3 4 5 6 
#
# 1 0.005285 -0.001052 -0.001443 0.000476 -0.001819 -0.002184
# 2 -0.001052 0.006341 -0.001679 0.001610 0.000150 -0.004748
# 3 -0.001443 -0.001679 0.007592 0.002674 -0.000068 0.002808
# 4 0.000476 0.001610 0.002674 0.017451 0.004722 0.001828
# 5 -0.001819 0.000150 -0.000068 0.004722 0.025945 0.006982
# 6 -0.002184 -0.004748 0.002808 0.001828 0.006982 0.020620
#
#
# Mechanical properties :
#
#
# Convention : Reuss Voigt Hill
#
# Bulk Modulus (GPa) = 92.00470 124.70108 108.35289
# Shear Modulus (GPa) = 52.51716 68.05604 60.28660
#
# Velocity S-wave (km/s) = 4.32814 4.92701 4.63725
# Velocity P-wave (km/s) = 7.60230 8.76629 8.20496
#
# Compressibility (1/GPa) = 0.01086901
#
# Stress axis : x y z
#
# Youngs Moduli (GPa) = 189.20400 157.69370 131.72326
#
# Poissons Ratio (x) = 0.16596 0.19006
# Poissons Ratio (y) = 0.19913 0.22121
# Poissons Ratio (z) = 0.27300 0.26482
#
# Static dielectric constant tensor:
#      x y z
#    x 2.297730 -0.299830 0.026630 
#    y -0.299830 2.935800 0.193190 
#    z 0.026630 0.193190 2.297270 
# 
# From -- ./inp_files/2803.got.cif
#   From: 2010.05.17/outbox.cif.g08.bks.cpg/sg2_2_cif.got.tgz:2803.got - 2010.06.03 11:33:40.
