data_PCOD9004798
_publ_section_title
;
Structure prediction by ZEFSAII (Michael W. Deem and Ramdas Pophale) SiO2 
 PCOD9004798
Probable space group: P -1
;
_chemical_formula_sum "Si O2"
_cell_formula_units_Z 16
_cell_length_a 10.339883
_cell_length_b 17.518968
_cell_length_c 7.736751
_cell_angle_alpha 109.013479
_cell_angle_beta 115.775661
_cell_angle_gamma 127.095487
_cell_volume 577.989805
_symmetry_space_group_name_H-M "P -1"
_symmetry_group_IT_number 2
_symmetry_cell_setting 'triclinic'
loop_
_space_group_symop_operation_xyz
x,y,z
-x,-y,-z
loop_
_atom_site_type_symbol
_atom_site_label
_atom_site_fract_x
_atom_site_fract_y
_atom_site_fract_z
Si Si1 0.839051 0.150229 0.522705
Si Si2 0.354203 0.728540 0.754007
Si Si3 0.810859 0.966098 0.486374
Si Si4 0.776954 0.638469 0.634855
Si Si5 0.537607 0.297111 0.682370
Si Si6 0.907572 0.541222 0.777128
Si Si7 0.226847 0.452264 0.785886
Si Si8 0.279043 0.979490 0.028599
O O1 0.117101 0.345041 0.804607
O O2 0.783277 0.088774 0.249513
O O3 0.908267 0.106637 0.646432
O O4 0.545980 0.058212 0.325882
O O5 0.228562 0.577369 0.547959
O O6 0.080594 0.653290 0.512971
O O7 0.503193 0.816791 0.088746
O O8 0.583029 0.866385 0.834535
O O9 0.750739 0.897056 0.585867
O O10 0.000000 0.000000 0.500000
O O11 0.500000 0.500000 0.500000
O O12 0.979351 0.666773 0.857464
O O13 0.690836 0.560344 0.339087
O O14 0.980086 0.815948 0.840516
O O15 0.638672 0.397548 0.650551
O O16 0.810916 0.368447 0.918829
O O17 0.540858 0.366776 0.886595
#
# Coordination Sequence:
#
# PCOD9004798 Si02
#       8
#     2   2   2   2   2   2   2   2
#     4   8  15  31  56  81 103 135 184 233 270 314
#     4   9  18  37  64  84 102 140 192 236 273 319
#     4  11  21  33  52  83 117 148 180 218 274 338
#     4  11  21  33  52  83 117 148 180 218 274 338
#     4  10  21  38  59  83 110 142 186 236 277 318
#     4  10  21  38  59  83 110 142 186 236 277 318
#     4   9  18  37  64  84 102 140 192 236 273 319
#     4   8  15  31  56  81 103 135 184 233 270 314
#
# _framework density 27.682148999999999
#
# number of rings (size 3 to 8) (size 9 to 14) (size 15 to 20)
#    0.000    2.500    0.000    4.500    0.000    5.000 
#    0.000    8.750    0.000    6.000    0.000    0.000 
#    0.000    0.000    0.000    0.000    0.000    1.500 
#
# Total GULP energy -89612.471878 kJ/mol
# GULP energy per Si atom -5600.779492 kJ/mol
# Density = 2.761914 g / cm^3
# Si number density = 27.682149 Si / 1000 Ang^3
#
#
#
# Elastic Constant Matrix: (Units=GPa)
#
#
# Indices 1 2 3 4 5 6 
#
# 1 52.1759 29.3909 26.4017 13.7442 9.7578 16.9630
# 2 29.3909 195.4845 21.8176 45.2381 4.4419 11.1663
# 3 26.4017 21.8176 47.0014 6.1426 8.1033 -3.4430
# 4 13.7442 45.2381 6.1426 40.8888 2.4738 -3.9888
# 5 9.7578 4.4419 8.1033 2.4738 40.0150 6.4470
# 6 16.9630 11.1663 -3.4430 -3.9888 6.4470 56.3985
#
#
#
# Elastic Compliance Matrix: (Units=1/GPa)
#
#
# Indices 1 2 3 4 5 6 
#
# 1 0.036319 -0.000154 -0.019532 -0.010193 -0.002232 -0.012551
# 2 -0.000154 0.007385 -0.002560 -0.007984 0.000585 -0.002204
# 3 -0.019532 -0.002560 0.034041 0.005410 -0.003673 0.009262
# 4 -0.010193 -0.007984 0.005410 0.036731 -0.001238 0.007716
# 5 -0.002232 0.000585 -0.003673 -0.001238 0.026743 -0.002813
# 6 -0.012551 -0.002204 0.009262 0.007716 -0.002813 0.023375
#
#
# Mechanical properties :
#
#
# Convention : Reuss Voigt Hill
#
# Bulk Modulus (GPa) = 30.07385 49.98694 40.03040
# Shear Modulus (GPa) = 22.70954 41.93056 32.32005
#
# Velocity S-wave (km/s) = 2.86731 3.89616 3.42064
# Velocity P-wave (km/s) = 4.67435 6.19166 5.48572
#
# Compressibility (1/GPa) = 0.03325148
#
# Stress axis : x y z
#
# Youngs Moduli (GPa) = 27.53343 135.41698 29.37643
#
# Poissons Ratio (x) = 0.02088 0.57379
# Poissons Ratio (y) = 0.00425 0.07521
# Poissons Ratio (z) = 0.53780 0.34668
#
# Static dielectric constant tensor:
#      x y z
#    x 2.207510 0.017630 -0.006080 
#    y 0.017630 2.175720 -0.037860 
#    z -0.006080 -0.037860 2.144550 
# 
# From -- ./inp_files/279529.got.cif
#   From: 2010.05.17/outbox.cif.g08.bks.cpg/sg2_140_cif.got.tgz:279529.got - 2010.06.03 11:33:40.
