data_PCOD9004475
_publ_section_title
;
Structure prediction by ZEFSAII (Michael W. Deem and Ramdas Pophale) SiO2 
 PCOD9004475
Probable space group: P -1
;
_chemical_formula_sum "Si O2"
_cell_formula_units_Z 14
_cell_length_a 7.694460
_cell_length_b 9.476591
_cell_length_c 9.667852
_cell_angle_alpha 108.629649
_cell_angle_beta 91.233137
_cell_angle_gamma 69.804968
_cell_volume 623.818111
_symmetry_space_group_name_H-M "P -1"
_symmetry_group_IT_number 2
_symmetry_cell_setting 'triclinic'
loop_
_space_group_symop_operation_xyz
x,y,z
-x,-y,-z
loop_
_atom_site_type_symbol
_atom_site_label
_atom_site_fract_x
_atom_site_fract_y
_atom_site_fract_z
Si Si1 0.100826 0.118614 0.589226
Si Si2 0.297902 0.037716 0.847524
Si Si3 0.924942 0.548761 0.359787
Si Si4 0.668725 0.038134 0.697634
Si Si5 0.514247 0.302610 0.297929
Si Si6 0.484640 0.650373 0.367892
Si Si7 0.835472 0.781786 0.816117
O O1 0.149971 0.089122 0.739862
O O2 0.001931 0.308240 0.630150
O O3 0.285003 0.061647 0.476103
O O4 0.000000 0.000000 0.500000
O O5 0.484953 0.047631 0.782986
O O6 0.344009 0.851578 0.823765
O O7 0.236427 0.146244 0.013806
O O8 0.703136 0.625022 0.361867
O O9 0.000000 0.500000 0.500000
O O10 0.989963 0.381436 0.226609
O O11 0.631847 0.217001 0.701384
O O12 0.836248 0.928793 0.765489
O O13 0.482752 0.474557 0.290605
O O14 0.577168 0.299708 0.458296
O O15 0.318848 0.276987 0.276832
#
# Coordination Sequence:
#
# PCOD9004475 Si02
#       7
#     2   2   2   2   2   2   2
#     4  12  26  40  71  99 128 168 223 274 322 386
#     4  11  23  45  65  96 135 175 216 266 334 389
#     4  12  23  42  66  94 130 171 220 270 327 386
#     4  11  21  44  68  96 124 176 221 259 323 388
#     4  10  21  37  67  98 128 163 225 271 314 382
#     4  11  22  38  70  99 125 169 224 277 311 377
#     4  11  25  42  69  93 136 177 211 269 336 389
#
# _framework density 22.442440999999999
#
# number of rings (size 3 to 8) (size 9 to 14) (size 15 to 20)
#    0.000    0.857    5.714    3.000    4.000    0.571 
#    0.000    7.143    0.000    0.000    0.000    0.000 
#    0.000    0.000    0.000    0.000    0.000    0.000 
#
# Total GULP energy -78196.860067 kJ/mol
# GULP energy per Si atom -5585.490005 kJ/mol
# Density = 2.239136 g / cm^3
# Si number density = 22.442441 Si / 1000 Ang^3
#
#
#
# Elastic Constant Matrix: (Units=GPa)
#
#
# Indices 1 2 3 4 5 6 
#
# 1 36.8399 37.9315 18.0100 3.6583 -6.6345 1.5748
# 2 37.9315 223.0378 63.9905 19.1386 -12.9614 4.5746
# 3 18.0100 63.9905 121.1630 19.2063 -14.9633 1.9630
# 4 3.6583 19.1386 19.2063 36.2070 -11.5643 -2.9335
# 5 -6.6345 -12.9614 -14.9633 -11.5643 16.4783 2.0613
# 6 1.5748 4.5746 1.9630 -2.9335 2.0613 26.1872
#
#
#
# Elastic Compliance Matrix: (Units=1/GPa)
#
#
# Indices 1 2 3 4 5 6 
#
# 1 0.034923 -0.005081 -0.001650 0.003484 0.011209 -0.001581
# 2 -0.005081 0.006133 -0.002245 -0.001718 -0.000370 -0.000761
# 3 -0.001650 -0.002245 0.010823 -0.002666 0.005660 -0.001064
# 4 0.003484 -0.001718 -0.002666 0.037301 0.023480 0.002621
# 5 0.011209 -0.000370 0.005660 0.023480 0.087184 -0.005266
# 6 -0.001581 -0.000761 -0.001064 0.002621 -0.005266 0.039202
#
#
# Mechanical properties :
#
#
# Convention : Reuss Voigt Hill
#
# Bulk Modulus (GPa) = 29.47504 68.98940 49.23222
# Shear Modulus (GPa) = 20.42251 33.18172 26.80211
#
# Velocity S-wave (km/s) = 3.01988 3.84933 3.45956
# Velocity P-wave (km/s) = 5.03207 7.11082 6.15977
#
# Compressibility (1/GPa) = 0.03392701
#
# Stress axis : x y z
#
# Youngs Moduli (GPa) = 28.63451 163.04550 92.39437
#
# Poissons Ratio (x) = 0.82844 0.15245
# Poissons Ratio (y) = 0.14549 0.20743
# Poissons Ratio (z) = 0.04725 0.36605
#
# Static dielectric constant tensor:
#      x y z
#    x 1.955380 -0.003750 -0.041980 
#    y -0.003750 1.888600 0.006780 
#    z -0.041980 0.006780 1.770300 
# 
# From -- ./inp_files/157672.got.cif
#   From: 2010.05.17/outbox.cif.g08.bks.cpg/sg2_79_cif.got.tgz:157672.got - 2010.06.03 11:33:40.
