data_PCOD9004043
_publ_section_title
;
Structure prediction by ZEFSAII (Michael W. Deem and Ramdas Pophale) SiO2 
 PCOD9004043
Probable space group: P -1
;
_chemical_formula_sum "Si O2"
_cell_formula_units_Z 16
_cell_length_a 11.547419
_cell_length_b 14.791338
_cell_length_c 16.700982
_cell_angle_alpha 34.249608
_cell_angle_beta 123.360173
_cell_angle_gamma 149.503960
_cell_volume 670.297323
_symmetry_space_group_name_H-M "P -1"
_symmetry_group_IT_number 2
_symmetry_cell_setting 'triclinic'
loop_
_space_group_symop_operation_xyz
x,y,z
-x,-y,-z
loop_
_atom_site_type_symbol
_atom_site_label
_atom_site_fract_x
_atom_site_fract_y
_atom_site_fract_z
Si Si1 0.014875 0.921093 0.405638
Si Si2 0.199854 0.620643 0.743115
Si Si3 0.765437 0.666185 0.335990
Si Si4 0.516119 0.748560 0.205206
Si Si5 0.422114 0.687691 0.630827
Si Si6 0.126607 0.980386 0.616269
Si Si7 0.808866 0.309587 0.144507
Si Si8 0.425164 0.952725 0.124501
O O1 0.978737 0.835758 0.362273
O O2 0.745704 0.583923 0.599398
O O3 0.997280 0.094778 0.289912
O O4 0.308352 0.154285 0.377344
O O5 0.278679 0.560302 0.755626
O O6 0.166365 0.545964 0.878102
O O7 0.904625 0.390997 0.766117
O O8 0.446624 0.002552 0.559858
O O9 0.734173 0.827814 0.209472
O O10 0.772688 0.581671 0.315743
O O11 0.456704 0.315360 0.506213
O O12 0.579621 0.965000 0.126306
O O13 0.474161 0.784516 0.074722
O O14 0.105635 0.779906 0.722385
O O15 0.000000 0.000000 0.500000
O O16 0.508682 0.025148 0.195839
O O17 0.000000 0.500000 0.000000
#
# Coordination Sequence:
#
# PCOD9004043 Si02
#       8
#     2   2   2   2   2   2   2   2
#     4  11  21  37  64  95 127 157 220 264 321 374
#     4  11  25  43  59  92 129 176 214 260 320 379
#     4  11  22  37  64  92 122 165 221 259 324 373
#     4  10  21  37  63  97 126 165 200 271 328 383
#     4  11  24  41  64  87 129 173 221 263 308 380
#     4  11  21  37  62  96 135 161 204 273 327 377
#     4  12  25  39  68 102 128 167 214 263 332 388
#     4  11  23  40  63  90 140 162 204 263 334 380
#
# _framework density 23.870004999999999
#
# number of rings (size 3 to 8) (size 9 to 14) (size 15 to 20)
#    0.000    1.000    3.750    4.500    5.250    1.000 
#    0.000    3.125    0.000    5.250    0.000    0.000 
#    0.000    0.000    0.000    0.000    0.000    0.000 
#
# Total GULP energy -89161.067653 kJ/mol
# GULP energy per Si atom -5572.566728 kJ/mol
# Density = 2.381568 g / cm^3
# Si number density = 23.870005 Si / 1000 Ang^3
#
#
#
# Elastic Constant Matrix: (Units=GPa)
#
#
# Indices 1 2 3 4 5 6 
#
# 1 125.7652 19.4012 30.3691 23.8096 -22.7884 -41.5339
# 2 19.4012 124.1271 22.0496 24.7173 -8.2943 -38.6013
# 3 30.3691 22.0496 49.1092 15.6596 -6.4998 -5.2417
# 4 23.8096 24.7173 15.6596 26.0396 -2.6520 -6.9061
# 5 -22.7884 -8.2943 -6.4998 -2.6520 29.3023 11.7517
# 6 -41.5339 -38.6013 -5.2417 -6.9061 11.7517 39.7619
#
#
#
# Elastic Compliance Matrix: (Units=1/GPa)
#
#
# Indices 1 2 3 4 5 6 
#
# 1 0.021359 0.010078 -0.009072 -0.016059 0.005360 0.026525
# 2 0.010078 0.018668 -0.006751 -0.016257 0.000173 0.024886
# 3 -0.009072 -0.006751 0.030035 -0.006811 0.002717 -0.014056
# 4 -0.016059 -0.016257 -0.006811 0.066714 -0.004304 -0.020596
# 5 0.005360 0.000173 0.002717 -0.004304 0.041296 -0.006828
# 6 0.026525 0.024886 -0.014056 -0.020596 -0.006828 0.073604
#
#
# Mechanical properties :
#
#
# Convention : Reuss Voigt Hill
#
# Bulk Modulus (GPa) = 17.07292 49.18236 33.12764
# Shear Modulus (GPa) = 17.68734 34.16620 25.92677
#
# Velocity S-wave (km/s) = 2.72506 3.78742 3.29928
# Velocity P-wave (km/s) = 4.13149 6.30674 5.33124
#
# Compressibility (1/GPa) = 0.05857229
#
# Stress axis : x y z
#
# Youngs Moduli (GPa) = 46.81971 53.56734 33.29470
#
# Poissons Ratio (x) = -0.53984 0.30203
# Poissons Ratio (y) = -0.47184 0.22477
# Poissons Ratio (z) = 0.42473 0.36163
#
# Static dielectric constant tensor:
#      x y z
#    x 1.930290 -0.080090 0.048900 
#    y -0.080090 2.049120 -0.025490 
#    z 0.048900 -0.025490 2.091590 
# 
# From -- ./inp_files/522282.got.cif
#   From: 2010.05.17/outbox.cif.g08.bks.cpg/sg2_262_cif.got.tgz:522282.got - 2010.06.03 11:33:40.
