data_PCOD9004856
_publ_section_title
;
Structure prediction by ZEFSAII (Michael W. Deem and Ramdas Pophale) SiO2 
 PCOD9004856
Probable space group: P -1
;
_chemical_formula_sum "Si O2"
_cell_formula_units_Z 14
_cell_length_a 13.971914
_cell_length_b 8.029306
_cell_length_c 15.404486
_cell_angle_alpha 108.582996
_cell_angle_beta 158.849918
_cell_angle_gamma 63.126466
_cell_volume 527.008307
_symmetry_space_group_name_H-M "P -1"
_symmetry_group_IT_number 2
_symmetry_cell_setting 'triclinic'
loop_
_space_group_symop_operation_xyz
x,y,z
-x,-y,-z
loop_
_atom_site_type_symbol
_atom_site_label
_atom_site_fract_x
_atom_site_fract_y
_atom_site_fract_z
Si Si1 0.731291 0.437621 0.000189
Si Si2 0.379960 0.285422 0.373442
Si Si3 0.841202 0.331661 0.254694
Si Si4 0.254934 0.054842 0.880467
Si Si5 0.082786 0.768799 0.523828
Si Si6 0.932466 0.940254 0.840283
Si Si7 0.873256 0.673840 0.025232
O O1 0.424109 0.619775 0.797024
O O2 0.769505 0.521065 0.954269
O O3 0.938989 0.384441 0.254281
O O4 0.762954 0.221356 0.970902
O O5 0.254896 0.183528 0.322629
O O6 0.248636 0.272057 0.165882
O O7 0.731762 0.136833 0.649891
O O8 0.227125 0.519952 0.302306
O O9 0.040573 0.293963 0.505062
O O10 0.817442 0.126682 0.196311
O O11 0.500000 0.500000 0.000000
O O12 0.000712 0.242618 0.647409
O O13 0.274785 0.141319 0.004372
O O14 0.500000 0.000000 0.000000
O O15 0.000000 0.000000 0.500000
O O16 0.000000 0.000000 0.000000
#
# Coordination Sequence:
#
# PCOD9004856 Si02
#       7
#     2   2   2   2   2   2   2
#     4  10  21  38  59  87 115 164 197 254 311 353
#     4   9  22  43  60  92 128 164 204 268 301 366
#     4   9  19  38  57  83 122 150 199 247 294 372
#     4  11  22  35  60  89 116 161 201 248 311 373
#     4   9  19  36  57  84 120 152 202 251 294 370
#     4  10  22  39  65  90 124 160 212 253 315 371
#     4  10  21  41  62  86 128 161 203 253 315 357
#
# _framework density 26.565048000000001
#
# number of rings (size 3 to 8) (size 9 to 14) (size 15 to 20)
#    0.000    2.286    0.000    2.571    4.000    3.429 
#    0.000    8.571    0.000    0.000    0.000    0.000 
#    0.000    0.000    0.000    0.000    0.000    0.000 
#
# Total GULP energy -77949.980665 kJ/mol
# GULP energy per Si atom -5567.855762 kJ/mol
# Density = 2.650458 g / cm^3
# Si number density = 26.565048 Si / 1000 Ang^3
#
#
#
# Elastic Constant Matrix: (Units=GPa)
#
#
# Indices 1 2 3 4 5 6 
#
# 1 121.7065 26.3076 36.5575 -16.2047 -39.1820 -2.5472
# 2 26.3076 140.6320 30.8606 -55.8068 -6.7186 4.5780
# 3 36.5575 30.8606 114.7438 -47.1654 -25.1719 0.7165
# 4 -16.2047 -55.8068 -47.1654 39.2022 0.8020 -1.4469
# 5 -39.1820 -6.7186 -25.1719 0.8020 52.8161 -9.5486
# 6 -2.5472 4.5780 0.7165 -1.4469 -9.5486 45.1666
#
#
#
# Elastic Compliance Matrix: (Units=1/GPa)
#
#
# Indices 1 2 3 4 5 6 
#
# 1 0.011935 0.000927 0.001294 0.007712 0.009999 0.002920
# 2 0.000927 0.035495 0.029716 0.086383 0.018536 0.002669
# 3 0.001294 0.029716 0.046531 0.098468 0.026333 0.005044
# 4 0.007712 0.086383 0.098468 0.269313 0.061680 0.011784
# 5 0.009999 0.018536 0.026333 0.061680 0.041971 0.009116
# 6 0.002920 0.002669 0.005044 0.011784 0.009116 0.024259
#
#
# Mechanical properties :
#
#
# Convention : Reuss Voigt Hill
#
# Bulk Modulus (GPa) = 6.33580 62.72595 34.53088
# Shear Modulus (GPa) = 11.95480 46.32742 29.14111
#
# Velocity S-wave (km/s) = 2.12367 4.18056 3.31565
# Velocity P-wave (km/s) = 2.89888 6.85319 5.26164
#
# Compressibility (1/GPa) = 0.15783323
#
# Stress axis : x y z
#
# Youngs Moduli (GPa) = 83.79031 28.17333 21.49082
#
# Poissons Ratio (x) = -0.02610 -0.02780
# Poissons Ratio (y) = -0.07764 -0.63862
# Poissons Ratio (z) = -0.10841 -0.83720
#
# Static dielectric constant tensor:
#      x y z
#    x 2.328600 -0.018630 0.290660 
#    y -0.018630 2.119820 0.030120 
#    z 0.290660 0.030120 2.153990 
# 
# From -- ./inp_files/220390.got.cif
#   From: 2010.05.17/outbox.cif.g08.bks.cpg/sg2_111_cif.got.tgz:220390.got - 2010.06.03 11:33:40.
