data_PCOD9004114
_publ_section_title
;
Structure prediction by ZEFSAII (Michael W. Deem and Ramdas Pophale) SiO2 
 PCOD9004114
Probable space group: P -1
;
_chemical_formula_sum "Si O2"
_cell_formula_units_Z 15
_cell_length_a 19.420360
_cell_length_b 9.274655
_cell_length_c 9.622952
_cell_angle_alpha 56.663211
_cell_angle_beta 138.132502
_cell_angle_gamma 140.717016
_cell_volume 730.945411
_symmetry_space_group_name_H-M "P -1"
_symmetry_group_IT_number 2
_symmetry_cell_setting 'triclinic'
loop_
_space_group_symop_operation_xyz
x,y,z
-x,-y,-z
loop_
_atom_site_type_symbol
_atom_site_label
_atom_site_fract_x
_atom_site_fract_y
_atom_site_fract_z
Si Si1 0.826448 0.716121 0.427261
Si Si2 0.000000 0.000000 0.000000
Si Si3 0.578018 0.311716 0.581235
Si Si4 0.081334 0.933201 0.855217
Si Si5 0.459779 0.647341 0.903597
Si Si6 0.519777 0.831096 0.177885
Si Si7 0.334975 0.959532 0.193205
Si Si8 0.756917 0.845675 0.515527
O O1 0.868198 0.843298 0.275105
O O2 0.683088 0.464113 0.323649
O O3 0.805065 0.855001 0.426525
O O4 0.943319 0.734455 0.668434
O O5 0.950528 0.049442 0.044153
O O6 0.121894 0.041482 0.253272
O O7 0.542079 0.258136 0.716992
O O8 0.440372 0.133863 0.379831
O O9 0.649855 0.572744 0.527455
O O10 0.675288 0.258326 0.712776
O O11 0.196339 0.912936 0.025175
O O12 0.581736 0.898194 0.896969
O O13 0.500000 0.500000 0.000000
O O14 0.445746 0.635845 0.053300
O O15 0.675025 0.933711 0.357557
O O16 0.500000 0.000000 0.000000
#
# Coordination Sequence:
#
# PCOD9004114 Si02
#       8
#     2   1   2   2   2   2   2   2
#     4  10  21  37  64  91 121 169 215 253 315 394
#     4  10  24  40  64  92 128 166 220 266 322 384
#     4  11  24  38  63  96 129 167 216 268 321 383
#     4  10  21  39  61  93 124 167 211 266 318 383
#     4  12  20  38  66  94 126 169 215 261 321 384
#     4  12  24  38  63  99 132 161 210 276 321 369
#     4  11  21  40  64  93 131 167 216 265 322 381
#     4  11  22  42  62  92 126 171 216 258 322 389
#
# _framework density 20.521367999999999
#
# number of rings (size 3 to 8) (size 9 to 14) (size 15 to 20)
#    0.000    1.067    5.333    1.200    1.867    0.000 
#    0.000    4.000    0.000    1.600    0.000    0.000 
#    0.000    0.000    0.000    0.000    0.000    0.000 
#
# Total GULP energy -83533.613297 kJ/mol
# GULP energy per Si atom -5568.907553 kJ/mol
# Density = 2.047466 g / cm^3
# Si number density = 20.521368 Si / 1000 Ang^3
#
#
#
# Elastic Constant Matrix: (Units=GPa)
#
#
# Indices 1 2 3 4 5 6 
#
# 1 121.9251 11.4840 76.6223 11.5233 6.9719 -6.6826
# 2 11.4840 17.6943 20.2089 -4.9603 13.4641 -0.7674
# 3 76.6223 20.2089 159.8811 23.1708 24.5802 -6.6138
# 4 11.5233 -4.9603 23.1708 32.2391 0.0911 -0.6553
# 5 6.9719 13.4641 24.5802 0.0911 58.7928 4.1545
# 6 -6.6826 -0.7674 -6.6138 -0.6553 4.1545 21.3245
#
#
#
# Elastic Compliance Matrix: (Units=1/GPa)
#
#
# Indices 1 2 3 4 5 6 
#
# 1 0.011945 -0.002763 -0.005401 -0.000782 0.001357 0.001680
# 2 -0.002763 0.088851 -0.010601 0.022379 -0.015821 0.002814
# 3 -0.005401 -0.010601 0.011723 -0.008086 -0.001940 0.001691
# 4 -0.000782 0.022379 -0.008086 0.040550 -0.001688 -0.000373
# 5 0.001357 -0.015821 -0.001940 -0.001688 0.021639 -0.005014
# 6 0.001680 0.002814 0.001691 -0.000373 -0.005014 0.049012
#
#
# Mechanical properties :
#
#
# Convention : Reuss Voigt Hill
#
# Bulk Modulus (GPa) = 13.33530 57.34788 35.34159
# Shear Modulus (GPa) = 17.46749 35.21697 26.34223
#
# Velocity S-wave (km/s) = 2.92067 4.14709 3.58669
# Velocity P-wave (km/s) = 4.22920 7.13704 5.86615
#
# Compressibility (1/GPa) = 0.07498892
#
# Stress axis : x y z
#
# Youngs Moduli (GPa) = 83.72037 11.25481 85.30164
#
# Poissons Ratio (x) = 0.03109 0.46070
# Poissons Ratio (y) = 0.23130 0.90430
# Poissons Ratio (z) = 0.45216 0.11931
#
# Static dielectric constant tensor:
#      x y z
#    x 1.742270 0.035110 0.002180 
#    y 0.035110 1.745650 0.007920 
#    z 0.002180 0.007920 1.754340 
# 
# From -- ./inp_files/327383.got.cif
#   From: 2010.05.17/outbox.cif.g08.bks.cpg/sg2_164_cif.got.tgz:327383.got - 2010.06.03 11:33:40.
