data_PCOD9004995
_publ_section_title
;
Structure prediction by ZEFSAII (Michael W. Deem and Ramdas Pophale) SiO2 
 PCOD9004995
Probable space group: P -1
;
_chemical_formula_sum "Si O2"
_cell_formula_units_Z 16
_cell_length_a 5.221792
_cell_length_b 22.299260
_cell_length_c 4.920290
_cell_angle_alpha 104.999830
_cell_angle_beta 97.763512
_cell_angle_gamma 88.984972
_cell_volume 548.245711
_symmetry_space_group_name_H-M "P -1"
_symmetry_group_IT_number 2
_symmetry_cell_setting 'triclinic'
loop_
_space_group_symop_operation_xyz
x,y,z
-x,-y,-z
loop_
_atom_site_type_symbol
_atom_site_label
_atom_site_fract_x
_atom_site_fract_y
_atom_site_fract_z
Si Si1 0.220877 0.423410 0.996639
Si Si2 0.050673 0.178139 0.396794
Si Si3 0.708888 0.700458 0.336707
Si Si4 0.750048 0.204167 0.886607
Si Si5 0.740615 0.326684 0.334744
Si Si6 0.756394 0.954117 0.654776
Si Si7 0.677364 0.450266 0.663376
Si Si8 0.432310 0.925732 0.079368
O O1 0.254713 0.349584 0.960197
O O2 0.425102 0.438721 0.801285
O O3 0.930359 0.434210 0.864669
O O4 0.284258 0.475846 0.293209
O O5 0.269485 0.224824 0.603915
O O6 0.065021 0.104699 0.350279
O O7 0.012743 0.193133 0.092868
O O8 0.811163 0.196938 0.572318
O O9 0.463979 0.684800 0.467565
O O10 0.971223 0.685682 0.529084
O O11 0.681063 0.274138 0.039928
O O12 0.598383 0.144852 0.915526
O O13 0.712585 0.400325 0.367220
O O14 0.665726 0.952001 0.329857
O O15 0.795310 0.026319 0.823405
O O16 0.518503 0.932905 0.792104
#
# Coordination Sequence:
#
# PCOD9004995 Si02
#       8
#     2   2   2   2   2   2   2   2
#     4   8  13  23  43  72 106 145 189 238 292 350
#     4  11  23  38  58  86 119 158 204 252 304 363
#     4   9  18  33  53  81 116 154 198 247 300 358
#     4  11  23  38  58  86 119 158 204 252 304 363
#     4   9  18  33  53  81 116 154 198 247 300 358
#     4  10  21  38  60  86 118 158 203 251 304 363
#     4   8  13  23  43  72 106 145 189 238 292 350
#     4  10  21  38  60  86 118 158 203 251 304 363
#
# _framework density 29.183993000000001
#
# number of rings (size 3 to 8) (size 9 to 14) (size 15 to 20)
#    0.000    2.500    0.000    2.250    0.000    3.000 
#    0.000    0.000    0.000    0.750    0.000    0.000 
#    0.000   45.000    0.000    0.000    0.000   11.500 
#
# Total GULP energy -89607.127805 kJ/mol
# GULP energy per Si atom -5600.445488 kJ/mol
# Density = 2.911757 g / cm^3
# Si number density = 29.183993 Si / 1000 Ang^3
#
#
#
# Elastic Constant Matrix: (Units=GPa)
#
#
# Indices 1 2 3 4 5 6 
#
# 1 129.3006 42.4448 29.1801 -0.4744 -27.9781 2.9714
# 2 42.4448 175.3877 57.6414 42.6140 -13.8357 -26.7160
# 3 29.1801 57.6414 130.3191 38.7566 -5.7067 9.9654
# 4 -0.4744 42.6140 38.7566 69.8056 0.7075 -9.9858
# 5 -27.9781 -13.8357 -5.7067 0.7075 29.1568 12.2702
# 6 2.9714 -26.7160 9.9654 -9.9858 12.2702 52.1728
#
#
#
# Elastic Compliance Matrix: (Units=1/GPa)
#
#
# Indices 1 2 3 4 5 6 
#
# 1 0.011295 -0.002480 -0.001085 0.001504 0.011109 -0.004031
# 2 -0.002480 0.008594 -0.002714 -0.003086 -0.000709 0.004636
# 3 -0.001085 -0.002714 0.011154 -0.005273 0.002067 -0.004954
# 4 0.001504 -0.003086 -0.005273 0.019732 -0.003157 0.003860
# 5 0.011109 -0.000709 0.002067 -0.003157 0.050988 -0.013986
# 6 -0.004031 0.004636 -0.004954 0.003860 -0.013986 0.026745
#
#
# Mechanical properties :
#
#
# Convention : Reuss Voigt Hill
#
# Bulk Modulus (GPa) = 54.09415 77.06001 65.57708
# Shear Modulus (GPa) = 33.96153 50.60979 42.28566
#
# Velocity S-wave (km/s) = 3.41501 4.16885 3.81062
# Velocity P-wave (km/s) = 5.84171 7.04518 6.47148
#
# Compressibility (1/GPa) = 0.01848629
#
# Stress axis : x y z
#
# Youngs Moduli (GPa) = 88.53784 116.36398 89.65222
#
# Poissons Ratio (x) = 0.28857 0.09724
# Poissons Ratio (y) = 0.21956 0.24328
# Poissons Ratio (z) = 0.09603 0.31577
#
# Static dielectric constant tensor:
#      x y z
#    x 2.363880 -0.084200 0.164340 
#    y -0.084200 2.335550 0.114230 
#    z 0.164340 0.114230 2.204540 
# 
# From -- ./inp_files/14197.got.cif
#   From: 2010.05.17/outbox.cif.g08.bks.cpg/sg2_8_cif.got.tgz:14197.got - 2010.06.03 11:33:40.
