data_PCOD9004047
_publ_section_title
;
Structure prediction by ZEFSAII (Michael W. Deem and Ramdas Pophale) SiO2 
 PCOD9004047
Probable space group: P -1
;
_chemical_formula_sum "Si O2"
_cell_formula_units_Z 12
_cell_length_a 6.283466
_cell_length_b 14.543500
_cell_length_c 9.828601
_cell_angle_alpha 140.543953
_cell_angle_beta 90.222702
_cell_angle_gamma 90.621892
_cell_volume 570.636362
_symmetry_space_group_name_H-M "P -1"
_symmetry_group_IT_number 2
_symmetry_cell_setting 'triclinic'
loop_
_space_group_symop_operation_xyz
x,y,z
-x,-y,-z
loop_
_atom_site_type_symbol
_atom_site_label
_atom_site_fract_x
_atom_site_fract_y
_atom_site_fract_z
Si Si1 0.663458 0.513102 0.889832
Si Si2 0.308923 0.960061 0.549202
Si Si3 0.614793 0.118945 0.231705
Si Si4 0.063248 0.213947 0.710921
Si Si5 0.993624 0.290301 0.505973
Si Si6 0.400078 0.428587 0.552153
O O1 0.815572 0.385200 0.691170
O O2 0.500159 0.530151 0.785315
O O3 0.500000 0.500000 0.000000
O O4 0.831627 0.639288 0.069542
O O5 0.380184 0.937786 0.677810
O O6 0.188713 0.817117 0.327591
O O7 0.500000 0.000000 0.500000
O O8 0.151468 0.091508 0.671534
O O9 0.863099 0.174394 0.280139
O O10 0.486599 0.265951 0.380940
O O11 0.500000 0.000000 0.000000
O O12 0.111765 0.211113 0.543296
O O13 0.149847 0.397199 0.543994
O O14 0.500000 0.500000 0.500000
#
# Coordination Sequence:
#
# PCOD9004047 Si02
#       6
#     2   2   2   2   2   2
#     4  11  23  38  69  97 126 169 213 268 327 382
#     4  10  22  39  63  91 127 162 214 270 314 384
#     4  10  24  44  63  92 129 177 213 263 320 380
#     4  10  21  37  63  98 120 163 211 262 327 373
#     4  10  22  43  67  95 134 163 218 272 318 383
#     4  11  25  43  65  96 133 171 217 265 320 385
#
# _framework density 21.029153000000001
#
# number of rings (size 3 to 8) (size 9 to 14) (size 15 to 20)
#    0.000    1.667    1.667    1.500    7.000    3.333 
#    3.000    0.000    0.000    0.000    0.000    0.000 
#    0.000    0.000    0.000    0.000    0.000    0.000 
#
# Total GULP energy -66802.149095 kJ/mol
# GULP energy per Si atom -5566.845758 kJ/mol
# Density = 2.098129 g / cm^3
# Si number density = 21.029153 Si / 1000 Ang^3
#
#
#
# Elastic Constant Matrix: (Units=GPa)
#
#
# Indices 1 2 3 4 5 6 
#
# 1 127.9015 73.9452 71.6602 -10.6589 33.3315 36.6279
# 2 73.9452 124.2137 47.9739 -21.2370 6.7962 28.2117
# 3 71.6602 47.9739 126.0853 -5.8276 53.3759 11.0066
# 4 -10.6589 -21.2370 -5.8276 37.4485 3.5082 -2.0849
# 5 33.3315 6.7962 53.3759 3.5082 50.2502 9.1816
# 6 36.6279 28.2117 11.0066 -2.0849 9.1816 42.3033
#
#
#
# Elastic Compliance Matrix: (Units=1/GPa)
#
#
# Indices 1 2 3 4 5 6 
#
# 1 0.018271 -0.006291 -0.005602 0.000583 -0.003651 -0.009345
# 2 -0.006291 0.015227 -0.004868 0.005082 0.007823 -0.004889
# 3 -0.005602 -0.004868 0.020197 0.000894 -0.018398 0.006880
# 4 0.000583 0.005082 0.000894 0.030145 -0.003796 -0.001817
# 5 -0.003651 0.007823 -0.018398 -0.003796 0.042284 -0.006634
# 6 -0.009345 -0.004889 0.006880 -0.001817 -0.006634 0.034551
#
#
# Mechanical properties :
#
#
# Convention : Reuss Voigt Hill
#
# Bulk Modulus (GPa) = 49.57552 85.03989 67.30770
# Shear Modulus (GPa) = 24.88541 38.30848 31.59694
#
# Velocity S-wave (km/s) = 3.44376 4.27275 3.88045
# Velocity P-wave (km/s) = 6.28000 8.05411 7.22174
#
# Compressibility (1/GPa) = 0.02017125
#
# Stress axis : x y z
#
# Youngs Moduli (GPa) = 54.73260 65.67192 49.51285
#
# Poissons Ratio (x) = 0.41315 0.27738
# Poissons Ratio (y) = 0.34433 0.24105
# Poissons Ratio (z) = 0.30662 0.31972
#
# Static dielectric constant tensor:
#      x y z
#    x 1.861120 0.026400 -0.060510 
#    y 0.026400 1.724060 0.024730 
#    z -0.060510 0.024730 1.818690 
# 
# From -- ./inp_files/32504.got.cif
#   From: 2010.05.17/outbox.cif.g08.bks.cpg/sg2_17_cif.got.tgz:32504.got - 2010.06.03 11:33:40.
