data_PCOD9004638
_publ_section_title
;
Structure prediction by ZEFSAII (Michael W. Deem and Ramdas Pophale) SiO2 
 PCOD9004638
Probable space group: P -1
;
_chemical_formula_sum "Si O2"
_cell_formula_units_Z 16
_cell_length_a 11.062338
_cell_length_b 8.991796
_cell_length_c 12.295107
_cell_angle_alpha 146.818283
_cell_angle_beta 105.464556
_cell_angle_gamma 90.046259
_cell_volume 584.068269
_symmetry_space_group_name_H-M "P -1"
_symmetry_group_IT_number 2
_symmetry_cell_setting 'triclinic'
loop_
_space_group_symop_operation_xyz
x,y,z
-x,-y,-z
loop_
_atom_site_type_symbol
_atom_site_label
_atom_site_fract_x
_atom_site_fract_y
_atom_site_fract_z
Si Si1 0.501373 0.071039 0.852791
Si Si2 0.340586 0.142566 0.382483
Si Si3 0.199346 0.665748 0.413024
Si Si4 0.728624 0.706321 0.231919
Si Si5 0.894768 0.877906 0.801543
Si Si6 0.159703 0.554901 0.093651
Si Si7 0.069773 0.307384 0.538665
Si Si8 0.322615 0.777155 0.805641
O O1 0.522152 0.855828 0.635936
O O2 0.361027 0.980334 0.832141
O O3 0.589561 0.412408 0.046627
O O4 0.589031 0.039780 0.959588
O O5 0.213570 0.986057 0.169625
O O6 0.349954 0.470995 0.613513
O O7 0.277966 0.896079 0.310589
O O8 0.206657 0.451033 0.377542
O O9 0.174879 0.499629 0.190027
O O10 0.061181 0.702329 0.436348
O O11 0.304663 0.010905 0.627946
O O12 0.837626 0.764598 0.393203
O O13 0.799056 0.634310 0.099468
O O14 0.955726 0.870393 0.690879
O O15 0.000000 0.000000 0.000000
O O16 0.000000 0.500000 0.000000
O O17 0.163356 0.640778 0.719645
#
# Coordination Sequence:
#
# PCOD9004638 Si02
#       8
#     2   2   2   2   2   2   2   2
#     4   9  18  35  58  87 108 141 188 244 284 331
#     4  10  21  38  56  84 115 148 189 235 284 332
#     4  12  23  36  55  84 124 153 185 230 282 347
#     4  10  22  36  60  84 115 149 192 235 293 328
#     4  11  25  37  54  82 121 163 191 221 280 350
#     4  11  21  34  57  83 113 152 189 232 281 341
#     4  10  21  39  56  85 116 152 188 234 280 332
#     4   9  18  32  58  85 111 139 189 239 290 321
#
# _framework density 27.394058999999999
#
# number of rings (size 3 to 8) (size 9 to 14) (size 15 to 20)
#    0.000    1.750    1.250    4.125    8.750    0.000 
#    0.000    0.000    0.000    3.000    0.000   45.500 
#    0.000    0.000    0.000    0.000    0.000    0.000 
#
# Total GULP energy -89488.993026 kJ/mol
# GULP energy per Si atom -5593.062064 kJ/mol
# Density = 2.733171 g / cm^3
# Si number density = 27.394059 Si / 1000 Ang^3
#
#
#
# Elastic Constant Matrix: (Units=GPa)
#
#
# Indices 1 2 3 4 5 6 
#
# 1 63.7292 29.3367 6.4070 -1.7834 -22.5373 19.2582
# 2 29.3367 188.7907 42.8002 -17.5927 -21.8397 23.1236
# 3 6.4070 42.8002 92.5823 -13.2551 -9.4128 20.7532
# 4 -1.7834 -17.5927 -13.2551 52.2140 14.4777 5.2580
# 5 -22.5373 -21.8397 -9.4128 14.4777 37.5766 -2.7429
# 6 19.2582 23.1236 20.7532 5.2580 -2.7429 53.2458
#
#
#
# Elastic Compliance Matrix: (Units=1/GPa)
#
#
# Indices 1 2 3 4 5 6 
#
# 1 0.023425 -0.001781 0.001953 -0.002396 0.013879 -0.007509
# 2 -0.001781 0.006555 -0.002257 0.001273 0.001586 -0.001367
# 3 0.001953 -0.002257 0.013436 0.002737 0.001796 -0.005141
# 4 -0.002396 0.001273 0.002737 0.023087 -0.009163 -0.003505
# 5 0.013879 0.001586 0.001796 -0.009163 0.039585 -0.003464
# 6 -0.007509 -0.001367 -0.005141 -0.003505 -0.003464 0.024261
#
#
# Mechanical properties :
#
#
# Convention : Reuss Voigt Hill
#
# Bulk Modulus (GPa) = 25.47991 55.79889 40.63940
# Shear Modulus (GPa) = 33.87484 46.37784 40.12634
#
# Velocity S-wave (km/s) = 3.52031 4.11906 3.83140
# Velocity P-wave (km/s) = 5.08379 6.56014 5.86857
#
# Compressibility (1/GPa) = 0.03924660
#
# Stress axis : x y z
#
# Youngs Moduli (GPa) = 42.68936 152.55993 74.42509
#
# Poissons Ratio (x) = 0.27171 -0.14538
# Poissons Ratio (y) = 0.07603 0.16799
# Poissons Ratio (z) = -0.08339 0.34436
#
# Static dielectric constant tensor:
#      x y z
#    x 2.170640 0.018530 0.129340 
#    y 0.018530 2.122890 0.029340 
#    z 0.129340 0.029340 2.348550 
# 
# From -- ./inp_files/448363.got.cif
#   From: 2010.05.17/outbox.cif.g08.bks.cpg/sg2_225_cif.got.tgz:448363.got - 2010.06.03 11:33:40.
