data_PCOD9004397
_publ_section_title
;
Structure prediction by ZEFSAII (Michael W. Deem and Ramdas Pophale) SiO2 
 PCOD9004397
Probable space group: P -1
;
_chemical_formula_sum "Si O2"
_cell_formula_units_Z 12
_cell_length_a 8.623960
_cell_length_b 9.058157
_cell_length_c 14.784642
_cell_angle_alpha 54.028929
_cell_angle_beta 138.595430
_cell_angle_gamma 120.448633
_cell_volume 613.440900
_symmetry_space_group_name_H-M "P -1"
_symmetry_group_IT_number 2
_symmetry_cell_setting 'triclinic'
loop_
_space_group_symop_operation_xyz
x,y,z
-x,-y,-z
loop_
_atom_site_type_symbol
_atom_site_label
_atom_site_fract_x
_atom_site_fract_y
_atom_site_fract_z
Si Si1 0.943144 0.385594 0.391100
Si Si2 0.620257 0.550866 0.323188
Si Si3 0.242380 0.537207 0.908999
Si Si4 0.532182 0.148434 0.381724
Si Si5 0.321234 0.820204 0.005026
Si Si6 0.897763 0.861308 0.927382
O O1 0.809221 0.544070 0.324993
O O2 0.901219 0.402111 0.261262
O O3 0.795223 0.202402 0.435600
O O4 0.212712 0.411398 0.530918
O O5 0.484705 0.345168 0.332886
O O6 0.445500 0.697678 0.175508
O O7 0.500000 0.500000 0.000000
O O8 0.274039 0.694136 0.941695
O O9 0.130000 0.345741 0.971998
O O10 0.352583 0.101734 0.237259
O O11 0.500000 0.000000 0.500000
O O12 0.081260 0.874450 0.920938
O O13 0.500000 0.000000 0.000000
O O14 0.000000 0.000000 0.000000
#
# Coordination Sequence:
#
# PCOD9004397 Si02
#       6
#     2   2   2   2   2   2
#     4   9  20  37  68  89 128 170 208 257 333 373
#     4   9  20  40  60  94 129 170 211 252 329 379
#     4  12  20  43  65  95 130 166 215 271 319 383
#     4  10  21  37  66  94 131 163 220 258 328 380
#     4  12  26  41  66  94 134 173 221 268 320 385
#     4  12  27  40  67  97 130 173 223 266 326 380
#
# _framework density 19.561785
#
# number of rings (size 3 to 8) (size 9 to 14) (size 15 to 20)
#    1.000    0.333    5.000    1.500    4.667    0.000 
#    0.000    3.333    0.000    0.000    0.000    0.000 
#    0.000    0.000    0.000    0.000    0.000    0.000 
#
# Total GULP energy -66966.602191 kJ/mol
# GULP energy per Si atom -5580.550183 kJ/mol
# Density = 1.951726 g / cm^3
# Si number density = 19.561785 Si / 1000 Ang^3
#
#
#
# Elastic Constant Matrix: (Units=GPa)
#
#
# Indices 1 2 3 4 5 6 
#
# 1 53.0201 29.9785 -12.6656 9.9226 -14.0371 -5.1735
# 2 29.9785 148.3645 39.1791 16.6264 -24.4580 -0.2495
# 3 -12.6656 39.1791 89.4365 26.3505 -27.1500 -5.7323
# 4 9.9226 16.6264 26.3505 44.5387 1.4890 -12.3416
# 5 -14.0371 -24.4580 -27.1500 1.4890 32.9246 -4.2199
# 6 -5.1735 -0.2495 -5.7323 -12.3416 -4.2199 32.8928
#
#
#
# Elastic Compliance Matrix: (Units=1/GPa)
#
#
# Indices 1 2 3 4 5 6 
#
# 1 0.047250 -0.007991 0.030705 -0.024660 0.041775 0.008829
# 2 -0.007991 0.009566 -0.006527 0.001588 -0.002009 -0.001983
# 3 0.030705 -0.006527 0.040230 -0.027729 0.043565 0.006976
# 4 -0.024660 0.001588 -0.027729 0.046066 -0.033737 0.004257
# 5 0.041775 -0.002009 0.043565 -0.033737 0.085741 0.012489
# 6 0.008829 -0.001983 0.006976 0.004257 0.012489 0.036191
#
#
# Mechanical properties :
#
#
# Convention : Reuss Voigt Hill
#
# Bulk Modulus (GPa) = 7.72677 44.86725 26.29701
# Shear Modulus (GPa) = 18.12842 37.69316 27.91079
#
# Velocity S-wave (km/s) = 3.04752 4.39438 3.78140
# Velocity P-wave (km/s) = 4.04248 6.98093 5.70417
#
# Compressibility (1/GPa) = 0.12942023
#
# Stress axis : x y z
#
# Youngs Moduli (GPa) = 21.16395 104.53892 24.85686
#
# Poissons Ratio (x) = 0.83533 -0.76322
# Poissons Ratio (y) = 0.16911 0.16224
# Poissons Ratio (z) = -0.64983 0.68234
#
# Static dielectric constant tensor:
#      x y z
#    x 1.580710 -0.035310 -0.104590 
#    y -0.035310 1.658370 -0.028830 
#    z -0.104590 -0.028830 1.579920 
# 
# From -- ./inp_files/173591.got.cif
#   From: 2010.05.17/outbox.cif.g08.bks.cpg/sg2_87_cif.got.tgz:173591.got - 2010.06.03 11:33:40.
