data_PCOD9004993
_publ_section_title
;
Structure prediction by ZEFSAII (Michael W. Deem and Ramdas Pophale) SiO2 
 PCOD9004993
Probable space group: P -1
;
_chemical_formula_sum "Si O2"
_cell_formula_units_Z 14
_cell_length_a 10.000843
_cell_length_b 11.306228
_cell_length_c 7.682720
_cell_angle_alpha 71.207614
_cell_angle_beta 133.571890
_cell_angle_gamma 84.035585
_cell_volume 524.250171
_symmetry_space_group_name_H-M "P -1"
_symmetry_group_IT_number 2
_symmetry_cell_setting 'triclinic'
loop_
_space_group_symop_operation_xyz
x,y,z
-x,-y,-z
loop_
_atom_site_type_symbol
_atom_site_label
_atom_site_fract_x
_atom_site_fract_y
_atom_site_fract_z
Si Si1 0.059043 0.832219 0.032048
Si Si2 0.488019 0.729659 0.604579
Si Si3 0.626249 0.269440 0.090798
Si Si4 0.199543 0.326741 0.566117
Si Si5 0.746652 0.826692 0.983141
Si Si6 0.182503 0.575259 0.026698
Si Si7 0.708749 0.974934 0.369195
O O1 0.279848 0.826707 0.265795
O O2 0.124091 0.674322 0.094783
O O3 0.931923 0.858086 0.084419
O O4 0.886277 0.935791 0.693275
O O5 0.421063 0.715222 0.751017
O O6 0.650201 0.791270 0.742329
O O7 0.617736 0.576463 0.709687
O O8 0.766659 0.335647 0.117485
O O9 0.718523 0.101973 0.211567
O O10 0.405898 0.344238 0.754960
O O11 0.249558 0.171218 0.611453
O O12 0.014545 0.434203 0.228480
O O13 0.156974 0.309215 0.738501
O O14 0.532234 0.948564 0.816019
#
# Coordination Sequence:
#
# PCOD9004993 Si02
#       7
#     2   2   2   2   2   2   2
#     4  11  23  37  58  85 119 157 186 233 291 341
#     4  10  23  40  58  86 117 153 198 233 278 343
#     4  10  21  38  62  86 113 151 192 242 287 330
#     4   9  20  38  61  85 113 151 191 239 287 333
#     4  10  21  38  60  86 117 151 188 237 291 340
#     4  11  23  38  59  87 117 153 196 234 281 342
#     4   9  20  40  62  87 115 148 193 237 289 344
#
# _framework density 26.704806999999999
#
# number of rings (size 3 to 8) (size 9 to 14) (size 15 to 20)
#    0.000    2.286    0.000    3.857    0.000   10.857 
#    0.000   11.429    0.000    0.857    0.000    0.000 
#    0.000    0.000    0.000    0.000    0.000    0.000 
#
# Total GULP energy -78426.657122 kJ/mol
# GULP energy per Si atom -5601.904080 kJ/mol
# Density = 2.664403 g / cm^3
# Si number density = 26.704807 Si / 1000 Ang^3
#
#
#
# Elastic Constant Matrix: (Units=GPa)
#
#
# Indices 1 2 3 4 5 6 
#
# 1 59.1240 13.0626 30.5886 -11.6068 6.1218 -7.5678
# 2 13.0626 77.9379 22.6254 -3.1045 7.3038 -14.0074
# 3 30.5886 22.6254 174.6456 11.3687 19.0600 -3.5928
# 4 -11.6068 -3.1045 11.3687 39.1297 -0.0240 1.9200
# 5 6.1218 7.3038 19.0600 -0.0240 36.4511 -0.9343
# 6 -7.5678 -14.0074 -3.5928 1.9200 -0.9343 20.6145
#
#
#
# Elastic Compliance Matrix: (Units=1/GPa)
#
#
# Indices 1 2 3 4 5 6 
#
# 1 0.021373 -0.001042 -0.003817 0.007083 -0.001233 0.005758
# 2 -0.001042 0.015374 -0.001460 0.000861 -0.001894 0.009644
# 3 -0.003817 -0.001460 0.007081 -0.003259 -0.002796 -0.000982
# 4 0.007083 0.000861 -0.003259 0.028674 0.000360 -0.000037
# 5 -0.001233 -0.001894 -0.002796 0.000360 0.029459 -0.000925
# 6 0.005758 0.009644 -0.000982 -0.000037 -0.000925 0.056966
#
#
# Mechanical properties :
#
#
# Convention : Reuss Voigt Hill
#
# Bulk Modulus (GPa) = 32.06034 49.36230 40.71132
# Shear Modulus (GPa) = 27.47827 35.60113 31.53970
#
# Velocity S-wave (km/s) = 3.21123 3.65517 3.44037
# Velocity P-wave (km/s) = 5.07748 6.02812 5.57311
#
# Compressibility (1/GPa) = 0.03119119
#
# Stress axis : x y z
#
# Youngs Moduli (GPa) = 46.78706 65.04388 141.23137
#
# Poissons Ratio (x) = 0.06776 0.53902
# Poissons Ratio (y) = 0.04874 0.20622
# Poissons Ratio (z) = 0.17857 0.09498
#
# Static dielectric constant tensor:
#      x y z
#    x 2.054540 -0.042990 -0.035670 
#    y -0.042990 2.080220 0.020470 
#    z -0.035670 0.020470 2.019040 
# 
# From -- ./inp_files/258308.got.cif
#   From: 2010.05.17/outbox.cif.g08.bks.cpg/sg2_130_cif.got.tgz:258308.got - 2010.06.03 11:33:40.
