data_PCOD9004655
_publ_section_title
;
Structure prediction by ZEFSAII (Michael W. Deem and Ramdas Pophale) SiO2 
 PCOD9004655
Probable space group: P -1
;
_chemical_formula_sum "Si O2"
_cell_formula_units_Z 14
_cell_length_a 6.285428
_cell_length_b 23.953706
_cell_length_c 7.213721
_cell_angle_alpha 139.353132
_cell_angle_beta 58.901480
_cell_angle_gamma 124.607778
_cell_volume 574.827814
_symmetry_space_group_name_H-M "P -1"
_symmetry_group_IT_number 2
_symmetry_cell_setting 'triclinic'
loop_
_space_group_symop_operation_xyz
x,y,z
-x,-y,-z
loop_
_atom_site_type_symbol
_atom_site_label
_atom_site_fract_x
_atom_site_fract_y
_atom_site_fract_z
Si Si1 0.740105 0.066849 0.820477
Si Si2 0.917832 0.503167 0.830440
Si Si3 0.183141 0.934864 0.782639
Si Si4 0.352067 0.369342 0.648663
Si Si5 0.571613 0.228513 0.345919
Si Si6 0.868160 0.819153 0.324883
Si Si7 0.125974 0.357202 0.335245
O O1 0.813495 0.080513 0.038080
O O2 0.624712 0.146834 0.011503
O O3 0.008358 0.096694 0.658429
O O4 0.485250 0.980383 0.698987
O O5 0.624864 0.437511 0.767932
O O6 0.095300 0.451697 0.513956
O O7 0.881608 0.601716 0.076157
O O8 0.000000 0.500000 0.000000
O O9 0.053424 0.849534 0.496739
O O10 0.000000 0.000000 0.000000
O O11 0.381775 0.273234 0.438978
O O12 0.335758 0.378625 0.458425
O O13 0.852319 0.303521 0.426289
O O14 0.424038 0.189276 0.501883
O O15 0.844071 0.719386 0.008763
#
# Coordination Sequence:
#
# PCOD9004655 Si02
#       7
#     2   2   2   2   2   2   2
#     4  10  24  44  62  89 124 158 208 258 303 369
#     4   8  15  33  61  92 121 166 204 247 306 353
#     4  11  23  45  65  88 122 160 207 257 309 365
#     4   9  17  34  64  86 126 168 196 254 307 349
#     4  10  21  38  56  92 123 160 205 252 300 364
#     4  11  23  40  63  91 124 164 203 252 311 363
#     4   9  20  37  57  92 127 159 210 251 302 364
#
# _framework density 24.355118999999998
#
# number of rings (size 3 to 8) (size 9 to 14) (size 15 to 20)
#    0.000    2.286    1.429    0.429    4.000    0.571 
#   10.286    0.714    0.000   29.143    0.000    0.000 
#    0.000    0.000    0.000    0.000    0.000    0.000 
#
# Total GULP energy -78076.323100 kJ/mol
# GULP energy per Si atom -5576.880221 kJ/mol
# Density = 2.429969 g / cm^3
# Si number density = 24.355119 Si / 1000 Ang^3
#
#
#
# Elastic Constant Matrix: (Units=GPa)
#
#
# Indices 1 2 3 4 5 6 
#
# 1 103.1595 21.2321 36.0021 2.1867 12.5154 -6.5608
# 2 21.2321 51.3231 -9.7587 -10.0224 -4.5737 -0.2398
# 3 36.0021 -9.7587 99.7468 10.9994 17.2680 1.6777
# 4 2.1867 -10.0224 10.9994 33.0554 8.8718 -12.3258
# 5 12.5154 -4.5737 17.2680 8.8718 36.9592 3.7745
# 6 -6.5608 -0.2398 1.6777 -12.3258 3.7745 34.1608
#
#
#
# Elastic Compliance Matrix: (Units=1/GPa)
#
#
# Indices 1 2 3 4 5 6 
#
# 1 0.013472 -0.006629 -0.005061 0.001101 -0.003649 0.003590
# 2 -0.006629 0.024353 0.003730 0.006369 0.001905 0.000802
# 3 -0.005061 0.003730 0.013101 -0.002956 -0.002999 -0.002324
# 4 0.001101 0.006369 -0.002956 0.041982 -0.009982 0.016652
# 5 -0.003649 0.001905 -0.002999 -0.009982 0.033122 -0.007801
# 6 0.003590 0.000802 -0.002324 0.016652 -0.007801 0.036953
#
#
# Mechanical properties :
#
#
# Convention : Reuss Voigt Hill
#
# Bulk Modulus (GPa) = 28.56724 38.79782 33.68253
# Shear Modulus (GPa) = 26.23655 34.61867 30.42761
#
# Velocity S-wave (km/s) = 3.28571 3.77425 3.53842
# Velocity P-wave (km/s) = 5.11365 5.91252 5.52754
#
# Compressibility (1/GPa) = 0.03500514
#
# Stress axis : x y z
#
# Youngs Moduli (GPa) = 74.22771 41.06222 76.32873
#
# Poissons Ratio (x) = 0.27220 0.38632
# Poissons Ratio (y) = 0.49206 -0.28467
# Poissons Ratio (z) = 0.37568 -0.15314
#
# Static dielectric constant tensor:
#      x y z
#    x 1.915560 -0.023520 -0.065340 
#    y -0.023520 2.046490 -0.001840 
#    z -0.065340 -0.001840 1.997140 
# 
# From -- ./inp_files/12670.got.cif
#   From: 2010.05.17/outbox.cif.g08.bks.cpg/sg2_7_cif.got.tgz:12670.got - 2010.06.03 11:33:40.
