data_PCOD9004635
_publ_section_title
;
Structure prediction by ZEFSAII (Michael W. Deem and Ramdas Pophale) SiO2 
 PCOD9004635
Probable space group: P -1
;
_chemical_formula_sum "Si O2"
_cell_formula_units_Z 14
_cell_length_a 8.190013
_cell_length_b 11.276561
_cell_length_c 22.712480
_cell_angle_alpha 152.876730
_cell_angle_beta 139.303083
_cell_angle_gamma 38.390614
_cell_volume 580.141445
_symmetry_space_group_name_H-M "P -1"
_symmetry_group_IT_number 2
_symmetry_cell_setting 'triclinic'
loop_
_space_group_symop_operation_xyz
x,y,z
-x,-y,-z
loop_
_atom_site_type_symbol
_atom_site_label
_atom_site_fract_x
_atom_site_fract_y
_atom_site_fract_z
Si Si1 0.427285 0.984690 0.573365
Si Si2 0.499975 0.426667 0.386973
Si Si3 0.944377 0.662096 0.172055
Si Si4 0.427141 0.966867 0.238569
Si Si5 0.111833 0.178632 0.466953
Si Si6 0.405251 0.018078 0.884296
Si Si7 0.846955 0.981581 0.063083
O O1 0.328351 0.746263 0.467191
O O2 0.664442 0.831459 0.523878
O O3 0.543424 0.083650 0.705938
O O4 0.208416 0.213037 0.574200
O O5 0.479474 0.235877 0.242176
O O6 0.815905 0.383677 0.459409
O O7 0.444158 0.264282 0.355801
O O8 0.682348 0.738290 0.175733
O O9 0.825643 0.750888 0.113656
O O10 0.092583 0.870533 0.323137
O O11 0.121803 0.340771 0.079179
O O12 0.143859 0.980336 0.142300
O O13 0.276345 0.929495 0.866778
O O14 0.631286 0.130505 0.019767
#
# Coordination Sequence:
#
# PCOD9004635 Si02
#       7
#     2   2   2   2   2   2   2
#     4  11  20  38  59  81 115 149 186 237 279 328
#     4  10  21  38  56  82 117 149 183 236 283 329
#     4  10  21  38  56  82 117 149 183 236 283 329
#     4  10  22  36  58  88 116 152 190 222 284 352
#     4   9  21  36  59  84 107 147 197 231 276 336
#     4   9  21  36  59  84 107 147 197 231 276 336
#     4  11  20  38  59  81 115 149 186 237 279 328
#
# _framework density 24.132045999999999
#
# number of rings (size 3 to 8) (size 9 to 14) (size 15 to 20)
#    0.000    2.286    0.000    4.286    0.000    4.571 
#    0.000   10.000    0.000    0.000    0.000    0.000 
#    0.000    0.000    0.000    0.000    0.000    0.000 
#
# Total GULP energy -78312.891595 kJ/mol
# GULP energy per Si atom -5593.777971 kJ/mol
# Density = 2.407712 g / cm^3
# Si number density = 24.132046 Si / 1000 Ang^3
#
#
#
# Elastic Constant Matrix: (Units=GPa)
#
#
# Indices 1 2 3 4 5 6 
#
# 1 83.1105 12.5853 18.2622 -18.9332 -6.4195 -1.2933
# 2 12.5853 61.9131 15.8362 -29.5419 5.2334 11.8269
# 3 18.2622 15.8362 31.7159 -20.4567 -2.0074 -3.7907
# 4 -18.9332 -29.5419 -20.4567 47.7759 2.1011 -7.5647
# 5 -6.4195 5.2334 -2.0074 2.1011 27.9728 -5.5110
# 6 -1.2933 11.8269 -3.7907 -7.5647 -5.5110 18.6061
#
#
#
# Elastic Compliance Matrix: (Units=1/GPa)
#
#
# Indices 1 2 3 4 5 6 
#
# 1 0.014345 -0.000876 -0.005201 0.003211 0.003394 0.002805
# 2 -0.000876 0.028390 -0.009916 0.010414 -0.010766 -0.019082
# 3 -0.005201 -0.009916 0.056268 0.019966 0.008738 0.028111
# 4 0.003211 0.010414 0.019966 0.039357 -0.000044 0.013660
# 5 0.003394 -0.010766 0.008738 -0.000044 0.043450 0.021711
# 6 0.002805 -0.019082 0.028111 0.013660 0.021711 0.083782
#
#
# Mechanical properties :
#
#
# Convention : Reuss Voigt Hill
#
# Bulk Modulus (GPa) = 14.92215 30.01190 22.46702
# Shear Modulus (GPa) = 15.62899 27.54133 21.58516
#
# Velocity S-wave (km/s) = 2.54765 3.38194 2.99400
# Velocity P-wave (km/s) = 3.85370 5.26437 4.61327
#
# Compressibility (1/GPa) = 0.06701447
#
# Stress axis : x y z
#
# Youngs Moduli (GPa) = 69.71042 35.22326 17.77225
#
# Poissons Ratio (x) = 0.03087 0.09244
# Poissons Ratio (y) = 0.06109 0.17624
# Poissons Ratio (z) = 0.36259 0.34929
#
# Static dielectric constant tensor:
#      x y z
#    x 1.905480 0.016650 -0.010730 
#    y 0.016650 1.891540 -0.017810 
#    z -0.010730 -0.017810 1.947730 
# 
# From -- ./inp_files/430391.got.cif
#   From: 2010.05.17/outbox.cif.g08.bks.cpg/sg2_216_cif.got.tgz:430391.got - 2010.06.03 11:33:40.
