data_PCOD9004811
_publ_section_title
;
Structure prediction by ZEFSAII (Michael W. Deem and Ramdas Pophale) SiO2 
 PCOD9004811
Probable space group: P -1
;
_chemical_formula_sum "Si O2"
_cell_formula_units_Z 14
_cell_length_a 12.905723
_cell_length_b 10.840736
_cell_length_c 12.008867
_cell_angle_alpha 127.820355
_cell_angle_beta 131.552477
_cell_angle_gamma 32.870114
_cell_volume 675.860264
_symmetry_space_group_name_H-M "P -1"
_symmetry_group_IT_number 2
_symmetry_cell_setting 'triclinic'
loop_
_space_group_symop_operation_xyz
x,y,z
-x,-y,-z
loop_
_atom_site_type_symbol
_atom_site_label
_atom_site_fract_x
_atom_site_fract_y
_atom_site_fract_z
Si Si1 0.771725 0.252632 0.352765
Si Si2 0.230690 0.410813 0.826052
Si Si3 0.515919 0.104651 0.302900
Si Si4 0.395603 0.373007 0.156852
Si Si5 0.230008 0.796078 0.415543
Si Si6 0.586995 0.684712 0.319992
Si Si7 0.238912 0.190102 0.347321
O O1 0.631066 0.218099 0.211764
O O2 0.776336 0.268982 0.499164
O O3 0.665444 0.482341 0.341066
O O4 0.002374 0.038962 0.360497
O O5 0.364142 0.387320 0.813689
O O6 0.996637 0.623512 0.744064
O O7 0.308412 0.167902 0.742438
O O8 0.276288 0.433333 0.994066
O O9 0.400356 0.235273 0.177423
O O10 0.621258 0.178220 0.457606
O O11 0.360373 0.167864 0.318396
O O12 0.308045 0.599995 0.279487
O O13 0.715315 0.733114 0.474286
O O14 0.353834 0.931034 0.306262
#
# Coordination Sequence:
#
# PCOD9004811 Si02
#       7
#     2   2   2   2   2   2   2
#     4  10  21  39  62  85 116 152 194 241 283 337
#     4  11  24  38  58  88 121 154 189 234 293 346
#     4  10  21  39  62  87 114 151 198 240 282 340
#     4  11  23  38  58  90 122 149 188 240 293 345
#     4  10  21  38  65  90 111 150 197 238 288 341
#     4  10  21  38  59  84 114 154 198 238 280 341
#     4  10  21  38  61  84 114 154 198 240 281 336
#
# _framework density 20.71434
#
# number of rings (size 3 to 8) (size 9 to 14) (size 15 to 20)
#    0.000    1.714    0.000    5.143    0.000    9.143 
#    0.000    1.429    0.000    0.000    0.000    0.000 
#    0.000    0.000    0.000    0.000    0.000    0.000 
#
# Total GULP energy -78295.355420 kJ/mol
# GULP energy per Si atom -5592.525387 kJ/mol
# Density = 2.066719 g / cm^3
# Si number density = 20.714340 Si / 1000 Ang^3
#
#
#
# Elastic Constant Matrix: (Units=GPa)
#
#
# Indices 1 2 3 4 5 6 
#
# 1 45.6840 30.5100 2.6196 4.4685 -18.2940 10.8646
# 2 30.5100 124.6213 29.8921 -6.6237 -14.4231 8.4070
# 3 2.6196 29.8921 83.1138 -8.2732 -24.5835 -3.3048
# 4 4.4685 -6.6237 -8.2732 17.1950 2.5267 0.8146
# 5 -18.2940 -14.4231 -24.5835 2.5267 21.7245 -10.9222
# 6 10.8646 8.4070 -3.3048 0.8146 -10.9222 38.1665
#
#
#
# Elastic Compliance Matrix: (Units=1/GPa)
#
#
# Indices 1 2 3 4 5 6 
#
# 1 0.058786 -0.013108 0.023237 -0.020560 0.074472 0.009916
# 2 -0.013108 0.012015 -0.007678 0.006649 -0.014465 -0.003861
# 3 0.023237 -0.007678 0.031319 -0.003047 0.057451 0.014294
# 4 -0.020560 0.006649 -0.003047 0.068783 -0.026879 -0.005036
# 5 0.074472 -0.014465 0.057451 -0.026879 0.188069 0.041355
# 6 0.009916 -0.003861 0.014294 -0.005036 0.041355 0.037409
#
#
# Mechanical properties :
#
#
# Convention : Reuss Voigt Hill
#
# Bulk Modulus (GPa) = 9.34404 42.16253 25.75328
# Shear Modulus (GPa) = 11.70538 28.11036 19.90787
#
# Velocity S-wave (km/s) = 2.37973 3.68781 3.10347
# Velocity P-wave (km/s) = 3.47441 6.20739 5.03007
#
# Compressibility (1/GPa) = 0.10702011
#
# Stress axis : x y z
#
# Youngs Moduli (GPa) = 17.01079 83.22894 31.92967
#
# Poissons Ratio (x) = 1.09100 -0.74194
# Poissons Ratio (y) = 0.22298 0.24516
# Poissons Ratio (z) = -0.39527 0.63905
#
# Static dielectric constant tensor:
#      x y z
#    x 1.773890 0.010610 -0.018130 
#    y 0.010610 1.746420 0.002800 
#    z -0.018130 0.002800 1.719920 
# 
# From -- ./inp_files/246039.got.cif
#   From: 2010.05.17/outbox.cif.g08.bks.cpg/sg2_124_cif.got.tgz:246039.got - 2010.06.03 11:33:40.
