data_PCOD9004509
_publ_section_title
;
Structure prediction by ZEFSAII (Michael W. Deem and Ramdas Pophale) SiO2 
 PCOD9004509
Probable space group: P -1
;
_chemical_formula_sum "Si O2"
_cell_formula_units_Z 16
_cell_length_a 12.131791
_cell_length_b 18.181440
_cell_length_c 19.149865
_cell_angle_alpha 27.989516
_cell_angle_beta 24.553829
_cell_angle_gamma 27.628314
_cell_volume 745.841410
_symmetry_space_group_name_H-M "P -1"
_symmetry_group_IT_number 2
_symmetry_cell_setting 'triclinic'
loop_
_space_group_symop_operation_xyz
x,y,z
-x,-y,-z
loop_
_atom_site_type_symbol
_atom_site_label
_atom_site_fract_x
_atom_site_fract_y
_atom_site_fract_z
Si Si1 0.304334 0.240991 0.549605
Si Si2 0.120585 0.251124 0.025602
Si Si3 0.712832 0.202190 0.920134
Si Si4 0.657500 0.844148 0.703476
Si Si5 0.210582 0.931918 0.153687
Si Si6 0.273690 0.197997 0.450666
Si Si7 0.616650 0.439946 0.266446
Si Si8 0.765144 0.442737 0.340654
O O1 0.289181 0.293211 0.432574
O O2 0.372666 0.371312 0.448235
O O3 0.001934 0.227907 0.749646
O O4 0.557321 0.047382 0.577178
O O5 0.905348 0.315973 0.161221
O O6 0.063039 0.112941 0.127498
O O7 0.456488 0.158539 0.935809
O O8 0.096938 0.417173 0.855993
O O9 0.796488 0.051399 0.940146
O O10 0.490424 0.372309 0.864479
O O11 0.560360 0.171776 0.100893
O O12 0.648527 0.756360 0.707956
O O13 0.985495 0.744181 0.626571
O O14 0.038875 0.812431 0.366753
O O15 0.500000 0.000000 0.500000
O O16 0.670916 0.441034 0.316175
O O17 0.500000 0.500000 0.500000
#
# Coordination Sequence:
#
# PCOD9004509 Si02
#       8
#     2   2   2   2   2   2   2   2
#     4  10  24  42  71  93 130 178 225 264 325 398
#     4  11  21  40  64  96 127 176 218 268 321 398
#     4  11  22  43  70  98 136 170 218 277 327 389
#     4  11  22  41  67 100 132 175 217 272 332 384
#     4  10  21  37  68  94 128 174 224 259 325 393
#     4   9  19  40  64  92 129 170 216 265 316 384
#     4  12  24  45  68  99 132 177 218 269 337 392
#     4  12  26  41  66  96 143 167 215 280 336 387
#
# _framework density 21.452280999999999
#
# number of rings (size 3 to 8) (size 9 to 14) (size 15 to 20)
#    0.000    1.250    2.500    4.125    1.750    2.500 
#    0.000    1.875    0.000    0.000    0.000    0.000 
#    0.000    0.000    0.000    0.000    0.000    0.000 
#
# Total GULP energy -89470.048432 kJ/mol
# GULP energy per Si atom -5591.878027 kJ/mol
# Density = 2.140345 g / cm^3
# Si number density = 21.452281 Si / 1000 Ang^3
#
#
#
# Elastic Constant Matrix: (Units=GPa)
#
#
# Indices 1 2 3 4 5 6 
#
# 1 114.8116 45.8937 53.7268 -5.8393 23.1661 11.1774
# 2 45.8937 94.3476 31.5177 12.9345 8.9338 9.8270
# 3 53.7268 31.5177 72.8846 18.4770 31.6404 13.8723
# 4 -5.8393 12.9345 18.4770 37.4695 7.6324 1.1811
# 5 23.1661 8.9338 31.6404 7.6324 37.9738 6.8105
# 6 11.1774 9.8270 13.8723 1.1811 6.8105 30.8552
#
#
#
# Elastic Compliance Matrix: (Units=1/GPa)
#
#
# Indices 1 2 3 4 5 6 
#
# 1 0.018085 -0.005902 -0.013584 0.011698 -0.000890 0.001184
# 2 -0.005902 0.014682 -0.001291 -0.005852 0.002821 -0.002356
# 3 -0.013584 -0.001291 0.037689 -0.016313 -0.018287 -0.006952
# 4 0.011698 -0.005852 -0.016313 0.038578 -0.000569 0.003609
# 5 -0.000890 0.002821 -0.018287 -0.000569 0.041846 -0.001569
# 6 0.001184 -0.002356 -0.006952 0.003609 -0.001569 0.036065
#
#
# Mechanical properties :
#
#
# Convention : Reuss Voigt Hill
#
# Bulk Modulus (GPa) = 34.59906 60.48004 47.53955
# Shear Modulus (GPa) = 20.99672 31.32007 26.15840
#
# Velocity S-wave (km/s) = 3.13191 3.82512 3.49574
# Velocity P-wave (km/s) = 5.40758 6.91106 6.20503
#
# Compressibility (1/GPa) = 0.02890252
#
# Stress axis : x y z
#
# Youngs Moduli (GPa) = 55.29417 68.11124 26.53276
#
# Poissons Ratio (x) = 0.40201 0.36042
# Poissons Ratio (y) = 0.32636 0.03425
# Poissons Ratio (z) = 0.75111 0.08791
#
# Static dielectric constant tensor:
#      x y z
#    x 1.779980 -0.002200 -0.003750 
#    y -0.002200 1.839170 0.029040 
#    z -0.003750 0.029040 1.765830 
# 
# From -- ./inp_files/570228.got.cif
#   From: 2010.05.17/outbox.cif.g08.bks.cpg/sg2_286_cif.got.tgz:570228.got - 2010.06.03 11:33:40.
