data_PCOD9004020
_publ_section_title
;
Structure prediction by ZEFSAII (Michael W. Deem and Ramdas Pophale) SiO2 
 PCOD9004020
Probable space group: P -1
;
_chemical_formula_sum "Si O2"
_cell_formula_units_Z 16
_cell_length_a 15.393457
_cell_length_b 9.177193
_cell_length_c 11.925588
_cell_angle_alpha 51.033793
_cell_angle_beta 38.942376
_cell_angle_gamma 70.537869
_cell_volume 780.282821
_symmetry_space_group_name_H-M "P -1"
_symmetry_group_IT_number 2
_symmetry_cell_setting 'triclinic'
loop_
_space_group_symop_operation_xyz
x,y,z
-x,-y,-z
loop_
_atom_site_type_symbol
_atom_site_label
_atom_site_fract_x
_atom_site_fract_y
_atom_site_fract_z
Si Si1 0.984568 0.182808 0.496161
Si Si2 0.539328 0.584212 0.294815
Si Si3 0.073158 0.339942 0.552430
Si Si4 0.309807 0.324571 0.481130
Si Si5 0.668278 0.035531 0.997123
Si Si6 0.449247 0.672756 0.917163
Si Si7 0.775571 0.444453 0.995948
Si Si8 0.192422 0.937752 0.912345
O O1 0.078920 0.207502 0.503471
O O2 0.064592 0.390732 0.251920
O O3 0.817869 0.135645 0.728842
O O4 0.000000 0.000000 0.500000
O O5 0.500000 0.500000 0.500000
O O6 0.405615 0.486193 0.392730
O O7 0.586380 0.820928 0.134554
O O8 0.675015 0.521002 0.142177
O O9 0.220753 0.410863 0.440026
O O10 0.000000 0.500000 0.500000
O O11 0.959419 0.195100 0.820196
O O12 0.423555 0.236227 0.345459
O O13 0.203311 0.140498 0.744174
O O14 0.571249 0.178276 0.041136
O O15 0.708168 0.009150 0.100735
O O16 0.500000 0.500000 0.000000
O O17 0.301381 0.582266 0.037264
O O18 0.770143 0.219783 0.131414
#
# Coordination Sequence:
#
# PCOD9004020 Si02
#       8
#     2   2   2   2   2   2   2   2
#     4  11  21  39  67  93 128 170 219 272 334 382
#     4  11  22  40  64  95 142 169 212 268 337 397
#     4  11  23  42  69  94 126 172 227 280 325 390
#     4  11  24  40  66  96 133 175 220 275 325 399
#     4  10  22  38  66  97 128 179 216 268 333 387
#     4  10  23  38  62  93 135 169 226 268 326 398
#     4  10  21  37  63  95 124 176 216 269 326 393
#     4  10  21  39  66  95 126 172 229 267 323 394
#
# _framework density 20.505386000000001
#
# number of rings (size 3 to 8) (size 9 to 14) (size 15 to 20)
#    0.000    1.500    3.750    1.125    5.250    1.500 
#    0.000    5.000    0.000    1.500    0.000    0.000 
#    0.000    0.000    0.000    0.000    0.000    0.000 
#
# Total GULP energy -89279.004734 kJ/mol
# GULP energy per Si atom -5579.937796 kJ/mol
# Density = 2.045871 g / cm^3
# Si number density = 20.505386 Si / 1000 Ang^3
#
#
#
# Elastic Constant Matrix: (Units=GPa)
#
#
# Indices 1 2 3 4 5 6 
#
# 1 96.5477 56.5450 44.0673 -7.9753 -10.5028 4.3208
# 2 56.5450 156.7374 55.1422 -7.0076 -4.1882 29.8347
# 3 44.0673 55.1422 121.8112 -16.4779 -6.5261 9.7430
# 4 -7.9753 -7.0076 -16.4779 34.8236 6.7379 2.1659
# 5 -10.5028 -4.1882 -6.5261 6.7379 24.5049 -3.2833
# 6 4.3208 29.8347 9.7430 2.1659 -3.2833 26.2054
#
#
#
# Elastic Compliance Matrix: (Units=1/GPa)
#
#
# Indices 1 2 3 4 5 6 
#
# 1 0.015289 -0.005244 -0.003370 -0.000581 0.005650 0.005459
# 2 -0.005244 0.011244 -0.002249 0.001262 -0.002821 -0.011559
# 3 -0.003370 -0.002249 0.011109 0.004157 -0.000198 -0.001383
# 4 -0.000581 0.001262 0.004157 0.032941 -0.008884 -0.006722
# 5 0.005650 -0.002821 -0.000198 -0.008884 0.046329 0.008892
# 6 0.005459 -0.011559 -0.001383 -0.006722 0.008892 0.052603
#
#
# Mechanical properties :
#
#
# Convention : Reuss Voigt Hill
#
# Bulk Modulus (GPa) = 62.82609 76.28949 69.55779
# Shear Modulus (GPa) = 25.43912 31.72956 28.58434
#
# Velocity S-wave (km/s) = 3.52605 3.93794 3.73767
# Velocity P-wave (km/s) = 6.87624 7.61327 7.25412
#
# Compressibility (1/GPa) = 0.01591695
#
# Stress axis : x y z
#
# Youngs Moduli (GPa) = 65.40450 88.93243 90.01953
#
# Poissons Ratio (x) = 0.46640 0.30333
# Poissons Ratio (y) = 0.34301 0.20244
# Poissons Ratio (z) = 0.22039 0.19999
#
# Static dielectric constant tensor:
#      x y z
#    x 1.731340 -0.013710 -0.003800 
#    y -0.013710 1.753730 0.033160 
#    z -0.003800 0.033160 1.818540 
# 
# From -- ./inp_files/446760.got.cif
#   From: 2010.05.17/outbox.cif.g08.bks.cpg/sg2_224_cif.got.tgz:446760.got - 2010.06.03 11:33:40.
