data_PCOD9004375
_publ_section_title
;
Structure prediction by ZEFSAII (Michael W. Deem and Ramdas Pophale) SiO2 
 PCOD9004375
Probable space group: P -1
;
_chemical_formula_sum "Si O2"
_cell_formula_units_Z 16
_cell_length_a 7.136465
_cell_length_b 16.100866
_cell_length_c 9.009621
_cell_angle_alpha 50.932092
_cell_angle_beta 117.500573
_cell_angle_gamma 127.586872
_cell_volume 631.868282
_symmetry_space_group_name_H-M "P -1"
_symmetry_group_IT_number 2
_symmetry_cell_setting 'triclinic'
loop_
_space_group_symop_operation_xyz
x,y,z
-x,-y,-z
loop_
_atom_site_type_symbol
_atom_site_label
_atom_site_fract_x
_atom_site_fract_y
_atom_site_fract_z
Si Si1 0.859485 0.763501 0.410350
Si Si2 0.756816 0.882343 0.004138
Si Si3 0.787929 0.442229 0.317345
Si Si4 0.338438 0.909364 0.918908
Si Si5 0.272458 0.895462 0.613302
Si Si6 0.544699 0.302445 0.105284
Si Si7 0.047376 0.687544 0.268484
Si Si8 0.300121 0.488415 0.317976
O O1 0.682905 0.801339 0.218929
O O2 0.760817 0.645512 0.608672
O O3 0.054125 0.871510 0.450593
O O4 0.977467 0.740718 0.327778
O O5 0.545295 0.915938 0.877445
O O6 0.713063 0.799398 0.935894
O O7 0.000000 0.000000 0.000000
O O8 0.590842 0.370156 0.203395
O O9 0.774152 0.359491 0.545110
O O10 0.825022 0.570100 0.249643
O O11 0.050458 0.475026 0.307712
O O12 0.175501 0.786470 0.080130
O O13 0.197367 0.927416 0.710623
O O14 0.500000 0.000000 0.000000
O O15 0.292747 0.768028 0.752187
O O16 0.500000 0.000000 0.500000
O O17 0.626414 0.406352 0.893027
O O18 0.500000 0.500000 0.500000
#
# Coordination Sequence:
#
# PCOD9004375 Si02
#       8
#     2   2   2   2   2   2   2   2
#     4  11  22  41  65  95 131 168 210 269 322 392
#     4  11  23  41  66  92 129 171 214 267 332 378
#     4  10  21  37  66  90 128 170 213 266 315 390
#     4  11  24  41  68  94 127 168 221 268 321 386
#     4  11  22  39  66  95 122 169 223 264 311 390
#     4  11  21  37  64  97 122 172 222 266 311 397
#     4  10  21  39  64  93 129 164 213 261 331 371
#     4  11  21  36  63  94 133 162 218 264 327 372
#
# _framework density 25.321732999999998
#
# number of rings (size 3 to 8) (size 9 to 14) (size 15 to 20)
#    0.000    1.250    3.750    4.875    1.750    0.000 
#    0.000    1.250    2.750    0.000    0.000    0.000 
#    0.000    0.000    0.000    0.000    0.000    0.000 
#
# Total GULP energy -89245.084325 kJ/mol
# GULP energy per Si atom -5577.817770 kJ/mol
# Density = 2.526410 g / cm^3
# Si number density = 25.321733 Si / 1000 Ang^3
#
#
#
# Elastic Constant Matrix: (Units=GPa)
#
#
# Indices 1 2 3 4 5 6 
#
# 1 55.2899 8.9349 15.2097 -4.7785 -8.5289 -0.2047
# 2 8.9349 187.3391 64.4489 45.2118 -26.5273 1.9503
# 3 15.2097 64.4489 166.6828 1.4134 -26.0048 -1.1928
# 4 -4.7785 45.2118 1.4134 53.9852 -2.9525 -5.4111
# 5 -8.5289 -26.5273 -26.0048 -2.9525 29.9985 4.0974
# 6 -0.2047 1.9503 -1.1928 -5.4111 4.0974 27.4398
#
#
#
# Elastic Compliance Matrix: (Units=1/GPa)
#
#
# Indices 1 2 3 4 5 6 
#
# 1 0.019321 -0.000587 -0.000859 0.002466 0.004477 -0.000034
# 2 -0.000587 0.008741 -0.002492 -0.007324 0.005083 -0.002937
# 3 -0.000859 -0.002492 0.007713 0.002076 0.004408 0.000257
# 4 0.002466 -0.007324 0.002076 0.025292 -0.002300 0.005960
# 5 0.004477 0.005083 0.004408 -0.002300 0.043668 -0.007111
# 6 -0.000034 -0.002937 0.000257 0.005960 -0.007111 0.038900
#
#
# Mechanical properties :
#
#
# Convention : Reuss Voigt Hill
#
# Bulk Modulus (GPa) = 35.84235 65.16653 50.50444
# Shear Modulus (GPa) = 31.09223 43.66591 37.37907
#
# Velocity S-wave (km/s) = 3.50792 4.15715 3.84626
# Velocity P-wave (km/s) = 5.53108 6.98812 6.30185
#
# Compressibility (1/GPa) = 0.02789995
#
# Stress axis : x y z
#
# Youngs Moduli (GPa) = 51.75671 114.40355 129.64637
#
# Poissons Ratio (x) = 0.06713 0.11134
# Poissons Ratio (y) = 0.03037 0.32310
# Poissons Ratio (z) = 0.04445 0.28511
#
# Static dielectric constant tensor:
#      x y z
#    x 2.031680 -0.087860 -0.098580 
#    y -0.087860 2.463580 0.494170 
#    z -0.098580 0.494170 2.516430 
# 
# From -- ./inp_files/216820.got.cif
#   From: 2010.05.17/outbox.cif.g08.bks.cpg/sg2_109_cif.got.tgz:216820.got - 2010.06.03 11:33:40.
