data_PCOD9004972
_publ_section_title
;
Structure prediction by ZEFSAII (Michael W. Deem and Ramdas Pophale) SiO2 
 PCOD9004972
Probable space group: P -1
;
_chemical_formula_sum "Si O2"
_cell_formula_units_Z 16
_cell_length_a 13.894149
_cell_length_b 12.884108
_cell_length_c 7.077368
_cell_angle_alpha 128.005651
_cell_angle_beta 108.426494
_cell_angle_gamma 46.932683
_cell_volume 717.214069
_symmetry_space_group_name_H-M "P -1"
_symmetry_group_IT_number 2
_symmetry_cell_setting 'triclinic'
loop_
_space_group_symop_operation_xyz
x,y,z
-x,-y,-z
loop_
_atom_site_type_symbol
_atom_site_label
_atom_site_fract_x
_atom_site_fract_y
_atom_site_fract_z
Si Si1 0.501336 0.305876 0.624229
Si Si2 0.105879 0.019390 0.015011
Si Si3 0.878464 0.324279 0.031428
Si Si4 0.324629 0.306539 0.806449
Si Si5 0.323994 0.709964 0.989548
Si Si6 0.148083 0.450661 0.389420
Si Si7 0.553686 0.811178 0.871968
Si Si8 0.135565 0.260039 0.508285
O O1 0.432816 0.506643 0.779369
O O2 0.528506 0.220501 0.342689
O O3 0.396335 0.293843 0.644577
O O4 0.613871 0.235790 0.770795
O O5 0.129969 0.111772 0.291469
O O6 0.033388 0.147085 0.931457
O O7 0.248831 0.826928 0.888456
O O8 0.000000 0.000000 0.000000
O O9 0.803102 0.485532 0.021039
O O10 0.785640 0.275794 0.937953
O O11 0.866741 0.413045 0.323633
O O12 0.258403 0.218266 0.652910
O O13 0.439406 0.218672 0.935053
O O14 0.287710 0.336090 0.241995
O O15 0.146793 0.324933 0.384552
O O16 0.010961 0.570529 0.319488
O O17 0.500000 0.000000 0.000000
#
# Coordination Sequence:
#
# PCOD9004972 Si02
#       8
#     2   2   2   2   2   2   2   2
#     4  10  21  41  57  85 122 159 205 230 290 353
#     4   9  17  28  58  96 106 142 202 239 293 348
#     4   8  15  36  58  85 113 148 196 243 293 347
#     4  10  21  38  60  85 116 161 188 246 301 338
#     4   9  17  33  63  83 113 164 193 239 287 350
#     4   9  17  36  58  83 116 147 192 242 293 346
#     4  12  25  37  57  87 125 157 195 248 287 346
#     4   9  17  33  62  84 112 151 189 245 296 346
#
# _framework density 22.308544000000001
#
# number of rings (size 3 to 8) (size 9 to 14) (size 15 to 20)
#    0.000    2.500    3.750    0.750    1.750    2.000 
#    0.000    5.625    0.000    0.750    0.000    0.000 
#    0.000    0.000    0.000    0.000    0.000    0.000 
#
# Total GULP energy -89125.342154 kJ/mol
# GULP energy per Si atom -5570.333885 kJ/mol
# Density = 2.225777 g / cm^3
# Si number density = 22.308544 Si / 1000 Ang^3
#
#
#
# Elastic Constant Matrix: (Units=GPa)
#
#
# Indices 1 2 3 4 5 6 
#
# 1 64.5064 -0.5689 23.5619 -6.8399 27.3222 -10.3032
# 2 -0.5689 119.5609 27.9055 -2.2905 12.7978 -4.6963
# 3 23.5619 27.9055 65.7484 -10.2663 35.3990 -1.3050
# 4 -6.8399 -2.2905 -10.2663 27.7402 -7.6935 4.8392
# 5 27.3222 12.7978 35.3990 -7.6935 33.9719 -9.1067
# 6 -10.3032 -4.6963 -1.3050 4.8392 -9.1067 22.5585
#
#
#
# Elastic Compliance Matrix: (Units=1/GPa)
#
#
# Indices 1 2 3 4 5 6 
#
# 1 0.024508 0.002042 0.002406 0.000486 -0.022150 0.002712
# 2 0.002042 0.009654 -0.005541 -0.001007 0.001153 0.003303
# 3 0.002406 -0.005541 0.043574 0.005941 -0.048876 -0.018540
# 4 0.000486 -0.001007 0.005941 0.039859 0.000705 -0.007910
# 5 -0.022150 0.001153 -0.048876 0.000705 0.105922 0.029905
# 6 0.002712 0.003303 -0.018540 -0.007910 0.029905 0.058952
#
#
# Mechanical properties :
#
#
# Convention : Reuss Voigt Hill
#
# Bulk Modulus (GPa) = 13.23651 39.06807 26.15229
# Shear Modulus (GPa) = 16.13736 30.11525 23.12631
#
# Velocity S-wave (km/s) = 2.69247 3.67814 3.22321
# Velocity P-wave (km/s) = 3.95122 5.96565 5.05970
#
# Compressibility (1/GPa) = 0.07554862
#
# Stress axis : x y z
#
# Youngs Moduli (GPa) = 40.80295 103.58285 22.94947
#
# Poissons Ratio (x) = -0.21150 -0.05521
# Poissons Ratio (y) = -0.08331 0.12717
# Poissons Ratio (z) = -0.09816 0.57399
#
# Static dielectric constant tensor:
#      x y z
#    x 1.843840 -0.031910 0.013670 
#    y -0.031910 1.890240 0.028080 
#    z 0.013670 0.028080 1.839260 
# 
# From -- ./inp_files/335566.got.cif
#   From: 2010.05.17/outbox.cif.g08.bks.cpg/sg2_168_cif.got.tgz:335566.got - 2010.06.03 11:33:40.
