data_PCOD9004983
_publ_section_title
;
Structure prediction by ZEFSAII (Michael W. Deem and Ramdas Pophale) SiO2 
 PCOD9004983
Probable space group: P -1
;
_chemical_formula_sum "Si O2"
_cell_formula_units_Z 16
_cell_length_a 20.029806
_cell_length_b 7.959260
_cell_length_c 20.411670
_cell_angle_alpha 143.834563
_cell_angle_beta 159.723420
_cell_angle_gamma 40.709792
_cell_volume 665.477420
_symmetry_space_group_name_H-M "P -1"
_symmetry_group_IT_number 2
_symmetry_cell_setting 'triclinic'
loop_
_space_group_symop_operation_xyz
x,y,z
-x,-y,-z
loop_
_atom_site_type_symbol
_atom_site_label
_atom_site_fract_x
_atom_site_fract_y
_atom_site_fract_z
Si Si1 0.206112 0.847139 0.642280
Si Si2 0.458873 0.034404 0.601254
Si Si3 0.861318 0.711137 0.680851
Si Si4 0.382794 0.982620 0.118910
Si Si5 0.975088 0.654491 0.093926
Si Si6 0.647184 0.507929 0.543989
Si Si7 0.758050 0.439428 0.949965
Si Si8 0.602118 0.078797 0.029637
O O1 0.185365 0.579597 0.491782
O O2 0.382132 0.040657 0.838677
O O3 0.000000 0.000000 0.500000
O O4 0.275526 0.760148 0.751809
O O5 0.237774 0.052657 0.381240
O O6 0.518359 0.128599 0.758902
O O7 0.547017 0.725914 0.570183
O O8 0.569965 0.250998 0.723688
O O9 0.752116 0.693991 0.644196
O O10 0.085524 0.704092 0.902598
O O11 0.160383 0.069814 0.951868
O O12 0.497453 0.280604 0.306619
O O13 0.394565 0.815717 0.008950
O O14 0.859274 0.459246 0.978829
O O15 0.000000 0.500000 0.000000
O O16 0.184088 0.678545 0.326471
O O17 0.703334 0.762743 0.021847
#
# Coordination Sequence:
#
# PCOD9004983 Si02
#       8
#     2   2   2   2   2   2   2   2
#     4  11  20  38  71  95 110 154 206 260 312 359
#     4  12  24  38  59  90 132 167 196 251 310 357
#     4  11  22  39  62  92 124 153 207 252 306 371
#     4  11  23  41  61  88 125 166 209 249 302 367
#     4  10  21  38  60  85 119 162 215 247 284 360
#     4  11  23  41  61  86 123 172 209 244 298 365
#     4  10  22  39  60  90 127 159 203 255 303 358
#     4  10  21  39  67  90 116 152 208 259 301 369
#
# _framework density 24.042891000000001
#
# number of rings (size 3 to 8) (size 9 to 14) (size 15 to 20)
#    0.000    1.250    5.000    1.500    0.000    4.000 
#    0.000    0.625    0.000    1.500    0.000    0.000 
#    0.000    0.000    0.000    0.000    0.000    0.000 
#
# Total GULP energy -89555.401110 kJ/mol
# GULP energy per Si atom -5597.212569 kJ/mol
# Density = 2.398817 g / cm^3
# Si number density = 24.042891 Si / 1000 Ang^3
#
#
#
# Elastic Constant Matrix: (Units=GPa)
#
#
# Indices 1 2 3 4 5 6 
#
# 1 123.3384 29.3178 27.2823 -24.5451 -19.5734 -9.9869
# 2 29.3178 65.0087 20.0106 -33.3841 4.0818 1.0730
# 3 27.2823 20.0106 135.7685 -54.6423 -11.2543 -8.6932
# 4 -24.5451 -33.3841 -54.6423 47.9548 0.9023 1.0926
# 5 -19.5734 4.0818 -11.2543 0.9023 39.8007 -2.0783
# 6 -9.9869 1.0730 -8.6932 1.0926 -2.0783 32.8161
#
#
#
# Elastic Compliance Matrix: (Units=1/GPa)
#
#
# Indices 1 2 3 4 5 6 
#
# 1 0.010800 -0.003839 0.000368 0.003077 0.005937 0.003783
# 2 -0.003839 0.028233 0.006227 0.024888 -0.003665 -0.001503
# 3 0.000368 0.006227 0.016025 0.022630 0.003751 0.003638
# 4 0.003077 0.024888 0.022630 0.065367 0.004097 0.004201
# 5 0.005937 -0.003665 0.003751 0.004097 0.029632 0.004661
# 6 0.003783 -0.001503 0.003638 0.004201 0.004661 0.032792
#
#
# Mechanical properties :
#
#
# Convention : Reuss Voigt Hill
#
# Bulk Modulus (GPa) = 16.50970 53.03746 34.77358
# Shear Modulus (GPa) = 25.31305 40.61466 32.96386
#
# Velocity S-wave (km/s) = 3.24825 4.11452 3.70678
# Velocity P-wave (km/s) = 4.57710 6.68429 5.72842
#
# Compressibility (1/GPa) = 0.06057047
#
# Stress axis : x y z
#
# Youngs Moduli (GPa) = 92.59562 35.41980 62.40081
#
# Poissons Ratio (x) = 0.13597 -0.02299
# Poissons Ratio (y) = 0.35546 -0.38855
# Poissons Ratio (z) = -0.03412 -0.22055
#
# Static dielectric constant tensor:
#      x y z
#    x 1.965260 0.048910 0.002980 
#    y 0.048910 1.951060 -0.046580 
#    z 0.002980 -0.046580 1.894540 
# 
# From -- ./inp_files/272059.got.cif
#   From: 2010.05.17/outbox.cif.g08.bks.cpg/sg2_137_cif.got.tgz:272059.got - 2010.06.03 11:33:40.
