data_PCOD9004441
_publ_section_title
;
Structure prediction by ZEFSAII (Michael W. Deem and Ramdas Pophale) SiO2 
 PCOD9004441
Probable space group: P -1
;
_chemical_formula_sum "Si O2"
_cell_formula_units_Z 16
_cell_length_a 14.077147
_cell_length_b 12.506876
_cell_length_c 23.226367
_cell_angle_alpha 33.191071
_cell_angle_beta 159.358607
_cell_angle_gamma 148.853591
_cell_volume 730.971450
_symmetry_space_group_name_H-M "P -1"
_symmetry_group_IT_number 2
_symmetry_cell_setting 'triclinic'
loop_
_space_group_symop_operation_xyz
x,y,z
-x,-y,-z
loop_
_atom_site_type_symbol
_atom_site_label
_atom_site_fract_x
_atom_site_fract_y
_atom_site_fract_z
Si Si1 0.847477 0.631628 0.475723
Si Si2 0.251035 0.906716 0.241118
Si Si3 0.436242 0.620801 0.818492
Si Si4 0.747944 0.224026 0.827632
Si Si5 0.154200 0.459720 0.161328
Si Si6 0.618077 0.767834 0.985994
Si Si7 0.121148 0.118011 0.376431
Si Si8 0.152227 0.243450 0.457912
O O1 0.502928 0.524856 0.318813
O O2 0.891090 0.626559 0.572207
O O3 0.110340 0.564761 0.634118
O O4 0.943286 0.872804 0.399213
O O5 0.153745 0.833277 0.152915
O O6 0.537897 0.857636 0.440498
O O7 0.959563 0.804340 0.158308
O O8 0.362326 0.161675 0.195264
O O9 0.512477 0.412969 0.959036
O O10 0.473676 0.690518 0.876297
O O11 0.903520 0.395532 0.886390
O O12 0.491230 0.293851 0.629524
O O13 0.614367 0.999041 0.886411
O O14 0.050449 0.221376 0.233420
O O15 0.000000 0.500000 0.000000
O O16 0.068697 0.247037 0.343283
O O17 0.000000 0.000000 0.500000
#
# Coordination Sequence:
#
# PCOD9004441 Si02
#       8
#     2   2   2   2   2   2   2   2
#     4   9  18  33  51  73  99 125 162 208 248 296
#     4   9  17  31  50  77 105 124 152 195 247 306
#     4   9  17  27  47  75 102 130 153 180 239 309
#     4   9  18  30  45  71 103 127 158 199 238 295
#     4  11  23  36  50  69  95 135 179 210 241 280
#     4  10  17  28  47  76 109 130 147 187 247 304
#     4   9  18  32  52  73  97 128 160 204 254 295
#     4   8  14  27  47  73  99 121 151 194 251 305
#
# _framework density 21.888679
#
# number of rings (size 3 to 8) (size 9 to 14) (size 15 to 20)
#    0.000    2.750    0.000    4.500    0.000    6.000 
#    0.000    6.250    0.000    3.000    0.000    6.125 
#    0.000    0.000    0.000    0.000    0.000    0.000 
#
# Total GULP energy -89114.616502 kJ/mol
# GULP energy per Si atom -5569.663531 kJ/mol
# Density = 2.183886 g / cm^3
# Si number density = 21.888679 Si / 1000 Ang^3
#
#
#
# Elastic Constant Matrix: (Units=GPa)
#
#
# Indices 1 2 3 4 5 6 
#
# 1 25.2345 13.6464 21.3564 -3.1371 -7.0645 11.9981
# 2 13.6464 88.7464 26.2909 -25.9579 -5.0873 19.4760
# 3 21.3564 26.2909 89.3288 -10.5487 -9.1460 18.2827
# 4 -3.1371 -25.9579 -10.5487 40.0632 11.4266 3.8358
# 5 -7.0645 -5.0873 -9.1460 11.4266 31.8038 -3.4259
# 6 11.9981 19.4760 18.2827 3.8358 -3.4259 19.3032
#
#
#
# Elastic Compliance Matrix: (Units=1/GPa)
#
#
# Indices 1 2 3 4 5 6 
#
# 1 0.063871 0.002116 -0.007397 0.005900 0.006526 -0.034843
# 2 0.002116 0.022651 0.000599 0.019538 -0.005951 -0.029676
# 3 -0.007397 0.000599 0.015856 0.005184 -0.000151 -0.012082
# 4 0.005900 0.019538 0.005184 0.047782 -0.015609 -0.040555
# 5 0.006526 -0.005951 -0.000151 -0.015609 0.038806 0.012080
# 6 -0.034843 -0.029676 -0.012082 -0.040555 0.012080 0.125049
#
#
# Mechanical properties :
#
#
# Convention : Reuss Voigt Hill
#
# Bulk Modulus (GPa) = 10.75095 36.21081 23.48088
# Shear Modulus (GPa) = 14.10901 27.70177 20.90539
#
# Velocity S-wave (km/s) = 2.54161 3.56135 3.09379
# Velocity P-wave (km/s) = 3.67904 5.78706 4.84899
#
# Compressibility (1/GPa) = 0.09301507
#
# Stress axis : x y z
#
# Youngs Moduli (GPa) = 15.65662 44.14721 63.06740
#
# Poissons Ratio (x) = -0.09342 0.46649
# Poissons Ratio (y) = -0.03313 -0.03778
# Poissons Ratio (z) = 0.11581 -0.02644
#
# Static dielectric constant tensor:
#      x y z
#    x 1.838860 0.027010 0.071870 
#    y 0.027010 1.889550 -0.024140 
#    z 0.071870 -0.024140 1.832890 
# 
# From -- ./inp_files/453501.got.cif
#   From: 2010.05.17/outbox.cif.g08.bks.cpg/sg2_227_cif.got.tgz:453501.got - 2010.06.03 11:33:40.
