data_PCOD9004178
_publ_section_title
;
Structure prediction by ZEFSAII (Michael W. Deem and Ramdas Pophale) SiO2 
 PCOD9004178
Probable space group: P -1
;
_chemical_formula_sum "Si O2"
_cell_formula_units_Z 16
_cell_length_a 21.032983
_cell_length_b 11.601134
_cell_length_c 11.507477
_cell_angle_alpha 27.649292
_cell_angle_beta 150.248707
_cell_angle_gamma 144.139784
_cell_volume 636.072574
_symmetry_space_group_name_H-M "P -1"
_symmetry_group_IT_number 2
_symmetry_cell_setting 'triclinic'
loop_
_space_group_symop_operation_xyz
x,y,z
-x,-y,-z
loop_
_atom_site_type_symbol
_atom_site_label
_atom_site_fract_x
_atom_site_fract_y
_atom_site_fract_z
Si Si1 0.995367 0.295828 0.812903
Si Si2 0.380357 0.063013 0.413169
Si Si3 0.976549 0.139187 0.178951
Si Si4 0.797233 0.408275 0.788569
Si Si5 0.787481 0.570230 0.118635
Si Si6 0.398657 0.642694 0.649632
Si Si7 0.161048 0.794839 0.742756
Si Si8 0.631054 0.086392 0.203555
O O1 0.102482 0.226234 0.955452
O O2 0.082078 0.560433 0.757909
O O3 0.871444 0.378464 0.481554
O O4 0.963837 0.139766 0.018996
O O5 0.520809 0.171275 0.484341
O O6 0.340892 0.802214 0.514003
O O7 0.382314 0.026714 0.587225
O O8 0.287952 0.267733 0.062186
O O9 0.084793 0.377905 0.174965
O O10 0.046430 0.905962 0.525569
O O11 0.847326 0.187081 0.993045
O O12 0.708267 0.522757 0.453719
O O13 0.745561 0.289912 0.935391
O O14 0.677373 0.389505 0.028592
O O15 0.500000 0.500000 0.000000
O O16 0.249685 0.976818 0.629986
O O17 0.500000 0.000000 0.000000
#
# Coordination Sequence:
#
# PCOD9004178 Si02
#       8
#     2   2   2   2   2   2   2   2
#     4   9  21  38  62  97 130 167 209 265 319 384
#     4  11  25  42  65  96 120 175 218 259 330 374
#     4  10  21  37  64  95 126 168 210 266 328 376
#     4  10  23  40  61  93 128 168 214 264 325 378
#     4  10  22  41  63  93 133 165 216 266 320 389
#     4  11  26  45  64  93 133 172 221 270 314 385
#     4  10  21  40  64  96 128 166 216 263 322 387
#     4  11  24  41  65  93 127 169 214 268 326 383
#
# _framework density 25.154361000000002
#
# number of rings (size 3 to 8) (size 9 to 14) (size 15 to 20)
#    0.000    1.750    0.000    2.625    5.250    4.500 
#    0.000    3.750    0.000    0.000    0.000    0.000 
#    0.000    0.000    0.000    0.000    0.000    0.000 
#
# Total GULP energy -89443.258245 kJ/mol
# GULP energy per Si atom -5590.203640 kJ/mol
# Density = 2.509711 g / cm^3
# Si number density = 25.154361 Si / 1000 Ang^3
#
#
#
# Elastic Constant Matrix: (Units=GPa)
#
#
# Indices 1 2 3 4 5 6 
#
# 1 115.9850 29.7264 30.2568 18.9081 -9.0113 -9.2368
# 2 29.7264 87.9426 27.4563 27.7560 -5.8377 -14.8309
# 3 30.2568 27.4563 95.0692 25.7845 -10.5866 -24.5739
# 4 18.9081 27.7560 25.7845 36.6578 -13.4390 -5.5430
# 5 -9.0113 -5.8377 -10.5866 -13.4390 52.8517 0.9254
# 6 -9.2368 -14.8309 -24.5739 -5.5430 0.9254 40.2669
#
#
#
# Elastic Compliance Matrix: (Units=1/GPa)
#
#
# Indices 1 2 3 4 5 6 
#
# 1 0.010049 -0.002111 -0.001979 -0.001974 0.000581 0.000034
# 2 -0.002111 0.016161 -0.000180 -0.010973 -0.001469 0.003882
# 3 -0.001979 -0.000180 0.015557 -0.008430 0.000479 0.007802
# 4 -0.001974 -0.010973 -0.008430 0.045020 0.008274 -0.003632
# 5 0.000581 -0.001469 0.000479 0.008274 0.021048 0.000540
# 6 0.000034 0.003882 0.007802 -0.003632 0.000540 0.030521
#
#
# Mechanical properties :
#
#
# Convention : Reuss Voigt Hill
#
# Bulk Modulus (GPa) = 30.09653 52.65286 41.37470
# Shear Modulus (GPa) = 31.65114 40.05908 35.85511
#
# Velocity S-wave (km/s) = 3.55107 3.99498 3.77955
# Velocity P-wave (km/s) = 5.36695 6.50055 5.96076
#
# Compressibility (1/GPa) = 0.03322642
#
# Stress axis : x y z
#
# Youngs Moduli (GPa) = 99.51225 61.87688 64.27956
#
# Poissons Ratio (x) = 0.13064 0.12724
# Poissons Ratio (y) = 0.21010 0.01155
# Poissons Ratio (z) = 0.19698 0.01111
#
# Static dielectric constant tensor:
#      x y z
#    x 2.072040 0.001190 0.006470 
#    y 0.001190 2.008400 -0.014860 
#    z 0.006470 -0.014860 2.002590 
# 
# From -- ./inp_files/471129.got.cif
#   From: 2010.05.17/outbox.cif.g08.bks.cpg/sg2_236_cif.got.tgz:471129.got - 2010.06.03 11:33:40.
