data_PCOD9004116
_publ_section_title
;
Structure prediction by ZEFSAII (Michael W. Deem and Ramdas Pophale) SiO2 
 PCOD9004116
Probable space group: P -1
;
_chemical_formula_sum "Si O2"
_cell_formula_units_Z 16
_cell_length_a 16.067288
_cell_length_b 8.272867
_cell_length_c 8.531888
_cell_angle_alpha 92.025680
_cell_angle_beta 48.069807
_cell_angle_gamma 61.754545
_cell_volume 627.244390
_symmetry_space_group_name_H-M "P -1"
_symmetry_group_IT_number 2
_symmetry_cell_setting 'triclinic'
loop_
_space_group_symop_operation_xyz
x,y,z
-x,-y,-z
loop_
_atom_site_type_symbol
_atom_site_label
_atom_site_fract_x
_atom_site_fract_y
_atom_site_fract_z
Si Si1 0.036003 0.025546 0.702625
Si Si2 0.408143 0.135580 0.276220
Si Si3 0.555206 0.536973 0.775906
Si Si4 0.848995 0.774571 0.967913
Si Si5 0.645437 0.129659 0.494689
Si Si6 0.075206 0.686366 0.872683
Si Si7 0.638549 0.700280 0.326604
Si Si8 0.213290 0.901875 0.165197
O O1 0.059082 0.847148 0.776015
O O2 0.876694 0.147564 0.820366
O O3 0.160328 0.924709 0.409795
O O4 0.023883 0.182522 0.844509
O O5 0.367238 0.362947 0.287820
O O6 0.450796 0.128100 0.408702
O O7 0.331075 0.035812 0.411235
O O8 0.500000 0.000000 0.000000
O O9 0.646260 0.310275 0.562970
O O10 0.500000 0.500000 0.000000
O O11 0.391718 0.730921 0.909748
O O12 0.749267 0.712101 0.093037
O O13 0.757172 0.984987 0.206056
O O14 0.852571 0.862028 0.802056
O O15 0.009164 0.602964 0.848529
O O16 0.477107 0.275372 0.638731
O O17 0.238885 0.515956 0.735359
#
# Coordination Sequence:
#
# PCOD9004116 Si02
#       8
#     2   2   2   2   2   2   2   2
#     4   9  21  38  60  87 126 169 201 273 329 372
#     4  11  24  43  62  97 137 171 211 273 328 382
#     4  12  25  38  67  99 126 168 222 269 322 391
#     4  10  22  42  62  91 127 176 213 263 327 390
#     4  11  24  44  67  95 133 175 216 270 331 386
#     4  10  21  37  64  91 123 164 221 261 316 391
#     4  11  23  41  67  93 130 171 219 267 325 387
#     4  10  21  39  59  88 128 163 218 263 322 390
#
# _framework density 25.508398
#
# number of rings (size 3 to 8) (size 9 to 14) (size 15 to 20)
#    0.000    1.500    1.250    4.125    3.500    4.000 
#    0.000    0.625    0.000    0.000    0.000    0.000 
#    0.000    0.000    0.000    0.000    0.000    0.000 
#
# Total GULP energy -89258.914983 kJ/mol
# GULP energy per Si atom -5578.682186 kJ/mol
# Density = 2.545034 g / cm^3
# Si number density = 25.508398 Si / 1000 Ang^3
#
#
#
# Elastic Constant Matrix: (Units=GPa)
#
#
# Indices 1 2 3 4 5 6 
#
# 1 121.8206 32.7882 15.8332 -6.0827 -19.2181 -3.1028
# 2 32.7882 127.6924 28.8305 -18.9141 -4.2652 12.5340
# 3 15.8332 28.8305 91.8413 -23.1487 -1.2161 9.0407
# 4 -6.0827 -18.9141 -23.1487 47.9358 0.7904 1.7981
# 5 -19.2181 -4.2652 -1.2161 0.7904 26.5575 -4.0804
# 6 -3.1028 12.5340 9.0407 1.7981 -4.0804 39.2770
#
#
#
# Elastic Compliance Matrix: (Units=1/GPa)
#
#
# Indices 1 2 3 4 5 6 
#
# 1 0.010238 -0.002427 -0.001296 -0.000506 0.007385 0.002672
# 2 -0.002427 0.009498 -0.001562 0.002815 -0.000860 -0.003081
# 3 -0.001296 -0.001562 0.013350 0.005802 -0.001222 -0.003069
# 4 -0.000506 0.002815 0.005802 0.024856 -0.000927 -0.003508
# 5 0.007385 -0.000860 -0.001222 -0.000927 0.043711 0.005722
# 6 0.002672 -0.003081 -0.003069 -0.003508 0.005722 0.028116
#
#
# Mechanical properties :
#
#
# Convention : Reuss Voigt Hill
#
# Bulk Modulus (GPa) = 44.41034 55.13981 49.77507
# Shear Modulus (GPa) = 33.81915 40.34755 37.08335
#
# Velocity S-wave (km/s) = 3.64511 3.98142 3.81697
# Velocity P-wave (km/s) = 5.92989 6.54208 6.24350
#
# Compressibility (1/GPa) = 0.02251728
#
# Stress axis : x y z
#
# Youngs Moduli (GPa) = 97.67223 105.28727 74.90480
#
# Poissons Ratio (x) = 0.25552 0.09708
# Poissons Ratio (y) = 0.23704 0.11697
# Poissons Ratio (z) = 0.12659 0.16442
#
# Static dielectric constant tensor:
#      x y z
#    x 2.055860 -0.043650 -0.069540 
#    y -0.043650 2.133940 0.069710 
#    z -0.069540 0.069710 2.058340 
# 
# From -- ./inp_files/328995.got.cif
#   From: 2010.05.17/outbox.cif.g08.bks.cpg/sg2_165_cif.got.tgz:328995.got - 2010.06.03 11:33:40.
