data_PCOD9004309
_publ_section_title
;
Structure prediction by ZEFSAII (Michael W. Deem and Ramdas Pophale) SiO2 
 PCOD9004309
Probable space group: P -1
;
_chemical_formula_sum "Si O2"
_cell_formula_units_Z 12
_cell_length_a 22.010715
_cell_length_b 9.773487
_cell_length_c 14.210629
_cell_angle_alpha 28.114996
_cell_angle_beta 20.603033
_cell_angle_gamma 36.658692
_cell_volume 501.866390
_symmetry_space_group_name_H-M "P -1"
_symmetry_group_IT_number 2
_symmetry_cell_setting 'triclinic'
loop_
_space_group_symop_operation_xyz
x,y,z
-x,-y,-z
loop_
_atom_site_type_symbol
_atom_site_label
_atom_site_fract_x
_atom_site_fract_y
_atom_site_fract_z
Si Si1 0.583059 0.837182 0.683350
Si Si2 0.028643 0.671436 0.126072
Si Si3 0.457269 0.355216 0.940215
Si Si4 0.816117 0.704542 0.254228
Si Si5 0.148053 0.682162 0.242332
Si Si6 0.583520 0.442912 0.315535
O O1 0.725650 0.841933 0.391699
O O2 0.489619 0.115216 0.622328
O O3 0.500000 0.500000 0.000000
O O4 0.609300 0.862679 0.744499
O O5 0.988040 0.618867 0.106608
O O6 0.889815 0.451200 0.519364
O O7 0.216926 0.603737 0.926190
O O8 0.000000 0.000000 0.000000
O O9 0.664208 0.457216 0.589442
O O10 0.425693 0.314902 0.898746
O O11 0.337022 0.613228 0.977335
O O12 0.865291 0.976589 0.949562
O O13 0.000000 0.500000 0.500000
O O14 0.500000 0.500000 0.500000
#
# Coordination Sequence:
#
# PCOD9004309 Si02
#       6
#     2   2   2   2   2   2
#     4  10  21  37  65  95 126 161 216 263 315 375
#     4  12  21  38  61  96 126 164 217 272 311 376
#     4  11  22  38  63  96 127 170 211 264 323 385
#     4  11  22  34  62 100 126 156 218 270 321 367
#     4  12  19  31  62  96 128 154 214 276 315 357
#     4  12  26  43  62  95 136 170 212 268 328 386
#
# _framework density 23.910747000000001
#
# number of rings (size 3 to 8) (size 9 to 14) (size 15 to 20)
#    0.000    0.667    8.333    0.500    2.333    0.667 
#    0.000    0.833    0.000    7.000    0.000    0.000 
#    0.000    0.000    0.000    0.000    0.000    0.000 
#
# Total GULP energy -66898.287086 kJ/mol
# GULP energy per Si atom -5574.857257 kJ/mol
# Density = 2.385633 g / cm^3
# Si number density = 23.910747 Si / 1000 Ang^3
#
#
#
# Elastic Constant Matrix: (Units=GPa)
#
#
# Indices 1 2 3 4 5 6 
#
# 1 107.7794 12.1294 24.4170 5.4165 9.9360 -32.6138
# 2 12.1294 26.2973 15.7610 -4.0749 7.8751 -6.5183
# 3 24.4170 15.7610 81.3993 -12.1389 15.3730 -9.7514
# 4 5.4165 -4.0749 -12.1389 32.0170 -11.7120 10.7741
# 5 9.9360 7.8751 15.3730 -11.7120 63.1229 0.0542
# 6 -32.6138 -6.5183 -9.7514 10.7741 0.0542 35.4558
#
#
#
# Elastic Compliance Matrix: (Units=1/GPa)
#
#
# Indices 1 2 3 4 5 6 
#
# 1 0.016442 -0.001872 -0.003524 -0.011518 -0.003648 0.017316
# 2 -0.001872 0.045314 -0.006902 0.000643 -0.003562 0.004521
# 3 -0.003524 -0.006902 0.015550 0.005813 -0.001291 -0.001998
# 4 -0.011518 0.000643 0.005813 0.046493 0.008963 -0.023019
# 5 -0.003648 -0.003562 -0.001291 0.008963 0.018844 -0.007118
# 6 0.017316 0.004521 -0.001998 -0.023019 -0.007118 0.051420
#
#
# Mechanical properties :
#
#
# Convention : Reuss Voigt Hill
#
# Bulk Modulus (GPa) = 18.97168 35.56565 27.26866
# Shear Modulus (GPa) = 21.16595 36.99706 29.08151
#
# Velocity S-wave (km/s) = 2.97847 3.93784 3.49126
# Velocity P-wave (km/s) = 4.44747 5.96507 5.26128
#
# Compressibility (1/GPa) = 0.05271015
#
# Stress axis : x y z
#
# Youngs Moduli (GPa) = 60.81901 22.06841 64.30882
#
# Poissons Ratio (x) = 0.04131 0.22661
# Poissons Ratio (y) = 0.11384 0.44387
# Poissons Ratio (z) = 0.21431 0.15232
#
# Static dielectric constant tensor:
#      x y z
#    x 2.162060 -0.038650 -0.109770 
#    y -0.038650 1.925190 0.003340 
#    z -0.109770 0.003340 1.998430 
# 
# From -- ./inp_files/418504.got.cif
#   From: 2010.05.17/outbox.cif.g08.bks.cpg/sg2_210_cif.got.tgz:418504.got - 2010.06.03 11:33:40.
