data_PCOD9004925
_publ_section_title
;
Structure prediction by ZEFSAII (Michael W. Deem and Ramdas Pophale) SiO2 
 PCOD9004925
Probable space group: P -1
;
_chemical_formula_sum "Si O2"
_cell_formula_units_Z 14
_cell_length_a 13.179853
_cell_length_b 14.633159
_cell_length_c 13.902027
_cell_angle_alpha 159.160354
_cell_angle_beta 39.095070
_cell_angle_gamma 137.426692
_cell_volume 600.766474
_symmetry_space_group_name_H-M "P -1"
_symmetry_group_IT_number 2
_symmetry_cell_setting 'triclinic'
loop_
_space_group_symop_operation_xyz
x,y,z
-x,-y,-z
loop_
_atom_site_type_symbol
_atom_site_label
_atom_site_fract_x
_atom_site_fract_y
_atom_site_fract_z
Si Si1 0.616405 0.341255 0.663205
Si Si2 0.692231 0.838618 0.169392
Si Si3 0.921527 0.934284 0.269462
Si Si4 0.332425 0.599437 0.759064
Si Si5 0.986125 0.424193 0.823809
Si Si6 0.527436 0.516115 0.699291
Si Si7 0.708903 0.035337 0.004565
O O1 0.487465 0.250878 0.750670
O O2 0.523008 0.463902 0.764186
O O3 0.692158 0.067762 0.317590
O O4 0.745325 0.564532 0.821390
O O5 0.790772 0.946121 0.293994
O O6 0.914448 0.151579 0.571051
O O7 0.908249 0.654000 0.050756
O O8 0.100135 0.962274 0.119829
O O9 0.500000 0.500000 0.500000
O O10 0.178104 0.443561 0.676610
O O11 0.356055 0.552378 0.808831
O O12 0.315235 0.889137 0.017434
O O13 0.000000 0.500000 0.000000
O O14 0.621713 0.272734 0.351490
O O15 0.625138 0.777377 0.853896
#
# Coordination Sequence:
#
# PCOD9004925 Si02
#       7
#     2   2   2   2   2   2   2
#     4  10  22  40  61  91 116 153 211 261 288 365
#     4  10  22  42  63  83 120 162 201 248 321 350
#     4  11  22  42  64  81 126 165 193 241 326 356
#     4   9  20  38  61  87 126 165 197 240 308 365
#     4  11  24  39  59  96 124 154 210 253 291 376
#     4  11  21  37  62  89 123 154 209 251 299 342
#     4  10  21  38  59  92 120 164 197 245 297 382
#
# _framework density 23.303564999999999
#
# number of rings (size 3 to 8) (size 9 to 14) (size 15 to 20)
#    0.000    1.714    0.000    5.143    2.000    3.429 
#    2.571    4.286    0.000    0.000    0.000    0.000 
#    0.000    0.000    0.000    0.000    0.000    0.000 
#
# Total GULP energy -78130.553439 kJ/mol
# GULP energy per Si atom -5580.753817 kJ/mol
# Density = 2.325053 g / cm^3
# Si number density = 23.303565 Si / 1000 Ang^3
#
#
#
# Elastic Constant Matrix: (Units=GPa)
#
#
# Indices 1 2 3 4 5 6 
#
# 1 126.9838 17.0430 34.1369 17.6404 -5.3070 -9.9893
# 2 17.0430 38.4590 30.3056 16.5454 -7.4854 -5.9335
# 3 34.1369 30.3056 151.1936 39.3378 -1.6891 -2.3597
# 4 17.6404 16.5454 39.3378 27.9689 -7.8233 -4.5332
# 5 -5.3070 -7.4854 -1.6891 -7.8233 31.9931 7.0818
# 6 -9.9893 -5.9335 -2.3597 -4.5332 7.0818 37.5560
#
#
#
# Elastic Compliance Matrix: (Units=1/GPa)
#
#
# Indices 1 2 3 4 5 6 
#
# 1 0.008894 -0.001675 -0.000800 -0.003256 -0.000127 0.001682
# 2 -0.001675 0.036695 -0.003021 -0.014876 0.003929 0.002625
# 3 -0.000800 -0.003021 0.011122 -0.014522 -0.003566 -0.001072
# 4 -0.003256 -0.014876 -0.014522 0.070748 0.012039 0.002141
# 5 -0.000127 0.003929 -0.003566 0.012039 0.036012 -0.004975
# 6 0.001682 0.002625 -0.001072 0.002141 -0.004975 0.028618
#
#
# Mechanical properties :
#
#
# Convention : Reuss Voigt Hill
#
# Bulk Modulus (GPa) = 21.87369 53.28971 37.58170
# Shear Modulus (GPa) = 22.90190 35.18032 29.04111
#
# Velocity S-wave (km/s) = 3.13831 3.88964 3.53400
# Velocity P-wave (km/s) = 4.74750 6.56427 5.72837
#
# Compressibility (1/GPa) = 0.04571701
#
# Stress axis : x y z
#
# Youngs Moduli (GPa) = 112.43105 27.25177 89.90965
#
# Poissons Ratio (x) = 0.04566 0.07196
# Poissons Ratio (y) = 0.18836 0.27166
# Poissons Ratio (z) = 0.08999 0.08234
#
# Static dielectric constant tensor:
#      x y z
#    x 1.917230 -0.066880 0.059460 
#    y -0.066880 1.942920 -0.075030 
#    z 0.059460 -0.075030 2.005550 
# 
# From -- ./inp_files/522014.got.cif
#   From: 2010.05.17/outbox.cif.g08.bks.cpg/sg2_262_cif.got.tgz:522014.got - 2010.06.03 11:33:40.
