data_PCOD9004867
_publ_section_title
;
Structure prediction by ZEFSAII (Michael W. Deem and Ramdas Pophale) SiO2 
 PCOD9004867
Probable space group: P -1
;
_chemical_formula_sum "Si O2"
_cell_formula_units_Z 16
_cell_length_a 16.394780
_cell_length_b 5.067060
_cell_length_c 10.633499
_cell_angle_alpha 77.471335
_cell_angle_beta 55.562620
_cell_angle_gamma 64.406686
_cell_volume 656.619205
_symmetry_space_group_name_H-M "P -1"
_symmetry_group_IT_number 2
_symmetry_cell_setting 'triclinic'
loop_
_space_group_symop_operation_xyz
x,y,z
-x,-y,-z
loop_
_atom_site_type_symbol
_atom_site_label
_atom_site_fract_x
_atom_site_fract_y
_atom_site_fract_z
Si Si1 0.473773 0.317418 0.786303
Si Si2 0.921398 0.078628 0.181017
Si Si3 0.258846 0.348023 0.393524
Si Si4 0.444460 0.204690 0.410711
Si Si5 0.182860 0.121211 0.102737
Si Si6 0.652455 0.182937 0.813681
Si Si7 0.225934 0.641748 0.918607
Si Si8 0.040785 0.538777 0.675610
O O1 0.533193 0.499958 0.641453
O O2 0.527391 0.278293 0.881293
O O3 0.711059 0.957233 0.672980
O O4 0.500063 0.001162 0.735536
O O5 0.937334 0.321293 0.228952
O O6 0.942717 0.792853 0.274565
O O7 0.804755 0.199900 0.204508
O O8 0.000000 0.000000 0.000000
O O9 0.319045 0.286322 0.483139
O O10 0.311179 0.544999 0.254186
O O11 0.132886 0.522621 0.500059
O O12 0.500000 0.000000 0.500000
O O13 0.183280 0.381380 0.986272
O O14 0.082211 0.262696 0.268679
O O15 0.295639 0.994864 0.089288
O O16 0.172457 0.866888 0.054403
O O17 0.649750 0.491602 0.143131
#
# Coordination Sequence:
#
# PCOD9004867 Si02
#       8
#     2   2   2   2   2   2   2   2
#     4  10  23  40  59  88 123 154 198 249 297 349
#     4  12  23  41  61  86 131 158 193 254 297 353
#     4  10  23  40  62  90 121 158 201 246 303 352
#     4  10  21  38  59  87 120 158 199 242 294 359
#     4  12  24  41  64  89 119 163 206 245 298 354
#     4  10  23  44  62  87 124 156 202 259 290 346
#     4  12  25  39  63  93 120 161 203 241 304 362
#     4  12  24  40  63  92 121 161 200 243 305 361
#
# _framework density 24.367241
#
# number of rings (size 3 to 8) (size 9 to 14) (size 15 to 20)
#    0.000    1.000    2.500    3.750    3.500    2.000 
#    0.000    0.000    0.000    0.000    0.000    0.000 
#    0.000    0.000    0.000    0.000    0.000    0.000 
#
# Total GULP energy -89568.152475 kJ/mol
# GULP energy per Si atom -5598.009530 kJ/mol
# Density = 2.431178 g / cm^3
# Si number density = 24.367241 Si / 1000 Ang^3
#
#
#
# Elastic Constant Matrix: (Units=GPa)
#
#
# Indices 1 2 3 4 5 6 
#
# 1 92.4174 19.5378 3.5251 3.4038 -3.7001 -18.9950
# 2 19.5378 90.8679 2.8070 -5.1067 -7.5324 -0.6591
# 3 3.5251 2.8070 25.8935 4.2244 -10.5562 5.4940
# 4 3.4038 -5.1067 4.2244 31.6134 -7.8788 -2.8047
# 5 -3.7001 -7.5324 -10.5562 -7.8788 32.5380 1.1681
# 6 -18.9950 -0.6591 5.4940 -2.8047 1.1681 42.4837
#
#
#
# Elastic Compliance Matrix: (Units=1/GPa)
#
#
# Indices 1 2 3 4 5 6 
#
# 1 0.012741 -0.002715 -0.002753 -0.001049 -0.000541 0.005956
# 2 -0.002715 0.012014 0.000113 0.002946 0.003256 -0.000937
# 3 -0.002753 0.000113 0.047087 -0.003058 0.014533 -0.007920
# 4 -0.001049 0.002946 -0.003058 0.034785 0.007920 0.002051
# 5 -0.000541 0.003256 0.014533 0.007920 0.038152 -0.002597
# 6 0.005956 -0.000937 -0.007920 0.002051 -0.002597 0.027418
#
#
# Mechanical properties :
#
#
# Convention : Reuss Voigt Hill
#
# Bulk Modulus (GPa) = 16.35846 28.99095 22.67470
# Shear Modulus (GPa) = 24.59619 33.54762 29.07190
#
# Velocity S-wave (km/s) = 3.18055 3.71448 3.45784
# Velocity P-wave (km/s) = 4.49619 5.50635 5.02671
#
# Compressibility (1/GPa) = 0.06113045
#
# Stress axis : x y z
#
# Youngs Moduli (GPa) = 78.48921 83.23664 21.23750
#
# Poissons Ratio (x) = 0.22598 0.05847
# Poissons Ratio (y) = 0.21309 -0.00240
# Poissons Ratio (z) = 0.21610 -0.00939
#
# Static dielectric constant tensor:
#      x y z
#    x 1.964430 -0.065490 -0.029200 
#    y -0.065490 1.898910 0.027570 
#    z -0.029200 0.027570 1.916860 
# 
# From -- ./inp_files/459459.got.cif
#   From: 2010.05.17/outbox.cif.g08.bks.cpg/sg2_230_cif.got.tgz:459459.got - 2010.06.03 11:33:40.
