data_PCOD9004253
_publ_section_title
;
Structure prediction by ZEFSAII (Michael W. Deem and Ramdas Pophale) SiO2 
 PCOD9004253
Probable space group: P -1
;
_chemical_formula_sum "Si O2"
_cell_formula_units_Z 16
_cell_length_a 9.176499
_cell_length_b 18.741798
_cell_length_c 9.363651
_cell_angle_alpha 141.366070
_cell_angle_beta 108.777346
_cell_angle_gamma 58.777518
_cell_volume 849.353175
_symmetry_space_group_name_H-M "P -1"
_symmetry_group_IT_number 2
_symmetry_cell_setting 'triclinic'
loop_
_space_group_symop_operation_xyz
x,y,z
-x,-y,-z
loop_
_atom_site_type_symbol
_atom_site_label
_atom_site_fract_x
_atom_site_fract_y
_atom_site_fract_z
Si Si1 0.849738 0.807480 0.370035
Si Si2 0.524292 0.541279 0.728915
Si Si3 0.817996 0.000704 0.429307
Si Si4 0.407934 0.874024 0.696909
Si Si5 0.500991 0.813369 0.187790
Si Si6 0.416326 0.429752 0.765943
Si Si7 0.149037 0.541979 0.089605
Si Si8 0.369409 0.000305 0.176964
O O1 0.687033 0.774012 0.257430
O O2 0.800999 0.905274 0.641700
O O3 0.038418 0.693250 0.267826
O O4 0.842150 0.873607 0.319302
O O5 0.500000 0.500000 0.500000
O O6 0.404027 0.499449 0.721883
O O7 0.711562 0.481722 0.776955
O O8 0.479401 0.690003 0.943867
O O9 0.760028 0.030791 0.295150
O O10 0.655179 0.109682 0.632681
O O11 0.000000 0.000000 0.500000
O O12 0.472321 0.723173 0.453351
O O13 0.551267 0.913795 0.740220
O O14 0.369589 0.909599 0.906709
O O15 0.481410 0.907151 0.195276
O O16 0.500000 0.500000 0.000000
O O17 0.244074 0.466961 0.858826
O O18 0.000000 0.500000 0.000000
#
# Coordination Sequence:
#
# PCOD9004253 Si02
#       8
#     2   2   2   2   2   2   2   2
#     4  11  21  40  62  90 124 159 213 248 314 375
#     4  11  24  42  64  90 129 171 207 261 323 376
#     4  11  23  36  62  90 119 161 203 261 305 374
#     4  11  20  39  62  91 120 151 213 251 320 354
#     4  11  20  43  63  85 123 166 215 244 311 379
#     4  10  23  39  66  90 124 168 209 255 315 386
#     4  11  22  40  66  93 121 167 216 262 304 384
#     4  10  21  37  65  89 118 162 198 267 304 367
#
# _framework density 18.837864
#
# number of rings (size 3 to 8) (size 9 to 14) (size 15 to 20)
#    0.000    1.250    3.750    3.750    5.250    0.000 
#    2.250    1.875    0.000    0.000    0.000    0.000 
#    0.000    0.000    0.000    0.000    0.000    0.000 
#
# Total GULP energy -89125.086834 kJ/mol
# GULP energy per Si atom -5570.317927 kJ/mol
# Density = 1.879499 g / cm^3
# Si number density = 18.837864 Si / 1000 Ang^3
#
#
#
# Elastic Constant Matrix: (Units=GPa)
#
#
# Indices 1 2 3 4 5 6 
#
# 1 80.9910 15.3660 8.0858 -11.3798 -0.7183 6.4327
# 2 15.3660 67.9228 53.7707 -10.4087 -10.5988 5.5477
# 3 8.0858 53.7707 102.9480 -5.2278 4.1414 3.6237
# 4 -11.3798 -10.4087 -5.2278 41.0758 11.3017 -0.5573
# 5 -0.7183 -10.5988 4.1414 11.3017 20.3471 2.1073
# 6 6.4327 5.5477 3.6237 -0.5573 2.1073 32.2380
#
#
#
# Elastic Compliance Matrix: (Units=1/GPa)
#
#
# Indices 1 2 3 4 5 6 
#
# 1 0.013659 -0.004173 0.001538 0.004009 -0.004040 -0.001847
# 2 -0.004173 0.033516 -0.017964 -0.001065 0.022012 -0.004373
# 3 0.001538 -0.017964 0.019643 0.002479 -0.014843 0.001590
# 4 0.004009 -0.001065 0.002479 0.030440 -0.017908 0.000801
# 5 -0.004040 0.022012 -0.014843 -0.017908 0.074109 -0.006467
# 6 -0.001847 -0.004373 0.001590 0.000801 -0.006467 0.032398
#
#
# Mechanical properties :
#
#
# Convention : Reuss Voigt Hill
#
# Bulk Modulus (GPa) = 39.03078 45.14519 42.08798
# Shear Modulus (GPa) = 19.72366 30.37481 25.04923
#
# Velocity S-wave (km/s) = 3.23928 4.01987 3.65050
# Velocity P-wave (km/s) = 5.89533 6.75003 6.33711
#
# Compressibility (1/GPa) = 0.02562081
#
# Stress axis : x y z
#
# Youngs Moduli (GPa) = 73.20996 29.83626 50.90981
#
# Poissons Ratio (x) = 0.12449 -0.07828
# Poissons Ratio (y) = 0.30547 0.91453
# Poissons Ratio (z) = -0.11257 0.53597
#
# Static dielectric constant tensor:
#      x y z
#    x 1.716220 0.054750 0.024670 
#    y 0.054750 1.709100 -0.023420 
#    z 0.024670 -0.023420 1.656830 
# 
# From -- ./inp_files/188668.got.cif
#   From: 2010.05.17/outbox.cif.g08.bks.cpg/sg2_95_cif.got.tgz:188668.got - 2010.06.03 11:33:40.
