data_PCOD9004431
_publ_section_title
;
Structure prediction by ZEFSAII (Michael W. Deem and Ramdas Pophale) SiO2 
 PCOD9004431
Probable space group: P -1
;
_chemical_formula_sum "Si O2"
_cell_formula_units_Z 16
_cell_length_a 9.229572
_cell_length_b 14.481385
_cell_length_c 11.558254
_cell_angle_alpha 64.252455
_cell_angle_beta 65.970386
_cell_angle_gamma 120.010667
_cell_volume 721.888003
_symmetry_space_group_name_H-M "P -1"
_symmetry_group_IT_number 2
_symmetry_cell_setting 'triclinic'
loop_
_space_group_symop_operation_xyz
x,y,z
-x,-y,-z
loop_
_atom_site_type_symbol
_atom_site_label
_atom_site_fract_x
_atom_site_fract_y
_atom_site_fract_z
Si Si1 0.962400 0.289730 0.011511
Si Si2 0.330794 0.909613 0.445470
Si Si3 0.559647 0.316892 0.933530
Si Si4 0.863835 0.406597 0.318568
Si Si5 0.905271 0.764865 0.231980
Si Si6 0.604757 0.398756 0.607741
Si Si7 0.218498 0.311643 0.129188
Si Si8 0.344503 0.988156 0.148026
O O1 0.162195 0.343489 0.011517
O O2 0.640405 0.119399 0.250132
O O3 0.086513 0.468057 0.845929
O O4 0.964164 0.219921 0.932575
O O5 0.335709 0.792384 0.543866
O O6 0.265760 0.881967 0.343873
O O7 0.072337 0.830456 0.631211
O O8 0.598768 0.365995 0.760394
O O9 0.839460 0.491446 0.816857
O O10 0.295643 0.236102 0.113036
O O11 0.532772 0.180966 0.025301
O O12 0.763821 0.400773 0.476493
O O13 0.745818 0.584890 0.442728
O O14 0.702226 0.745858 0.265395
O O15 0.106291 0.910848 0.187725
O O16 0.500000 0.500000 0.000000
O O17 0.500000 0.000000 0.000000
#
# Coordination Sequence:
#
# PCOD9004431 Si02
#       8
#     2   2   2   2   2   2   2   2
#     4  11  24  49  72 105 145 184 244 295 352 431
#     4  12  25  46  74 102 145 191 242 290 358 418
#     4  12  23  44  68 104 142 190 235 292 355 426
#     4  11  23  43  73 105 137 189 234 293 366 421
#     4  10  21  39  67 103 144 179 221 295 366 422
#     4  10  21  37  67 100 139 180 228 289 360 427
#     4  12  28  49  73  99 146 196 243 297 348 422
#     4  12  23  41  72 108 142 179 230 297 362 429
#
# _framework density 22.164100999999999
#
# number of rings (size 3 to 8) (size 9 to 14) (size 15 to 20)
#    0.000    0.750    5.000    3.000    0.000    2.500 
#    0.000    0.000    0.000    0.000    0.000    0.000 
#    0.000    0.000    0.000    0.000    0.000    0.000 
#
# Total GULP energy -89457.447992 kJ/mol
# GULP energy per Si atom -5591.090500 kJ/mol
# Density = 2.211365 g / cm^3
# Si number density = 22.164101 Si / 1000 Ang^3
#
#
#
# Elastic Constant Matrix: (Units=GPa)
#
#
# Indices 1 2 3 4 5 6 
#
# 1 88.6272 16.8368 15.8565 10.6215 -2.1173 1.5783
# 2 16.8368 56.2455 23.5785 7.5646 10.2779 2.2736
# 3 15.8565 23.5785 70.8876 -1.6878 0.9714 -16.4237
# 4 10.6215 7.5646 -1.6878 8.9022 -7.6676 -13.4151
# 5 -2.1173 10.2779 0.9714 -7.6676 31.5666 1.3075
# 6 1.5783 2.2736 -16.4237 -13.4151 1.3075 46.7103
#
#
#
# Elastic Compliance Matrix: (Units=1/GPa)
#
#
# Indices 1 2 3 4 5 6 
#
# 1 0.006083 -0.018284 0.010541 0.057431 0.019144 0.020349
# 2 -0.018284 -0.013143 0.022495 0.139471 0.034239 0.048265
# 3 0.010541 0.022495 -0.006345 -0.115374 -0.032960 -0.035895
# 4 0.057431 0.139471 -0.115374 -0.530383 -0.158672 -0.197179
# 5 0.019144 0.034239 -0.032960 -0.158672 -0.013264 -0.059102
# 6 0.020349 0.048265 -0.035895 -0.197179 -0.059102 -0.049224
#
#
# Mechanical properties :
#
#
# Convention : Reuss Voigt Hill
#
# Bulk Modulus (GPa) = 62.11919 36.47820 49.29870
# Shear Modulus (GPa) = -7.93130 28.06840 10.06855
#
# Velocity S-wave (km/s) = -1.89373 3.56250 2.13368
# Velocity P-wave (km/s) = 4.82765 5.78064 5.32550
#
# Compressibility (1/GPa) = 0.01609808
#
# Stress axis : x y z
#
# Youngs Moduli (GPa) = 164.39091 -76.08583 -157.60656
#
# Poissons Ratio (x) = -1.39119 1.66127
# Poissons Ratio (y) = 3.00579 3.54541
# Poissons Ratio (z) = -1.73278 1.71157
#
# Static dielectric constant tensor:
#      x y z
#    x 1.829240 0.030900 -0.027340 
#    y 0.030900 1.830290 -0.032150 
#    z -0.027340 -0.032150 1.863290 
# 
# From -- ./inp_files/345408.got.cif
#   From: 2010.05.17/outbox.cif.g08.bks.cpg/sg2_173_cif.got.tgz:345408.got - 2010.06.03 11:33:40.
