data_PCOD9004408
_publ_section_title
;
Structure prediction by ZEFSAII (Michael W. Deem and Ramdas Pophale) SiO2 
 PCOD9004408
Probable space group: P -1
;
_chemical_formula_sum "Si O2"
_cell_formula_units_Z 16
_cell_length_a 8.213128
_cell_length_b 24.321238
_cell_length_c 21.130778
_cell_angle_alpha 16.469516
_cell_angle_beta 145.456512
_cell_angle_gamma 140.362583
_cell_volume 673.375572
_symmetry_space_group_name_H-M "P -1"
_symmetry_group_IT_number 2
_symmetry_cell_setting 'triclinic'
loop_
_space_group_symop_operation_xyz
x,y,z
-x,-y,-z
loop_
_atom_site_type_symbol
_atom_site_label
_atom_site_fract_x
_atom_site_fract_y
_atom_site_fract_z
Si Si1 0.305996 0.442298 0.192941
Si Si2 0.657580 0.179470 0.041285
Si Si3 0.407944 0.178943 0.088465
Si Si4 0.300008 0.238349 0.739675
Si Si5 0.179146 0.572723 0.704972
Si Si6 0.266984 0.109640 0.256980
Si Si7 0.779285 0.192014 0.842874
Si Si8 0.264271 0.373610 0.394308
O O1 0.539740 0.348035 0.321205
O O2 0.259099 0.332805 0.363893
O O3 0.433065 0.640204 0.036979
O O4 0.000000 0.500000 0.000000
O O5 0.582645 0.083414 0.189682
O O6 0.942022 0.078701 0.207844
O O7 0.390296 0.213858 0.868438
O O8 0.724721 0.396720 0.841976
O O9 0.345744 0.063662 0.259580
O O10 0.093123 0.257072 0.873077
O O11 0.596431 0.252199 0.781039
O O12 0.059282 0.404832 0.452776
O O13 0.185349 0.041122 0.895987
O O14 0.008934 0.672908 0.600151
O O15 0.268200 0.345399 0.001531
O O16 0.500000 0.000000 0.500000
O O17 0.563278 0.269586 0.632623
#
# Coordination Sequence:
#
# PCOD9004408 Si02
#       8
#     2   2   2   2   2   2   2   2
#     4  10  22  41  61  92 127 164 219 259 306 377
#     4  10  21  37  66  96 124 165 208 257 318 378
#     4  10  22  40  64  95 124 166 210 260 319 369
#     4  10  21  39  64  98 134 159 205 263 320 382
#     4   9  21  40  64  91 121 169 205 258 319 368
#     4  10  21  41  62  90 126 167 216 259 309 369
#     4  10  21  39  63  97 135 160 204 262 323 379
#     4   9  21  38  65  95 123 165 208 258 315 379
#
# _framework density 23.760885999999999
#
# number of rings (size 3 to 8) (size 9 to 14) (size 15 to 20)
#    0.000    2.250    1.250    0.000    5.250    4.000 
#    4.500    3.750    0.000    0.000    0.000    0.000 
#    0.000    0.000    0.000    0.000    0.000    0.000 
#
# Total GULP energy -89453.550226 kJ/mol
# GULP energy per Si atom -5590.846889 kJ/mol
# Density = 2.370681 g / cm^3
# Si number density = 23.760886 Si / 1000 Ang^3
#
#
#
# Elastic Constant Matrix: (Units=GPa)
#
#
# Indices 1 2 3 4 5 6 
#
# 1 225.6884 111.1296 85.4919 43.4147 -11.9781 -2.4246
# 2 111.1296 202.0098 57.9905 37.4080 30.2800 -1.9281
# 3 85.4919 57.9905 151.3553 31.2750 -12.2682 -10.1044
# 4 43.4147 37.4080 31.2750 46.7148 1.3907 2.4617
# 5 -11.9781 30.2800 -12.2682 1.3907 33.7155 0.6283
# 6 -2.4246 -1.9281 -10.1044 2.4617 0.6283 27.4517
#
#
#
# Elastic Compliance Matrix: (Units=1/GPa)
#
#
# Indices 1 2 3 4 5 6 
#
# 1 0.008191 -0.004357 -0.001817 -0.003088 0.006291 -0.000119
# 2 -0.004357 0.009947 -0.001729 -0.002439 -0.011013 0.000148
# 3 -0.001817 -0.001729 0.009663 -0.003715 0.004511 0.003505
# 4 -0.003088 -0.002439 -0.003715 0.028988 -0.001373 -0.004379
# 5 0.006291 -0.011013 0.004511 -0.001373 0.043473 0.000571
# 6 -0.000119 0.000148 0.003505 -0.004379 0.000571 0.038097
#
#
# Mechanical properties :
#
#
# Convention : Reuss Voigt Hill
#
# Bulk Modulus (GPa) = 83.36694 120.91973 102.14333
# Shear Modulus (GPa) = 31.61257 43.20584 37.40921
#
# Velocity S-wave (km/s) = 3.65148 4.26885 3.97218
# Velocity P-wave (km/s) = 7.27597 8.67745 8.00743
#
# Compressibility (1/GPa) = 0.01199516
#
# Stress axis : x y z
#
# Youngs Moduli (GPa) = 122.08098 100.53169 103.48497
#
# Poissons Ratio (x) = 0.43799 0.18807
# Poissons Ratio (y) = 0.53188 0.17894
# Poissons Ratio (z) = 0.22187 0.17383
#
# Static dielectric constant tensor:
#      x y z
#    x 1.953170 0.009570 -0.013500 
#    y 0.009570 1.912290 -0.073350 
#    z -0.013500 -0.073350 1.894320 
# 
# From -- ./inp_files/592118.got.cif
#   From: 2010.05.17/outbox.cif.g08.bks.cpg/sg2_297_cif.got.tgz:592118.got - 2010.06.03 11:33:40.
