data_PCOD9004235
_publ_section_title
;
Structure prediction by ZEFSAII (Michael W. Deem and Ramdas Pophale) SiO2 
 PCOD9004235
Probable space group: P -1
;
_chemical_formula_sum "Si O2"
_cell_formula_units_Z 16
_cell_length_a 17.898865
_cell_length_b 8.516204
_cell_length_c 12.428627
_cell_angle_alpha 104.986138
_cell_angle_beta 47.581825
_cell_angle_gamma 64.596208
_cell_volume 720.015434
_symmetry_space_group_name_H-M "P -1"
_symmetry_group_IT_number 2
_symmetry_cell_setting 'triclinic'
loop_
_space_group_symop_operation_xyz
x,y,z
-x,-y,-z
loop_
_atom_site_type_symbol
_atom_site_label
_atom_site_fract_x
_atom_site_fract_y
_atom_site_fract_z
Si Si1 0.975351 0.696172 0.628929
Si Si2 0.277568 0.718578 0.469797
Si Si3 0.355174 0.582197 0.937077
Si Si4 0.192576 0.689616 0.322679
Si Si5 0.970125 0.214432 0.014374
Si Si6 0.167528 0.192175 0.979667
Si Si7 0.651945 0.737130 0.215845
Si Si8 0.435083 0.265598 0.411551
O O1 0.000000 0.500000 0.500000
O O2 0.146994 0.579159 0.403070
O O3 0.952976 0.674156 0.771270
O O4 0.789285 0.066860 0.859991
O O5 0.435583 0.637739 0.325229
O O6 0.249006 0.724809 0.373801
O O7 0.353505 0.457584 0.417055
O O8 0.078502 0.045706 0.768415
O O9 0.306751 0.507914 0.884176
O O10 0.344462 0.511656 0.051048
O O11 0.000000 0.000000 0.500000
O O12 0.079136 0.200800 0.975627
O O13 0.744980 0.529581 0.301549
O O14 0.000000 0.000000 0.000000
O O15 0.175608 0.368644 0.965090
O O16 0.393857 0.853630 0.726556
O O17 0.500000 0.000000 0.500000
O O18 0.549800 0.940680 0.239699
#
# Coordination Sequence:
#
# PCOD9004235 Si02
#       8
#     2   2   2   2   2   2   2   2
#     4  11  22  42  69  99 130 178 240 283 341 414
#     4  11  21  41  65  98 135 180 233 290 343 418
#     4  11  22  42  66  95 140 178 228 284 354 411
#     4  10  24  41  63  97 136 175 228 290 351 409
#     4  10  21  37  65 103 133 170 238 285 338 411
#     4  10  21  42  66  97 140 179 233 280 356 406
#     4  10  22  40  65 101 139 185 225 274 356 413
#     4   9  22  40  64  96 138 178 232 277 347 407
#
# _framework density 22.221746
#
# number of rings (size 3 to 8) (size 9 to 14) (size 15 to 20)
#    0.750    1.000    1.250    3.375    0.000    6.000 
#    0.000   13.750    0.000    0.000    0.000    0.000 
#    0.000    0.000    0.000    0.000    0.000    0.000 
#
# Total GULP energy -89105.281299 kJ/mol
# GULP energy per Si atom -5569.080081 kJ/mol
# Density = 2.217117 g / cm^3
# Si number density = 22.221746 Si / 1000 Ang^3
#
#
#
# Elastic Constant Matrix: (Units=GPa)
#
#
# Indices 1 2 3 4 5 6 
#
# 1 122.6787 41.8300 32.1413 12.0643 13.7366 13.5899
# 2 41.8300 87.1128 37.5748 5.6586 -2.7027 12.2201
# 3 32.1413 37.5748 76.4455 -16.3132 4.1660 9.5290
# 4 12.0643 5.6586 -16.3132 45.0519 -1.1192 -7.2634
# 5 13.7366 -2.7027 4.1660 -1.1192 40.3627 -0.8491
# 6 13.5899 12.2201 9.5290 -7.2634 -0.8491 41.7893
#
#
#
# Elastic Compliance Matrix: (Units=1/GPa)
#
#
# Indices 1 2 3 4 5 6 
#
# 1 0.011420 -0.003413 -0.003513 -0.004445 -0.003934 -0.002767
# 2 -0.003413 0.017273 -0.007812 -0.004475 0.002940 -0.002878
# 3 -0.003513 -0.007812 0.020409 0.009343 -0.001167 0.000373
# 4 -0.004445 -0.004475 0.009343 0.028257 0.001149 0.005558
# 5 -0.003934 0.002940 -0.001167 0.001149 0.026493 0.001424
# 6 -0.002767 -0.002878 0.000373 0.005558 0.001424 0.026581
#
#
# Mechanical properties :
#
#
# Convention : Reuss Voigt Hill
#
# Bulk Modulus (GPa) = 50.95288 56.59215 53.77251
# Shear Modulus (GPa) = 30.03890 37.08683 33.56286
#
# Velocity S-wave (km/s) = 3.68064 4.08970 3.89055
# Velocity P-wave (km/s) = 6.40640 6.91543 6.66577
#
# Compressibility (1/GPa) = 0.01962597
#
# Stress axis : x y z
#
# Youngs Moduli (GPa) = 87.56718 57.89222 48.99894
#
# Poissons Ratio (x) = 0.19761 0.17213
# Poissons Ratio (y) = 0.29891 0.38276
# Poissons Ratio (z) = 0.30761 0.45223
#
# Static dielectric constant tensor:
#      x y z
#    x 1.821210 -0.043840 -0.001920 
#    y -0.043840 1.913340 0.007120 
#    z -0.001920 0.007120 1.814740 
# 
# From -- ./inp_files/462289.got.cif
#   From: 2010.05.17/outbox.cif.g08.bks.cpg/sg2_232_cif.got.tgz:462289.got - 2010.06.03 11:33:40.
