data_PCOD9004939
_publ_section_title
;
Structure prediction by ZEFSAII (Michael W. Deem and Ramdas Pophale) SiO2 
 PCOD9004939
Probable space group: P -1
;
_chemical_formula_sum "Si O2"
_cell_formula_units_Z 16
_cell_length_a 14.665658
_cell_length_b 11.948141
_cell_length_c 14.884069
_cell_angle_alpha 131.732506
_cell_angle_beta 30.753670
_cell_angle_gamma 139.633970
_cell_volume 863.293526
_symmetry_space_group_name_H-M "P -1"
_symmetry_group_IT_number 2
_symmetry_cell_setting 'triclinic'
loop_
_space_group_symop_operation_xyz
x,y,z
-x,-y,-z
loop_
_atom_site_type_symbol
_atom_site_label
_atom_site_fract_x
_atom_site_fract_y
_atom_site_fract_z
Si Si1 0.745056 0.534138 0.602045
Si Si2 0.149036 0.050850 0.142218
Si Si3 0.672889 0.478412 0.000243
Si Si4 0.008038 0.855080 0.980213
Si Si5 0.563072 0.103123 0.908370
Si Si6 0.298290 0.819181 0.591522
Si Si7 0.111184 0.356000 0.271191
Si Si8 0.954331 0.098152 0.512449
O O1 0.551174 0.549697 0.806053
O O2 0.672858 0.347396 0.522205
O O3 0.875198 0.564450 0.599807
O O4 0.889526 0.695253 0.503168
O O5 0.200999 0.226197 0.139162
O O6 0.013013 0.044948 0.339660
O O7 0.355950 0.057438 0.004686
O O8 0.025509 0.905000 0.095580
O O9 0.673512 0.308996 0.944002
O O10 0.748370 0.503510 0.846315
O O11 0.823289 0.664026 0.015382
O O12 0.206138 0.845167 0.775124
O O13 0.000000 0.000000 0.000000
O O14 0.724495 0.065889 0.699156
O O15 0.500000 0.000000 0.000000
O O16 0.116295 0.762865 0.641080
O O17 0.500000 0.000000 0.500000
O O18 0.000000 0.000000 0.500000
#
# Coordination Sequence:
#
# PCOD9004939 Si02
#       8
#     2   2   2   2   2   2   2   2
#     4  11  22  37  60  96 124 164 221 262 316 378
#     4  11  23  42  66  99 126 171 212 265 323 380
#     4  11  21  39  64  90 134 170 201 270 322 376
#     4  11  22  41  58  91 140 170 206 254 326 392
#     4  12  24  44  71  95 123 168 222 268 321 371
#     4  11  23  35  58  91 134 174 204 256 318 389
#     4  10  21  38  59  94 128 165 214 262 322 379
#     4  11  22  43  70  94 125 161 221 275 312 370
#
# _framework density 18.533673
#
# number of rings (size 3 to 8) (size 9 to 14) (size 15 to 20)
#    0.000    1.000    6.250    3.000    0.000    3.000 
#    0.000    0.625    0.000    1.500    0.000    0.000 
#    0.000    0.000    0.000    0.000    0.000    0.000 
#
# Total GULP energy -89289.424561 kJ/mol
# GULP energy per Si atom -5580.589035 kJ/mol
# Density = 1.849149 g / cm^3
# Si number density = 18.533673 Si / 1000 Ang^3
#
#
#
# Elastic Constant Matrix: (Units=GPa)
#
#
# Indices 1 2 3 4 5 6 
#
# 1 70.7489 51.2226 36.9587 -1.0302 -1.5881 -14.2590
# 2 51.2226 116.2354 45.5978 -0.0186 16.3908 -19.8094
# 3 36.9587 45.5978 128.2437 -2.6338 -9.3602 -1.4279
# 4 -1.0302 -0.0186 -2.6338 38.2494 2.6787 4.3573
# 5 -1.5881 16.3908 -9.3602 2.6787 31.4950 4.2557
# 6 -14.2590 -19.8094 -1.4279 4.3573 4.2557 29.3590
#
#
#
# Elastic Compliance Matrix: (Units=1/GPa)
#
#
# Indices 1 2 3 4 5 6 
#
# 1 0.023173 -0.008741 -0.003223 -0.000425 0.004166 0.004659
# 2 -0.008741 0.017481 -0.004489 -0.000739 -0.012051 0.009188
# 3 -0.003223 -0.004489 0.010719 0.000807 0.005974 -0.005059
# 4 -0.000425 -0.000739 0.000807 0.026774 -0.001068 -0.004484
# 5 0.004166 -0.012051 0.005974 -0.001068 0.041680 -0.011701
# 6 0.004659 0.009188 -0.005059 -0.004484 -0.011701 0.044639
#
#
# Mechanical properties :
#
#
# Convention : Reuss Voigt Hill
#
# Bulk Modulus (GPa) = 54.15038 64.75403 59.45221
# Shear Modulus (GPa) = 24.56659 31.91727 28.24193
#
# Velocity S-wave (km/s) = 3.64471 4.15435 3.90784
# Velocity P-wave (km/s) = 6.85511 7.61747 7.24633
#
# Compressibility (1/GPa) = 0.01846709
#
# Stress axis : x y z
#
# Youngs Moduli (GPa) = 43.15329 57.20365 93.29307
#
# Poissons Ratio (x) = 0.50002 0.30070
# Poissons Ratio (y) = 0.37721 0.41879
# Poissons Ratio (z) = 0.13909 0.25679
#
# Static dielectric constant tensor:
#      x y z
#    x 1.645030 0.012370 -0.030930 
#    y 0.012370 1.680990 0.009070 
#    z -0.030930 0.009070 1.681590 
# 
# From -- ./inp_files/455020.got.cif
#   From: 2010.05.17/outbox.cif.g08.bks.cpg/sg2_228_cif.got.tgz:455020.got - 2010.06.03 11:33:40.
