data_PCOD9004175
_publ_section_title
;
Structure prediction by ZEFSAII (Michael W. Deem and Ramdas Pophale) SiO2 
 PCOD9004175
Probable space group: P -1
;
_chemical_formula_sum "Si O2"
_cell_formula_units_Z 16
_cell_length_a 9.626738
_cell_length_b 16.985069
_cell_length_c 17.477893
_cell_angle_alpha 34.776695
_cell_angle_beta 29.412684
_cell_angle_gamma 31.060237
_cell_volume 691.503288
_symmetry_space_group_name_H-M "P -1"
_symmetry_group_IT_number 2
_symmetry_cell_setting 'triclinic'
loop_
_space_group_symop_operation_xyz
x,y,z
-x,-y,-z
loop_
_atom_site_type_symbol
_atom_site_label
_atom_site_fract_x
_atom_site_fract_y
_atom_site_fract_z
Si Si1 0.593896 0.196254 0.344562
Si Si2 0.201453 0.497549 0.184471
Si Si3 0.169855 0.274878 0.694563
Si Si4 0.438628 0.686607 0.143786
Si Si5 0.037005 0.122494 0.648853
Si Si6 0.904427 0.744637 0.647583
Si Si7 0.688042 0.335209 0.335724
Si Si8 0.389738 0.928386 0.860470
O O1 0.371547 0.364545 0.275502
O O2 0.335019 0.136414 0.533684
O O3 0.757066 0.224753 0.316958
O O4 0.853226 0.061379 0.271207
O O5 0.032135 0.430388 0.262982
O O6 0.949666 0.661563 0.213905
O O7 0.500000 0.500000 0.000000
O O8 0.327095 0.371943 0.504953
O O9 0.854413 0.307219 0.771441
O O10 0.421617 0.085111 0.726378
O O11 0.680678 0.499641 0.190282
O O12 0.276850 0.777385 0.228005
O O13 0.553357 0.790294 0.956484
O O14 0.015198 0.191408 0.518651
O O15 0.531605 0.846730 0.775842
O O16 0.101262 0.745663 0.625770
O O17 0.000000 0.000000 0.000000
#
# Coordination Sequence:
#
# PCOD9004175 Si02
#       8
#     2   2   2   2   2   2   2   2
#     4  10  21  37  64  95 125 170 216 270 311 388
#     4  11  23  40  64  97 129 169 224 265 324 389
#     4  11  22  39  68  95 129 175 222 267 323 391
#     4  11  22  40  66 100 130 173 218 271 324 387
#     4  10  22  38  65  97 129 163 227 266 317 377
#     4  11  26  43  65  98 132 172 212 274 336 383
#     4  12  23  42  69  93 134 171 221 270 326 392
#     4  10  24  42  64  96 133 171 211 269 333 393
#
# _framework density 23.137995
#
# number of rings (size 3 to 8) (size 9 to 14) (size 15 to 20)
#    0.000    1.250    2.500    4.125   10.500    4.500 
#    0.000    0.000    0.000    2.250    0.000    0.000 
#    0.000    0.000    0.000    0.000    0.000    0.000 
#
# Total GULP energy -89470.124387 kJ/mol
# GULP energy per Si atom -5591.882774 kJ/mol
# Density = 2.308533 g / cm^3
# Si number density = 23.137995 Si / 1000 Ang^3
#
#
#
# Elastic Constant Matrix: (Units=GPa)
#
#
# Indices 1 2 3 4 5 6 
#
# 1 122.9462 28.3127 12.6546 -5.0286 13.0415 23.0685
# 2 28.3127 113.2979 20.6935 -1.2144 19.6051 36.3011
# 3 12.6546 20.6935 87.0893 -4.4533 25.8306 7.3445
# 4 -5.0286 -1.2144 -4.4533 31.5860 -0.8136 12.0093
# 5 13.0415 19.6051 25.8306 -0.8136 23.4853 6.8495
# 6 23.0685 36.3011 7.3445 12.0093 6.8495 36.8729
#
#
#
# Elastic Compliance Matrix: (Units=1/GPa)
#
#
# Indices 1 2 3 4 5 6 
#
# 1 0.010009 0.000654 0.000546 0.004505 -0.004309 -0.007682
# 2 0.000654 0.015340 0.000600 0.006694 -0.008883 -0.016161
# 3 0.000546 0.000600 0.017224 0.002682 -0.019166 -0.001676
# 4 0.004505 0.006694 0.002682 0.041675 -0.002894 -0.022979
# 5 -0.004309 -0.008883 -0.019166 -0.002894 0.072574 0.002720
# 6 -0.007682 -0.016161 -0.001676 -0.022979 0.002720 0.055150
#
#
# Mechanical properties :
#
#
# Convention : Reuss Voigt Hill
#
# Bulk Modulus (GPa) = 21.65714 49.62834 35.64274
# Shear Modulus (GPa) = 22.34508 35.83367 29.08938
#
# Velocity S-wave (km/s) = 3.11099 3.93961 3.54957
# Velocity P-wave (km/s) = 4.72066 6.49534 5.67777
#
# Compressibility (1/GPa) = 0.04617414
#
# Stress axis : x y z
#
# Youngs Moduli (GPa) = 99.90539 65.18762 58.05970
#
# Poissons Ratio (x) = -0.04264 -0.03172
# Poissons Ratio (y) = -0.06534 -0.03483
# Poissons Ratio (z) = -0.05458 -0.03911
#
# Static dielectric constant tensor:
#      x y z
#    x 1.884900 -0.027960 0.014560 
#    y -0.027960 1.938370 0.018630 
#    z 0.014560 0.018630 1.898600 
# 
# From -- ./inp_files/223229.got.cif
#   From: 2010.05.17/outbox.cif.g08.bks.cpg/sg2_112_cif.got.tgz:223229.got - 2010.06.03 11:33:40.
