data_PCOD9004889
_publ_section_title
;
Structure prediction by ZEFSAII (Michael W. Deem and Ramdas Pophale) SiO2 
 PCOD9004889
Probable space group: P -1
;
_chemical_formula_sum "Si O2"
_cell_formula_units_Z 16
_cell_length_a 13.652433
_cell_length_b 7.370241
_cell_length_c 11.226535
_cell_angle_alpha 68.353229
_cell_angle_beta 117.712213
_cell_angle_gamma 139.644923
_cell_volume 647.352836
_symmetry_space_group_name_H-M "P -1"
_symmetry_group_IT_number 2
_symmetry_cell_setting 'triclinic'
loop_
_space_group_symop_operation_xyz
x,y,z
-x,-y,-z
loop_
_atom_site_type_symbol
_atom_site_label
_atom_site_fract_x
_atom_site_fract_y
_atom_site_fract_z
Si Si1 0.384865 0.903990 0.632939
Si Si2 0.719004 0.850758 0.192897
Si Si3 0.874681 0.616766 0.945915
Si Si4 0.928779 0.823581 0.685766
Si Si5 0.232859 0.948348 0.076783
Si Si6 0.666078 0.232843 0.107430
Si Si7 0.711074 0.237430 0.653197
Si Si8 0.351030 0.289482 0.557909
O O1 0.358722 0.744628 0.774286
O O2 0.330794 0.773648 0.504058
O O3 0.573622 0.177685 0.661659
O O4 0.301933 0.003951 0.580769
O O5 0.742023 0.111543 0.174304
O O6 0.882324 0.933011 0.273201
O O7 0.613773 0.644163 0.295968
O O8 0.678596 0.823428 0.035080
O O9 0.869902 0.768137 0.802016
O O10 0.802156 0.317533 0.929018
O O11 0.773539 0.523054 0.028637
O O12 0.059252 0.818977 0.025421
O O13 0.884452 0.543478 0.696124
O O14 0.807662 0.792352 0.545447
O O15 0.301390 0.990087 0.236921
O O16 0.500000 0.000000 0.000000
O O17 0.500000 0.500000 0.500000
#
# Coordination Sequence:
#
# PCOD9004889 Si02
#       8
#     2   2   2   2   2   2   2   2
#     4  10  21  32  48  80 104 135 170 208 257 311
#     4   9  19  31  52  79 101 132 182 207 250 307
#     4   8  15  26  48  75  97 122 174 205 249 295
#     4  10  18  34  55  76 103 140 167 212 254 304
#     4   8  14  29  49  72  95 131 164 211 246 299
#     4  10  17  28  48  76 106 126 164 219 255 288
#     4  10  18  33  53  73 107 135 164 209 267 307
#     4  11  21  34  51  75 105 136 174 214 253 294
#
# _framework density 24.716042000000002
#
# number of rings (size 3 to 8) (size 9 to 14) (size 15 to 20)
#    0.000    2.500    1.250    4.875    1.750    0.000 
#    0.000    5.625    0.000    5.250    0.000    0.000 
#    0.000    0.000    0.000    0.000    0.000    0.000 
#
# Total GULP energy -89128.976584 kJ/mol
# GULP energy per Si atom -5570.561036 kJ/mol
# Density = 2.465979 g / cm^3
# Si number density = 24.716042 Si / 1000 Ang^3
#
#
#
# Elastic Constant Matrix: (Units=GPa)
#
#
# Indices 1 2 3 4 5 6 
#
# 1 65.8794 20.2254 44.4595 -7.0494 -8.4142 18.5482
# 2 20.2254 54.5239 22.9558 -3.8400 -10.5595 12.6268
# 3 44.4595 22.9558 180.2693 -22.1592 -21.9532 23.9576
# 4 -7.0494 -3.8400 -22.1592 20.6374 17.2250 -6.5810
# 5 -8.4142 -10.5595 -21.9532 17.2250 50.1008 -11.1704
# 6 18.5482 12.6268 23.9576 -6.5810 -11.1704 16.5953
#
#
#
# Elastic Compliance Matrix: (Units=1/GPa)
#
#
# Indices 1 2 3 4 5 6 
#
# 1 0.023969 -0.003069 -0.002948 -0.000331 -0.002744 -0.022177
# 2 -0.003069 0.022944 -0.000584 -0.003537 0.002387 -0.012981
# 3 -0.002948 -0.000584 0.007730 0.005828 -0.000440 -0.005405
# 4 -0.000331 -0.003537 0.005828 0.075414 -0.022003 0.009744
# 5 -0.002744 0.002387 -0.000440 -0.022003 0.030413 0.013632
# 6 -0.022177 -0.012981 -0.005405 0.009744 0.013632 0.115763
#
#
# Mechanical properties :
#
#
# Convention : Reuss Voigt Hill
#
# Bulk Modulus (GPa) = 24.13084 52.88378 38.50731
# Shear Modulus (GPa) = 16.48813 31.66883 24.07848
#
# Velocity S-wave (km/s) = 2.58563 3.58342 3.12461
# Velocity P-wave (km/s) = 4.32417 6.21001 5.35082
#
# Compressibility (1/GPa) = 0.04144074
#
# Stress axis : x y z
#
# Youngs Moduli (GPa) = 41.72060 43.58436 129.36964
#
# Poissons Ratio (x) = 0.13376 0.38141
# Poissons Ratio (y) = 0.12804 0.07554
# Poissons Ratio (z) = 0.12300 0.02545
#
# Static dielectric constant tensor:
#      x y z
#    x 1.984930 -0.064230 -0.053170 
#    y -0.064230 2.014260 -0.040610 
#    z -0.053170 -0.040610 2.109540 
# 
# From -- ./inp_files/269549.got.cif
#   From: 2010.05.17/outbox.cif.g08.bks.cpg/sg2_135_cif.got.tgz:269549.got - 2010.06.03 11:33:40.
