data_PCOD9004289
_publ_section_title
;
Structure prediction by ZEFSAII (Michael W. Deem and Ramdas Pophale) SiO2 
 PCOD9004289
Probable space group: P -1
;
_chemical_formula_sum "Si O2"
_cell_formula_units_Z 12
_cell_length_a 9.114399
_cell_length_b 22.532623
_cell_length_c 7.928192
_cell_angle_alpha 33.519544
_cell_angle_beta 76.543409
_cell_angle_gamma 53.470751
_cell_volume 581.285761
_symmetry_space_group_name_H-M "P -1"
_symmetry_group_IT_number 2
_symmetry_cell_setting 'triclinic'
loop_
_space_group_symop_operation_xyz
x,y,z
-x,-y,-z
loop_
_atom_site_type_symbol
_atom_site_label
_atom_site_fract_x
_atom_site_fract_y
_atom_site_fract_z
Si Si1 0.753960 0.907008 0.136052
Si Si2 0.753490 0.136675 0.658872
Si Si3 0.379213 0.356205 0.519280
Si Si4 0.343267 0.480241 0.562562
Si Si5 0.881255 0.302652 0.179001
Si Si6 0.995409 0.588127 0.640315
O O1 0.893276 0.754729 0.337189
O O2 0.888719 0.830089 0.461975
O O3 0.500000 0.000000 0.000000
O O4 0.740889 0.039231 0.774957
O O5 0.567724 0.223379 0.650054
O O6 0.754105 0.256731 0.303645
O O7 0.000000 0.000000 0.000000
O O8 0.457797 0.340051 0.727018
O O9 0.178418 0.376409 0.525905
O O10 0.275282 0.527055 0.084795
O O11 0.500000 0.500000 0.500000
O O12 0.243092 0.475132 0.763491
O O13 0.119696 0.642769 0.134305
O O14 0.000000 0.500000 0.000000
#
# Coordination Sequence:
#
# PCOD9004289 Si02
#       6
#     2   2   2   2   2   2
#     4  11  22  38  65  98 126 169 211 264 322 385
#     4  10  21  37  65  93 133 165 208 258 330 376
#     4  10  21  39  66  89 130 165 217 265 311 374
#     4  10  25  39  66  96 127 166 223 267 318 362
#     4   9  22  40  62  93 130 163 223 253 318 372
#     4  12  23  41  68  94 126 167 225 262 316 391
#
# _framework density 20.643889000000001
#
# number of rings (size 3 to 8) (size 9 to 14) (size 15 to 20)
#    1.000    0.667    3.333    1.000    7.000    0.000 
#    0.000    1.667    7.333    0.000    0.000    0.000 
#    0.000    0.000    0.000    0.000    0.000    0.000 
#
# Total GULP energy -66845.398104 kJ/mol
# GULP energy per Si atom -5570.449842 kJ/mol
# Density = 2.059690 g / cm^3
# Si number density = 20.643889 Si / 1000 Ang^3
#
#
#
# Elastic Constant Matrix: (Units=GPa)
#
#
# Indices 1 2 3 4 5 6 
#
# 1 120.7453 15.5707 23.1657 -4.2443 -24.2218 8.8034
# 2 15.5707 62.2687 23.4313 -0.0930 -14.8889 -0.3806
# 3 23.1657 23.4313 61.2981 -14.5975 -16.3807 1.5100
# 4 -4.2443 -0.0930 -14.5975 29.5811 8.2983 -6.1072
# 5 -24.2218 -14.8889 -16.3807 8.2983 45.7074 -7.4803
# 6 8.8034 -0.3806 1.5100 -6.1072 -7.4803 34.3921
#
#
#
# Elastic Compliance Matrix: (Units=1/GPa)
#
#
# Indices 1 2 3 4 5 6 
#
# 1 0.009748 -0.000463 -0.002736 -0.001441 0.004008 -0.001765
# 2 -0.000463 0.020075 -0.007422 -0.004797 0.004640 0.000824
# 3 -0.002736 -0.007422 0.023488 0.010792 0.002942 0.002143
# 4 -0.001441 -0.004797 0.010792 0.041580 -0.005003 0.006137
# 5 0.004008 0.004640 0.002942 -0.005003 0.028152 0.004131
# 6 -0.001765 0.000824 0.002143 0.006137 0.004131 0.031431
#
#
# Mechanical properties :
#
#
# Convention : Reuss Voigt Hill
#
# Bulk Modulus (GPa) = 31.18113 40.96083 36.07098
# Shear Modulus (GPa) = 26.82317 34.07910 30.45114
#
# Velocity S-wave (km/s) = 3.60853 4.06742 3.84483
# Velocity P-wave (km/s) = 5.70079 6.47636 6.10091
#
# Compressibility (1/GPa) = 0.03207068
#
# Stress axis : x y z
#
# Youngs Moduli (GPa) = 102.58065 49.81273 42.57502
#
# Poissons Ratio (x) = 0.02305 0.11649
# Poissons Ratio (y) = 0.04747 0.31597
# Poissons Ratio (z) = 0.28067 0.36969
#
# Static dielectric constant tensor:
#      x y z
#    x 1.677780 0.030510 0.106120 
#    y 0.030510 1.733540 0.047580 
#    z 0.106120 0.047580 1.689500 
# 
# From -- ./inp_files/150994.got.cif
#   From: 2010.05.17/outbox.cif.g08.bks.cpg/sg2_76_cif.got.tgz:150994.got - 2010.06.03 11:33:40.
