data_PCOD9004144
_publ_section_title
;
Structure prediction by ZEFSAII (Michael W. Deem and Ramdas Pophale) SiO2 
 PCOD9004144
Probable space group: P -1
;
_chemical_formula_sum "Si O2"
_cell_formula_units_Z 14
_cell_length_a 16.113296
_cell_length_b 8.724075
_cell_length_c 15.546786
_cell_angle_alpha 149.548884
_cell_angle_beta 144.152282
_cell_angle_gamma 48.431635
_cell_volume 644.056074
_symmetry_space_group_name_H-M "P -1"
_symmetry_group_IT_number 2
_symmetry_cell_setting 'triclinic'
loop_
_space_group_symop_operation_xyz
x,y,z
-x,-y,-z
loop_
_atom_site_type_symbol
_atom_site_label
_atom_site_fract_x
_atom_site_fract_y
_atom_site_fract_z
Si Si1 0.692804 0.847594 0.448853
Si Si2 0.536536 0.448481 0.607817
Si Si3 0.002090 0.719007 0.691595
Si Si4 0.391249 0.693916 0.763970
Si Si5 0.088611 0.725766 0.463105
Si Si6 0.170871 0.226897 0.995009
Si Si7 0.124667 0.800185 0.344720
O O1 0.612061 0.530709 0.264012
O O2 0.849995 0.861732 0.634580
O O3 0.593819 0.118245 0.509378
O O4 0.757128 0.912174 0.436916
O O5 0.500000 0.500000 0.500000
O O6 0.422676 0.497633 0.610115
O O7 0.666966 0.712258 0.866403
O O8 0.000000 0.500000 0.500000
O O9 0.009555 0.531031 0.693132
O O10 0.135424 0.971384 0.913436
O O11 0.231933 0.786923 0.668082
O O12 0.500000 0.000000 0.000000
O O13 0.139304 0.644431 0.372045
O O14 0.000000 0.000000 0.500000
O O15 0.039307 0.141202 0.778004
O O16 0.149512 0.552673 0.174613
#
# Coordination Sequence:
#
# PCOD9004144 Si02
#       7
#     2   2   2   2   2   2   2
#     4   9  20  41  64  87 125 174 205 263 323 378
#     4  11  23  42  65  91 132 172 217 265 321 392
#     4  10  21  37  64  93 127 164 210 267 323 373
#     4  11  25  41  64  97 129 173 217 260 331 395
#     4  11  23  40  62  91 128 164 213 271 314 373
#     4   9  19  36  61  89 117 168 205 255 318 380
#     4   9  18  37  64  88 118 159 217 259 310 367
#
# _framework density 21.737238000000001
#
# number of rings (size 3 to 8) (size 9 to 14) (size 15 to 20)
#    0.000    2.000    0.000    4.714    6.000    0.571 
#    2.571    5.714    0.000    0.000    0.000    0.000 
#    0.000    0.000    0.000    0.000    0.000    0.000 
#
# Total GULP energy -77935.463299 kJ/mol
# GULP energy per Si atom -5566.818807 kJ/mol
# Density = 2.168776 g / cm^3
# Si number density = 21.737238 Si / 1000 Ang^3
#
#
#
# Elastic Constant Matrix: (Units=GPa)
#
#
# Indices 1 2 3 4 5 6 
#
# 1 105.5049 47.9416 24.8590 9.6089 14.7491 15.5474
# 2 47.9416 140.8758 33.1222 21.3915 12.3160 7.9850
# 3 24.8590 33.1222 69.7052 17.7635 26.2083 11.8873
# 4 9.6089 21.3915 17.7635 25.0368 9.1059 14.8735
# 5 14.7491 12.3160 26.2083 9.1059 37.8339 8.2827
# 6 15.5474 7.9850 11.8873 14.8735 8.2827 55.3328
#
#
#
# Elastic Compliance Matrix: (Units=1/GPa)
#
#
# Indices 1 2 3 4 5 6 
#
# 1 0.012087 -0.003672 -0.001850 0.002230 -0.002171 -0.002743
# 2 -0.003672 0.009712 -0.002313 -0.006694 0.001097 0.001762
# 3 -0.001850 -0.002313 0.023077 -0.009359 -0.012315 0.000255
# 4 0.002230 -0.006694 -0.009359 0.060839 -0.003912 -0.013418
# 5 -0.002171 0.001097 -0.012315 -0.003912 0.036687 -0.001343
# 6 -0.002743 0.001762 0.000255 -0.013418 -0.001343 0.022342
#
#
# Mechanical properties :
#
#
# Convention : Reuss Voigt Hill
#
# Bulk Modulus (GPa) = 34.23811 58.65908 46.44860
# Shear Modulus (GPa) = 26.29514 37.65159 31.97337
#
# Velocity S-wave (km/s) = 3.48182 4.16639 3.83940
# Velocity P-wave (km/s) = 5.65236 7.08444 6.40853
#
# Compressibility (1/GPa) = 0.02920722
#
# Stress axis : x y z
#
# Youngs Moduli (GPa) = 82.73130 102.96066 43.33379
#
# Poissons Ratio (x) = 0.37805 0.08017
# Poissons Ratio (y) = 0.30377 0.10022
# Poissons Ratio (z) = 0.15305 0.23813
#
# Static dielectric constant tensor:
#      x y z
#    x 1.974010 0.040000 -0.011010 
#    y 0.040000 1.896990 0.011600 
#    z -0.011010 0.011600 1.803990 
# 
# From -- ./inp_files/306427.got.cif
#   From: 2010.05.17/outbox.cif.g08.bks.cpg/sg2_154_cif.got.tgz:306427.got - 2010.06.03 11:33:40.
