data_PCOD9004583
_publ_section_title
;
Structure prediction by ZEFSAII (Michael W. Deem and Ramdas Pophale) SiO2 
 PCOD9004583
Probable space group: P -1
;
_chemical_formula_sum "Si O2"
_cell_formula_units_Z 16
_cell_length_a 13.103411
_cell_length_b 12.601347
_cell_length_c 9.393199
_cell_angle_alpha 40.567654
_cell_angle_beta 125.155296
_cell_angle_gamma 131.313358
_cell_volume 748.824338
_symmetry_space_group_name_H-M "P -1"
_symmetry_group_IT_number 2
_symmetry_cell_setting 'triclinic'
loop_
_space_group_symop_operation_xyz
x,y,z
-x,-y,-z
loop_
_atom_site_type_symbol
_atom_site_label
_atom_site_fract_x
_atom_site_fract_y
_atom_site_fract_z
Si Si1 0.717846 0.471519 0.061867
Si Si2 0.527808 0.184140 0.411328
Si Si3 0.762318 0.850426 0.807357
Si Si4 0.282685 0.598544 0.413454
Si Si5 0.715878 0.792301 0.152807
Si Si6 0.018488 0.957778 0.719937
Si Si7 0.002214 0.447185 0.889777
Si Si8 0.557711 0.373849 0.755126
O O1 0.590450 0.331166 0.188355
O O2 0.850376 0.430067 0.188094
O O3 0.761402 0.654960 0.993850
O O4 0.665812 0.485828 0.847878
O O5 0.379363 0.166924 0.360105
O O6 0.642189 0.256529 0.552004
O O7 0.500000 0.000000 0.500000
O O8 0.898922 0.972036 0.707891
O O9 0.752139 0.882361 0.934330
O O10 0.296924 0.413311 0.652579
O O11 0.124184 0.548506 0.304475
O O12 0.363000 0.679861 0.248065
O O13 0.571742 0.777276 0.115871
O O14 0.837006 0.904658 0.242400
O O15 0.000000 0.000000 0.500000
O O16 0.009404 0.755993 0.920266
O O17 0.000000 0.500000 0.000000
O O18 0.500000 0.500000 0.500000
#
# Coordination Sequence:
#
# PCOD9004583 Si02
#       8
#     2   2   2   2   2   2   2   2
#     4  11  22  45  68  97 127 182 218 268 329 399
#     4  12  27  43  67 102 136 170 220 280 335 390
#     4  11  23  45  68  92 133 176 224 269 329 397
#     4  11  24  43  68 101 131 176 219 272 340 391
#     4  11  22  43  70  95 131 172 228 271 325 400
#     4  11  27  42  68  99 129 176 225 274 328 391
#     4  11  24  44  68  96 140 170 219 273 333 397
#     4  10  21  37  72  97 125 168 227 269 321 391
#
# _framework density 21.366826
#
# number of rings (size 3 to 8) (size 9 to 14) (size 15 to 20)
#    0.000    1.000    3.750    3.000    8.750    2.500 
#    0.000    1.250    0.000    0.000    0.000    0.000 
#    0.000    0.000    0.000    0.000    0.000    0.000 
#
# Total GULP energy -89394.854008 kJ/mol
# GULP energy per Si atom -5587.178375 kJ/mol
# Density = 2.131819 g / cm^3
# Si number density = 21.366826 Si / 1000 Ang^3
#
#
#
# Elastic Constant Matrix: (Units=GPa)
#
#
# Indices 1 2 3 4 5 6 
#
# 1 107.0133 15.1575 3.9611 16.6517 -2.6678 17.6832
# 2 15.1575 97.4837 1.1933 27.5421 -6.6869 -1.9705
# 3 3.9611 1.1933 39.5040 27.2438 -9.7434 -1.9182
# 4 16.6517 27.5421 27.2438 46.0950 -2.6623 3.9131
# 5 -2.6678 -6.6869 -9.7434 -2.6623 35.3254 8.1271
# 6 17.6832 -1.9705 -1.9182 3.9131 8.1271 36.7193
#
#
#
# Elastic Compliance Matrix: (Units=1/GPa)
#
#
# Indices 1 2 3 4 5 6 
#
# 1 0.010930 -0.000402 0.002335 -0.004519 0.002244 -0.005178
# 2 -0.000402 0.014874 0.011380 -0.015418 0.004235 0.002292
# 3 0.002335 0.011380 0.056180 -0.040350 0.013949 0.003634
# 4 -0.004519 -0.015418 -0.040350 0.056268 -0.009055 -0.004751
# 5 0.002244 0.004235 0.013949 -0.009055 0.033981 -0.006681
# 6 -0.005178 0.002292 0.003634 -0.004751 -0.006681 0.032025
#
#
# Mechanical properties :
#
#
# Convention : Reuss Voigt Hill
#
# Bulk Modulus (GPa) = 9.20738 31.62500 20.41619
# Shear Modulus (GPa) = 23.38228 38.54054 30.96141
#
# Velocity S-wave (km/s) = 3.31165 4.25167 3.81076
# Velocity P-wave (km/s) = 4.35215 6.23982 5.37944
#
# Compressibility (1/GPa) = 0.10860853
#
# Stress axis : x y z
#
# Youngs Moduli (GPa) = 91.49188 67.23061 17.79986
#
# Poissons Ratio (x) = 0.02703 -0.04155
# Poissons Ratio (y) = 0.03679 -0.20256
# Poissons Ratio (z) = -0.21359 -0.76506
#
# Static dielectric constant tensor:
#      x y z
#    x 1.842620 0.022790 0.002890 
#    y 0.022790 1.751240 -0.003790 
#    z 0.002890 -0.003790 1.795420 
# 
# From -- ./inp_files/226128.got.cif
#   From: 2010.05.17/outbox.cif.g08.bks.cpg/sg2_114_cif.got.tgz:226128.got - 2010.06.03 11:33:40.
