data_PCOD9004465
_publ_section_title
;
Structure prediction by ZEFSAII (Michael W. Deem and Ramdas Pophale) SiO2 
 PCOD9004465
Probable space group: P -1
;
_chemical_formula_sum "Si O2"
_cell_formula_units_Z 16
_cell_length_a 6.037862
_cell_length_b 8.900737
_cell_length_c 24.490295
_cell_angle_alpha 38.682892
_cell_angle_beta 65.706882
_cell_angle_gamma 82.523226
_cell_volume 706.352687
_symmetry_space_group_name_H-M "P -1"
_symmetry_group_IT_number 2
_symmetry_cell_setting 'triclinic'
loop_
_space_group_symop_operation_xyz
x,y,z
-x,-y,-z
loop_
_atom_site_type_symbol
_atom_site_label
_atom_site_fract_x
_atom_site_fract_y
_atom_site_fract_z
Si Si1 0.725485 0.009432 0.541967
Si Si2 0.767508 0.424478 0.497660
Si Si3 0.215773 0.828204 0.296810
Si Si4 0.883042 0.058240 0.837547
Si Si5 0.480963 0.440588 0.953406
Si Si6 0.237929 0.626075 0.665441
Si Si7 0.301124 0.869779 0.793047
Si Si8 0.015413 0.264629 0.236959
O O1 0.709557 0.136405 0.565648
O O2 0.689332 0.212068 0.443622
O O3 0.517056 0.727198 0.637580
O O4 0.000000 0.000000 0.500000
O O5 0.500000 0.500000 0.500000
O O6 0.000000 0.500000 0.500000
O O7 0.963600 0.586034 0.385686
O O8 0.293210 0.899443 0.206213
O O9 0.469466 0.858676 0.297750
O O10 0.107347 0.025979 0.282793
O O11 0.081392 0.326572 0.761298
O O12 0.053582 0.909224 0.833681
O O13 0.698616 0.850392 0.955294
O O14 0.367162 0.646791 0.880625
O O15 0.755902 0.499729 0.878839
O O16 0.500000 0.500000 0.000000
O O17 0.056646 0.722668 0.696832
O O18 0.231111 0.784541 0.762793
#
# Coordination Sequence:
#
# PCOD9004465 Si02
#       8
#     2   2   2   2   2   2   2   2
#     4  11  28  47  71  98 148 196 236 299 377 438
#     4  12  29  46  78 111 144 186 256 315 363 433
#     4  10  22  39  65  98 128 177 235 287 346 418
#     4  11  22  39  67  94 131 177 234 280 348 432
#     4  11  20  40  66 101 125 174 226 295 359 419
#     4  11  26  46  64  94 145 185 235 283 369 436
#     4  10  21  37  67  95 130 169 229 290 352 418
#     4  10  23  40  65  94 138 176 228 286 359 422
#
# _framework density 22.651572000000002
#
# number of rings (size 3 to 8) (size 9 to 14) (size 15 to 20)
#    0.000    1.250    5.000    1.125   12.250    1.500 
#    0.000    0.625    0.000    0.000    0.000    0.000 
#    0.000    0.000    0.000    0.000    0.000    0.000 
#
# Total GULP energy -89127.292307 kJ/mol
# GULP energy per Si atom -5570.455769 kJ/mol
# Density = 2.260002 g / cm^3
# Si number density = 22.651572 Si / 1000 Ang^3
#
#
#
# Elastic Constant Matrix: (Units=GPa)
#
#
# Indices 1 2 3 4 5 6 
#
# 1 97.2918 25.1174 20.4233 -7.6047 -18.8752 13.1458
# 2 25.1174 74.6572 20.8888 -12.0309 -10.7478 20.3285
# 3 20.4233 20.8888 117.0484 -20.9490 -44.4493 18.1613
# 4 -7.6047 -12.0309 -20.9490 40.8422 7.0815 -8.8363
# 5 -18.8752 -10.7478 -44.4493 7.0815 42.7166 -2.6848
# 6 13.1458 20.3285 18.1613 -8.8363 -2.6848 26.6308
#
#
#
# Elastic Compliance Matrix: (Units=1/GPa)
#
#
# Indices 1 2 3 4 5 6 
#
# 1 0.012394 -0.002429 0.001202 0.000248 0.005798 -0.004417
# 2 -0.002429 0.018081 0.000545 0.002046 0.002950 -0.011998
# 3 0.001202 0.000545 0.016867 0.004050 0.016954 -0.009460
# 4 0.000248 0.002046 0.004050 0.028201 0.000475 0.004959
# 5 0.005798 0.002950 0.016954 0.000475 0.043515 -0.012131
# 6 -0.004417 -0.011998 -0.009460 0.004959 -0.012131 0.055763
#
#
# Mechanical properties :
#
#
# Convention : Reuss Voigt Hill
#
# Bulk Modulus (GPa) = 21.74881 46.87293 34.31087
# Shear Modulus (GPa) = 26.10825 36.87577 31.49201
#
# Velocity S-wave (km/s) = 3.39868 4.03917 3.73269
# Velocity P-wave (km/s) = 5.00237 6.51852 5.81011
#
# Compressibility (1/GPa) = 0.04597953
#
# Stress axis : x y z
#
# Youngs Moduli (GPa) = 80.68392 55.30792 59.28631
#
# Poissons Ratio (x) = 0.13433 -0.07129
# Poissons Ratio (y) = 0.19597 -0.03232
# Poissons Ratio (z) = -0.09701 -0.03015
#
# Static dielectric constant tensor:
#      x y z
#    x 1.954560 0.072730 0.004200 
#    y 0.072730 1.831100 -0.008840 
#    z 0.004200 -0.008840 2.059810 
# 
# From -- ./inp_files/536328.got.cif
#   From: 2010.05.17/outbox.cif.g08.bks.cpg/sg2_269_cif.got.tgz:536328.got - 2010.06.03 11:33:40.
