data_PCOD9004850
_publ_section_title
;
Structure prediction by ZEFSAII (Michael W. Deem and Ramdas Pophale) SiO2 
 PCOD9004850
Probable space group: P -1
;
_chemical_formula_sum "Si O2"
_cell_formula_units_Z 14
_cell_length_a 12.116317
_cell_length_b 12.517163
_cell_length_c 8.847280
_cell_angle_alpha 146.051085
_cell_angle_beta 122.508970
_cell_angle_gamma 67.224218
_cell_volume 626.989141
_symmetry_space_group_name_H-M "P -1"
_symmetry_group_IT_number 2
_symmetry_cell_setting 'triclinic'
loop_
_space_group_symop_operation_xyz
x,y,z
-x,-y,-z
loop_
_atom_site_type_symbol
_atom_site_label
_atom_site_fract_x
_atom_site_fract_y
_atom_site_fract_z
Si Si1 0.726424 0.588233 0.976382
Si Si2 0.110599 0.732098 0.770092
Si Si3 0.280096 0.463934 0.440860
Si Si4 0.866589 0.869713 0.868968
Si Si5 0.726746 0.230641 0.776355
Si Si6 0.919172 0.937320 0.514298
Si Si7 0.488193 0.670159 0.071204
O O1 0.869280 0.712663 0.225640
O O2 0.686753 0.563603 0.741896
O O3 0.719813 0.384365 0.817775
O O4 0.630845 0.708361 0.145790
O O5 0.155586 0.585726 0.509008
O O6 0.954681 0.740983 0.682663
O O7 0.171125 0.678854 0.912746
O O8 0.180003 0.951484 0.045107
O O9 0.237774 0.263302 0.263593
O O10 0.394634 0.585830 0.765062
O O11 0.980795 0.982042 0.188107
O O12 0.791286 0.049755 0.551584
O O13 0.588910 0.189331 0.718190
O O14 0.000000 0.000000 0.500000
O O15 0.500000 0.500000 0.000000
#
# Coordination Sequence:
#
# PCOD9004850 Si02
#       7
#     2   2   2   2   2   2   2
#     4  11  23  39  64  89 124 158 196 255 298 351
#     4   9  21  37  58  86 121 160 204 237 294 359
#     4  11  21  37  63  89 119 153 200 249 303 348
#     4  10  21  38  59  86 122 162 198 245 288 358
#     4   9  22  41  62  88 119 163 204 241 299 357
#     4  11  23  39  58  92 126 156 197 243 303 357
#     4   9  21  42  63  87 117 160 206 244 296 357
#
# _framework density 22.328935000000001
#
# number of rings (size 3 to 8) (size 9 to 14) (size 15 to 20)
#    0.000    2.000    1.429    0.857    2.000   13.714 
#    0.000    4.286    0.000    8.571    0.000    0.000 
#    0.000    0.000    0.000    0.000    0.000    0.000 
#
# Total GULP energy -78135.679764 kJ/mol
# GULP energy per Si atom -5581.119983 kJ/mol
# Density = 2.227811 g / cm^3
# Si number density = 22.328935 Si / 1000 Ang^3
#
#
#
# Elastic Constant Matrix: (Units=GPa)
#
#
# Indices 1 2 3 4 5 6 
#
# 1 101.6007 38.7875 9.5121 1.4777 -16.3307 33.6893
# 2 38.7875 86.9709 10.2190 1.2892 -1.0714 25.1431
# 3 9.5121 10.2190 23.7031 7.0228 1.9156 13.1038
# 4 1.4777 1.2892 7.0228 19.9416 8.3775 3.0386
# 5 -16.3307 -1.0714 1.9156 8.3775 36.2651 3.3295
# 6 33.6893 25.1431 13.1038 3.0386 3.3295 38.6289
#
#
#
# Elastic Compliance Matrix: (Units=1/GPa)
#
#
# Indices 1 2 3 4 5 6 
#
# 1 0.017350 -0.003803 0.002909 -0.004012 0.009775 -0.014170
# 2 -0.003803 0.015091 -0.002073 0.001313 -0.000926 -0.005826
# 3 0.002909 -0.002073 0.058273 -0.019470 0.004487 -0.019810
# 4 -0.004012 0.001313 -0.019470 0.062996 -0.015811 0.005656
# 5 0.009775 -0.000926 0.004487 -0.015811 0.036405 -0.011338
# 6 -0.014170 -0.005826 -0.019810 0.005656 -0.011338 0.049289
#
#
# Mechanical properties :
#
#
# Convention : Reuss Voigt Hill
#
# Bulk Modulus (GPa) = 11.79540 36.59019 24.19280
# Shear Modulus (GPa) = 18.27487 29.21752 23.74620
#
# Velocity S-wave (km/s) = 2.86394 3.62125 3.26463
# Velocity P-wave (km/s) = 4.02868 5.82298 5.00686
#
# Compressibility (1/GPa) = 0.08477882
#
# Stress axis : x y z
#
# Youngs Moduli (GPa) = 57.63711 66.26323 17.16068
#
# Poissons Ratio (x) = 0.25202 -0.04992
# Poissons Ratio (y) = 0.21921 0.03558
# Poissons Ratio (z) = -0.16767 0.13739
#
# Static dielectric constant tensor:
#      x y z
#    x 1.907510 -0.006440 -0.025870 
#    y -0.006440 1.883690 -0.011030 
#    z -0.025870 -0.011030 1.834310 
# 
# From -- ./inp_files/78828.got.cif
#   From: 2010.05.17/outbox.cif.g08.bks.cpg/sg2_40_cif.got.tgz:78828.got - 2010.06.03 11:33:40.
