data_PCOD9004341
_publ_section_title
;
Structure prediction by ZEFSAII (Michael W. Deem and Ramdas Pophale) SiO2 
 PCOD9004341
Probable space group: P -1
;
_chemical_formula_sum "Si O2"
_cell_formula_units_Z 14
_cell_length_a 25.537422
_cell_length_b 9.674470
_cell_length_c 9.651146
_cell_angle_alpha 135.556436
_cell_angle_beta 155.825638
_cell_angle_gamma 37.985401
_cell_volume 600.846987
_symmetry_space_group_name_H-M "P -1"
_symmetry_group_IT_number 2
_symmetry_cell_setting 'triclinic'
loop_
_space_group_symop_operation_xyz
x,y,z
-x,-y,-z
loop_
_atom_site_type_symbol
_atom_site_label
_atom_site_fract_x
_atom_site_fract_y
_atom_site_fract_z
Si Si1 0.855458 0.223810 0.272115
Si Si2 0.279249 0.978935 0.541266
Si Si3 0.620476 0.950764 0.634129
Si Si4 0.875222 0.331634 0.093943
Si Si5 0.572102 0.239580 0.493711
Si Si6 0.823655 0.620321 0.643832
Si Si7 0.204525 0.171462 0.783524
O O1 0.877938 0.342043 0.274910
O O2 0.797601 0.414166 0.385183
O O3 0.737167 0.156047 0.884045
O O4 0.000000 0.000000 0.500000
O O5 0.207637 0.202436 0.431630
O O6 0.297727 0.028614 0.777654
O O7 0.429268 0.839613 0.720484
O O8 0.198582 0.823361 0.232590
O O9 0.720257 0.746065 0.618498
O O10 0.500000 0.000000 0.500000
O O11 0.521241 0.146646 0.428726
O O12 0.744901 0.951583 0.035612
O O13 0.801951 0.585340 0.041930
O O14 0.044222 0.218939 0.383379
O O15 0.500000 0.500000 0.500000
O O16 0.000000 0.500000 0.000000
#
# Coordination Sequence:
#
# PCOD9004341 Si02
#       7
#     2   2   2   2   2   2   2
#     4  11  21  41  69  99 131 175 238 291 336 405
#     4  10  22  40  67  97 129 179 229 279 343 414
#     4  11  27  44  65 100 144 180 227 289 342 410
#     4  10  21  37  65  99 134 170 221 287 342 398
#     4  10  24  45  68  94 134 182 233 277 339 425
#     4  11  22  42  70  99 133 183 234 284 343 412
#     4  11  22  41  63  96 139 174 221 283 347 399
#
# _framework density 23.300440999999999
#
# number of rings (size 3 to 8) (size 9 to 14) (size 15 to 20)
#    0.000    1.429    1.429    4.714    6.000    1.143 
#    5.143    4.286    0.000    0.000    0.000    0.000 
#    0.000    0.000    0.000    0.000    0.000    0.000 
#
# Total GULP energy -78009.385280 kJ/mol
# GULP energy per Si atom -5572.098949 kJ/mol
# Density = 2.324741 g / cm^3
# Si number density = 23.300441 Si / 1000 Ang^3
#
#
#
# Elastic Constant Matrix: (Units=GPa)
#
#
# Indices 1 2 3 4 5 6 
#
# 1 158.4960 49.7190 16.5932 15.3216 -23.0592 -17.6357
# 2 49.7190 110.5868 22.4141 16.4671 -13.2140 -13.8534
# 3 16.5932 22.4141 67.6516 19.3196 3.3959 -5.2687
# 4 15.3216 16.4671 19.3196 38.3650 -0.6256 0.8914
# 5 -23.0592 -13.2140 3.3959 -0.6256 44.2249 10.0506
# 6 -17.6357 -13.8534 -5.2687 0.8914 10.0506 27.0834
#
#
#
# Elastic Compliance Matrix: (Units=1/GPa)
#
#
# Indices 1 2 3 4 5 6 
#
# 1 0.008074 -0.002549 -0.000512 -0.001894 0.002807 0.002875
# 2 -0.002549 0.011684 -0.002217 -0.002936 0.001514 0.003421
# 3 -0.000512 -0.002217 0.018451 -0.008272 -0.003284 0.003613
# 4 -0.001894 -0.002936 -0.008272 0.032386 0.000501 -0.005596
# 5 0.002807 0.001514 -0.003284 0.000501 0.026587 -0.007919
# 6 0.002875 0.003421 0.003613 -0.005596 -0.007919 0.044370
#
#
# Mechanical properties :
#
#
# Convention : Reuss Voigt Hill
#
# Bulk Modulus (GPa) = 36.16330 57.13188 46.64759
# Shear Modulus (GPa) = 30.99330 38.46853 34.73091
#
# Velocity S-wave (km/s) = 3.65109 4.06763 3.86498
# Velocity P-wave (km/s) = 5.77305 6.82889 6.32305
#
# Compressibility (1/GPa) = 0.02765234
#
# Stress axis : x y z
#
# Youngs Moduli (GPa) = 123.85829 85.58409 54.19907
#
# Poissons Ratio (x) = 0.21811 0.02776
# Poissons Ratio (y) = 0.31566 0.12018
# Poissons Ratio (z) = 0.06344 0.18977
#
# Static dielectric constant tensor:
#      x y z
#    x 2.063660 0.017730 0.083780 
#    y 0.017730 1.900040 0.009740 
#    z 0.083780 0.009740 1.946090 
# 
# From -- ./inp_files/352392.got.cif
#   From: 2010.05.17/outbox.cif.g08.bks.cpg/sg2_177_cif.got.tgz:352392.got - 2010.06.03 11:33:40.
