data_PCOD9004222
_publ_section_title
;
Structure prediction by ZEFSAII (Michael W. Deem and Ramdas Pophale) SiO2 
 PCOD9004222
Probable space group: P -1
;
_chemical_formula_sum "Si O2"
_cell_formula_units_Z 16
_cell_length_a 29.009294
_cell_length_b 14.474167
_cell_length_c 6.385591
_cell_angle_alpha 90.535654
_cell_angle_beta 109.168861
_cell_angle_gamma 149.037144
_cell_volume 1043.692949
_symmetry_space_group_name_H-M "P -1"
_symmetry_group_IT_number 2
_symmetry_cell_setting 'triclinic'
loop_
_space_group_symop_operation_xyz
x,y,z
-x,-y,-z
loop_
_atom_site_type_symbol
_atom_site_label
_atom_site_fract_x
_atom_site_fract_y
_atom_site_fract_z
Si Si1 0.094365 0.647565 0.829673
Si Si2 0.221808 0.741113 0.738589
Si Si3 0.652190 0.322077 0.069288
Si Si4 0.251455 0.637650 0.116962
Si Si5 0.993391 0.629886 0.925577
Si Si6 0.394492 0.940459 0.727667
Si Si7 0.014295 0.174516 0.987738
Si Si8 0.089532 0.160463 0.443776
O O1 0.206678 0.801689 0.873668
O O2 0.000000 0.500000 0.500000
O O3 0.093752 0.740435 0.966073
O O4 0.047621 0.490661 0.923231
O O5 0.118637 0.563778 0.405467
O O6 0.343472 0.932356 0.801123
O O7 0.206843 0.626775 0.864460
O O8 0.639202 0.216010 0.216016
O O9 0.774736 0.586792 0.290650
O O10 0.664241 0.292874 0.861932
O O11 0.534670 0.180214 0.909733
O O12 0.324328 0.819876 0.402112
O O13 0.137251 0.396335 0.048751
O O14 0.026972 0.793160 0.023541
O O15 0.045718 0.171618 0.241415
O O16 0.926001 0.959053 0.717999
O O17 0.000000 0.000000 0.500000
#
# Coordination Sequence:
#
# PCOD9004222 Si02
#       8
#     2   2   2   2   2   2   2   2
#     4   9  18  28  47  72  98 128 152 197 245 300
#     4  10  17  28  47  71  95 127 154 190 248 288
#     4  10  20  32  44  67  93 129 168 201 242 278
#     4  11  17  30  48  67  95 128 162 195 240 284
#     4  10  18  31  46  69 103 125 160 195 241 300
#     4  10  19  30  48  66  95 126 162 207 239 289
#     4  11  20  31  49  68  95 136 162 196 235 286
#     4  11  22  33  47  67  97 135 169 199 232 279
#
# _framework density 15.33018
#
# number of rings (size 3 to 8) (size 9 to 14) (size 15 to 20)
#    0.000    1.750    5.000    1.125    0.000    0.000 
#    0.000    0.000    0.000    0.000    0.000    0.875 
#    0.000   15.000    0.000    1.875    0.000    0.125 
#
# Total GULP energy -89131.727837 kJ/mol
# GULP energy per Si atom -5570.732990 kJ/mol
# Density = 1.529529 g / cm^3
# Si number density = 15.330180 Si / 1000 Ang^3
#
#
#
# Elastic Constant Matrix: (Units=GPa)
#
#
# Indices 1 2 3 4 5 6 
#
# 1 143.3431 42.9507 25.7199 2.6322 -10.5166 17.1641
# 2 42.9507 78.2548 40.6660 -2.8472 -1.1513 12.3227
# 3 25.7199 40.6660 61.7396 -8.9466 -2.4681 6.1241
# 4 2.6322 -2.8472 -8.9466 30.3550 0.6319 3.2744
# 5 -10.5166 -1.1513 -2.4681 0.6319 17.7181 -0.2465
# 6 17.1641 12.3227 6.1241 3.2744 -0.2465 30.4255
#
#
#
# Elastic Compliance Matrix: (Units=1/GPa)
#
#
# Indices 1 2 3 4 5 6 
#
# 1 0.009102 -0.004067 -0.000766 -0.001159 0.005029 -0.003168
# 2 -0.004067 0.022214 -0.012765 -0.000830 -0.002776 -0.004066
# 3 -0.000766 -0.012765 0.025983 0.006517 0.002099 -0.000312
# 4 -0.001159 -0.000830 0.006517 0.035357 -0.001153 -0.004136
# 5 0.005029 -0.002776 0.002099 -0.001153 0.059556 -0.001529
# 6 -0.003168 -0.004066 -0.000312 -0.004136 -0.001529 0.036797
#
#
# Mechanical properties :
#
#
# Convention : Reuss Voigt Hill
#
# Bulk Modulus (GPa) = 45.24202 55.77898 50.51050
# Shear Modulus (GPa) = 21.59149 27.29978 24.44563
#
# Velocity S-wave (km/s) = 3.75698 4.22451 3.99759
# Velocity P-wave (km/s) = 6.95670 7.76269 7.37072
#
# Compressibility (1/GPa) = 0.02210335
#
# Stress axis : x y z
#
# Youngs Moduli (GPa) = 109.86784 45.01684 38.48628
#
# Poissons Ratio (x) = 0.18309 0.02946
# Poissons Ratio (y) = 0.44685 0.49128
# Poissons Ratio (z) = 0.08411 0.57465
#
# Static dielectric constant tensor:
#      x y z
#    x 1.558510 0.018200 -0.004910 
#    y 0.018200 1.488660 -0.028080 
#    z -0.004910 -0.028080 1.511380 
# 
# From -- ./inp_files/73953.got.cif
#   From: 2010.05.17/outbox.cif.g08.bks.cpg/sg2_37_cif.got.tgz:73953.got - 2010.06.03 11:33:40.
