data_PCOD9004287
_publ_section_title
;
Structure prediction by ZEFSAII (Michael W. Deem and Ramdas Pophale) SiO2 
 PCOD9004287
Probable space group: P -1
;
_chemical_formula_sum "Si O2"
_cell_formula_units_Z 16
_cell_length_a 17.186462
_cell_length_b 5.586875
_cell_length_c 24.463653
_cell_angle_alpha 77.580747
_cell_angle_beta 18.480743
_cell_angle_gamma 86.931681
_cell_volume 635.518470
_symmetry_space_group_name_H-M "P -1"
_symmetry_group_IT_number 2
_symmetry_cell_setting 'triclinic'
loop_
_space_group_symop_operation_xyz
x,y,z
-x,-y,-z
loop_
_atom_site_type_symbol
_atom_site_label
_atom_site_fract_x
_atom_site_fract_y
_atom_site_fract_z
Si Si1 0.439155 0.118362 0.589354
Si Si2 0.692752 0.475333 0.700812
Si Si3 0.425723 0.919839 0.961024
Si Si4 0.899096 0.766631 0.376546
Si Si5 0.986576 0.042276 0.421044
Si Si6 0.428049 0.771065 0.319466
Si Si7 0.073854 0.249827 0.759852
Si Si8 0.172371 0.826207 0.887335
O O1 0.386009 0.952854 0.688330
O O2 0.500000 0.000000 0.500000
O O3 0.150943 0.124376 0.766191
O O4 0.692378 0.428257 0.412419
O O5 0.790083 0.798297 0.606780
O O6 0.513138 0.322659 0.773266
O O7 0.000000 0.500000 0.500000
O O8 0.525688 0.252532 0.871009
O O9 0.204303 0.782579 0.164476
O O10 0.692325 0.874954 0.787711
O O11 0.230283 0.779528 0.044759
O O12 0.923779 0.938458 0.405415
O O13 0.637695 0.462243 0.578744
O O14 0.879661 0.869019 0.323559
O O15 0.879449 0.263831 0.485185
O O16 0.640887 0.075329 0.186613
O O17 0.000000 0.500000 0.000000
O O18 0.000000 0.000000 0.000000
#
# Coordination Sequence:
#
# PCOD9004287 Si02
#       8
#     2   2   2   2   2   2   2   2
#     4  11  25  44  70  98 134 193 236 303 362 424
#     4   9  21  40  62  90 135 172 222 273 350 416
#     4   9  19  38  62  93 123 169 215 279 335 421
#     4   9  20  39  63  89 130 172 218 284 343 425
#     4  10  21  37  65  93 130 171 220 271 359 418
#     4  11  24  41  66  94 135 180 222 289 355 423
#     4   9  22  40  67  88 139 170 241 285 357 416
#     4  12  31  47  75 111 147 190 250 304 364 433
#
# _framework density 25.176293000000001
#
# number of rings (size 3 to 8) (size 9 to 14) (size 15 to 20)
#    0.750    1.250    1.250    0.375   10.500    2.500 
#    0.000    5.000    0.000    0.000    0.000    0.000 
#    0.000    0.000    0.000    0.000    0.000    0.000 
#
# Total GULP energy -89225.602733 kJ/mol
# GULP energy per Si atom -5576.600171 kJ/mol
# Density = 2.511899 g / cm^3
# Si number density = 25.176293 Si / 1000 Ang^3
#
#
#
# Elastic Constant Matrix: (Units=GPa)
#
#
# Indices 1 2 3 4 5 6 
#
# 1 96.5086 25.8872 13.4702 -14.4840 -12.3204 21.0858
# 2 25.8872 37.9407 28.4624 -4.5715 -13.2719 20.2734
# 3 13.4702 28.4624 94.3604 -5.8561 -19.7723 12.3883
# 4 -14.4840 -4.5715 -5.8561 34.9920 2.4815 -6.3769
# 5 -12.3204 -13.2719 -19.7723 2.4815 48.0191 -3.8684
# 6 21.0858 20.2734 12.3883 -6.3769 -3.8684 43.3725
#
#
#
# Elastic Compliance Matrix: (Units=1/GPa)
#
#
# Indices 1 2 3 4 5 6 
#
# 1 0.013698 -0.007973 0.001354 0.004286 0.001440 -0.002560
# 2 -0.007973 0.050631 -0.010779 -0.001930 0.006286 -0.016434
# 3 0.001354 -0.010779 0.014324 0.001463 0.003255 0.000794
# 4 0.004286 -0.001930 0.001463 0.030892 -0.000192 0.002925
# 5 0.001440 0.006286 0.003255 -0.000192 0.024085 -0.002448
# 6 -0.002560 -0.016434 0.000794 0.002925 -0.002448 0.031968
#
#
# Mechanical properties :
#
#
# Convention : Reuss Voigt Hill
#
# Bulk Modulus (GPa) = 22.80184 40.49436 31.64810
# Shear Modulus (GPa) = 23.25436 36.00938 29.63187
#
# Velocity S-wave (km/s) = 3.04248 3.78602 3.43443
# Velocity P-wave (km/s) = 4.62804 5.93558 5.32212
#
# Compressibility (1/GPa) = 0.04385610
#
# Stress axis : x y z
#
# Youngs Moduli (GPa) = 73.00264 19.75071 69.81161
#
# Poissons Ratio (x) = 0.15748 -0.09449
# Poissons Ratio (y) = 0.58207 0.75250
# Poissons Ratio (z) = -0.09881 0.21289
#
# Static dielectric constant tensor:
#      x y z
#    x 2.043700 -0.004220 -0.039650 
#    y -0.004220 2.085340 0.028520 
#    z -0.039650 0.028520 2.026760 
# 
# From -- ./inp_files/620136.got.cif
#   From: 2010.05.17/outbox.cif.g08.bks.cpg/sg2_311_cif.got.tgz:620136.got - 2010.06.03 11:33:40.
