data_PCOD9004354
_publ_section_title
;
Structure prediction by ZEFSAII (Michael W. Deem and Ramdas Pophale) SiO2 
 PCOD9004354
Probable space group: P -1
;
_chemical_formula_sum "Si O2"
_cell_formula_units_Z 14
_cell_length_a 13.805229
_cell_length_b 13.302041
_cell_length_c 14.166153
_cell_angle_alpha 139.216463
_cell_angle_beta 138.297961
_cell_angle_gamma 21.963527
_cell_volume 624.976859
_symmetry_space_group_name_H-M "P -1"
_symmetry_group_IT_number 2
_symmetry_cell_setting 'triclinic'
loop_
_space_group_symop_operation_xyz
x,y,z
-x,-y,-z
loop_
_atom_site_type_symbol
_atom_site_label
_atom_site_fract_x
_atom_site_fract_y
_atom_site_fract_z
Si Si1 0.280329 0.395858 0.458685
Si Si2 0.919366 0.330742 0.852273
Si Si3 0.404427 0.938026 0.249439
Si Si4 0.469650 0.881413 0.038090
Si Si5 0.099655 0.251701 0.733982
Si Si6 0.918468 0.395694 0.344922
Si Si7 0.679354 0.251772 0.529589
O O1 0.416905 0.115225 0.390137
O O2 0.150306 0.599736 0.597011
O O3 0.485925 0.324582 0.507159
O O4 0.056169 0.547664 0.327303
O O5 0.848654 0.220895 0.691574
O O6 0.932199 0.416001 0.824311
O O7 0.205062 0.099227 0.941033
O O8 0.694971 0.581599 0.939258
O O9 0.400288 0.903359 0.111222
O O10 0.150082 0.118436 0.254906
O O11 0.656563 0.637751 0.265115
O O12 0.617228 0.916862 0.171456
O O13 0.143125 0.032794 0.593925
O O14 0.000000 0.500000 0.500000
O O15 0.500000 0.500000 0.500000
#
# Coordination Sequence:
#
# PCOD9004354 Si02
#       7
#     2   2   2   2   2   2   2
#     4  11  23  39  71 101 136 175 224 285 347 390
#     4  12  27  43  65  99 141 184 222 272 337 410
#     4  11  22  42  65 102 134 170 224 289 338 393
#     4  12  25  44  69  97 135 183 226 281 336 394
#     4  12  25  43  69  98 138 176 239 278 331 402
#     4  10  21  37  66 103 135 161 221 294 348 383
#     4  12  26  45  66  98 145 184 226 274 336 408
#
# _framework density 22.400831
#
# number of rings (size 3 to 8) (size 9 to 14) (size 15 to 20)
#    0.000    0.571    2.857    7.286    4.000    0.000 
#    0.000    0.000    0.000    5.143    0.000    0.000 
#    0.000    0.000    0.000    0.000    0.000    0.000 
#
# Total GULP energy -78400.696792 kJ/mol
# GULP energy per Si atom -5600.049771 kJ/mol
# Density = 2.234985 g / cm^3
# Si number density = 22.400831 Si / 1000 Ang^3
#
#
#
# Elastic Constant Matrix: (Units=GPa)
#
#
# Indices 1 2 3 4 5 6 
#
# 1 98.6570 22.0855 27.8178 -4.7487 -29.6853 -34.7812
# 2 22.0855 119.3129 45.3319 -19.2693 -4.1313 -28.9725
# 3 27.8178 45.3319 123.0619 -15.8513 -3.9456 -16.6173
# 4 -4.7487 -19.2693 -15.8513 41.8390 -5.1306 -11.3802
# 5 -29.6853 -4.1313 -3.9456 -5.1306 39.2313 11.1353
# 6 -34.7812 -28.9725 -16.6173 -11.3802 11.1353 34.3001
#
#
#
# Elastic Compliance Matrix: (Units=1/GPa)
#
#
# Indices 1 2 3 4 5 6 
#
# 1 0.023960 0.006048 -0.001386 0.014522 0.012120 0.029618
# 2 0.006048 0.015762 -0.002424 0.013242 0.001422 0.022205
# 3 -0.001386 -0.002424 0.010090 0.003207 -0.000638 0.002707
# 4 0.014522 0.013242 0.003207 0.044607 0.007207 0.039925
# 5 0.012120 0.001422 -0.000638 0.007207 0.034442 0.004392
# 6 0.029618 0.022205 0.002707 0.039925 0.004392 0.091075
#
#
# Mechanical properties :
#
#
# Convention : Reuss Voigt Hill
#
# Bulk Modulus (GPa) = 18.41943 59.05581 38.73762
# Shear Modulus (GPa) = 21.40803 39.46052 30.43428
#
# Velocity S-wave (km/s) = 3.09476 4.20165 3.68995
# Velocity P-wave (km/s) = 4.58373 7.06817 5.95691
#
# Compressibility (1/GPa) = 0.05429048
#
# Stress axis : x y z
#
# Youngs Moduli (GPa) = 41.73558 63.44187 99.10453
#
# Poissons Ratio (x) = -0.38372 0.13733
# Poissons Ratio (y) = -0.25243 0.24023
# Poissons Ratio (z) = 0.05783 0.15378
#
# Static dielectric constant tensor:
#      x y z
#    x 2.175970 -0.101980 -0.100130 
#    y -0.101980 1.895110 0.077120 
#    z -0.100130 0.077120 1.892020 
# 
# From -- ./inp_files/534388.got.cif
#   From: 2010.05.17/outbox.cif.g08.bks.cpg/sg2_268_cif.got.tgz:534388.got - 2010.06.03 11:33:40.
