data_PCOD9004258
_publ_section_title
;
Structure prediction by ZEFSAII (Michael W. Deem and Ramdas Pophale) SiO2 
 PCOD9004258
Probable space group: P -1
;
_chemical_formula_sum "Si O2"
_cell_formula_units_Z 12
_cell_length_a 13.101860
_cell_length_b 8.414515
_cell_length_c 19.437348
_cell_angle_alpha 48.922445
_cell_angle_beta 163.708435
_cell_angle_gamma 126.663292
_cell_volume 447.395880
_symmetry_space_group_name_H-M "P -1"
_symmetry_group_IT_number 2
_symmetry_cell_setting 'triclinic'
loop_
_space_group_symop_operation_xyz
x,y,z
-x,-y,-z
loop_
_atom_site_type_symbol
_atom_site_label
_atom_site_fract_x
_atom_site_fract_y
_atom_site_fract_z
Si Si1 0.069495 0.552375 0.609755
Si Si2 0.765002 0.584445 0.547006
Si Si3 0.334338 0.194332 0.092656
Si Si4 0.697258 0.200048 0.091241
Si Si5 0.796609 0.888053 0.813723
Si Si6 0.199214 0.307431 0.272123
O O1 0.262919 0.761733 0.677770
O O2 0.000000 0.500000 0.500000
O O3 0.778803 0.575111 0.476124
O O4 0.382126 0.350579 0.886680
O O5 0.383156 0.517949 0.344336
O O6 0.930565 0.786333 0.627590
O O7 0.058447 0.384553 0.823096
O O8 0.298153 0.205159 0.148515
O O9 0.181675 0.979240 0.036506
O O10 0.825694 0.295842 0.075094
O O11 0.500000 0.000000 0.000000
O O12 0.810224 0.729798 0.804386
O O13 0.481427 0.095190 0.539059
#
# Coordination Sequence:
#
# PCOD9004258 Si02
#       6
#     2   2   2   2   2   2
#     4  11  24  42  66  88 127 170 209 250 319 380
#     4  10  22  43  65  87 126 172 204 249 321 375
#     4   9  18  35  60  89 122 160 214 242 304 373
#     4  11  25  39  64  97 128 159 209 265 308 360
#     4   9  19  34  63  96 120 168 204 259 304 378
#     4  10  21  37  65  89 130 159 213 251 316 359
#
# _framework density 26.821883
#
# number of rings (size 3 to 8) (size 9 to 14) (size 15 to 20)
#    0.000    2.000    0.000    3.500   11.667    0.000 
#    0.000   13.333    0.000    0.000    0.000    0.000 
#    0.000    0.000    0.000    0.000    0.000    0.000 
#
# Total GULP energy -67159.717335 kJ/mol
# GULP energy per Si atom -5596.643111 kJ/mol
# Density = 2.676084 g / cm^3
# Si number density = 26.821883 Si / 1000 Ang^3
#
#
#
# Elastic Constant Matrix: (Units=GPa)
#
#
# Indices 1 2 3 4 5 6 
#
# 1 181.5975 47.4611 46.2868 28.2237 -3.4052 -2.0626
# 2 47.4611 172.7805 39.2235 34.8909 15.0736 17.1987
# 3 46.2868 39.2235 76.7877 15.7075 -2.6781 7.6670
# 4 28.2237 34.8909 15.7075 54.6497 5.0464 6.5594
# 5 -3.4052 15.0736 -2.6781 5.0464 52.3997 6.3846
# 6 -2.0626 17.1987 7.6670 6.5594 6.3846 41.2324
#
#
#
# Elastic Compliance Matrix: (Units=1/GPa)
#
#
# Indices 1 2 3 4 5 6 
#
# 1 0.007004 -0.000889 -0.003440 -0.002310 0.000557 0.001642
# 2 -0.000889 0.007627 -0.002561 -0.003272 -0.001831 -0.001946
# 3 -0.003440 -0.002561 0.016976 -0.001355 0.001794 -0.002323
# 4 -0.002310 -0.003272 -0.001355 0.022304 -0.001199 -0.001861
# 5 0.000557 -0.001831 0.001794 -0.001199 0.020155 -0.002472
# 6 0.001642 -0.001946 -0.002323 -0.001861 -0.002472 0.026257
#
#
# Mechanical properties :
#
#
# Convention : Reuss Voigt Hill
#
# Bulk Modulus (GPa) = 56.08908 77.45649 66.77279
# Shear Modulus (GPa) = 41.65114 49.53597 45.59355
#
# Velocity S-wave (km/s) = 3.94493 4.30216 4.12741
# Velocity P-wave (km/s) = 6.45810 7.32249 6.90384
#
# Compressibility (1/GPa) = 0.01782878
#
# Stress axis : x y z
#
# Youngs Moduli (GPa) = 142.78030 131.10955 58.90630
#
# Poissons Ratio (x) = 0.11651 0.20263
# Poissons Ratio (y) = 0.12688 0.15084
# Poissons Ratio (z) = 0.49116 0.33572
#
# Static dielectric constant tensor:
#      x y z
#    x 1.990340 0.006990 -0.073870 
#    y 0.006990 2.113960 -0.057000 
#    z -0.073870 -0.057000 2.215340 
# 
# From -- ./inp_files/153177.got.cif
#   From: 2010.05.17/outbox.cif.g08.bks.cpg/sg2_77_cif.got.tgz:153177.got - 2010.06.03 11:33:40.
