data_PCOD9004214
_publ_section_title
;
Structure prediction by ZEFSAII (Michael W. Deem and Ramdas Pophale) SiO2 
 PCOD9004214
Probable space group: P -1
;
_chemical_formula_sum "Si O2"
_cell_formula_units_Z 15
_cell_length_a 7.641267
_cell_length_b 16.612040
_cell_length_c 7.586886
_cell_angle_alpha 128.740823
_cell_angle_beta 103.999385
_cell_angle_gamma 50.039927
_cell_volume 554.760910
_symmetry_space_group_name_H-M "P -1"
_symmetry_group_IT_number 2
_symmetry_cell_setting 'triclinic'
loop_
_space_group_symop_operation_xyz
x,y,z
-x,-y,-z
loop_
_atom_site_type_symbol
_atom_site_label
_atom_site_fract_x
_atom_site_fract_y
_atom_site_fract_z
Si Si1 0.115550 0.363588 0.628427
Si Si2 0.000000 0.000000 0.000000
Si Si3 0.470528 0.130169 0.118146
Si Si4 0.793119 0.328285 0.670727
Si Si5 0.735428 0.481838 0.225407
Si Si6 0.155354 0.759858 0.930966
Si Si7 0.868962 0.940318 0.417549
Si Si8 0.449828 0.219759 0.843780
O O1 0.289865 0.242559 0.369846
O O2 0.090311 0.487221 0.713406
O O3 0.247313 0.321749 0.794517
O O4 0.886222 0.381444 0.636524
O O5 0.920801 0.148406 0.130098
O O6 0.265107 0.922149 0.878793
O O7 0.394988 0.193847 0.987792
O O8 0.500000 0.000000 0.000000
O O9 0.535308 0.378983 0.634163
O O10 0.998776 0.168559 0.542110
O O11 0.755948 0.403511 0.949067
O O12 0.782777 0.382347 0.253295
O O13 0.378054 0.744565 0.040317
O O14 0.936311 0.853097 0.141450
O O15 0.608019 0.070751 0.585772
O O16 0.000000 0.000000 0.500000
#
# Coordination Sequence:
#
# PCOD9004214 Si02
#       8
#     2   1   2   2   2   2   2   2
#     4  12  24  41  70  98 131 182 225 269 339 401
#     4  10  22  44  68  92 132 174 210 272 342 388
#     4  11  26  43  64 101 137 171 224 281 333 396
#     4  10  21  37  64  98 132 172 221 276 326 392
#     4  10  21  40  65  97 131 173 227 271 326 403
#     4   9  19  37  67  98 129 171 220 274 330 396
#     4   9  16  31  59  91 121 163 209 260 328 381
#     4  10  21  39  63  98 136 167 218 281 330 392
#
# _framework density 27.038675000000001
#
# number of rings (size 3 to 8) (size 9 to 14) (size 15 to 20)
#    0.000    1.867    0.000    5.200    0.000    8.533 
#    0.000    4.000    0.000   28.000    0.000    0.933 
#    0.000    0.000    0.000    0.000    0.000    0.000 
#
# Total GULP energy -83847.314490 kJ/mol
# GULP energy per Si atom -5589.820966 kJ/mol
# Density = 2.697713 g / cm^3
# Si number density = 27.038675 Si / 1000 Ang^3
#
#
#
# Elastic Constant Matrix: (Units=GPa)
#
#
# Indices 1 2 3 4 5 6 
#
# 1 132.8004 41.9546 17.1048 -6.2754 -14.0641 42.6286
# 2 41.9546 167.0788 48.1371 -2.9948 11.5353 41.5471
# 3 17.1048 48.1371 66.9956 -10.2761 -11.5878 3.9209
# 4 -6.2754 -2.9948 -10.2761 58.2292 7.5491 11.0315
# 5 -14.0641 11.5353 -11.5878 7.5491 32.0386 10.0393
# 6 42.6286 41.5471 3.9209 11.0315 10.0393 50.6801
#
#
#
# Elastic Compliance Matrix: (Units=1/GPa)
#
#
# Indices 1 2 3 4 5 6 
#
# 1 0.012937 -0.000647 -0.000098 0.002555 0.009265 -0.012735
# 2 -0.000647 0.010317 -0.007557 0.001010 -0.004910 -0.006576
# 3 -0.000098 -0.007557 0.022185 0.001848 0.009556 0.002266
# 4 0.002555 0.001010 0.001848 0.019295 -0.000881 -0.007145
# 5 0.009265 -0.004910 0.009556 -0.000881 0.044847 -0.013200
# 6 -0.012735 -0.006576 0.002266 -0.007145 -0.013200 0.039829
#
#
# Mechanical properties :
#
#
# Convention : Reuss Voigt Hill
#
# Bulk Modulus (GPa) = 34.68134 64.58531 49.63332
# Shear Modulus (GPa) = 28.46926 45.50145 36.98536
#
# Velocity S-wave (km/s) = 3.24838 4.10668 3.70248
# Velocity P-wave (km/s) = 5.18880 6.81356 6.05592
#
# Compressibility (1/GPa) = 0.02883395
#
# Stress axis : x y z
#
# Youngs Moduli (GPa) = 77.29694 96.92312 45.07523
#
# Poissons Ratio (x) = 0.06275 0.00442
# Poissons Ratio (y) = 0.05005 0.34065
# Poissons Ratio (z) = 0.00758 0.73248
#
# Static dielectric constant tensor:
#      x y z
#    x 1.808260 0.150000 -0.121570 
#    y 0.150000 1.918320 0.088680 
#    z -0.121570 0.088680 2.019590 
# 
# From -- ./inp_files/208676.got.cif
#   From: 2010.05.17/outbox.cif.g08.bks.cpg/sg2_105_cif.got.tgz:208676.got - 2010.06.03 11:33:40.
