data_PCOD9004610
_publ_section_title
;
Structure prediction by ZEFSAII (Michael W. Deem and Ramdas Pophale) SiO2 
 PCOD9004610
Probable space group: P -1
;
_chemical_formula_sum "Si O2"
_cell_formula_units_Z 16
_cell_length_a 15.007390
_cell_length_b 11.687469
_cell_length_c 14.317621
_cell_angle_alpha 49.794333
_cell_angle_beta 38.740655
_cell_angle_gamma 29.287432
_cell_volume 763.820773
_symmetry_space_group_name_H-M "P -1"
_symmetry_group_IT_number 2
_symmetry_cell_setting 'triclinic'
loop_
_space_group_symop_operation_xyz
x,y,z
-x,-y,-z
loop_
_atom_site_type_symbol
_atom_site_label
_atom_site_fract_x
_atom_site_fract_y
_atom_site_fract_z
Si Si1 0.265882 0.730318 0.117560
Si Si2 0.934890 0.223498 0.910836
Si Si3 0.221640 0.110171 0.887748
Si Si4 0.551092 0.087300 0.681281
Si Si5 0.913075 0.375490 0.166694
Si Si6 0.473573 0.592147 0.205716
Si Si7 0.700090 0.945693 0.831757
Si Si8 0.646078 0.309080 0.397885
O O1 0.093253 0.766436 0.182656
O O2 0.296609 0.677794 0.229417
O O3 0.500000 0.500000 0.000000
O O4 0.251459 0.918399 0.004809
O O5 0.116630 0.181022 0.833593
O O6 0.701228 0.443012 0.040443
O O7 0.000000 0.000000 0.000000
O O8 0.446274 0.024374 0.754288
O O9 0.040144 0.324773 0.996121
O O10 0.326361 0.351451 0.767815
O O11 0.711838 0.918630 0.725141
O O12 0.660774 0.122457 0.506685
O O13 0.863221 0.238310 0.263058
O O14 0.076104 0.260781 0.182437
O O15 0.378073 0.821756 0.205821
O O16 0.534318 0.431983 0.324498
O O17 0.500000 0.000000 0.000000
O O18 0.500000 0.500000 0.500000
#
# Coordination Sequence:
#
# PCOD9004610 Si02
#       8
#     2   2   2   2   2   2   2   2
#     4   9  19  33  54  87 107 137 193 252 283 328
#     4   9  19  32  57  84 103 141 197 244 287 328
#     4  11  18  34  58  84 109 147 186 242 297 319
#     4  11  23  38  52  85 127 146 192 231 276 354
#     4  11  21  34  58  82 115 161 191 220 285 342
#     4  11  18  35  56  78 123 147 184 239 283 338
#     4  12  22  32  56  89 118 151 189 234 286 338
#     4  10  21  38  55  80 120 167 183 221 277 355
#
# _framework density 20.947322
#
# number of rings (size 3 to 8) (size 9 to 14) (size 15 to 20)
#    0.000    1.500    6.250    0.375    1.750    0.500 
#    0.000    0.000    0.000    7.500    0.000    0.000 
#    0.000    0.000    0.000    0.000    0.000    0.000 
#
# Total GULP energy -89278.679715 kJ/mol
# GULP energy per Si atom -5579.917482 kJ/mol
# Density = 2.089965 g / cm^3
# Si number density = 20.947322 Si / 1000 Ang^3
#
#
#
# Elastic Constant Matrix: (Units=GPa)
#
#
# Indices 1 2 3 4 5 6 
#
# 1 212.6921 13.6902 46.7562 -26.5061 6.7224 -44.9561
# 2 13.6902 49.9030 -0.9645 -3.3347 0.8763 -10.4761
# 3 46.7562 -0.9645 77.9378 -24.6609 -2.9983 -10.2566
# 4 -26.5061 -3.3347 -24.6609 23.9449 -6.6193 8.9493
# 5 6.7224 0.8763 -2.9983 -6.6193 22.5119 -7.5430
# 6 -44.9561 -10.4761 -10.2566 8.9493 -7.5430 36.5927
#
#
#
# Elastic Compliance Matrix: (Units=1/GPa)
#
#
# Indices 1 2 3 4 5 6 
#
# 1 0.007164 -0.000246 -0.002347 0.002916 0.000946 0.007554
# 2 -0.000246 0.021675 0.002550 0.003802 0.002786 0.006262
# 3 -0.002347 0.002550 0.022099 0.023235 0.010556 0.000534
# 4 0.002916 0.003802 0.023235 0.077062 0.023812 -0.002754
# 5 0.000946 0.002786 0.010556 0.023812 0.056002 0.010639
# 6 0.007554 0.006262 0.000534 -0.002754 0.010639 0.041418
#
#
# Mechanical properties :
#
#
# Convention : Reuss Voigt Hill
#
# Bulk Modulus (GPa) = 19.66520 51.05519 35.36019
# Shear Modulus (GPa) = 20.62216 35.34663 27.98440
#
# Velocity S-wave (km/s) = 3.14104 4.11226 3.65902
# Velocity P-wave (km/s) = 4.75007 6.85373 5.89647
#
# Compressibility (1/GPa) = 0.05085124
#
# Stress axis : x y z
#
# Youngs Moduli (GPa) = 139.59044 46.13509 45.25129
#
# Poissons Ratio (x) = 0.01137 0.10622
# Poissons Ratio (y) = 0.03441 -0.11541
# Poissons Ratio (z) = 0.32767 -0.11766
#
# Static dielectric constant tensor:
#      x y z
#    x 1.831470 0.008010 0.019150 
#    y 0.008010 1.827410 0.073100 
#    z 0.019150 0.073100 1.894750 
# 
# From -- ./inp_files/519376.got.cif
#   From: 2010.05.17/outbox.cif.g08.bks.cpg/sg2_260_cif.got.tgz:519376.got - 2010.06.03 11:33:40.
