data_PCOD9004871
_publ_section_title
;
Structure prediction by ZEFSAII (Michael W. Deem and Ramdas Pophale) SiO2 
 PCOD9004871
Probable space group: P -1
;
_chemical_formula_sum "Si O2"
_cell_formula_units_Z 16
_cell_length_a 18.472607
_cell_length_b 5.355492
_cell_length_c 10.897946
_cell_angle_alpha 101.696374
_cell_angle_beta 38.112250
_cell_angle_gamma 103.980971
_cell_volume 645.571626
_symmetry_space_group_name_H-M "P -1"
_symmetry_group_IT_number 2
_symmetry_cell_setting 'triclinic'
loop_
_space_group_symop_operation_xyz
x,y,z
-x,-y,-z
loop_
_atom_site_type_symbol
_atom_site_label
_atom_site_fract_x
_atom_site_fract_y
_atom_site_fract_z
Si Si1 0.104493 0.052894 0.684104
Si Si2 0.395334 0.759184 0.548857
Si Si3 0.648440 0.738014 0.750262
Si Si4 0.475120 0.837140 0.178996
Si Si5 0.364699 0.279688 0.663582
Si Si6 0.089245 0.994091 0.268913
Si Si7 0.794578 0.493898 0.943008
Si Si8 0.959509 0.671432 0.965750
O O1 0.219961 0.163847 0.465214
O O2 0.989775 0.088676 0.756549
O O3 0.072310 0.750962 0.731421
O O4 0.098707 0.140883 0.843054
O O5 0.457826 0.829951 0.345110
O O6 0.342052 0.458355 0.596291
O O7 0.497842 0.756479 0.512896
O O8 0.310414 0.976798 0.708416
O O9 0.610150 0.429180 0.770304
O O10 0.567684 0.903016 0.790296
O O11 0.605379 0.818054 0.950415
O O12 0.332254 0.434296 0.842737
O O13 0.179797 0.788966 0.151214
O O14 0.150544 0.285273 0.199687
O O15 0.000000 0.000000 0.500000
O O16 0.860878 0.560417 0.990831
O O17 0.000000 0.500000 0.000000
#
# Coordination Sequence:
#
# PCOD9004871 Si02
#       8
#     2   2   2   2   2   2   2   2
#     4  10  23  39  60  93 122 163 203 250 316 360
#     4  10  21  38  59  87 122 154 199 251 302 358
#     4  10  23  39  60  88 120 158 205 246 302 365
#     4  10  22  40  58  89 121 156 203 251 294 370
#     4  10  22  38  60  90 117 156 201 248 304 363
#     4  11  24  43  62  87 126 160 205 253 296 371
#     4  11  23  40  62  92 121 159 207 247 310 367
#     4  10  21  38  61  92 129 154 202 262 298 378
#
# _framework density 24.784234999999999
#
# number of rings (size 3 to 8) (size 9 to 14) (size 15 to 20)
#    0.000    1.750    1.250    1.875    5.250    1.000 
#    0.000    3.750    0.000    0.000    0.000    0.000 
#    0.000    0.000    0.000    0.000    0.000    0.000 
#
# Total GULP energy -89130.339265 kJ/mol
# GULP energy per Si atom -5570.646204 kJ/mol
# Density = 2.472782 g / cm^3
# Si number density = 24.784235 Si / 1000 Ang^3
#
#
#
# Elastic Constant Matrix: (Units=GPa)
#
#
# Indices 1 2 3 4 5 6 
#
# 1 20.6129 22.6135 2.1528 -0.8244 0.8073 -7.3336
# 2 22.6135 134.9690 43.7468 -0.5255 4.0807 -40.8489
# 3 2.1528 43.7468 142.1517 -25.9003 2.7474 -12.4148
# 4 -0.8244 -0.5255 -25.9003 49.5554 -0.3152 0.0858
# 5 0.8073 4.0807 2.7474 -0.3152 31.6198 -5.2973
# 6 -7.3336 -40.8489 -12.4148 0.0858 -5.2973 34.1562
#
#
#
# Elastic Compliance Matrix: (Units=1/GPa)
#
#
# Indices 1 2 3 4 5 6 
#
# 1 0.060482 -0.010698 0.002927 0.002419 -0.000189 0.001221
# 2 -0.010698 0.014503 -0.003436 -0.001838 0.001021 0.013962
# 3 0.002927 -0.003436 0.008874 0.004648 -0.000411 -0.000331
# 4 0.002419 -0.001838 0.004648 0.022630 -0.000011 -0.000048
# 5 -0.000189 0.001021 -0.000411 -0.000011 0.032553 0.006079
# 6 0.001221 0.013962 -0.000331 -0.000048 0.006079 0.047059
#
#
# Mechanical properties :
#
#
# Convention : Reuss Voigt Hill
#
# Bulk Modulus (GPa) = 16.27472 48.30664 32.29068
# Shear Modulus (GPa) = 21.83442 38.34764 30.09103
#
# Velocity S-wave (km/s) = 2.97135 3.93779 3.48820
# Velocity P-wave (km/s) = 4.28401 6.34099 5.41114
#
# Compressibility (1/GPa) = 0.06144497
#
# Stress axis : x y z
#
# Youngs Moduli (GPa) = 16.53380 68.95196 112.69013
#
# Poissons Ratio (x) = 0.73764 -0.32988
# Poissons Ratio (y) = 0.17688 0.38726
# Poissons Ratio (z) = -0.04840 0.23695
#
# Static dielectric constant tensor:
#      x y z
#    x 1.929080 -0.166590 -0.077660 
#    y -0.166590 1.529430 -0.040440 
#    z -0.077660 -0.040440 2.027090 
# 
# From -- ./inp_files/473288.got.cif
#   From: 2010.05.17/outbox.cif.g08.bks.cpg/sg2_237_cif.got.tgz:473288.got - 2010.06.03 11:33:40.
