data_PCOD9004699
_publ_section_title
;
Structure prediction by ZEFSAII (Michael W. Deem and Ramdas Pophale) SiO2 
 PCOD9004699
Probable space group: P -1
;
_chemical_formula_sum "Si O2"
_cell_formula_units_Z 16
_cell_length_a 10.377319
_cell_length_b 14.317287
_cell_length_c 11.309400
_cell_angle_alpha 53.608305
_cell_angle_beta 80.991389
_cell_angle_gamma 38.699483
_cell_volume 670.857337
_symmetry_space_group_name_H-M "P -1"
_symmetry_group_IT_number 2
_symmetry_cell_setting 'triclinic'
loop_
_space_group_symop_operation_xyz
x,y,z
-x,-y,-z
loop_
_atom_site_type_symbol
_atom_site_label
_atom_site_fract_x
_atom_site_fract_y
_atom_site_fract_z
Si Si1 0.112716 0.291479 0.108999
Si Si2 0.658772 0.985177 0.929853
Si Si3 0.755289 0.012161 0.452477
Si Si4 0.246721 0.816943 0.873003
Si Si5 0.387518 0.320505 0.497280
Si Si6 0.982623 0.814279 0.225104
Si Si7 0.207777 0.673482 0.776906
Si Si8 0.722151 0.834382 0.427859
O O1 0.937380 0.334622 0.169842
O O2 0.117202 0.247602 0.005746
O O3 0.418590 0.063652 0.266258
O O4 0.000000 0.500000 0.000000
O O5 0.497676 0.189695 0.706411
O O6 0.500000 0.000000 0.000000
O O7 0.791497 0.959020 0.031815
O O8 0.634712 0.176110 0.237814
O O9 0.602918 0.155893 0.486448
O O10 0.750226 0.882126 0.510116
O O11 0.048372 0.833985 0.563726
O O12 0.156934 0.789672 0.813388
O O13 0.042541 0.043067 0.812859
O O14 0.486210 0.579544 0.089801
O O15 0.196508 0.362487 0.448457
O O16 0.256930 0.546475 0.354150
O O17 0.871351 0.800909 0.339747
#
# Coordination Sequence:
#
# PCOD9004699 Si02
#       8
#     2   2   2   2   2   2   2   2
#     4  11  22  38  65 100 129 162 212 266 323 384
#     4  11  23  40  60  93 135 171 210 255 333 392
#     4  11  22  41  71  95 130 166 218 271 325 380
#     4  10  26  46  66  95 121 176 231 265 323 375
#     4  11  23  38  61 100 132 168 209 262 330 387
#     4  11  23  41  62  91 135 173 212 266 318 397
#     4  11  23  45  71  91 130 166 225 279 311 381
#     4  10  21  38  58 101 128 167 210 254 332 391
#
# _framework density 23.850078
#
# number of rings (size 3 to 8) (size 9 to 14) (size 15 to 20)
#    0.000    1.250    5.000    2.625    3.500    2.000 
#    0.000    1.250    0.000    0.000    0.000    0.000 
#    0.000    0.000    0.000    0.000    0.000    0.000 
#
# Total GULP energy -89382.847720 kJ/mol
# GULP energy per Si atom -5586.427983 kJ/mol
# Density = 2.379579 g / cm^3
# Si number density = 23.850078 Si / 1000 Ang^3
#
#
#
# Elastic Constant Matrix: (Units=GPa)
#
#
# Indices 1 2 3 4 5 6 
#
# 1 54.7792 12.4338 7.9335 -13.6560 -5.5055 36.6395
# 2 12.4338 97.2954 37.1108 -10.4853 -4.8486 36.1350
# 3 7.9335 37.1108 93.0093 -3.0933 7.2729 18.6437
# 4 -13.6560 -10.4853 -3.0933 35.4957 2.6894 -14.2134
# 5 -5.5055 -4.8486 7.2729 2.6894 26.1351 4.5021
# 6 36.6395 36.1350 18.6437 -14.2134 4.5021 48.4784
#
#
#
# Elastic Compliance Matrix: (Units=1/GPa)
#
#
# Indices 1 2 3 4 5 6 
#
# 1 0.051945 0.014138 -0.001608 0.002020 0.022536 -0.050680
# 2 0.014138 0.020420 -0.005320 0.000040 0.012552 -0.025014
# 3 -0.001608 -0.005320 0.013312 -0.000494 -0.005046 0.000385
# 4 0.002020 0.000040 -0.000494 0.032692 -0.004278 0.008616
# 5 0.022536 0.012552 -0.005046 -0.004278 0.052450 -0.030573
# 6 -0.050680 -0.025014 0.000385 0.008616 -0.030573 0.082794
#
#
# Mechanical properties :
#
#
# Convention : Reuss Voigt Hill
#
# Bulk Modulus (GPa) = 9.99018 40.00446 24.99732
# Shear Modulus (GPa) = 18.34461 34.52889 26.43675
#
# Velocity S-wave (km/s) = 2.77639 3.80906 3.33296
# Velocity P-wave (km/s) = 3.80468 6.01290 5.03143
#
# Compressibility (1/GPa) = 0.10009832
#
# Stress axis : x y z
#
# Youngs Moduli (GPa) = 19.25108 48.97068 75.11824
#
# Poissons Ratio (x) = -0.69235 0.12080
# Poissons Ratio (y) = -0.27217 0.39961
# Poissons Ratio (z) = 0.03096 0.26051
#
# Static dielectric constant tensor:
#      x y z
#    x 1.906940 0.024030 -0.041730 
#    y 0.024030 1.915800 0.027490 
#    z -0.041730 0.027490 1.982540 
# 
# From -- ./inp_files/433822.got.cif
#   From: 2010.05.17/outbox.cif.g08.bks.cpg/sg2_217_cif.got.tgz:433822.got - 2010.06.03 11:33:40.
