data_PCOD9004131
_publ_section_title
;
Structure prediction by ZEFSAII (Michael W. Deem and Ramdas Pophale) SiO2 
 PCOD9004131
Probable space group: P -1
;
_chemical_formula_sum "Si O2"
_cell_formula_units_Z 16
_cell_length_a 9.063514
_cell_length_b 18.907341
_cell_length_c 18.215487
_cell_angle_alpha 24.564461
_cell_angle_beta 142.820878
_cell_angle_gamma 152.006887
_cell_volume 608.761697
_symmetry_space_group_name_H-M "P -1"
_symmetry_group_IT_number 2
_symmetry_cell_setting 'triclinic'
loop_
_space_group_symop_operation_xyz
x,y,z
-x,-y,-z
loop_
_atom_site_type_symbol
_atom_site_label
_atom_site_fract_x
_atom_site_fract_y
_atom_site_fract_z
Si Si1 0.588216 0.654097 0.959207
Si Si2 0.186962 0.382635 0.765433
Si Si3 0.481735 0.025749 0.089105
Si Si4 0.723948 0.866158 0.227495
Si Si5 0.752049 0.700743 0.608225
Si Si6 0.789478 0.249488 0.360123
Si Si7 0.683794 0.064941 0.282225
Si Si8 0.078844 0.696181 0.479947
O O1 0.322855 0.678750 0.817059
O O2 0.500000 0.500000 0.000000
O O3 0.608007 0.574016 0.121758
O O4 0.934174 0.889637 0.865056
O O5 0.419151 0.466470 0.710260
O O6 0.057654 0.518997 0.589664
O O7 0.880108 0.134048 0.877966
O O8 0.564710 0.876435 0.227778
O O9 0.667464 0.155815 0.112980
O O10 0.499565 0.159966 0.901214
O O11 0.812221 0.714220 0.380101
O O12 0.917141 0.731244 0.568785
O O13 0.007913 0.760791 0.714197
O O14 0.706702 0.879437 0.438697
O O15 0.849796 0.356362 0.362216
O O16 0.500000 0.000000 0.500000
O O17 0.370158 0.926269 0.339901
#
# Coordination Sequence:
#
# PCOD9004131 Si02
#       8
#     2   2   2   2   2   2   2   2
#     4  11  22  36  65  94 127 159 202 268 314 358
#     4  10  24  42  60  95 132 160 207 259 315 371
#     4  10  23  42  62  87 129 172 207 253 314 370
#     4  10  22  40  64  89 122 171 214 252 307 378
#     4  10  22  37  64  97 122 162 210 257 312 367
#     4  12  21  38  65  96 126 159 209 263 309 371
#     4  10  21  37  64  92 124 168 206 253 309 378
#     4  11  21  38  64  93 123 161 215 257 308 372
#
# _framework density 26.282862999999999
#
# number of rings (size 3 to 8) (size 9 to 14) (size 15 to 20)
#    0.000    1.500    3.750    0.750    1.750    3.500 
#    0.000    1.250    0.000    0.000    0.000    0.000 
#    0.000    0.000    0.000    0.000    0.000    0.000 
#
# Total GULP energy -89476.463735 kJ/mol
# GULP energy per Si atom -5592.278983 kJ/mol
# Density = 2.622304 g / cm^3
# Si number density = 26.282863 Si / 1000 Ang^3
#
#
#
# Elastic Constant Matrix: (Units=GPa)
#
#
# Indices 1 2 3 4 5 6 
#
# 1 163.9308 33.7927 36.4606 8.0646 -14.4209 26.5406
# 2 33.7927 48.5037 24.6698 10.7881 -20.1541 8.0402
# 3 36.4606 24.6698 76.0386 33.4432 6.8071 4.3225
# 4 8.0646 10.7881 33.4432 46.2871 3.2181 -14.1594
# 5 -14.4209 -20.1541 6.8071 3.2181 42.3091 5.0992
# 6 26.5406 8.0402 4.3225 -14.1594 5.0992 51.8439
#
#
#
# Elastic Compliance Matrix: (Units=1/GPa)
#
#
# Indices 1 2 3 4 5 6 
#
# 1 0.008130 -0.002353 -0.003208 0.000120 0.002610 -0.003754
# 2 -0.002353 0.038366 -0.010890 -0.004221 0.020391 -0.006996
# 3 -0.003208 -0.010890 0.026136 -0.015862 -0.009003 -0.002294
# 4 0.000120 -0.004221 -0.015862 0.038189 -0.003856 0.012725
# 5 0.002610 0.020391 -0.009003 -0.003856 0.036997 -0.008440
# 6 -0.003754 -0.006996 -0.002294 0.012725 -0.008440 0.026792
#
#
# Mechanical properties :
#
#
# Convention : Reuss Voigt Hill
#
# Bulk Modulus (GPa) = 25.17009 53.14658 39.15834
# Shear Modulus (GPa) = 22.64947 40.99136 31.82042
#
# Velocity S-wave (km/s) = 2.93876 3.95349 3.48327
# Velocity P-wave (km/s) = 4.59483 6.41132 5.57752
#
# Compressibility (1/GPa) = 0.03972969
#
# Stress axis : x y z
#
# Youngs Moduli (GPa) = 123.00088 26.06452 38.26183
#
# Poissons Ratio (x) = 0.06132 0.12275
# Poissons Ratio (y) = 0.28936 0.41669
# Poissons Ratio (z) = 0.39461 0.28386
#
# Static dielectric constant tensor:
#      x y z
#    x 2.058120 0.004630 0.043710 
#    y 0.004630 2.054780 0.054390 
#    z 0.043710 0.054390 2.170270 
# 
# From -- ./inp_files/562640.got.cif
#   From: 2010.05.17/outbox.cif.g08.bks.cpg/sg2_282_cif.got.tgz:562640.got - 2010.06.03 11:33:40.
