data_PCOD9004789
_publ_section_title
;
Structure prediction by ZEFSAII (Michael W. Deem and Ramdas Pophale) SiO2 
 PCOD9004789
Probable space group: P -1
;
_chemical_formula_sum "Si O2"
_cell_formula_units_Z 12
_cell_length_a 20.362960
_cell_length_b 5.475862
_cell_length_c 5.093780
_cell_angle_alpha 87.021832
_cell_angle_beta 62.687017
_cell_angle_gamma 103.755618
_cell_volume 481.572389
_symmetry_space_group_name_H-M "P -1"
_symmetry_group_IT_number 2
_symmetry_cell_setting 'triclinic'
loop_
_space_group_symop_operation_xyz
x,y,z
-x,-y,-z
loop_
_atom_site_type_symbol
_atom_site_label
_atom_site_fract_x
_atom_site_fract_y
_atom_site_fract_z
Si Si1 0.723141 0.424161 0.137704
Si Si2 0.587091 0.033711 0.261139
Si Si3 0.189210 0.846288 0.405303
Si Si4 0.931065 0.612841 0.188515
Si Si5 0.333315 0.014596 0.387822
Si Si6 0.117403 0.170246 0.218230
O O1 0.637754 0.335846 0.168975
O O2 0.699930 0.292261 0.471164
O O3 0.790136 0.688597 0.996362
O O4 0.764336 0.253241 0.896838
O O5 0.500000 0.000000 0.500000
O O6 0.626985 0.893221 0.413211
O O7 0.602558 0.936883 0.954798
O O8 0.255183 0.066314 0.424275
O O9 0.121052 0.918167 0.373471
O O10 0.145567 0.626610 0.698531
O O11 0.922333 0.692855 0.500017
O O12 0.923579 0.828743 0.983882
O O13 0.000000 0.500000 0.000000
#
# Coordination Sequence:
#
# PCOD9004789 Si02
#       6
#     2   2   2   2   2   2
#     4   8  19  35  53  81 110 138 189 228 263 318
#     4   9  16  28  53  80 106 147 180 215 281 323
#     4  10  21  38  59  81 113 143 190 228 271 328
#     4  11  24  40  56  85 116 139 183 233 271 332
#     4   9  17  31  52  76 109 140 180 230 260 315
#     4  11  23  37  63  80 107 155 181 221 285 324
#
# _framework density 24.918372999999999
#
# number of rings (size 3 to 8) (size 9 to 14) (size 15 to 20)
#    1.000    1.333    1.667    1.000    2.333    1.333 
#    0.000    0.000    0.000    5.000    0.000    0.000 
#    0.000    0.000    0.000    0.000    0.000    0.000 
#
# Total GULP energy -66880.133009 kJ/mol
# GULP energy per Si atom -5573.344417 kJ/mol
# Density = 2.486166 g / cm^3
# Si number density = 24.918373 Si / 1000 Ang^3
#
#
#
# Elastic Constant Matrix: (Units=GPa)
#
#
# Indices 1 2 3 4 5 6 
#
# 1 80.8392 -1.4194 43.1438 0.4495 -0.0072 -0.6195
# 2 -1.4194 30.4347 15.3376 6.2356 -2.1789 -1.0597
# 3 43.1438 15.3376 164.6487 18.0030 -4.2997 6.9218
# 4 0.4495 6.2356 18.0030 25.7229 1.8855 6.6601
# 5 -0.0072 -2.1789 -4.2997 1.8855 58.3706 -6.2673
# 6 -0.6195 -1.0597 6.9218 6.6601 -6.2673 18.3107
#
#
#
# Elastic Compliance Matrix: (Units=1/GPa)
#
#
# Indices 1 2 3 4 5 6 
#
# 1 0.014750 0.002577 -0.004369 0.001763 -0.000107 0.001622
# 2 0.002577 0.036895 -0.003418 -0.008681 0.002204 0.007426
# 3 -0.004369 -0.003418 0.008095 -0.004359 0.000429 -0.001673
# 4 0.001763 -0.008681 -0.004359 0.048975 -0.004163 -0.018034
# 5 -0.000107 0.002204 0.000429 -0.004163 0.018208 0.007708
# 6 0.001622 0.007426 -0.001673 -0.018034 0.007708 0.064928
#
#
# Mechanical properties :
#
#
# Convention : Reuss Voigt Hill
#
# Bulk Modulus (GPa) = 20.27539 43.33853 31.80696
# Shear Modulus (GPa) = 22.86149 35.07152 28.96650
#
# Velocity S-wave (km/s) = 3.03224 3.75568 3.41318
# Velocity P-wave (km/s) = 4.51815 6.01970 5.32215
#
# Compressibility (1/GPa) = 0.04932088
#
# Stress axis : x y z
#
# Youngs Moduli (GPa) = 67.79790 27.10412 123.53561
#
# Poissons Ratio (x) = -0.06985 0.53970
# Poissons Ratio (y) = -0.17473 0.42220
# Poissons Ratio (z) = 0.29619 0.09263
#
# Static dielectric constant tensor:
#      x y z
#    x 2.087580 -0.023260 0.037460 
#    y -0.023260 2.101310 -0.046830 
#    z 0.037460 -0.046830 1.917830 
# 
# From -- ./inp_files/6687.got.cif
#   From: 2010.05.17/outbox.cif.g08.bks.cpg/sg2_4_cif.got.tgz:6687.got - 2010.06.03 11:33:40.
