data_PCOD9004422
_publ_section_title
;
Structure prediction by ZEFSAII (Michael W. Deem and Ramdas Pophale) SiO2 
 PCOD9004422
Probable space group: P -1
;
_chemical_formula_sum "Si O2"
_cell_formula_units_Z 16
_cell_length_a 9.179404
_cell_length_b 13.978410
_cell_length_c 12.975668
_cell_angle_alpha 58.896839
_cell_angle_beta 57.632114
_cell_angle_gamma 28.745305
_cell_volume 671.715687
_symmetry_space_group_name_H-M "P -1"
_symmetry_group_IT_number 2
_symmetry_cell_setting 'triclinic'
loop_
_space_group_symop_operation_xyz
x,y,z
-x,-y,-z
loop_
_atom_site_type_symbol
_atom_site_label
_atom_site_fract_x
_atom_site_fract_y
_atom_site_fract_z
Si Si1 0.910604 0.244763 0.920045
Si Si2 0.686817 0.505032 0.668055
Si Si3 0.879437 0.058328 0.289307
Si Si4 0.006302 0.424148 0.142275
Si Si5 0.861720 0.817506 0.489683
Si Si6 0.828659 0.865049 0.902920
Si Si7 0.691942 0.446457 0.361545
Si Si8 0.382146 0.822271 0.900631
O O1 0.832480 0.377996 0.789193
O O2 0.672975 0.269690 0.979746
O O3 0.235894 0.004075 0.916907
O O4 0.930272 0.275111 0.013648
O O5 0.457966 0.730512 0.652029
O O6 0.441337 0.552524 0.682719
O O7 0.954472 0.362623 0.559200
O O8 0.813024 0.075500 0.185449
O O9 0.109529 0.041324 0.213982
O O10 0.969651 0.888109 0.390203
O O11 0.100701 0.254419 0.152141
O O12 0.264144 0.343174 0.158664
O O13 0.698695 0.567846 0.244703
O O14 0.000000 0.500000 0.000000
O O15 0.966906 0.740062 0.610316
O O16 0.500000 0.000000 0.500000
O O17 0.500000 0.000000 0.000000
O O18 0.500000 0.500000 0.500000
#
# Coordination Sequence:
#
# PCOD9004422 Si02
#       8
#     2   2   2   2   2   2   2   2
#     4  10  21  39  65  97 141 189 229 294 362 432
#     4  11  23  43  70 102 141 183 243 298 362 434
#     4  11  24  43  71 101 143 188 244 295 366 431
#     4  12  24  41  69 105 143 183 242 304 357 427
#     4  11  25  47  76  99 139 193 242 306 365 429
#     4  11  24  41  64 107 145 185 242 296 362 441
#     4  10  24  45  70 101 142 187 244 293 365 437
#     4  10  21  37  66  98 136 189 237 281 367 425
#
# _framework density 23.819600999999999
#
# number of rings (size 3 to 8) (size 9 to 14) (size 15 to 20)
#    0.000    1.250    3.750    1.500    1.750    4.000 
#    0.000    0.000    0.000    0.000    0.000    0.000 
#    0.000    0.000    0.000    0.000    0.000    0.000 
#
# Total GULP energy -89192.159559 kJ/mol
# GULP energy per Si atom -5574.509972 kJ/mol
# Density = 2.376539 g / cm^3
# Si number density = 23.819601 Si / 1000 Ang^3
#
#
#
# Elastic Constant Matrix: (Units=GPa)
#
#
# Indices 1 2 3 4 5 6 
#
# 1 96.4594 20.0495 27.8841 -0.5583 0.1364 -11.9192
# 2 20.0495 91.7314 16.7297 14.0769 0.3876 7.4821
# 3 27.8841 16.7297 103.9844 5.3583 -9.3252 -2.3247
# 4 -0.5583 14.0769 5.3583 35.4291 -11.3636 -4.9160
# 5 0.1364 0.3876 -9.3252 -11.3636 44.6044 5.0804
# 6 -11.9192 7.4821 -2.3247 -4.9160 5.0804 36.9491
#
#
#
# Elastic Compliance Matrix: (Units=1/GPa)
#
#
# Indices 1 2 3 4 5 6 
#
# 1 0.012427 -0.002921 -0.002925 0.002275 -0.000591 0.004800
# 2 -0.002921 0.013054 -0.001226 -0.006099 -0.001427 -0.004278
# 3 -0.002925 -0.001226 0.010814 -0.000547 0.002185 -0.000388
# 4 0.002275 -0.006099 -0.000547 0.034079 0.008002 0.005368
# 5 -0.000591 -0.001427 0.002185 0.008002 0.025175 -0.002161
# 6 0.004800 -0.004278 -0.000388 0.005368 -0.002161 0.030466
#
#
# Mechanical properties :
#
#
# Convention : Reuss Voigt Hill
#
# Bulk Modulus (GPa) = 45.14635 46.83353 45.98994
# Shear Modulus (GPa) = 33.88823 38.56398 36.22611
#
# Velocity S-wave (km/s) = 3.77597 4.02805 3.90404
# Velocity P-wave (km/s) = 6.16483 6.42946 6.29854
#
# Compressibility (1/GPa) = 0.02215018
#
# Stress axis : x y z
#
# Youngs Moduli (GPa) = 80.47022 76.60302 92.47193
#
# Poissons Ratio (x) = 0.22374 0.27052
# Poissons Ratio (y) = 0.23503 0.11341
# Poissons Ratio (z) = 0.23541 0.09395
#
# Static dielectric constant tensor:
#      x y z
#    x 1.902800 0.012980 -0.064740 
#    y 0.012980 2.038780 0.052450 
#    z -0.064740 0.052450 2.064800 
# 
# From -- ./inp_files/505408.got.cif
#   From: 2010.05.17/outbox.cif.g08.bks.cpg/sg2_253_cif.got.tgz:505408.got - 2010.06.03 11:33:40.
