data_PCOD9004715
_publ_section_title
;
Structure prediction by ZEFSAII (Michael W. Deem and Ramdas Pophale) SiO2 
 PCOD9004715
Probable space group: P -1
;
_chemical_formula_sum "Si O2"
_cell_formula_units_Z 14
_cell_length_a 8.182580
_cell_length_b 12.707499
_cell_length_c 14.038238
_cell_angle_alpha 148.983604
_cell_angle_beta 119.907850
_cell_angle_gamma 77.312204
_cell_volume 577.231245
_symmetry_space_group_name_H-M "P -1"
_symmetry_group_IT_number 2
_symmetry_cell_setting 'triclinic'
loop_
_space_group_symop_operation_xyz
x,y,z
-x,-y,-z
loop_
_atom_site_type_symbol
_atom_site_label
_atom_site_fract_x
_atom_site_fract_y
_atom_site_fract_z
Si Si1 0.449878 0.981184 0.331297
Si Si2 0.719636 0.526274 0.127320
Si Si3 0.889808 0.326457 0.748286
Si Si4 0.693813 0.550508 0.715812
Si Si5 0.156144 0.940878 0.868110
Si Si6 0.542773 0.078738 0.217688
Si Si7 0.710201 0.640334 0.431500
O O1 0.675743 0.101342 0.544769
O O2 0.527268 0.992991 0.253507
O O3 0.338490 0.143646 0.431988
O O4 0.294053 0.717015 0.095675
O O5 0.731412 0.556940 0.268154
O O6 0.931808 0.717492 0.287357
O O7 0.500000 0.500000 0.000000
O O8 0.810262 0.457638 0.751465
O O9 0.000000 0.500000 0.000000
O O10 0.604030 0.350313 0.454646
O O11 0.492135 0.538631 0.706434
O O12 0.839786 0.811026 0.928449
O O13 0.277253 0.939905 0.805485
O O14 0.921265 0.734377 0.629590
O O15 0.312307 0.938882 0.993870
#
# Coordination Sequence:
#
# PCOD9004715 Si02
#       7
#     2   2   2   2   2   2   2
#     4  10  23  42  58  83 123 149 185 244 282 332
#     4  12  24  39  62  87 113 152 194 231 286 345
#     4  10  22  40  61  87 116 151 191 233 287 340
#     4  10  21  38  58  83 118 151 189 237 283 336
#     4  11  20  37  61  83 116 153 190 237 282 333
#     4   9  21  38  57  86 117 151 190 232 288 339
#     4  10  22  37  59  88 112 150 197 230 280 342
#
# _framework density 24.253712
#
# number of rings (size 3 to 8) (size 9 to 14) (size 15 to 20)
#    0.000    2.000    0.000    5.571    0.000    6.286 
#    0.000    9.286    0.000    0.000    0.000    0.000 
#    0.000    0.000    0.000    0.000    0.000    0.000 
#
# Total GULP energy -78354.854342 kJ/mol
# GULP energy per Si atom -5596.775310 kJ/mol
# Density = 2.419851 g / cm^3
# Si number density = 24.253712 Si / 1000 Ang^3
#
#
#
# Elastic Constant Matrix: (Units=GPa)
#
#
# Indices 1 2 3 4 5 6 
#
# 1 86.5893 -7.5265 39.3418 -11.1314 11.3656 0.3171
# 2 -7.5265 22.6408 7.4852 -7.9522 3.5163 -0.1633
# 3 39.3418 7.4852 127.1464 -19.4829 8.6338 3.6634
# 4 -11.1314 -7.9522 -19.4829 38.6837 -3.4307 -0.1887
# 5 11.3656 3.5163 8.6338 -3.4307 49.7762 -11.9361
# 6 0.3171 -0.1633 3.6634 -0.1887 -11.9361 24.0594
#
#
#
# Elastic Compliance Matrix: (Units=1/GPa)
#
#
# Indices 1 2 3 4 5 6 
#
# 1 0.015143 0.008230 -0.004371 0.003550 -0.003297 -0.001086
# 2 0.008230 0.052645 -0.003619 0.010958 -0.004543 -0.001368
# 3 -0.004371 -0.003619 0.009984 0.002955 -0.000710 -0.001816
# 4 0.003550 0.010958 0.002955 0.030609 -0.000036 -0.000200
# 5 -0.003297 -0.004543 -0.000710 -0.000036 0.024191 0.012122
# 6 -0.001086 -0.001368 -0.001816 -0.000200 0.012122 0.047858
#
#
# Mechanical properties :
#
#
# Convention : Reuss Voigt Hill
#
# Bulk Modulus (GPa) = 12.77902 34.99751 23.88827
# Shear Modulus (GPa) = 24.26793 35.64225 29.95509
#
# Velocity S-wave (km/s) = 3.16664 3.83764 3.51817
# Velocity P-wave (km/s) = 4.31862 5.83933 5.13557
#
# Compressibility (1/GPa) = 0.07825327
#
# Stress axis : x y z
#
# Youngs Moduli (GPa) = 66.03616 18.99509 100.16269
#
# Poissons Ratio (x) = -0.15634 0.43781
# Poissons Ratio (y) = -0.54350 0.36247
# Poissons Ratio (z) = 0.28864 0.06874
#
# Static dielectric constant tensor:
#      x y z
#    x 1.907480 -0.009830 0.010130 
#    y -0.009830 1.936560 0.031990 
#    z 0.010130 0.031990 1.956200 
# 
# From -- ./inp_files/219703.got.cif
#   From: 2010.05.17/outbox.cif.g08.bks.cpg/sg2_110_cif.got.tgz:219703.got - 2010.06.03 11:33:40.
