data_PCOD9004023
_publ_section_title
;
Structure prediction by ZEFSAII (Michael W. Deem and Ramdas Pophale) SiO2 
 PCOD9004023
Probable space group: P -1
;
_chemical_formula_sum "Si O2"
_cell_formula_units_Z 16
_cell_length_a 10.091998
_cell_length_b 8.445317
_cell_length_c 9.246726
_cell_angle_alpha 112.699780
_cell_angle_beta 98.993501
_cell_angle_gamma 57.174242
_cell_volume 609.536925
_symmetry_space_group_name_H-M "P -1"
_symmetry_group_IT_number 2
_symmetry_cell_setting 'triclinic'
loop_
_space_group_symop_operation_xyz
x,y,z
-x,-y,-z
loop_
_atom_site_type_symbol
_atom_site_label
_atom_site_fract_x
_atom_site_fract_y
_atom_site_fract_z
Si Si1 0.417018 0.770933 0.821825
Si Si2 0.481923 0.246001 0.458075
Si Si3 0.901736 0.656639 0.346527
Si Si4 0.072390 0.923343 0.196621
Si Si5 0.213246 0.632337 0.681288
Si Si6 0.316753 0.010483 0.340442
Si Si7 0.840930 0.799062 0.055822
Si Si8 0.792402 0.487829 0.766432
O O1 0.389705 0.788601 0.648828
O O2 0.322503 0.669322 0.823869
O O3 0.604498 0.624668 0.805780
O O4 0.327990 0.000681 0.938663
O O5 0.340775 0.475336 0.531817
O O6 0.409951 0.115124 0.339391
O O7 0.555015 0.172935 0.602954
O O8 0.855469 0.490638 0.299087
O O9 0.806586 0.828130 0.508600
O O10 0.853922 0.759138 0.216551
O O11 0.089403 0.551506 0.361102
O O12 0.154560 0.738829 0.259280
O O13 0.978318 0.845701 0.054936
O O14 0.215815 0.958013 0.199503
O O15 0.928754 0.141938 0.301931
O O16 0.851043 0.607154 0.918471
#
# Coordination Sequence:
#
# PCOD9004023 Si02
#       8
#     2   2   2   2   2   2   2   2
#     4  11  22  41  64  91 120 166 205 248 305 365
#     4  10  21  38  61  92 131 163 190 249 311 371
#     4  10  21  40  63  91 124 162 197 257 306 358
#     4  10  22  38  61  89 127 154 201 250 302 359
#     4  10  23  38  61  94 131 154 203 248 304 374
#     4  10  21  37  63  95 126 157 201 247 310 372
#     4  10  22  45  63  86 121 165 209 257 298 357
#     4  11  24  41  66  86 123 165 211 250 306 352
#
# _framework density 26.249434999999998
#
# number of rings (size 3 to 8) (size 9 to 14) (size 15 to 20)
#    0.000    1.750    1.250    3.000    3.500    3.000 
#    0.000    6.250    2.750    0.000    0.000    0.000 
#    0.000    0.000    0.000    0.000    0.000    0.000 
#
# Total GULP energy -89393.774437 kJ/mol
# GULP energy per Si atom -5587.110902 kJ/mol
# Density = 2.618969 g / cm^3
# Si number density = 26.249435 Si / 1000 Ang^3
#
#
#
# Elastic Constant Matrix: (Units=GPa)
#
#
# Indices 1 2 3 4 5 6 
#
# 1 171.1416 73.2611 28.5266 13.9932 27.9867 -8.6190
# 2 73.2611 130.1579 40.9615 37.4006 0.4646 -10.6214
# 3 28.5266 40.9615 63.6032 17.3164 2.8918 12.1069
# 4 13.9932 37.4006 17.3164 28.6891 2.0124 5.0842
# 5 27.9867 0.4646 2.8918 2.0124 34.4714 10.2581
# 6 -8.6190 -10.6214 12.1069 5.0842 10.2581 40.5315
#
#
#
# Elastic Compliance Matrix: (Units=1/GPa)
#
#
# Indices 1 2 3 4 5 6 
#
# 1 0.009975 -0.005933 -0.001925 0.004147 -0.008959 0.002889
# 2 -0.005933 0.019164 -0.005700 -0.020170 0.004148 0.006943
# 3 -0.001925 -0.005700 0.022945 -0.004085 0.002602 -0.008903
# 4 0.004147 -0.020170 -0.004085 0.063660 -0.003401 -0.010308
# 5 -0.008959 0.004148 0.002602 -0.003401 0.039533 -0.011174
# 6 0.002889 0.006943 -0.008903 -0.010308 -0.011174 0.033886
#
#
# Mechanical properties :
#
#
# Convention : Reuss Voigt Hill
#
# Bulk Modulus (GPa) = 40.04904 72.26680 56.15792
# Shear Modulus (GPa) = 22.26187 35.54864 28.90526
#
# Velocity S-wave (km/s) = 2.91536 3.68402 3.32200
# Velocity P-wave (km/s) = 5.15971 6.75919 6.01287
#
# Compressibility (1/GPa) = 0.02496939
#
# Stress axis : x y z
#
# Youngs Moduli (GPa) = 100.25007 52.18187 43.58292
#
# Poissons Ratio (x) = 0.30959 0.08388
# Poissons Ratio (y) = 0.59478 0.24840
# Poissons Ratio (z) = 0.19294 0.29741
#
# Static dielectric constant tensor:
#      x y z
#    x 2.056460 -0.046610 0.066330 
#    y -0.046610 2.084690 -0.082880 
#    z 0.066330 -0.082880 2.105900 
# 
# From -- ./inp_files/206789.got.cif
#   From: 2010.05.17/outbox.cif.g08.bks.cpg/sg2_104_cif.got.tgz:206789.got - 2010.06.03 11:33:40.
