data_PCOD9004061
_publ_section_title
;
Structure prediction by ZEFSAII (Michael W. Deem and Ramdas Pophale) SiO2 
 PCOD9004061
Probable space group: P -1
;
_chemical_formula_sum "Si O2"
_cell_formula_units_Z 16
_cell_length_a 9.146125
_cell_length_b 10.078844
_cell_length_c 12.388280
_cell_angle_alpha 112.888963
_cell_angle_beta 84.133845
_cell_angle_gamma 45.713077
_cell_volume 620.469757
_symmetry_space_group_name_H-M "P -1"
_symmetry_group_IT_number 2
_symmetry_cell_setting 'triclinic'
loop_
_space_group_symop_operation_xyz
x,y,z
-x,-y,-z
loop_
_atom_site_type_symbol
_atom_site_label
_atom_site_fract_x
_atom_site_fract_y
_atom_site_fract_z
Si Si1 0.572144 0.672387 0.595276
Si Si2 0.276624 0.480413 0.042534
Si Si3 0.705387 0.984994 0.762523
Si Si4 0.228162 0.922932 0.428196
Si Si5 0.371945 0.603009 0.876922
Si Si6 0.834902 0.235495 0.279169
Si Si7 0.763783 0.856917 0.321113
Si Si8 0.954874 0.509106 0.634671
O O1 0.719070 0.468395 0.424709
O O2 0.336860 0.759218 0.667329
O O3 0.754570 0.537949 0.644195
O O4 0.476666 0.913887 0.660594
O O5 0.462016 0.395784 0.093359
O O6 0.009911 0.658164 0.167778
O O7 0.260540 0.612229 0.992119
O O8 0.423143 0.235903 0.895241
O O9 0.814670 0.767867 0.754890
O O10 0.878846 0.986215 0.780644
O O11 0.761603 0.954171 0.620667
O O12 0.435389 0.655796 0.280459
O O13 0.265069 0.976434 0.552876
O O14 0.000000 0.000000 0.500000
O O15 0.174864 0.769651 0.849710
O O16 0.827488 0.689341 0.357110
O O17 0.000000 0.500000 0.500000
#
# Coordination Sequence:
#
# PCOD9004061 Si02
#       8
#     2   2   2   2   2   2   2   2
#     4  11  25  41  71 112 134 169 234 291 341 401
#     4  10  24  42  63  99 140 187 220 271 352 414
#     4  11  25  45  67  97 143 179 229 276 338 416
#     4  11  19  35  68  98 128 169 219 283 339 391
#     4  10  21  37  63  99 138 173 222 275 348 403
#     4  11  22  41  68 107 138 169 226 296 339 394
#     4  12  23  43  70  97 137 182 227 282 337 404
#     4  12  25  47  70 100 138 185 228 280 343 405
#
# _framework density 25.786912999999998
#
# number of rings (size 3 to 8) (size 9 to 14) (size 15 to 20)
#    0.000    1.000    5.000    1.500    5.250    1.500 
#    6.750    0.625    0.000    0.000    0.000    0.000 
#    0.000    0.000    0.000    0.000    0.000    0.000 
#
# Total GULP energy -89290.008016 kJ/mol
# GULP energy per Si atom -5580.625501 kJ/mol
# Density = 2.572822 g / cm^3
# Si number density = 25.786913 Si / 1000 Ang^3
#
#
#
# Elastic Constant Matrix: (Units=GPa)
#
#
# Indices 1 2 3 4 5 6 
#
# 1 60.5373 -3.1477 13.8907 3.6049 -11.9461 3.7695
# 2 -3.1477 59.8647 16.6446 15.4947 -6.4788 4.1398
# 3 13.8907 16.6446 129.7325 9.5419 -25.0936 3.6009
# 4 3.6049 15.4947 9.5419 47.0788 -5.5221 9.0219
# 5 -11.9461 -6.4788 -25.0936 -5.5221 33.6039 5.2647
# 6 3.7695 4.1398 3.6009 9.0219 5.2647 42.3338
#
#
#
# Elastic Compliance Matrix: (Units=1/GPa)
#
#
# Indices 1 2 3 4 5 6 
#
# 1 0.018327 0.002274 -0.000861 -0.000739 0.006572 -0.002441
# 2 0.002274 0.019107 -0.001791 -0.005624 0.002390 -0.001017
# 3 -0.000861 -0.001791 0.009338 -0.000227 0.006488 -0.001301
# 4 -0.000739 -0.005624 -0.000227 0.024541 0.003300 -0.005005
# 5 0.006572 0.002390 0.006488 0.003300 0.039029 -0.006928
# 6 -0.002441 -0.001017 -0.001301 -0.005005 -0.006928 0.025978
#
#
# Mechanical properties :
#
#
# Convention : Reuss Voigt Hill
#
# Bulk Modulus (GPa) = 21.73091 33.87887 27.80489
# Shear Modulus (GPa) = 32.80573 39.45309 36.12941
#
# Velocity S-wave (km/s) = 3.57064 3.91572 3.74715
# Velocity P-wave (km/s) = 5.04427 5.79744 5.43392
#
# Compressibility (1/GPa) = 0.04601739
#
# Stress axis : x y z
#
# Youngs Moduli (GPa) = 54.56308 52.33816 107.09062
#
# Poissons Ratio (x) = -0.11903 0.09219
# Poissons Ratio (y) = -0.12409 0.19176
# Poissons Ratio (z) = 0.04697 0.09372
#
# Static dielectric constant tensor:
#      x y z
#    x 2.112350 -0.006790 0.023530 
#    y -0.006790 2.251320 -0.002860 
#    z 0.023530 -0.002860 2.031840 
# 
# From -- ./inp_files/426178.got.cif
#   From: 2010.05.17/outbox.cif.g08.bks.cpg/sg2_214_cif.got.tgz:426178.got - 2010.06.03 11:33:40.
