data_PCOD9004105
_publ_section_title
;
Structure prediction by ZEFSAII (Michael W. Deem and Ramdas Pophale) SiO2 
 PCOD9004105
Probable space group: P -1
;
_chemical_formula_sum "Si O2"
_cell_formula_units_Z 14
_cell_length_a 6.910100
_cell_length_b 12.201493
_cell_length_c 21.989339
_cell_angle_alpha 27.268648
_cell_angle_beta 130.665321
_cell_angle_gamma 126.520297
_cell_volume 643.646836
_symmetry_space_group_name_H-M "P -1"
_symmetry_group_IT_number 2
_symmetry_cell_setting 'triclinic'
loop_
_space_group_symop_operation_xyz
x,y,z
-x,-y,-z
loop_
_atom_site_type_symbol
_atom_site_label
_atom_site_fract_x
_atom_site_fract_y
_atom_site_fract_z
Si Si1 0.612342 0.600140 0.880354
Si Si2 0.371163 0.732768 0.057999
Si Si3 0.741215 0.335184 0.377522
Si Si4 0.313620 0.449141 0.429561
Si Si5 0.458399 0.043525 0.568912
Si Si6 0.180124 0.325071 0.980808
Si Si7 0.713663 0.072998 0.885969
O O1 0.716066 0.397436 0.958578
O O2 0.307010 0.532308 0.861581
O O3 0.645112 0.852499 0.729593
O O4 0.733377 0.611263 0.965367
O O5 0.580832 0.557102 0.212766
O O6 0.123897 0.723207 0.055068
O O7 0.511440 0.979364 0.942123
O O8 0.601716 0.216586 0.465054
O O9 0.024802 0.427470 0.404641
O O10 0.734519 0.127997 0.426183
O O11 0.500000 0.500000 0.500000
O O12 0.363199 0.203985 0.525005
O O13 0.320077 0.660316 0.275824
O O14 0.317421 0.092303 0.099376
O O15 0.000000 0.000000 0.000000
#
# Coordination Sequence:
#
# PCOD9004105 Si02
#       7
#     2   2   2   2   2   2   2
#     4   9  20  39  60  96 124 152 208 260 309 378
#     4  10  21  38  65  90 120 163 210 255 312 369
#     4  10  23  42  64  98 122 163 222 264 306 388
#     4  12  26  43  65  93 132 172 207 262 325 374
#     4  10  23  41  67  90 128 167 208 265 320 372
#     4  10  21  37  64  90 125 162 201 260 314 362
#     4  11  24  41  60  90 126 161 214 251 299 384
#
# _framework density 21.751059999999999
#
# number of rings (size 3 to 8) (size 9 to 14) (size 15 to 20)
#    0.000    1.714    1.429    1.714    2.000    6.857 
#    0.000    0.000    0.000    0.000    0.000    0.000 
#    0.000    0.000    0.000    0.000    0.000    0.000 
#
# Total GULP energy -78171.396872 kJ/mol
# GULP energy per Si atom -5583.671205 kJ/mol
# Density = 2.170155 g / cm^3
# Si number density = 21.751060 Si / 1000 Ang^3
#
#
#
# Elastic Constant Matrix: (Units=GPa)
#
#
# Indices 1 2 3 4 5 6 
#
# 1 91.5607 45.7268 3.8058 9.0829 -0.4113 17.8987
# 2 45.7268 74.2580 19.4524 2.2195 3.6489 10.5380
# 3 3.8058 19.4524 71.0477 -5.9252 -17.2118 15.8904
# 4 9.0829 2.2195 -5.9252 23.5987 -7.1395 -2.4084
# 5 -0.4113 3.6489 -17.2118 -7.1395 29.4394 -5.7072
# 6 17.8987 10.5380 15.8904 -2.4084 -5.7072 40.4925
#
#
#
# Elastic Compliance Matrix: (Units=1/GPa)
#
#
# Indices 1 2 3 4 5 6 
#
# 1 0.018097 -0.010935 0.003264 -0.005526 0.000890 -0.006638
# 2 -0.010935 0.022614 -0.007897 -0.002228 -0.007959 0.000793
# 3 0.003264 -0.007897 0.021541 0.008820 0.014742 -0.005238
# 4 -0.005526 -0.002228 0.008820 0.053337 0.019350 0.005460
# 5 0.000890 -0.007959 0.014742 0.019350 0.049046 0.003957
# 6 -0.006638 0.000793 -0.005238 0.005460 0.003957 0.030362
#
#
# Mechanical properties :
#
#
# Convention : Reuss Voigt Hill
#
# Bulk Modulus (GPa) = 32.13925 41.64847 36.89386
# Shear Modulus (GPa) = 21.14109 29.89822 25.51965
#
# Velocity S-wave (km/s) = 3.12100 3.71153 3.42900
# Velocity P-wave (km/s) = 5.27215 6.12835 5.71630
#
# Compressibility (1/GPa) = 0.03111460
#
# Stress axis : x y z
#
# Youngs Moduli (GPa) = 55.25754 44.21974 46.42312
#
# Poissons Ratio (x) = 0.48356 -0.15152
# Poissons Ratio (y) = 0.60427 0.36662
# Poissons Ratio (z) = -0.18035 0.34922
#
# Static dielectric constant tensor:
#      x y z
#    x 1.787030 0.006620 -0.003110 
#    y 0.006620 1.873610 -0.017740 
#    z -0.003110 -0.017740 1.763920 
# 
# From -- ./inp_files/98709.got.cif
#   From: 2010.05.17/outbox.cif.g08.bks.cpg/sg2_50_cif.got.tgz:98709.got - 2010.06.03 11:33:40.
