data_PCOD9005613
_publ_section_title
;
Structure prediction by ZEFSAII (Michael W. Deem and Ramdas Pophale) SiO2 
 PCOD9005613
Probable space group: P -1
;
_chemical_formula_sum "Si O2"
_cell_formula_units_Z 13
_cell_length_a 20.926784
_cell_length_b 6.470949
_cell_length_c 6.470956
_cell_angle_alpha 108.460170
_cell_angle_beta 127.179702
_cell_angle_gamma 52.820169
_cell_volume 554.627889
_symmetry_space_group_name_H-M "P -1"
_symmetry_group_IT_number 2
_symmetry_cell_setting 'triclinic'
loop_
_space_group_symop_operation_xyz
x,y,z
-x,-y,-z
loop_
_atom_site_type_symbol
_atom_site_label
_atom_site_fract_x
_atom_site_fract_y
_atom_site_fract_z
Si Si1 0.223401 0.774344 0.155195
Si Si2 0.223401 0.344799 0.725653
Si Si3 0.442096 0.419687 0.503811
Si Si4 0.557903 0.003814 0.919685
Si Si5 0.000000 0.000000 0.500000
Si Si6 0.104291 0.685254 0.216929
Si Si7 0.104290 0.283072 0.814739
O O1 0.332826 0.654398 0.393393
O O2 0.164340 0.772707 0.232969
O O3 0.217853 0.584122 0.915874
O O4 0.176686 0.046015 0.034043
O O5 0.176689 0.465948 0.453983
O O6 0.164340 0.267028 0.727289
O O7 0.332827 0.106600 0.845605
O O8 0.500000 0.500000 0.500000
O O9 0.499999 0.281318 0.781314
O O10 0.435188 0.203689 0.296311
O O11 0.500000 0.000000 0.000000
O O12 0.974860 0.088380 0.722776
O O13 0.025137 0.222781 0.588373
O O14 0.069618 0.544759 0.955239
#
# Coordination Sequence:
#
# PCOD9005613 Si02
#       7
#     2   2   2   2   1   2   2
#     4  10  22  43  65  95 137 175 218 270 330 387
#     4  10  22  43  65  95 137 175 218 270 330 387
#     4  10  21  38  62  97 134 171 217 267 312 382
#     4  10  21  38  62  97 134 171 217 267 312 382
#     4  12  26  48  68 100 132 164 228 278 326 402
#     4  11  25  45  69  97 130 178 214 273 335 389
#     4  11  25  45  69  97 130 178 214 273 335 389
#
# _framework density 23.439138
#
# number of rings (size 3 to 8) (size 9 to 14) (size 15 to 20)
#    0.000    1.538    1.538    2.308    2.154    5.538 
#    0.000    0.000    0.000    0.000    0.000    0.000 
#    0.000    0.000    0.000    0.000    0.000    0.000 
#
# Total GULP energy -72583.983713 kJ/mol
# GULP energy per Si atom -5583.383363 kJ/mol
# Density = 2.338579 g / cm^3
# Si number density = 23.439138 Si / 1000 Ang^3
#
#
#
# Elastic Constant Matrix: (Units=GPa)
#
#
# Indices 1 2 3 4 5 6 
#
# 1 174.2452 59.7587 60.4248 -14.9181 -17.2995 11.9735
# 2 59.7587 105.8527 62.0370 -21.8294 0.3109 8.9372
# 3 60.4248 62.0370 110.5061 -23.6318 -13.1338 -2.2362
# 4 -14.9181 -21.8294 -23.6318 53.3168 14.0266 -13.1287
# 5 -17.2995 0.3109 -13.1338 14.0266 36.4022 1.0063
# 6 11.9735 8.9372 -2.2362 -13.1287 1.0063 33.3026
#
#
#
# Elastic Compliance Matrix: (Units=1/GPa)
#
#
# Indices 1 2 3 4 5 6 
#
# 1 0.008205 -0.003180 -0.002743 -0.002006 0.003798 -0.003186
# 2 -0.003180 0.016595 -0.007550 0.003487 -0.005658 -0.002271
# 3 -0.002743 -0.007550 0.016071 0.003856 0.002920 0.005524
# 4 -0.002006 0.003487 0.003856 0.026686 -0.010175 0.010872
# 5 0.003798 -0.005658 0.002920 -0.010175 0.034428 -0.004702
# 6 -0.003186 -0.002271 0.005524 0.010872 -0.004702 0.036582
#
#
# Mechanical properties :
#
#
# Convention : Reuss Voigt Hill
#
# Bulk Modulus (GPa) = 71.81565 83.89390 77.85478
# Shear Modulus (GPa) = 29.38486 38.49654 33.94070
#
# Velocity S-wave (km/s) = 3.54456 4.05706 3.80943
# Velocity P-wave (km/s) = 6.88894 7.60370 7.25513
#
# Compressibility (1/GPa) = 0.01392454
#
# Stress axis : x y z
#
# Youngs Moduli (GPa) = 121.87118 60.25994 62.22259
#
# Poissons Ratio (x) = 0.19164 0.17070
# Poissons Ratio (y) = 0.38759 0.46977
# Poissons Ratio (z) = 0.33434 0.45495
#
# Static dielectric constant tensor:
#      x y z
#    x 1.833250 -0.041940 0.044120 
#    y -0.041940 1.912980 -0.055830 
#    z 0.044120 -0.055830 1.906060 
# 
# From -- ./inp_files/4479.got.cif
#   From: 2010.05.17/outbox.cif.g08.bks.cpg/sg2_3_cif.got.tgz:4479.got - 2010.06.03 11:33:40.
