data_PCOD9005301
_publ_section_title
;
Structure prediction by ZEFSAII (Michael W. Deem and Ramdas Pophale) SiO2 
 PCOD9005301
Probable space group: P -1
;
_chemical_formula_sum "Si O2"
_cell_formula_units_Z 14
_cell_length_a 19.106036
_cell_length_b 8.388418
_cell_length_c 12.030354
_cell_angle_alpha 42.545961
_cell_angle_beta 46.931276
_cell_angle_gamma 79.877654
_cell_volume 713.277018
_symmetry_space_group_name_H-M "P -1"
_symmetry_group_IT_number 2
_symmetry_cell_setting 'triclinic'
loop_
_space_group_symop_operation_xyz
x,y,z
-x,-y,-z
loop_
_atom_site_type_symbol
_atom_site_label
_atom_site_fract_x
_atom_site_fract_y
_atom_site_fract_z
Si Si1 0.401451 0.141637 0.253780
Si Si2 0.867297 0.413331 0.195079
Si Si3 0.603134 0.659811 0.469535
Si Si4 0.375066 0.883740 0.635300
Si Si5 0.320118 0.098226 0.983446
Si Si6 0.683726 0.264082 0.646006
Si Si7 0.138831 0.216258 0.182806
O O1 0.249892 0.954451 0.521839
O O2 0.408927 0.944503 0.436719
O O3 0.411361 0.054779 0.163606
O O4 0.500000 0.500000 0.000000
O O5 0.821319 0.429506 0.356597
O O6 0.867321 0.635494 0.998155
O O7 0.000000 0.500000 0.000000
O O8 0.451781 0.421031 0.726150
O O9 0.668811 0.863791 0.180597
O O10 0.647294 0.468320 0.549087
O O11 0.640845 0.881466 0.419206
O O12 0.500000 0.000000 0.500000
O O13 0.248788 0.526441 0.975919
O O14 0.199507 0.059164 0.173401
O O15 0.316452 0.833091 0.179152
O O16 0.000000 0.000000 0.500000
#
# Coordination Sequence:
#
# PCOD9005301 Si02
#       7
#     2   2   2   2   2   2   2
#     4   9  20  35  58  90 121 152 212 254 304 363
#     4   9  19  36  61  87 121 162 209 251 299 368
#     4  11  22  38  62  89 137 154 211 259 313 376
#     4  11  22  39  62  92 125 161 206 268 310 358
#     4  11  21  37  63  92 122 172 200 256 316 375
#     4  10  21  38  61  91 126 165 206 251 321 367
#     4  11  22  40  64  92 122 166 217 252 310 383
#
# _framework density 19.627718999999999
#
# number of rings (size 3 to 8) (size 9 to 14) (size 15 to 20)
#    0.857    0.857    2.857    2.143    2.000    0.000 
#    0.000    0.714    0.000    4.286    0.000    0.000 
#    0.000    0.000    0.000    0.000    0.000    0.000 
#
# Total GULP energy -78006.500588 kJ/mol
# GULP energy per Si atom -5571.892899 kJ/mol
# Density = 1.958305 g / cm^3
# Si number density = 19.627719 Si / 1000 Ang^3
#
#
#
# Elastic Constant Matrix: (Units=GPa)
#
#
# Indices 1 2 3 4 5 6 
#
# 1 111.9698 24.4232 44.9307 10.4378 9.6845 -18.3051
# 2 24.4232 47.3897 13.7124 1.3618 9.7303 -10.9830
# 3 44.9307 13.7124 112.0674 13.6108 4.0038 -6.7686
# 4 10.4378 1.3618 13.6108 30.6815 0.8425 -2.0298
# 5 9.6845 9.7303 4.0038 0.8425 41.9255 8.7712
# 6 -18.3051 -10.9830 -6.7686 -2.0298 8.7712 27.8304
#
#
#
# Elastic Compliance Matrix: (Units=1/GPa)
#
#
# Indices 1 2 3 4 5 6 
#
# 1 0.012839 -0.003058 -0.003990 -0.001895 -0.003339 0.007182
# 2 -0.003058 0.027154 -0.001323 0.001359 -0.007785 0.010936
# 3 -0.003990 -0.001323 0.011050 -0.003554 0.000423 -0.000852
# 4 -0.001895 0.001359 -0.003554 0.034841 -0.000472 0.001115
# 5 -0.003339 -0.007785 0.000423 -0.000472 0.029427 -0.014475
# 6 0.007182 0.010936 -0.000852 0.001115 -0.014475 0.049407
#
#
# Mechanical properties :
#
#
# Convention : Reuss Voigt Hill
#
# Bulk Modulus (GPa) = 29.15356 48.61773 38.88564
# Shear Modulus (GPa) = 25.92115 32.64485 29.28300
#
# Velocity S-wave (km/s) = 3.63800 4.08266 3.86673
# Velocity P-wave (km/s) = 5.70371 6.85914 6.30794
#
# Compressibility (1/GPa) = 0.03430113
#
# Stress axis : x y z
#
# Youngs Moduli (GPa) = 77.89056 36.82690 90.49914
#
# Poissons Ratio (x) = 0.11260 0.36109
# Poissons Ratio (y) = 0.23816 0.11974
# Poissons Ratio (z) = 0.31078 0.04873
#
# Static dielectric constant tensor:
#      x y z
#    x 1.757440 0.043090 0.029820 
#    y 0.043090 1.748950 0.012170 
#    z 0.029820 0.012170 1.726210 
# 
# From -- ./inp_files/461803.got.cif
#   From: 2010.05.17/outbox.cif.g08.bks.cpg/sg2_231_cif.got.tgz:461803.got - 2010.06.03 11:33:40.
