data_PCOD9005377
_publ_section_title
;
Structure prediction by ZEFSAII (Michael W. Deem and Ramdas Pophale) SiO2 
 PCOD9005377
Probable space group: P -1
;
_chemical_formula_sum "Si O2"
_cell_formula_units_Z 14
_cell_length_a 9.588779
_cell_length_b 19.943553
_cell_length_c 19.311809
_cell_angle_alpha 19.500273
_cell_angle_beta 149.504539
_cell_angle_gamma 148.307943
_cell_volume 609.112786
_symmetry_space_group_name_H-M "P -1"
_symmetry_group_IT_number 2
_symmetry_cell_setting 'triclinic'
loop_
_space_group_symop_operation_xyz
x,y,z
-x,-y,-z
loop_
_atom_site_type_symbol
_atom_site_label
_atom_site_fract_x
_atom_site_fract_y
_atom_site_fract_z
Si Si1 0.550353 0.001040 0.102879
Si Si2 0.677469 0.997228 0.379523
Si Si3 0.717161 0.826047 0.063809
Si Si4 0.403335 0.675240 0.869572
Si Si5 0.911369 0.706241 0.964177
Si Si6 0.741689 0.427884 0.630116
Si Si7 0.281361 0.547298 0.664879
O O1 0.417149 0.766300 0.295178
O O2 0.380406 0.149022 0.924013
O O3 0.500000 0.000000 0.000000
O O4 0.879478 0.088897 0.173664
O O5 0.485114 0.767436 0.524767
O O6 0.535397 0.113835 0.146888
O O7 0.661486 0.123698 0.319941
O O8 0.000000 0.000000 0.500000
O O9 0.754413 0.606864 0.265747
O O10 0.000000 0.000000 0.000000
O O11 0.140491 0.491724 0.914923
O O12 0.607411 0.731079 0.835889
O O13 0.571314 0.571461 0.099195
O O14 0.073634 0.649237 0.156105
O O15 0.500000 0.500000 0.500000
O O16 0.983403 0.567712 0.550228
#
# Coordination Sequence:
#
# PCOD9005377 Si02
#       7
#     2   2   2   2   2   2   2
#     4  10  22  39  66  94 125 168 220 265 334 383
#     4  11  27  41  66  99 133 172 226 273 327 394
#     4  11  24  46  70  95 134 176 223 268 336 406
#     4   9  21  43  64  90 131 170 222 262 332 393
#     4   9  20  39  64  90 123 178 212 264 330 395
#     4  10  21  38  61  99 131 163 220 276 327 393
#     4  10  23  44  66  92 134 174 216 277 333 387
#
# _framework density 22.984248999999998
#
# number of rings (size 3 to 8) (size 9 to 14) (size 15 to 20)
#    0.000    2.000    1.429    0.000    8.000    4.000 
#    2.571    2.143    0.000    0.000    0.000    0.000 
#    0.000    0.000    0.000    0.000    0.000    0.000 
#
# Total GULP energy -78239.104814 kJ/mol
# GULP energy per Si atom -5588.507487 kJ/mol
# Density = 2.293194 g / cm^3
# Si number density = 22.984249 Si / 1000 Ang^3
#
#
#
# Elastic Constant Matrix: (Units=GPa)
#
#
# Indices 1 2 3 4 5 6 
#
# 1 128.8213 66.1624 39.1958 -20.7391 33.2000 5.2599
# 2 66.1624 178.4438 47.8130 -29.8830 28.8960 12.8961
# 3 39.1958 47.8130 84.3618 -7.5703 29.9221 9.4328
# 4 -20.7391 -29.8830 -7.5703 39.0502 -12.2906 7.5361
# 5 33.2000 28.8960 29.9221 -12.2906 36.4671 -0.4570
# 6 5.2599 12.8961 9.4328 7.5361 -0.4570 42.4431
#
#
#
# Elastic Compliance Matrix: (Units=1/GPa)
#
#
# Indices 1 2 3 4 5 6 
#
# 1 0.011520 -0.002420 -0.001274 0.002025 -0.006853 -0.000842
# 2 -0.002420 0.008301 -0.002656 0.004848 -0.000593 -0.002499
# 3 -0.001274 -0.002656 0.018622 -0.002620 -0.012934 -0.002848
# 4 0.002025 0.004848 -0.002620 0.033676 0.007726 -0.007038
# 5 -0.006853 -0.000593 -0.012934 0.007726 0.047385 0.003042
# 6 -0.000842 -0.002499 -0.002848 -0.007038 0.003042 0.026340
#
#
# Mechanical properties :
#
#
# Convention : Reuss Voigt Hill
#
# Bulk Modulus (GPa) = 38.84568 77.55213 58.19891
# Shear Modulus (GPa) = 29.91771 39.48910 34.70340
#
# Velocity S-wave (km/s) = 3.61177 4.14949 3.88993
# Velocity P-wave (km/s) = 5.85925 7.53474 6.74919
#
# Compressibility (1/GPa) = 0.02574289
#
# Stress axis : x y z
#
# Youngs Moduli (GPa) = 86.80668 120.46036 53.70094
#
# Poissons Ratio (x) = 0.29154 0.06842
# Poissons Ratio (y) = 0.21009 0.14261
# Poissons Ratio (z) = 0.11060 0.31990
#
# Static dielectric constant tensor:
#      x y z
#    x 1.915340 0.001700 -0.049720 
#    y 0.001700 1.852650 -0.007910 
#    z -0.049720 -0.007910 1.891510 
# 
# From -- ./inp_files/591773.got.cif
#   From: 2010.05.17/outbox.cif.g08.bks.cpg/sg2_296_cif.got.tgz:591773.got - 2010.06.03 11:33:40.
