data_PCOD9005773
_publ_section_title
;
Structure prediction by ZEFSAII (Michael W. Deem and Ramdas Pophale) SiO2 
 PCOD9005773
Probable space group: P -1
;
_chemical_formula_sum "Si O2"
_cell_formula_units_Z 16
_cell_length_a 25.926237
_cell_length_b 8.766508
_cell_length_c 7.964426
_cell_angle_alpha 113.864336
_cell_angle_beta 50.973824
_cell_angle_gamma 149.769908
_cell_volume 661.465027
_symmetry_space_group_name_H-M "P -1"
_symmetry_group_IT_number 2
_symmetry_cell_setting 'triclinic'
loop_
_space_group_symop_operation_xyz
x,y,z
-x,-y,-z
loop_
_atom_site_type_symbol
_atom_site_label
_atom_site_fract_x
_atom_site_fract_y
_atom_site_fract_z
Si Si1 0.526411 0.077024 0.682118
Si Si2 0.287000 0.138424 0.426721
Si Si3 0.511047 0.697638 0.470405
Si Si4 0.825173 0.783623 0.325686
Si Si5 0.694049 0.198619 0.811181
Si Si6 0.129567 0.803134 0.261342
Si Si7 0.203813 0.623415 0.953562
Si Si8 0.889978 0.877203 0.592620
O O1 0.484518 0.797638 0.693211
O O2 0.500000 0.000000 0.500000
O O3 0.676935 0.443018 0.543850
O O4 0.441885 0.025509 0.938622
O O5 0.418138 0.483385 0.402212
O O6 0.182348 0.049694 0.668568
O O7 0.293531 0.954698 0.370340
O O8 0.249345 0.064345 0.269529
O O9 0.500000 0.500000 0.500000
O O10 0.655163 0.044731 0.267642
O O11 0.849258 0.668891 0.123173
O O12 0.913979 0.966040 0.387272
O O13 0.761788 0.491233 0.701650
O O14 0.777963 0.353687 0.875665
O O15 0.000000 0.500000 0.500000
O O16 0.125514 0.967391 0.240862
O O17 0.136806 0.654037 0.067378
O O18 0.000000 0.000000 0.500000
#
# Coordination Sequence:
#
# PCOD9005773 Si02
#       8
#     2   2   2   2   2   2   2   2
#     4  11  20  41  61  91 132 166 205 251 310 380
#     4  10  21  38  63  93 122 172 205 249 315 369
#     4  11  23  37  61  94 136 164 207 258 307 374
#     4  10  21  42  65  90 130 168 209 250 315 380
#     4  11  22  37  66  93 129 164 208 258 315 368
#     4  10  23  45  68  89 124 165 215 261 309 374
#     4  10  21  42  65  93 125 173 204 250 324 377
#     4  11  25  43  63  95 125 160 213 273 305 365
#
# _framework density 24.188731000000001
#
# number of rings (size 3 to 8) (size 9 to 14) (size 15 to 20)
#    0.000    1.500    3.750    1.500    5.250    6.000 
#    0.000    7.500    0.000    0.000    0.000    0.000 
#    0.000    0.000    0.000    0.000    0.000    0.000 
#
# Total GULP energy -89230.463463 kJ/mol
# GULP energy per Si atom -5576.903966 kJ/mol
# Density = 2.413368 g / cm^3
# Si number density = 24.188731 Si / 1000 Ang^3
#
#
#
# Elastic Constant Matrix: (Units=GPa)
#
#
# Indices 1 2 3 4 5 6 
#
# 1 125.3878 31.6721 41.4238 8.1683 -34.4604 -24.9758
# 2 31.6721 98.2584 50.1992 17.4037 -22.0308 -20.7237
# 3 41.4238 50.1992 85.3707 19.2198 -41.8145 -16.2444
# 4 8.1683 17.4037 19.2198 44.4160 -13.6283 -19.4298
# 5 -34.4604 -22.0308 -41.8145 -13.6283 43.3808 14.9244
# 6 -24.9758 -20.7237 -16.2444 -19.4298 14.9244 57.4486
#
#
#
# Elastic Compliance Matrix: (Units=1/GPa)
#
#
# Indices 1 2 3 4 5 6 
#
# 1 0.010965 -0.001114 -0.001474 0.002374 0.006407 0.003087
# 2 -0.001114 0.015399 -0.009356 -0.001652 -0.003562 0.002792
# 3 -0.001474 -0.009356 0.028764 -0.002942 0.021748 -0.002528
# 4 0.002374 -0.001652 -0.002942 0.028978 0.004479 0.008241
# 5 0.006407 -0.003562 0.021748 0.004479 0.050020 -0.003830
# 6 0.003087 0.002792 -0.002528 0.008241 -0.003830 0.022823
#
#
# Mechanical properties :
#
#
# Convention : Reuss Voigt Hill
#
# Bulk Modulus (GPa) = 32.01048 61.73411 46.87229
# Shear Modulus (GPa) = 26.14373 41.43053 33.78713
#
# Velocity S-wave (km/s) = 3.29115 4.14309 3.74145
# Velocity P-wave (km/s) = 5.26352 6.96162 6.17126
#
# Compressibility (1/GPa) = 0.03123977
#
# Stress axis : x y z
#
# Youngs Moduli (GPa) = 91.20129 64.93979 34.76558
#
# Poissons Ratio (x) = 0.07235 0.05125
# Poissons Ratio (y) = 0.10161 0.32526
# Poissons Ratio (z) = 0.13444 0.60756
#
# Static dielectric constant tensor:
#      x y z
#    x 2.097620 -0.044130 -0.060980 
#    y -0.044130 2.014320 0.052750 
#    z -0.060980 0.052750 1.992300 
# 
# From -- ./inp_files/332225.got.cif
#   From: 2010.05.17/outbox.cif.g08.bks.cpg/sg2_167_cif.got.tgz:332225.got - 2010.06.03 11:33:40.
