data_PCOD9005825
_publ_section_title
;
Structure prediction by ZEFSAII (Michael W. Deem and Ramdas Pophale) SiO2 
 PCOD9005825
Probable space group: P -1
;
_chemical_formula_sum "Si O2"
_cell_formula_units_Z 16
_cell_length_a 14.337328
_cell_length_b 14.987772
_cell_length_c 9.055737
_cell_angle_alpha 125.980001
_cell_angle_beta 40.056686
_cell_angle_gamma 140.666943
_cell_volume 793.692665
_symmetry_space_group_name_H-M "P -1"
_symmetry_group_IT_number 2
_symmetry_cell_setting 'triclinic'
loop_
_space_group_symop_operation_xyz
x,y,z
-x,-y,-z
loop_
_atom_site_type_symbol
_atom_site_label
_atom_site_fract_x
_atom_site_fract_y
_atom_site_fract_z
Si Si1 0.286719 0.579983 0.679515
Si Si2 0.084681 0.048957 0.610228
Si Si3 0.838135 0.696747 0.071357
Si Si4 0.678358 0.831897 0.930053
Si Si5 0.334414 0.994050 0.130715
Si Si6 0.440667 0.359536 0.855425
Si Si7 0.067172 0.696641 0.013345
Si Si8 0.522173 0.403748 0.276074
O O1 0.420883 0.596518 0.406622
O O2 0.408403 0.657324 0.754996
O O3 0.124488 0.422653 0.784417
O O4 0.185069 0.641220 0.808349
O O5 0.172219 0.206896 0.704312
O O6 0.239217 0.027867 0.401799
O O7 0.000000 0.000000 0.500000
O O8 0.892256 0.943494 0.827910
O O9 0.769048 0.722072 0.030958
O O10 0.692220 0.526892 0.091488
O O11 0.023688 0.726134 0.932755
O O12 0.641060 0.713699 0.744745
O O13 0.621288 0.909818 0.974789
O O14 0.560624 0.742521 0.128227
O O15 0.177186 0.836844 0.111273
O O16 0.500000 0.000000 0.000000
O O17 0.500000 0.500000 0.000000
O O18 0.500000 0.500000 0.500000
#
# Coordination Sequence:
#
# PCOD9005825 Si02
#       8
#     2   2   2   2   2   2   2   2
#     4  10  23  39  67  96 128 165 221 269 320 384
#     4  10  21  38  63  95 127 161 219 271 309 377
#     4  11  21  38  64  90 126 172 210 265 314 382
#     4  11  23  40  62  99 130 165 214 268 323 390
#     4  11  23  38  66  95 131 163 220 270 328 370
#     4  12  25  41  66  98 136 168 212 264 332 386
#     4  10  22  41  64  96 124 171 220 272 317 375
#     4  11  18  33  67  92 119 162 222 264 311 362
#
# _framework density 20.158936000000001
#
# number of rings (size 3 to 8) (size 9 to 14) (size 15 to 20)
#    0.000    1.250    5.000    2.250    5.250    0.500 
#    0.000    2.500    0.000    0.000    0.000    0.000 
#    0.000    0.000    0.000    0.000    0.000    0.000 
#
# Total GULP energy -89103.824097 kJ/mol
# GULP energy per Si atom -5568.989006 kJ/mol
# Density = 2.011305 g / cm^3
# Si number density = 20.158936 Si / 1000 Ang^3
#
#
#
# Elastic Constant Matrix: (Units=GPa)
#
#
# Indices 1 2 3 4 5 6 
#
# 1 135.5333 35.3538 33.2366 2.5603 -19.1998 -11.8143
# 2 35.3538 106.5011 20.3588 2.7626 0.7121 4.4389
# 3 33.2366 20.3588 49.0864 -2.9541 -7.7733 -11.5170
# 4 2.5603 2.7626 -2.9541 27.9052 -4.8655 4.2975
# 5 -19.1998 0.7121 -7.7733 -4.8655 36.6820 0.7485
# 6 -11.8143 4.4389 -11.5170 4.2975 0.7485 36.2693
#
#
#
# Elastic Compliance Matrix: (Units=1/GPa)
#
#
# Indices 1 2 3 4 5 6 
#
# 1 0.009943 -0.002520 -0.004586 -0.000749 0.004139 0.002094
# 2 -0.002520 0.011217 -0.004202 -0.001252 -0.002525 -0.003328
# 3 -0.004586 -0.004202 0.027757 0.003313 0.003853 0.007363
# 4 -0.000749 -0.001252 0.003313 0.037887 0.005434 -0.003640
# 5 0.004139 -0.002525 0.003853 0.005434 0.030982 0.001598
# 6 0.002094 -0.003328 0.007363 -0.003640 0.001598 0.031397
#
#
# Mechanical properties :
#
#
# Convention : Reuss Voigt Hill
#
# Bulk Modulus (GPa) = 38.01956 52.11325 45.06640
# Shear Modulus (GPa) = 27.69065 33.64939 30.67002
#
# Velocity S-wave (km/s) = 3.71025 4.09002 3.90476
# Velocity P-wave (km/s) = 6.10373 6.94346 6.53709
#
# Compressibility (1/GPa) = 0.02630225
#
# Stress axis : x y z
#
# Youngs Moduli (GPa) = 100.57163 89.14740 36.02679
#
# Poissons Ratio (x) = 0.22462 0.16521
# Poissons Ratio (y) = 0.25341 0.15140
# Poissons Ratio (z) = 0.46119 0.37463
#
# Static dielectric constant tensor:
#      x y z
#    x 1.779920 -0.020760 -0.014920 
#    y -0.020760 1.764120 -0.039780 
#    z -0.014920 -0.039780 1.746450 
# 
# From -- ./inp_files/314094.got.cif
#   From: 2010.05.17/outbox.cif.g08.bks.cpg/sg2_158_cif.got.tgz:314094.got - 2010.06.03 11:33:40.
