data_PCOD9005218
_publ_section_title
;
Structure prediction by ZEFSAII (Michael W. Deem and Ramdas Pophale) SiO2 
 PCOD9005218
Probable space group: P -1
;
_chemical_formula_sum "Si O2"
_cell_formula_units_Z 14
_cell_length_a 15.573075
_cell_length_b 5.269646
_cell_length_c 9.058278
_cell_angle_alpha 123.227176
_cell_angle_beta 94.937740
_cell_angle_gamma 59.403948
_cell_volume 515.704033
_symmetry_space_group_name_H-M "P -1"
_symmetry_group_IT_number 2
_symmetry_cell_setting 'triclinic'
loop_
_space_group_symop_operation_xyz
x,y,z
-x,-y,-z
loop_
_atom_site_type_symbol
_atom_site_label
_atom_site_fract_x
_atom_site_fract_y
_atom_site_fract_z
Si Si1 0.108158 0.191906 0.052215
Si Si2 0.378315 0.386142 0.274519
Si Si3 0.579466 0.620301 0.055713
Si Si4 0.380834 0.327200 0.591166
Si Si5 0.188806 0.308652 0.548872
Si Si6 0.161982 0.655149 0.364220
Si Si7 0.878317 0.434288 0.053731
O O1 0.172502 0.184675 0.918555
O O2 0.148653 0.866530 0.071704
O O3 0.091846 0.556226 0.235290
O O4 0.000402 0.258511 0.006568
O O5 0.363228 0.531130 0.493328
O O6 0.282648 0.329904 0.247613
O O7 0.499974 0.062623 0.187352
O O8 0.365249 0.507520 0.137026
O O9 0.633850 0.516945 0.193064
O O10 0.500000 0.500000 0.000000
O O11 0.309495 0.165459 0.516474
O O12 0.500000 0.000000 0.500000
O O13 0.138576 0.618179 0.516830
O O14 0.151017 0.480929 0.755544
O O15 0.160541 0.010798 0.439677
#
# Coordination Sequence:
#
# PCOD9005218 Si02
#       7
#     2   2   2   2   2   2   2
#     4  10  22  41  66  94 128 170 199 276 317 381
#     4   9  22  39  54  91 121 161 219 266 320 390
#     4  10  21  38  61  88 116 169 222 268 324 390
#     4   9  21  41  59  86 127 169 208 273 324 370
#     4  11  24  42  62  97 124 172 216 262 321 400
#     4  11  24  40  65  91 131 168 211 266 325 380
#     4  10  22  41  65  96 129 161 219 252 329 388
#
# _framework density 27.147352999999999
#
# number of rings (size 3 to 8) (size 9 to 14) (size 15 to 20)
#    0.000    2.000    0.000    1.714    8.000    2.857 
#   12.857    0.000    0.000    0.000    0.000    0.000 
#    0.000    0.000    0.000    0.000    0.000    0.000 
#
# Total GULP energy -77940.992285 kJ/mol
# GULP energy per Si atom -5567.213735 kJ/mol
# Density = 2.708556 g / cm^3
# Si number density = 27.147353 Si / 1000 Ang^3
#
#
#
# Elastic Constant Matrix: (Units=GPa)
#
#
# Indices 1 2 3 4 5 6 
#
# 1 119.5749 69.4316 112.8596 -33.4275 13.9018 41.0970
# 2 69.4316 116.9931 32.2803 -22.3423 -4.7465 27.0465
# 3 112.8596 32.2803 288.7098 -104.3107 14.3731 33.2420
# 4 -33.4275 -22.3423 -104.3107 71.8465 1.6621 -12.5231
# 5 13.9018 -4.7465 14.3731 1.6621 51.8723 -4.9726
# 6 41.0970 27.0465 33.2420 -12.5231 -4.9726 63.7575
#
#
#
# Elastic Compliance Matrix: (Units=1/GPa)
#
#
# Indices 1 2 3 4 5 6 
#
# 1 0.028344 -0.013619 -0.011583 -0.009247 -0.006175 -0.008752
# 2 -0.013619 0.016442 0.005951 0.007412 0.003308 0.000415
# 3 -0.011583 0.005951 0.012602 0.014989 -0.000199 0.001300
# 4 -0.009247 0.007412 0.014989 0.033994 -0.001939 0.001527
# 5 -0.006175 0.003308 -0.000199 -0.001939 0.021736 0.003995
# 6 -0.008752 0.000415 0.001300 0.001527 0.003995 0.021083
#
#
# Mechanical properties :
#
#
# Convention : Reuss Voigt Hill
#
# Bulk Modulus (GPa) = 52.94945 106.04676 79.49810
# Shear Modulus (GPa) = 27.93325 58.20902 43.07113
#
# Velocity S-wave (km/s) = 3.21120 4.63556 3.98750
# Velocity P-wave (km/s) = 5.77026 8.23404 7.10969
#
# Compressibility (1/GPa) = 0.01888594
#
# Stress axis : x y z
#
# Youngs Moduli (GPa) = 35.28055 60.82131 79.35257
#
# Poissons Ratio (x) = 0.82830 0.91917
# Poissons Ratio (y) = 0.48047 -0.47223
# Poissons Ratio (z) = 0.40867 -0.36195
#
# Static dielectric constant tensor:
#      x y z
#    x 2.027320 -0.006740 0.038780 
#    y -0.006740 2.436720 0.104180 
#    z 0.038780 0.104180 2.195510 
# 
# From -- ./inp_files/289274.got.cif
#   From: 2010.05.17/outbox.cif.g08.bks.cpg/sg2_145_cif.got.tgz:289274.got - 2010.06.03 11:33:40.
