data_PCOD9005025
_publ_section_title
;
Structure prediction by ZEFSAII (Michael W. Deem and Ramdas Pophale) SiO2 
 PCOD9005025
Probable space group: P -1
;
_chemical_formula_sum "Si O2"
_cell_formula_units_Z 16
_cell_length_a 20.011823
_cell_length_b 8.678450
_cell_length_c 6.156272
_cell_angle_alpha 127.045306
_cell_angle_beta 63.696015
_cell_angle_gamma 127.659116
_cell_volume 670.793177
_symmetry_space_group_name_H-M "P -1"
_symmetry_group_IT_number 2
_symmetry_cell_setting 'triclinic'
loop_
_space_group_symop_operation_xyz
x,y,z
-x,-y,-z
loop_
_atom_site_type_symbol
_atom_site_label
_atom_site_fract_x
_atom_site_fract_y
_atom_site_fract_z
Si Si1 0.919277 0.976435 0.835837
Si Si2 0.489821 0.685593 0.802536
Si Si3 0.142123 0.621104 0.025203
Si Si4 0.801354 0.701651 0.110778
Si Si5 0.337340 0.518656 0.218945
Si Si6 0.755411 0.882855 0.714136
Si Si7 0.985161 0.666668 0.341114
Si Si8 0.571492 0.092734 0.286743
O O1 0.872718 0.927645 0.091343
O O2 0.842775 0.899466 0.704625
O O3 0.962051 0.819840 0.647040
O O4 0.986476 0.203956 0.824156
O O5 0.500000 0.500000 0.500000
O O6 0.457226 0.792230 0.757046
O O7 0.418565 0.586639 0.007830
O O8 0.569267 0.887394 0.984423
O O9 0.163865 0.439564 0.931681
O O10 0.064485 0.636173 0.273763
O O11 0.222232 0.864558 0.115308
O O12 0.101574 0.549704 0.781300
O O13 0.742696 0.543202 0.871727
O O14 0.745918 0.771662 0.401060
O O15 0.317001 0.294766 0.181972
O O16 0.350252 0.710222 0.532685
O O17 0.500000 0.000000 0.500000
#
# Coordination Sequence:
#
# PCOD9005025 Si02
#       8
#     2   2   2   2   2   2   2   2
#     4   9  19  37  62  84 117 165 205 275 330 374
#     4  10  21  42  73 104 128 156 214 258 304 373
#     4  10  21  38  60  87 121 162 216 272 307 382
#     4  11  22  40  60  86 125 171 216 255 312 387
#     4  10  22  42  65  88 135 179 199 255 319 373
#     4  10  21  42  57  83 128 167 213 259 317 374
#     4   9  18  39  60  87 120 158 214 276 337 359
#     4   9  20  41  67 100 132 161 198 255 306 371
#
# _framework density 23.852357999999999
#
# number of rings (size 3 to 8) (size 9 to 14) (size 15 to 20)
#    0.000    2.250    1.250    0.750    0.000    3.000 
#    9.000   16.250    0.000    0.000    0.000    0.000 
#    0.000    0.000    0.000    0.000    0.000    0.000 
#
# Total GULP energy -89319.546916 kJ/mol
# GULP energy per Si atom -5582.471682 kJ/mol
# Density = 2.379807 g / cm^3
# Si number density = 23.852358 Si / 1000 Ang^3
#
#
#
# Elastic Constant Matrix: (Units=GPa)
#
#
# Indices 1 2 3 4 5 6 
#
# 1 45.1564 12.2027 26.3383 13.9226 10.7038 1.7763
# 2 12.2027 106.6992 44.9443 -5.3446 7.9351 6.7472
# 3 26.3383 44.9443 115.1079 20.0934 12.7340 0.6963
# 4 13.9226 -5.3446 20.0934 46.9205 7.3520 3.9523
# 5 10.7038 7.9351 12.7340 7.3520 34.9237 13.7757
# 6 1.7763 6.7472 0.6963 3.9523 13.7757 25.0134
#
#
#
# Elastic Compliance Matrix: (Units=1/GPa)
#
#
# Indices 1 2 3 4 5 6 
#
# 1 0.028291 -0.001505 -0.004099 -0.006011 -0.006843 0.003229
# 2 -0.001505 0.012162 -0.005156 0.004335 0.000167 -0.003807
# 3 -0.004099 -0.005156 0.012728 -0.004709 -0.002605 0.003506
# 4 -0.006011 0.004335 -0.004709 0.026155 -0.001355 -0.003998
# 5 -0.006843 0.000167 -0.002605 -0.001355 0.040422 -0.021534
# 6 0.003229 -0.003807 0.003506 -0.003998 -0.021534 0.053170
#
#
# Mechanical properties :
#
#
# Convention : Reuss Voigt Hill
#
# Bulk Modulus (GPa) = 31.58641 48.21490 39.90066
# Shear Modulus (GPa) = 24.39000 33.60341 28.99671
#
# Velocity S-wave (km/s) = 3.20119 3.75748 3.49044
# Velocity P-wave (km/s) = 5.18986 6.25161 5.74532
#
# Compressibility (1/GPa) = 0.03165918
#
# Stress axis : x y z
#
# Youngs Moduli (GPa) = 35.34696 82.22569 78.56951
#
# Poissons Ratio (x) = 0.12378 0.32205
# Poissons Ratio (y) = 0.05321 0.40512
# Poissons Ratio (z) = 0.14488 0.42398
#
# Static dielectric constant tensor:
#      x y z
#    x 1.938530 0.056780 0.003980 
#    y 0.056780 1.947380 0.037920 
#    z 0.003980 0.037920 1.936830 
# 
# From -- ./inp_files/122993.got.cif
#   From: 2010.05.17/outbox.cif.g08.bks.cpg/sg2_62_cif.got.tgz:122993.got - 2010.06.03 11:33:40.
