data_PCOD9005587
_publ_section_title
;
Structure prediction by ZEFSAII (Michael W. Deem and Ramdas Pophale) SiO2 
 PCOD9005587
Probable space group: P -1
;
_chemical_formula_sum "Si O2"
_cell_formula_units_Z 16
_cell_length_a 18.967617
_cell_length_b 7.956394
_cell_length_c 5.743870
_cell_angle_alpha 74.611630
_cell_angle_beta 52.203340
_cell_angle_gamma 71.233181
_cell_volume 645.845733
_symmetry_space_group_name_H-M "P -1"
_symmetry_group_IT_number 2
_symmetry_cell_setting 'triclinic'
loop_
_space_group_symop_operation_xyz
x,y,z
-x,-y,-z
loop_
_atom_site_type_symbol
_atom_site_label
_atom_site_fract_x
_atom_site_fract_y
_atom_site_fract_z
Si Si1 0.691429 0.231829 0.894376
Si Si2 0.910143 0.483875 0.420444
Si Si3 0.516888 0.091586 0.183781
Si Si4 0.050266 0.209808 0.461349
Si Si5 0.775610 0.357388 0.069791
Si Si6 0.130433 0.925257 0.705401
Si Si7 0.652387 0.601323 0.601601
Si Si8 0.182008 0.231274 0.805560
O O1 0.786029 0.164974 0.594886
O O2 0.655036 0.442321 0.838426
O O3 0.619393 0.122483 0.989033
O O4 0.719050 0.224336 0.111724
O O5 0.953620 0.632741 0.403345
O O6 0.877649 0.570427 0.208263
O O7 0.977118 0.293585 0.382737
O O8 0.820108 0.464935 0.749720
O O9 0.448363 0.284010 0.259826
O O10 0.500000 0.000000 0.500000
O O11 0.500000 0.000000 0.000000
O O12 0.048997 0.028100 0.667740
O O13 0.148725 0.185436 0.142960
O O14 0.862862 0.236800 0.068235
O O15 0.703683 0.491521 0.319435
O O16 0.156981 0.086551 0.736365
O O17 0.715930 0.745882 0.455190
#
# Coordination Sequence:
#
# PCOD9005587 Si02
#       8
#     2   2   2   2   2   2   2   2
#     4  11  25  47  69  98 142 178 230 281 355 414
#     4  10  21  38  63  98 130 178 235 280 349 403
#     4  12  31  49  76 112 144 182 234 292 350 432
#     4  10  21  38  62  94 137 178 227 293 335 415
#     4  11  23  42  69  99 134 183 229 287 345 425
#     4  10  24  39  65  95 135 184 225 287 348 412
#     4  11  25  43  73  98 136 184 224 286 351 420
#     4  11  20  40  65  95 128 182 230 282 346 410
#
# _framework density 24.773714999999999
#
# number of rings (size 3 to 8) (size 9 to 14) (size 15 to 20)
#    0.000    1.250    2.500    2.250    8.750    1.000 
#    0.000    2.500    0.000    0.000    0.000    0.000 
#    0.000    0.000    0.000    0.000    0.000    0.000 
#
# Total GULP energy -89412.464424 kJ/mol
# GULP energy per Si atom -5588.279027 kJ/mol
# Density = 2.471733 g / cm^3
# Si number density = 24.773715 Si / 1000 Ang^3
#
#
#
# Elastic Constant Matrix: (Units=GPa)
#
#
# Indices 1 2 3 4 5 6 
#
# 1 74.1975 38.0558 12.0824 8.7258 3.2739 6.4629
# 2 38.0558 130.6473 22.3842 5.7350 26.5607 -11.3091
# 3 12.0824 22.3842 69.5141 -10.5886 13.5716 -11.2317
# 4 8.7258 5.7350 -10.5886 39.0175 -10.3611 7.2528
# 5 3.2739 26.5607 13.5716 -10.3611 24.6576 -1.5050
# 6 6.4629 -11.3091 -11.2317 7.2528 -1.5050 56.8433
#
#
#
# Elastic Compliance Matrix: (Units=1/GPa)
#
#
# Indices 1 2 3 4 5 6 
#
# 1 0.017125 -0.005542 -0.002850 -0.002072 0.004197 -0.003237
# 2 -0.005542 0.012937 -0.000559 -0.005417 -0.014961 0.003389
# 3 -0.002850 -0.000559 0.017411 0.002968 -0.007167 0.003085
# 4 -0.002072 -0.005417 0.002968 0.033279 0.018215 -0.004019
# 5 0.004197 -0.014961 -0.007167 0.018215 0.067382 -0.005410
# 6 -0.003237 0.003389 0.003085 -0.004019 -0.005410 0.019614
#
#
# Mechanical properties :
#
#
# Convention : Reuss Voigt Hill
#
# Bulk Modulus (GPa) = 33.81828 46.60042 40.20935
# Shear Modulus (GPa) = 25.57459 37.55945 31.56702
#
# Velocity S-wave (km/s) = 3.21647 3.89794 3.57349
# Velocity P-wave (km/s) = 5.24164 6.25379 5.76995
#
# Compressibility (1/GPa) = 0.02956980
#
# Stress axis : x y z
#
# Youngs Moduli (GPa) = 58.39483 77.29686 57.43611
#
# Poissons Ratio (x) = 0.42841 0.16368
# Poissons Ratio (y) = 0.32365 0.03212
# Poissons Ratio (z) = 0.16642 0.04322
#
# Static dielectric constant tensor:
#      x y z
#    x 2.028700 -0.029630 0.046080 
#    y -0.029630 1.944380 -0.036490 
#    z 0.046080 -0.036490 1.966200 
# 
# From -- ./inp_files/38222.got.cif
#   From: 2010.05.17/outbox.cif.g08.bks.cpg/sg2_20_cif.got.tgz:38222.got - 2010.06.03 11:33:40.
