data_PCOD9005609
_publ_section_title
;
Structure prediction by ZEFSAII (Michael W. Deem and Ramdas Pophale) SiO2 
 PCOD9005609
Probable space group: P -1
;
_chemical_formula_sum "Si O2"
_cell_formula_units_Z 16
_cell_length_a 7.800212
_cell_length_b 20.087196
_cell_length_c 5.182994
_cell_angle_alpha 78.866982
_cell_angle_beta 87.428082
_cell_angle_gamma 132.339974
_cell_volume 571.584906
_symmetry_space_group_name_H-M "P -1"
_symmetry_group_IT_number 2
_symmetry_cell_setting 'triclinic'
loop_
_space_group_symop_operation_xyz
x,y,z
-x,-y,-z
loop_
_atom_site_type_symbol
_atom_site_label
_atom_site_fract_x
_atom_site_fract_y
_atom_site_fract_z
Si Si1 0.834567 0.991754 0.233857
Si Si2 0.436717 0.216119 0.598210
Si Si3 0.719139 0.309553 0.030384
Si Si4 0.668871 0.439547 0.925510
Si Si5 0.274634 0.969530 0.279654
Si Si6 0.681538 0.583060 0.628005
Si Si7 0.188944 0.265997 0.806434
Si Si8 0.229382 0.829843 0.712543
O O1 0.634519 0.880210 0.374065
O O2 0.890718 0.037497 0.480152
O O3 0.749668 0.027782 0.025165
O O4 0.000000 0.000000 0.000000
O O5 0.512865 0.269630 0.283719
O O6 0.217067 0.200950 0.723525
O O7 0.627103 0.268655 0.779339
O O8 0.833003 0.416595 0.933432
O O9 0.799530 0.259961 0.185443
O O10 0.493194 0.420423 0.176711
O O11 0.796788 0.545959 0.763965
O O12 0.462591 0.359227 0.797805
O O13 0.524216 0.077826 0.237839
O O14 0.249779 0.883724 0.418867
O O15 0.500000 0.500000 0.500000
O O16 0.866837 0.685416 0.410059
O O17 0.012678 0.214794 0.092967
#
# Coordination Sequence:
#
# PCOD9005609 Si02
#       8
#     2   2   2   2   2   2   2   2
#     4  12  23  42  67  92 124 169 230 280 319 380
#     4  11  21  40  60  91 123 165 221 268 313 375
#     4  11  22  41  63  90 127 171 208 263 321 381
#     4   9  19  36  65  94 125 167 212 267 318 387
#     4  11  26  44  62  93 132 181 215 270 340 380
#     4   9  17  36  64  94 126 158 213 266 324 374
#     4  10  21  38  62  97 126 169 218 267 320 391
#     4  11  24  44  63  92 137 175 216 269 332 395
#
# _framework density 27.992339999999999
#
# number of rings (size 3 to 8) (size 9 to 14) (size 15 to 20)
#    0.000    1.500    3.750    1.125    0.000    5.000 
#    6.750    0.625    0.000    6.750    0.000    0.000 
#    0.000    0.000    0.000    0.000    0.000    0.000 
#
# Total GULP energy -89339.402413 kJ/mol
# GULP energy per Si atom -5583.712651 kJ/mol
# Density = 2.792863 g / cm^3
# Si number density = 27.992340 Si / 1000 Ang^3
#
#
#
# Elastic Constant Matrix: (Units=GPa)
#
#
# Indices 1 2 3 4 5 6 
#
# 1 88.9723 38.3464 3.4964 6.2532 8.0158 -50.8823
# 2 38.3464 203.8595 39.9815 -11.8523 24.5751 -44.6804
# 3 3.4964 39.9815 119.3841 -1.4789 16.5015 -13.8400
# 4 6.2532 -11.8523 -1.4789 51.0215 -14.2081 5.3055
# 5 8.0158 24.5751 16.5015 -14.2081 41.6244 -5.5061
# 6 -50.8823 -44.6804 -13.8400 5.3055 -5.5061 62.0763
#
#
#
# Elastic Compliance Matrix: (Units=1/GPa)
#
#
# Indices 1 2 3 4 5 6 
#
# 1 0.023289 -0.000354 0.002267 -0.006208 -0.004721 0.019452
# 2 -0.000354 0.006385 -0.001337 0.000390 -0.002542 0.003749
# 3 0.002267 -0.001337 0.009567 -0.001614 -0.003614 0.002846
# 4 -0.006208 0.000390 -0.001614 0.023516 0.008786 -0.006398
# 5 -0.004721 -0.002542 -0.003614 0.008786 0.030261 -0.004572
# 6 0.019452 0.003749 0.002846 -0.006398 -0.004572 0.035527
#
#
# Mechanical properties :
#
#
# Convention : Reuss Voigt Hill
#
# Bulk Modulus (GPa) = 24.75669 63.98495 44.37082
# Shear Modulus (GPa) = 35.49675 52.97056 44.23366
#
# Velocity S-wave (km/s) = 3.56489 4.35480 3.97949
# Velocity P-wave (km/s) = 5.08014 6.94215 6.08281
#
# Compressibility (1/GPa) = 0.04039312
#
# Stress axis : x y z
#
# Youngs Moduli (GPa) = 42.93920 156.61961 104.52313
#
# Poissons Ratio (x) = 0.05542 -0.23696
# Poissons Ratio (y) = 0.01519 0.13976
# Poissons Ratio (z) = -0.09735 0.20942
#
# Static dielectric constant tensor:
#      x y z
#    x 2.595750 -0.029070 0.020520 
#    y -0.029070 2.165850 0.026890 
#    z 0.020520 0.026890 2.177970 
# 
# From -- ./inp_files/51154.got.cif
#   From: 2010.05.17/outbox.cif.g08.bks.cpg/sg2_26_cif.got.tgz:51154.got - 2010.06.03 11:33:40.
