data_PCOD9005580
_publ_section_title
;
Structure prediction by ZEFSAII (Michael W. Deem and Ramdas Pophale) SiO2 
 PCOD9005580
Probable space group: P -1
;
_chemical_formula_sum "Si O2"
_cell_formula_units_Z 16
_cell_length_a 16.373902
_cell_length_b 23.556902
_cell_length_c 6.215456
_cell_angle_alpha 129.507655
_cell_angle_beta 61.721105
_cell_angle_gamma 158.549587
_cell_volume 614.041648
_symmetry_space_group_name_H-M "P -1"
_symmetry_group_IT_number 2
_symmetry_cell_setting 'triclinic'
loop_
_space_group_symop_operation_xyz
x,y,z
-x,-y,-z
loop_
_atom_site_type_symbol
_atom_site_label
_atom_site_fract_x
_atom_site_fract_y
_atom_site_fract_z
Si Si1 0.783591 0.393177 0.593776
Si Si2 0.367040 0.476802 0.880363
Si Si3 0.527830 0.128550 0.615166
Si Si4 0.174577 0.101532 0.719624
Si Si5 0.627890 0.356247 0.283537
Si Si6 0.084985 0.709764 0.319127
Si Si7 0.773542 0.645507 0.747120
Si Si8 0.111001 0.989894 0.932051
O O1 0.575970 0.187164 0.452971
O O2 0.670045 0.357891 0.467706
O O3 0.000000 0.500000 0.500000
O O4 0.920871 0.548784 0.959384
O O5 0.538647 0.529451 0.784997
O O6 0.258678 0.401448 0.588399
O O7 0.548583 0.680380 0.158758
O O8 0.225732 0.376904 0.048336
O O9 0.736221 0.221542 0.638589
O O10 0.266618 0.903515 0.462300
O O11 0.582637 0.245646 0.947867
O O12 0.123412 0.991053 0.659142
O O13 0.000000 0.000000 0.500000
O O14 0.115035 0.121932 0.015253
O O15 0.876811 0.580346 0.438666
O O16 0.380525 0.218459 0.210307
O O17 0.044672 0.880210 0.928593
#
# Coordination Sequence:
#
# PCOD9005580 Si02
#       8
#     2   2   2   2   2   2   2   2
#     4  11  19  36  63  93 124 167 214 254 316 382
#     4   9  19  35  62  87 115 153 209 261 314 387
#     4  10  21  38  63  92 126 166 215 261 317 381
#     4  10  23  40  64  88 118 163 211 264 326 392
#     4  11  22  42  61  89 132 168 207 266 320 383
#     4  10  21  38  62  94 127 165 211 265 312 382
#     4   9  19  36  59  88 117 155 203 262 318 383
#     4  10  24  40  61  88 122 163 210 264 327 389
#
# _framework density 26.056864999999998
#
# number of rings (size 3 to 8) (size 9 to 14) (size 15 to 20)
#    0.000    2.000    2.500    0.750   10.500    3.500 
#    2.250    0.000    0.000    0.000    0.000    0.000 
#    0.000    0.000    0.000    0.000    0.000    0.000 
#
# Total GULP energy -89158.685721 kJ/mol
# GULP energy per Si atom -5572.417858 kJ/mol
# Density = 2.599756 g / cm^3
# Si number density = 26.056865 Si / 1000 Ang^3
#
#
#
# Elastic Constant Matrix: (Units=GPa)
#
#
# Indices 1 2 3 4 5 6 
#
# 1 70.2699 73.7594 40.9424 -19.6330 53.7001 -12.8977
# 2 73.7594 233.4095 74.0917 -3.4627 23.8320 -49.9873
# 3 40.9424 74.0917 105.8051 -20.5080 8.6139 -10.9220
# 4 -19.6330 -3.4627 -20.5080 40.2946 2.1110 7.8859
# 5 53.7001 23.8320 8.6139 2.1110 15.7222 -6.8330
# 6 -12.8977 -49.9873 -10.9220 7.8859 -6.8330 61.7600
#
#
#
# Elastic Compliance Matrix: (Units=1/GPa)
#
#
# Indices 1 2 3 4 5 6 
#
# 1 -0.007357 0.000017 -0.000202 -0.005509 0.026875 0.002118
# 2 0.000017 0.007371 -0.004609 -0.002301 -0.006334 0.004748
# 3 -0.000202 -0.004609 0.014081 0.007258 -0.002073 -0.002438
# 4 -0.005509 -0.002301 0.007258 0.025619 0.013356 -0.003523
# 5 0.026875 -0.006334 -0.002073 0.013356 -0.020941 -0.003903
# 6 0.002118 0.004748 -0.002438 -0.003523 -0.003903 0.020064
#
#
# Mechanical properties :
#
#
# Convention : Reuss Voigt Hill
#
# Bulk Modulus (GPa) = 221.86236 87.45239 154.65738
# Shear Modulus (GPa) = 100.14907 38.26809 69.20858
#
# Velocity S-wave (km/s) = 6.20631 3.83644 5.15929
# Velocity P-wave (km/s) = 11.69136 7.29790 9.74544
#
# Compressibility (1/GPa) = 0.00450730
#
# Stress axis : x y z
#
# Youngs Moduli (GPa) = -135.91712 135.66211 71.01969
#
# Poissons Ratio (x) = -0.00231 0.01434
# Poissons Ratio (y) = 0.00231 0.32731
# Poissons Ratio (z) = -0.02744 0.62522
#
# Static dielectric constant tensor:
#      x y z
#    x 1.813660 -0.099150 0.102640 
#    y -0.099150 2.136180 -0.071400 
#    z 0.102640 -0.071400 2.029840 
# 
# From -- ./inp_files/120740.got.cif
#   From: 2010.05.17/outbox.cif.g08.bks.cpg/sg2_61_cif.got.tgz:120740.got - 2010.06.03 11:33:40.
