data_PCOD9005806
_publ_section_title
;
Structure prediction by ZEFSAII (Michael W. Deem and Ramdas Pophale) SiO2 
 PCOD9005806
Probable space group: P -1
;
_chemical_formula_sum "Si O2"
_cell_formula_units_Z 16
_cell_length_a 9.853868
_cell_length_b 12.136241
_cell_length_c 12.141030
_cell_angle_alpha 60.747243
_cell_angle_beta 123.942042
_cell_angle_gamma 135.906976
_cell_volume 828.423355
_symmetry_space_group_name_H-M "P -1"
_symmetry_group_IT_number 2
_symmetry_cell_setting 'triclinic'
loop_
_space_group_symop_operation_xyz
x,y,z
-x,-y,-z
loop_
_atom_site_type_symbol
_atom_site_label
_atom_site_fract_x
_atom_site_fract_y
_atom_site_fract_z
Si Si1 0.883422 0.119322 0.814628
Si Si2 0.681793 0.807195 0.982474
Si Si3 0.596183 0.657086 0.242099
Si Si4 0.706033 0.524619 0.623190
Si Si5 0.971790 0.856891 0.494563
Si Si6 0.651597 0.955053 0.575766
Si Si7 0.959960 0.446412 0.636565
Si Si8 0.583464 0.376277 0.259526
O O1 0.886252 0.269520 0.718475
O O2 0.725678 0.976145 0.896638
O O3 0.815654 0.025983 0.714464
O O4 0.105818 0.172345 0.923660
O O5 0.563680 0.693053 0.879812
O O6 0.587341 0.743554 0.090908
O O7 0.383370 0.568843 0.257555
O O8 0.795525 0.773327 0.357426
O O9 0.613989 0.524844 0.261452
O O10 0.500000 0.500000 0.500000
O O11 0.887129 0.714181 0.612257
O O12 0.799119 0.463997 0.613123
O O13 0.000000 0.000000 0.500000
O O14 0.201540 0.944043 0.509128
O O15 0.512551 0.764052 0.623126
O O16 0.500000 0.000000 0.500000
O O17 0.199804 0.568420 0.721483
O O18 0.000000 0.500000 0.500000
#
# Coordination Sequence:
#
# PCOD9005806 Si02
#       8
#     2   2   2   2   2   2   2   2
#     4  10  21  38  63  94 127 162 207 261 305 365
#     4  10  21  40  65  93 125 164 216 253 306 371
#     4  11  21  41  61  89 121 166 208 258 306 366
#     4  10  23  39  60  89 126 165 205 253 315 379
#     4  11  22  38  56  86 123 161 203 248 311 371
#     4  11  21  35  58  93 125 156 198 259 316 362
#     4  12  22  39  64  95 128 161 206 264 316 365
#     4  11  22  36  66  95 119 162 213 259 306 372
#
# _framework density 19.313796
#
# number of rings (size 3 to 8) (size 9 to 14) (size 15 to 20)
#    0.000    1.250    2.500    4.875    0.000    3.000 
#    0.000    1.250    0.000    0.000    0.000    0.000 
#    0.000    0.000    0.000    0.000    0.000    0.000 
#
# Total GULP energy -89134.466724 kJ/mol
# GULP energy per Si atom -5570.904170 kJ/mol
# Density = 1.926984 g / cm^3
# Si number density = 19.313796 Si / 1000 Ang^3
#
#
#
# Elastic Constant Matrix: (Units=GPa)
#
#
# Indices 1 2 3 4 5 6 
#
# 1 149.9151 57.3745 38.3653 -15.5823 -15.1888 18.9002
# 2 57.3745 133.7530 51.1721 -21.9667 -9.0806 -0.6051
# 3 38.3653 51.1721 86.8747 -15.3903 -14.4879 -0.2450
# 4 -15.5823 -21.9667 -15.3903 51.9776 11.5239 -5.9433
# 5 -15.1888 -9.0806 -14.4879 11.5239 31.8453 -12.1333
# 6 18.9002 -0.6051 -0.2450 -5.9433 -12.1333 27.2927
#
#
#
# Elastic Compliance Matrix: (Units=1/GPa)
#
#
# Indices 1 2 3 4 5 6 
#
# 1 0.009273 -0.003136 -0.002257 0.000041 0.000011 -0.006497
# 2 -0.003136 0.011057 -0.004702 0.002751 -0.000415 0.002789
# 3 -0.002257 -0.004702 0.016611 0.001368 0.006466 0.004780
# 4 0.000041 0.002751 0.001368 0.022368 -0.005773 0.002349
# 5 0.000011 -0.000415 0.006466 -0.005773 0.043168 0.017975
# 6 -0.006497 0.002789 0.004780 0.002349 0.017975 0.049747
#
#
# Mechanical properties :
#
#
# Convention : Reuss Voigt Hill
#
# Bulk Modulus (GPa) = 59.69721 73.81852 66.75786
# Shear Modulus (GPa) = 28.09038 37.13185 32.61111
#
# Velocity S-wave (km/s) = 3.81782 4.38945 4.11358
# Velocity P-wave (km/s) = 7.10004 7.99958 7.56320
#
# Compressibility (1/GPa) = 0.01675120
#
# Stress axis : x y z
#
# Youngs Moduli (GPa) = 107.84281 90.44123 60.20017
#
# Poissons Ratio (x) = 0.28363 0.13587
# Poissons Ratio (y) = 0.33820 0.28305
# Poissons Ratio (z) = 0.24340 0.42524
#
# Static dielectric constant tensor:
#      x y z
#    x 1.673800 0.027260 -0.008400 
#    y 0.027260 1.753590 -0.020730 
#    z -0.008400 -0.020730 1.732840 
# 
# From -- ./inp_files/389535.got.cif
#   From: 2010.05.17/outbox.cif.g08.bks.cpg/sg2_195_cif.got.tgz:389535.got - 2010.06.03 11:33:40.
