data_PCOD9005010
_publ_section_title
;
Structure prediction by ZEFSAII (Michael W. Deem and Ramdas Pophale) SiO2 
 PCOD9005010
Probable space group: P -1
;
_chemical_formula_sum "Si O2"
_cell_formula_units_Z 16
_cell_length_a 9.282736
_cell_length_b 10.828871
_cell_length_c 15.292095
_cell_angle_alpha 73.798057
_cell_angle_beta 37.685698
_cell_angle_gamma 95.282246
_cell_volume 763.560580
_symmetry_space_group_name_H-M "P -1"
_symmetry_group_IT_number 2
_symmetry_cell_setting 'triclinic'
loop_
_space_group_symop_operation_xyz
x,y,z
-x,-y,-z
loop_
_atom_site_type_symbol
_atom_site_label
_atom_site_fract_x
_atom_site_fract_y
_atom_site_fract_z
Si Si1 0.078678 0.171194 0.675815
Si Si2 0.381700 0.609415 0.545260
Si Si3 0.838549 0.377978 0.784841
Si Si4 0.037184 0.080802 0.092360
Si Si5 0.468771 0.151256 0.728665
Si Si6 0.706289 0.597620 0.753499
Si Si7 0.247179 0.297414 0.103285
Si Si8 0.976644 0.116975 0.547715
O O1 0.954365 0.278349 0.714452
O O2 0.978704 0.076120 0.654762
O O3 0.414490 0.270414 0.504198
O O4 0.963752 0.061246 0.835995
O O5 0.500000 0.500000 0.500000
O O6 0.433521 0.711863 0.414133
O O7 0.052462 0.489652 0.734588
O O8 0.835923 0.494715 0.693479
O O9 0.516473 0.280681 0.986548
O O10 0.045951 0.180448 0.150277
O O11 0.307342 0.170446 0.883475
O O12 0.763320 0.003117 0.179284
O O13 0.715648 0.131661 0.646430
O O14 0.847621 0.697616 0.754309
O O15 0.758034 0.713085 0.630584
O O16 0.396115 0.468423 0.957706
O O17 0.000000 0.000000 0.500000
#
# Coordination Sequence:
#
# PCOD9005010 Si02
#       8
#     2   2   2   2   2   2   2   2
#     4  10  22  35  57  89 112 148 199 235 285 340
#     4   9  18  37  59  89 113 142 188 243 291 338
#     4   9  17  35  61  81 109 148 185 243 284 332
#     4  10  21  38  60  87 113 151 193 241 287 342
#     4  10  21  39  59  85 119 150 194 238 291 336
#     4   9  20  36  55  83 110 151 187 232 283 344
#     4   9  18  35  56  83 109 150 191 226 282 349
#     4  12  24  39  56  85 121 156 193 238 284 342
#
# _framework density 20.954460999999998
#
# number of rings (size 3 to 8) (size 9 to 14) (size 15 to 20)
#    0.750    1.500    1.250    1.500    0.000    5.500 
#    2.250    1.875    0.000    1.500    0.000    0.000 
#    0.000    0.000    0.000    0.000    0.000    0.000 
#
# Total GULP energy -89111.535976 kJ/mol
# GULP energy per Si atom -5569.470998 kJ/mol
# Density = 2.090677 g / cm^3
# Si number density = 20.954461 Si / 1000 Ang^3
#
#
#
# Elastic Constant Matrix: (Units=GPa)
#
#
# Indices 1 2 3 4 5 6 
#
# 1 80.0095 10.0980 16.5728 2.0015 4.1078 9.7125
# 2 10.0980 52.0000 -3.2280 -3.8254 2.5808 12.7233
# 3 16.5728 -3.2280 46.1610 -4.1065 -1.1703 5.1641
# 4 2.0015 -3.8254 -4.1065 21.0072 1.5799 4.4394
# 5 4.1078 2.5808 -1.1703 1.5799 19.0884 -0.9892
# 6 9.7125 12.7233 5.1641 4.4394 -0.9892 25.4599
#
#
#
# Elastic Compliance Matrix: (Units=1/GPa)
#
#
# Indices 1 2 3 4 5 6 
#
# 1 0.014470 -0.002385 -0.005276 -0.001969 -0.003109 -0.003035
# 2 -0.002385 0.024221 0.004783 0.008794 -0.003914 -0.013850
# 3 -0.005276 0.004783 0.025367 0.007695 0.001054 -0.006823
# 4 -0.001969 0.008794 0.007695 0.054468 -0.005575 -0.014918
# 5 -0.003109 -0.003914 0.001054 -0.005575 0.054424 0.006015
# 6 -0.003035 -0.013850 -0.006823 -0.014918 0.006015 0.051576
#
#
# Mechanical properties :
#
#
# Convention : Reuss Voigt Hill
#
# Bulk Modulus (GPa) = 17.15291 25.00623 21.07957
# Shear Modulus (GPa) = 20.02280 23.42628 21.72454
#
# Velocity S-wave (km/s) = 3.09453 3.34722 3.22335
# Velocity P-wave (km/s) = 4.57949 5.18633 4.89233
#
# Compressibility (1/GPa) = 0.05829916
#
# Stress axis : x y z
#
# Youngs Moduli (GPa) = 69.10944 41.28692 39.42189
#
# Poissons Ratio (x) = 0.09848 0.20800
# Poissons Ratio (y) = 0.16485 -0.18854
# Poissons Ratio (z) = 0.36464 -0.19746
#
# Static dielectric constant tensor:
#      x y z
#    x 1.770730 0.026530 -0.023430 
#    y 0.026530 1.769600 -0.026640 
#    z -0.023430 -0.026640 1.779820 
# 
# From -- ./inp_files/500245.got.cif
#   From: 2010.05.17/outbox.cif.g08.bks.cpg/sg2_251_cif.got.tgz:500245.got - 2010.06.03 11:33:40.
