data_PCOD9005370
_publ_section_title
;
Structure prediction by ZEFSAII (Michael W. Deem and Ramdas Pophale) SiO2 
 PCOD9005370
Probable space group: P -1
;
_chemical_formula_sum "Si O2"
_cell_formula_units_Z 16
_cell_length_a 17.792468
_cell_length_b 10.201881
_cell_length_c 11.486536
_cell_angle_alpha 126.223111
_cell_angle_beta 23.104229
_cell_angle_gamma 126.657646
_cell_volume 650.536852
_symmetry_space_group_name_H-M "P -1"
_symmetry_group_IT_number 2
_symmetry_cell_setting 'triclinic'
loop_
_space_group_symop_operation_xyz
x,y,z
-x,-y,-z
loop_
_atom_site_type_symbol
_atom_site_label
_atom_site_fract_x
_atom_site_fract_y
_atom_site_fract_z
Si Si1 0.688446 0.471974 0.605116
Si Si2 0.604036 0.884057 0.373851
Si Si3 0.776241 0.341010 0.193517
Si Si4 0.335209 0.572335 0.844544
Si Si5 0.576036 0.260212 0.858986
Si Si6 0.029250 0.642080 0.712683
Si Si7 0.568987 0.910137 0.716783
Si Si8 0.011901 0.891494 0.090364
O O1 0.812157 0.477078 0.313525
O O2 0.584867 0.296763 0.722533
O O3 0.853272 0.503291 0.486777
O O4 0.541252 0.597096 0.865077
O O5 0.457603 0.713218 0.474464
O O6 0.578157 0.910305 0.561973
O O7 0.500000 0.000000 0.500000
O O8 0.835215 0.938362 0.054468
O O9 0.790773 0.383264 0.062021
O O10 0.894297 0.200166 0.988315
O O11 0.500000 0.500000 0.500000
O O12 0.433404 0.739263 0.853777
O O13 0.186548 0.438773 0.056973
O O14 0.806130 0.275475 0.567481
O O15 0.489231 0.080716 0.938013
O O16 0.017636 0.771431 0.904712
O O17 0.790869 0.907988 0.435062
#
# Coordination Sequence:
#
# PCOD9005370 Si02
#       8
#     2   2   2   2   2   2   2   2
#     4   8  17  34  55  78 100 142 181 213 247 303
#     4   9  16  27  45  75 105 127 164 221 263 294
#     4   9  19  32  51  78 108 133 171 216 269 314
#     4  11  22  34  50  84 111 135 163 222 276 312
#     4   9  17  32  56  78 102 139 181 214 243 314
#     4   9  17  33  51  78 104 135 172 211 262 309
#     4  11  19  30  51  80 106 135 174 213 266 310
#     4  10  17  28  49  78 104 133 168 217 265 310
#
# _framework density 24.59507
#
# number of rings (size 3 to 8) (size 9 to 14) (size 15 to 20)
#    0.750    1.750    2.500    1.125    0.000    2.000 
#    0.000    0.625    0.000    3.750    0.000    0.000 
#    0.000    0.000    0.000    0.000    0.000    0.000 
#
# Total GULP energy -89071.542278 kJ/mol
# GULP energy per Si atom -5566.971392 kJ/mol
# Density = 2.453909 g / cm^3
# Si number density = 24.595070 Si / 1000 Ang^3
#
#
#
# Elastic Constant Matrix: (Units=GPa)
#
#
# Indices 1 2 3 4 5 6 
#
# 1 60.6565 -3.3214 10.3491 5.8800 -17.0753 -9.7007
# 2 -3.3214 121.5399 42.5771 -10.0566 -9.9229 -12.4295
# 3 10.3491 42.5771 108.7605 -2.0172 -15.1467 -6.2039
# 4 5.8800 -10.0566 -2.0172 43.0611 -1.7947 -4.4663
# 5 -17.0753 -9.9229 -15.1467 -1.7947 37.4530 4.3759
# 6 -9.7007 -12.4295 -6.2039 -4.4663 4.3759 25.2768
#
#
#
# Elastic Compliance Matrix: (Units=1/GPa)
#
#
# Indices 1 2 3 4 5 6 
#
# 1 0.020479 0.002323 -0.001291 -0.001233 0.008554 0.006986
# 2 0.002323 0.010501 -0.003726 0.002585 0.001841 0.005278
# 3 -0.001291 -0.003726 0.011181 -0.000058 0.002955 -0.000106
# 4 -0.001233 0.002585 -0.000058 0.024540 0.000691 0.005000
# 5 0.008554 0.001841 0.002955 0.000691 0.032383 -0.000570
# 6 0.006986 0.005278 -0.000106 0.005000 -0.000570 0.045795
#
#
# Mechanical properties :
#
#
# Convention : Reuss Voigt Hill
#
# Bulk Modulus (GPa) = 27.19562 43.35184 35.27373
# Shear Modulus (GPa) = 30.76484 37.24831 34.00658
#
# Velocity S-wave (km/s) = 3.54058 3.89583 3.72245
# Velocity P-wave (km/s) = 5.27215 6.15639 5.73135
#
# Compressibility (1/GPa) = 0.03677062
#
# Stress axis : x y z
#
# Youngs Moduli (GPa) = 48.83133 95.23288 89.44066
#
# Poissons Ratio (x) = -0.22119 0.11546
# Poissons Ratio (y) = -0.11342 0.33328
# Poissons Ratio (z) = 0.06304 0.35487
#
# Static dielectric constant tensor:
#      x y z
#    x 2.076130 0.046640 0.006280 
#    y 0.046640 2.127130 -0.032870 
#    z 0.006280 -0.032870 1.982700 
# 
# From -- ./inp_files/540974.got.cif
#   From: 2010.05.17/outbox.cif.g08.bks.cpg/sg2_271_cif.got.tgz:540974.got - 2010.06.03 11:33:40.
