data_PCOD9005151
_publ_section_title
;
Structure prediction by ZEFSAII (Michael W. Deem and Ramdas Pophale) SiO2 
 PCOD9005151
Probable space group: P -1
;
_chemical_formula_sum "Si O2"
_cell_formula_units_Z 16
_cell_length_a 6.491151
_cell_length_b 26.676905
_cell_length_c 18.687920
_cell_angle_alpha 18.797922
_cell_angle_beta 43.608533
_cell_angle_gamma 43.844295
_cell_volume 709.842991
_symmetry_space_group_name_H-M "P -1"
_symmetry_group_IT_number 2
_symmetry_cell_setting 'triclinic'
loop_
_space_group_symop_operation_xyz
x,y,z
-x,-y,-z
loop_
_atom_site_type_symbol
_atom_site_label
_atom_site_fract_x
_atom_site_fract_y
_atom_site_fract_z
Si Si1 0.975519 0.000393 0.386673
Si Si2 0.538791 0.246827 0.689567
Si Si3 0.874719 0.978985 0.156285
Si Si4 0.750694 0.248390 0.232439
Si Si5 0.145357 0.170612 0.483041
Si Si6 0.048735 0.489483 0.749559
Si Si7 0.426535 0.264326 0.535648
Si Si8 0.618526 0.764674 0.098240
O O1 0.778179 0.938746 0.457900
O O2 0.141486 0.846828 0.594382
O O3 0.830424 0.122074 0.318801
O O4 0.197810 0.097748 0.157054
O O5 0.760631 0.377885 0.452820
O O6 0.363917 0.257589 0.644939
O O7 0.351371 0.270473 0.777761
O O8 0.768629 0.081439 0.860916
O O9 0.814455 0.936392 0.311198
O O10 0.709187 0.869054 0.294266
O O11 0.728494 0.157474 0.934934
O O12 0.386604 0.289632 0.268644
O O13 0.939375 0.385715 0.980589
O O14 0.791437 0.241892 0.468709
O O15 0.256466 0.380676 0.787309
O O16 0.746598 0.573954 0.671955
#
# Coordination Sequence:
#
# PCOD9005151 Si02
#       8
#     2   2   2   2   2   2   2   2
#     4  10  21  38  60  97 123 150 203 253 309 355
#     4  10  23  41  64  88 123 167 200 243 307 366
#     4  10  21  41  63  93 123 153 206 258 299 354
#     4  10  21  38  62  89 127 158 195 257 298 358
#     4  11  19  38  64  88 124 159 200 248 308 358
#     4  10  24  42  59  90 128 161 201 246 302 364
#     4  10  22  42  58  88 130 158 205 245 296 372
#     4  11  20  42  65  91 124 156 201 260 302 352
#
# _framework density 22.540196000000002
#
# number of rings (size 3 to 8) (size 9 to 14) (size 15 to 20)
#    0.000    1.750    2.500    1.125    0.000    2.500 
#    9.000    8.750    0.000    0.000    0.000    0.000 
#    0.000    0.000    0.000    0.000    0.000    0.000 
#
# Total GULP energy -89455.388290 kJ/mol
# GULP energy per Si atom -5590.961768 kJ/mol
# Density = 2.248889 g / cm^3
# Si number density = 22.540196 Si / 1000 Ang^3
#
#
#
# Elastic Constant Matrix: (Units=GPa)
#
#
# Indices 1 2 3 4 5 6 
#
# 1 109.8314 27.5634 53.8543 17.3687 5.8047 14.7607
# 2 27.5634 45.6707 25.7317 2.3567 1.5867 13.4946
# 3 53.8543 25.7317 108.1188 11.5321 3.2914 4.9436
# 4 17.3687 2.3567 11.5321 41.4744 -2.5932 8.6234
# 5 5.8047 1.5867 3.2914 -2.5932 19.2523 6.6482
# 6 14.7607 13.4946 4.9436 8.6234 6.6482 36.8560
#
#
#
# Elastic Compliance Matrix: (Units=1/GPa)
#
#
# Indices 1 2 3 4 5 6 
#
# 1 0.013805 -0.004589 -0.005204 -0.003890 -0.002820 -0.001732
# 2 -0.004589 0.030113 -0.004952 0.003928 0.003773 -0.010123
# 3 -0.005204 -0.004952 0.013136 -0.001877 -0.001504 0.002846
# 4 -0.003890 0.003928 -0.001877 0.028085 0.007565 -0.007564
# 5 -0.002820 0.003773 -0.001504 0.007565 0.057999 -0.012282
# 6 -0.001732 -0.010123 0.002846 -0.007564 -0.012282 0.035136
#
#
# Mechanical properties :
#
#
# Convention : Reuss Voigt Hill
#
# Bulk Modulus (GPa) = 36.28019 53.10219 44.69119
# Shear Modulus (GPa) = 23.04652 29.94799 26.49725
#
# Velocity S-wave (km/s) = 3.20107 3.64902 3.43236
# Velocity P-wave (km/s) = 5.45831 6.43147 5.96477
#
# Compressibility (1/GPa) = 0.02756325
#
# Stress axis : x y z
#
# Youngs Moduli (GPa) = 72.43541 33.20841 76.12792
#
# Poissons Ratio (x) = 0.15240 0.39620
# Poissons Ratio (y) = 0.33243 0.37697
# Poissons Ratio (z) = 0.37698 0.16444
#
# Static dielectric constant tensor:
#      x y z
#    x 1.813730 -0.031930 -0.021340 
#    y -0.031930 1.900420 0.028570 
#    z -0.021340 0.028570 1.825410 
# 
# From -- ./inp_files/475990.got.cif
#   From: 2010.05.17/outbox.cif.g08.bks.cpg/sg2_238_cif.got.tgz:475990.got - 2010.06.03 11:33:40.
