data_PCOD9005599
_publ_section_title
;
Structure prediction by ZEFSAII (Michael W. Deem and Ramdas Pophale) SiO2 
 PCOD9005599
Probable space group: P -1
;
_chemical_formula_sum "Si O2"
_cell_formula_units_Z 16
_cell_length_a 17.427237
_cell_length_b 9.496524
_cell_length_c 5.441268
_cell_angle_alpha 101.258932
_cell_angle_beta 96.568875
_cell_angle_gamma 48.945973
_cell_volume 665.888253
_symmetry_space_group_name_H-M "P -1"
_symmetry_group_IT_number 2
_symmetry_cell_setting 'triclinic'
loop_
_space_group_symop_operation_xyz
x,y,z
-x,-y,-z
loop_
_atom_site_type_symbol
_atom_site_label
_atom_site_fract_x
_atom_site_fract_y
_atom_site_fract_z
Si Si1 0.973502 0.359259 0.186175
Si Si2 0.674195 0.021463 0.268601
Si Si3 0.841496 0.723834 0.564875
Si Si4 0.393209 0.184311 0.920547
Si Si5 0.391803 0.712123 0.059967
Si Si6 0.477457 0.252996 0.581014
Si Si7 0.878944 0.379490 0.643081
Si Si8 0.312923 0.562053 0.313430
O O1 0.912493 0.580456 0.313897
O O2 0.946943 0.290009 0.388920
O O3 0.089955 0.266347 0.222699
O O4 0.938454 0.338135 0.905820
O O5 0.556439 0.160529 0.356946
O O6 0.750581 0.924726 0.490126
O O7 0.686289 0.848548 0.098785
O O8 0.679730 0.151040 0.140417
O O9 0.815210 0.602771 0.635968
O O10 0.415713 0.193595 0.644891
O O11 0.353090 0.378156 0.098862
O O12 0.500000 0.000000 0.000000
O O13 0.442521 0.799352 0.199277
O O14 0.330893 0.685936 0.215956
O O15 0.500000 0.500000 0.000000
O O16 0.388478 0.469763 0.543894
O O17 0.801380 0.342046 0.628251
#
# Coordination Sequence:
#
# PCOD9005599 Si02
#       8
#     2   2   2   2   2   2   2   2
#     4   9  20  40  65  95 128 160 201 274 327 388
#     4  12  24  39  60  96 125 165 208 265 319 382
#     4   9  21  36  64  93 127 159 206 263 333 378
#     4  12  22  37  56  86 126 158 203 267 315 366
#     4  12  24  44  56  82 130 177 217 255 304 380
#     4  12  23  38  61  85 124 170 216 260 313 376
#     4  10  21  38  62  96 121 161 210 261 322 382
#     4  12  25  38  63  85 124 172 216 257 313 383
#
# _framework density 24.028054999999998
#
# number of rings (size 3 to 8) (size 9 to 14) (size 15 to 20)
#    0.750    0.250    5.000    2.625    3.500    1.000 
#    0.000    0.000    0.000    1.500    0.000    0.000 
#    0.000    0.000    0.000    0.000    0.000    0.000 
#
# Total GULP energy -89265.736616 kJ/mol
# GULP energy per Si atom -5579.108538 kJ/mol
# Density = 2.397337 g / cm^3
# Si number density = 24.028055 Si / 1000 Ang^3
#
#
#
# Elastic Constant Matrix: (Units=GPa)
#
#
# Indices 1 2 3 4 5 6 
#
# 1 117.9014 33.7129 23.5723 -38.8037 -2.5846 8.8822
# 2 33.7129 59.5625 25.5094 -31.3708 2.2814 11.0465
# 3 23.5723 25.5094 90.9480 -37.8644 -0.8263 4.4026
# 4 -38.8037 -31.3708 -37.8644 47.8918 2.1921 -4.6817
# 5 -2.5846 2.2814 -0.8263 2.1921 41.3229 -18.2813
# 6 8.8822 11.0465 4.4026 -4.6817 -18.2813 26.3597
#
#
#
# Elastic Compliance Matrix: (Units=1/GPa)
#
#
# Indices 1 2 3 4 5 6 
#
# 1 0.012007 -0.002091 0.001455 0.009325 -0.000543 -0.002133
# 2 -0.002091 0.030176 -0.000272 0.016774 -0.009574 -0.015556
# 3 0.001455 -0.000272 0.016590 0.014035 -0.000860 -0.001251
# 4 0.009325 0.016774 0.014035 0.050028 -0.006235 -0.007955
# 5 -0.000543 -0.009574 -0.000860 -0.006235 0.038139 0.029682
# 6 -0.002133 -0.015556 -0.001251 -0.007955 0.029682 0.064556
#
#
# Mechanical properties :
#
#
# Convention : Reuss Voigt Hill
#
# Bulk Modulus (GPa) = 17.55730 48.22234 32.88982
# Shear Modulus (GPa) = 21.52415 35.48937 28.50676
#
# Velocity S-wave (km/s) = 2.99623 3.84734 3.44815
# Velocity P-wave (km/s) = 4.39234 6.31259 5.43790
#
# Compressibility (1/GPa) = 0.05695638
#
# Stress axis : x y z
#
# Youngs Moduli (GPa) = 83.28752 33.13910 60.27654
#
# Poissons Ratio (x) = 0.06931 -0.08772
# Poissons Ratio (y) = 0.17418 0.01640
# Poissons Ratio (z) = -0.12121 0.00902
#
# Static dielectric constant tensor:
#      x y z
#    x 1.885010 0.031710 0.035500 
#    y 0.031710 1.945850 0.118040 
#    z 0.035500 0.118040 2.152990 
# 
# From -- ./inp_files/106930.got.cif
#   From: 2010.05.17/outbox.cif.g08.bks.cpg/sg2_54_cif.got.tgz:106930.got - 2010.06.03 11:33:40.
