data_PCOD9005451
_publ_section_title
;
Structure prediction by ZEFSAII (Michael W. Deem and Ramdas Pophale) SiO2 
 PCOD9005451
Probable space group: P -1
;
_chemical_formula_sum "Si O2"
_cell_formula_units_Z 16
_cell_length_a 11.677859
_cell_length_b 8.411460
_cell_length_c 20.110860
_cell_angle_alpha 33.232912
_cell_angle_beta 129.424924
_cell_angle_gamma 123.325838
_cell_volume 835.513360
_symmetry_space_group_name_H-M "P -1"
_symmetry_group_IT_number 2
_symmetry_cell_setting 'triclinic'
loop_
_space_group_symop_operation_xyz
x,y,z
-x,-y,-z
loop_
_atom_site_type_symbol
_atom_site_label
_atom_site_fract_x
_atom_site_fract_y
_atom_site_fract_z
Si Si1 0.018129 0.829062 0.634607
Si Si2 0.232729 0.387328 0.667735
Si Si3 0.341199 0.127314 0.917537
Si Si4 0.312232 0.811134 0.819541
Si Si5 0.089014 0.842864 0.390464
Si Si6 0.346997 0.179823 0.062088
Si Si7 0.014297 0.837779 0.877894
Si Si8 0.093385 0.833482 0.148935
O O1 0.949189 0.503404 0.734767
O O2 0.193192 0.815989 0.716087
O O3 0.954095 0.019503 0.603724
O O4 0.000000 0.000000 0.500000
O O5 0.315376 0.404731 0.762669
O O6 0.232146 0.655180 0.522278
O O7 0.053845 0.346728 0.625013
O O8 0.285797 0.092063 0.756688
O O9 0.190901 0.934339 0.910837
O O10 0.337730 0.173942 0.979604
O O11 0.500000 0.000000 0.000000
O O12 0.481204 0.822565 0.855655
O O13 0.287077 0.490495 0.955133
O O14 0.083867 0.095096 0.246597
O O15 0.258330 0.910542 0.156689
O O16 0.941713 0.007081 0.851803
O O17 0.000000 0.500000 0.000000
O O18 0.000000 0.000000 0.000000
#
# Coordination Sequence:
#
# PCOD9005451 Si02
#       8
#     2   2   2   2   2   2   2   2
#     4  11  24  40  65  92 123 164 213 257 311 375
#     4   9  19  35  58  86 118 154 205 250 296 362
#     4  11  21  36  61  91 121 160 202 254 305 364
#     4  10  21  38  62  89 124 162 204 250 310 371
#     4   9  21  36  59  86 117 158 204 254 303 359
#     4  11  23  38  61  93 130 162 205 257 317 366
#     4  11  24  38  63  90 123 159 205 256 316 366
#     4  12  23  40  61  93 128 161 208 263 308 364
#
# _framework density 19.149902000000001
#
# number of rings (size 3 to 8) (size 9 to 14) (size 15 to 20)
#    0.000    1.500    3.750    0.750   12.250    0.000 
#    0.000    0.625    0.000    1.500    0.000    0.000 
#    0.000    0.000    0.000    0.000    0.000    0.000 
#
# Total GULP energy -89106.876536 kJ/mol
# GULP energy per Si atom -5569.179783 kJ/mol
# Density = 1.910632 g / cm^3
# Si number density = 19.149902 Si / 1000 Ang^3
#
#
#
# Elastic Constant Matrix: (Units=GPa)
#
#
# Indices 1 2 3 4 5 6 
#
# 1 78.2677 47.9217 59.6987 9.0174 -9.1350 -7.0486
# 2 47.9217 85.7724 65.4409 -4.5424 -6.5018 -3.5177
# 3 59.6987 65.4409 170.4765 4.1426 -11.9184 -5.3001
# 4 9.0174 -4.5424 4.1426 35.3221 -0.6728 4.4895
# 5 -9.1350 -6.5018 -11.9184 -0.6728 31.0424 1.3241
# 6 -7.0486 -3.5177 -5.3001 4.4895 1.3241 36.6345
#
#
#
# Elastic Compliance Matrix: (Units=1/GPa)
#
#
# Indices 1 2 3 4 5 6 
#
# 1 0.023445 -0.010215 -0.003786 -0.007277 0.002988 0.003766
# 2 -0.010215 0.021273 -0.004793 0.006074 -0.000201 -0.001353
# 3 -0.003786 -0.004793 0.009151 -0.000719 0.001372 0.000174
# 4 -0.007277 0.006074 -0.000719 0.031638 -0.000255 -0.004789
# 5 0.002988 -0.000201 0.001372 -0.000255 0.033591 -0.000429
# 6 0.003766 -0.001353 0.000174 -0.004789 -0.000429 0.028519
#
#
# Mechanical properties :
#
#
# Convention : Reuss Voigt Hill
#
# Bulk Modulus (GPa) = 61.41982 75.62658 68.52320
# Shear Modulus (GPa) = 26.22865 31.36347 28.79606
#
# Velocity S-wave (km/s) = 3.70489 4.05135 3.88199
# Velocity P-wave (km/s) = 7.10242 7.83978 7.48019
#
# Compressibility (1/GPa) = 0.01628139
#
# Stress axis : x y z
#
# Youngs Moduli (GPa) = 42.65288 47.00684 109.28356
#
# Poissons Ratio (x) = 0.48015 0.41378
# Poissons Ratio (y) = 0.43568 0.52379
# Poissons Ratio (z) = 0.16150 0.22530
#
# Static dielectric constant tensor:
#      x y z
#    x 1.707450 0.006160 -0.043470 
#    y 0.006160 1.706850 -0.017280 
#    z -0.043470 -0.017280 1.814000 
# 
# From -- ./inp_files/593358.got.cif
#   From: 2010.05.17/outbox.cif.g08.bks.cpg/sg2_297_cif.got.tgz:593358.got - 2010.06.03 11:33:40.
