data_PCOD9005457
_publ_section_title
;
Structure prediction by ZEFSAII (Michael W. Deem and Ramdas Pophale) SiO2 
 PCOD9005457
Probable space group: P -1
;
_chemical_formula_sum "Si O2"
_cell_formula_units_Z 14
_cell_length_a 14.420501
_cell_length_b 13.516532
_cell_length_c 10.766719
_cell_angle_alpha 125.754257
_cell_angle_beta 125.975618
_cell_angle_gamma 21.474346
_cell_volume 616.690143
_symmetry_space_group_name_H-M "P -1"
_symmetry_group_IT_number 2
_symmetry_cell_setting 'triclinic'
loop_
_space_group_symop_operation_xyz
x,y,z
-x,-y,-z
loop_
_atom_site_type_symbol
_atom_site_label
_atom_site_fract_x
_atom_site_fract_y
_atom_site_fract_z
Si Si1 0.061969 0.771390 0.156740
Si Si2 0.105326 0.157359 0.288376
Si Si3 0.998341 0.588165 0.810712
Si Si4 0.494114 0.970291 0.828049
Si Si5 0.734960 0.169312 0.638246
Si Si6 0.435233 0.443131 0.831395
Si Si7 0.403316 0.785539 0.691933
O O1 0.086188 0.889120 0.217542
O O2 0.330997 0.497689 0.239491
O O3 0.037254 0.684307 0.976266
O O4 0.821361 0.990117 0.219692
O O5 0.074528 0.318234 0.321693
O O6 0.837284 0.346967 0.193417
O O7 0.158889 0.063600 0.403230
O O8 0.346049 0.865237 0.195555
O O9 0.258450 0.265895 0.797075
O O10 0.761937 0.749663 0.813036
O O11 0.449282 0.869398 0.720262
O O12 0.500000 0.000000 0.000000
O O13 0.475524 0.429142 0.705752
O O14 0.687950 0.217302 0.491132
O O15 0.500000 0.500000 0.000000
#
# Coordination Sequence:
#
# PCOD9005457 Si02
#       7
#     2   2   2   2   2   2   2
#     4  12  24  39  69  96 131 167 215 263 324 385
#     4  10  24  40  63  97 128 166 209 264 320 381
#     4  12  23  42  70  99 123 164 223 273 315 374
#     4  12  23  45  65  95 128 169 222 268 315 365
#     4  10  27  41  67  94 141 166 209 256 334 390
#     4  10  21  38  62  89 131 166 207 248 316 375
#     4  12  26  43  64  95 132 175 213 265 317 385
#
# _framework density 22.701837000000001
#
# number of rings (size 3 to 8) (size 9 to 14) (size 15 to 20)
#    0.857    0.000    2.857    4.286    6.000    0.000 
#    0.000    1.429    0.000    0.000    0.000    0.000 
#    0.000    0.000    0.000    0.000    0.000    0.000 
#
# Total GULP energy -78198.412776 kJ/mol
# GULP energy per Si atom -5585.600913 kJ/mol
# Density = 2.265017 g / cm^3
# Si number density = 22.701837 Si / 1000 Ang^3
#
#
#
# Elastic Constant Matrix: (Units=GPa)
#
#
# Indices 1 2 3 4 5 6 
#
# 1 82.6001 9.9536 4.1047 -8.0574 1.6304 -2.7375
# 2 9.9536 114.4728 20.9548 -22.8194 -13.8500 23.4420
# 3 4.1047 20.9548 29.6021 15.4034 6.5041 -30.2199
# 4 -8.0574 -22.8194 15.4034 5.8471 -0.2282 18.3707
# 5 1.6304 -13.8500 6.5041 -0.2282 23.9052 1.0003
# 6 -2.7375 23.4420 -30.2199 18.3707 1.0003 8.9918
#
#
#
# Elastic Compliance Matrix: (Units=1/GPa)
#
#
# Indices 1 2 3 4 5 6 
#
# 1 0.012668 -0.001290 0.000475 0.003180 -0.001816 0.002521
# 2 -0.001290 0.006277 0.003709 -0.005050 0.002426 0.005758
# 3 0.000475 0.003709 0.011005 0.018499 -0.000270 -0.010303
# 4 0.003180 -0.005050 0.018499 0.025150 -0.009021 0.025928
# 5 -0.001816 0.002426 -0.000270 -0.009021 0.043104 0.005850
# 6 0.002521 0.005758 -0.010303 0.025928 0.005850 0.008717
#
#
# Mechanical properties :
#
#
# Convention : Reuss Voigt Hill
#
# Bulk Modulus (GPa) = 27.98282 32.96678 30.47480
# Shear Modulus (GPa) = 44.22976 20.52628 32.37802
#
# Velocity S-wave (km/s) = 4.41873 3.01020 3.78064
# Velocity P-wave (km/s) = 6.19569 5.16090 5.70182
#
# Compressibility (1/GPa) = 0.03573622
#
# Stress axis : x y z
#
# Youngs Moduli (GPa) = 78.93894 159.32386 90.86693
#
# Poissons Ratio (x) = 0.20559 -0.04312
# Poissons Ratio (y) = 0.10186 -0.33704
# Poissons Ratio (z) = -0.03746 -0.59095
#
# Static dielectric constant tensor:
#      x y z
#    x 1.884820 0.071130 -0.021010 
#    y 0.071130 1.824810 0.005270 
#    z -0.021010 0.005270 1.856920 
# 
# From -- ./inp_files/363305.got.cif
#   From: 2010.05.17/outbox.cif.g08.bks.cpg/sg2_182_cif.got.tgz:363305.got - 2010.06.03 11:33:40.
