data_PCOD9005858
_publ_section_title
;
Structure prediction by ZEFSAII (Michael W. Deem and Ramdas Pophale) SiO2 
 PCOD9005858
Probable space group: P -1
;
_chemical_formula_sum "Si O2"
_cell_formula_units_Z 16
_cell_length_a 13.457635
_cell_length_b 18.269148
_cell_length_c 8.501332
_cell_angle_alpha 59.705684
_cell_angle_beta 72.508114
_cell_angle_gamma 22.600841
_cell_volume 601.589320
_symmetry_space_group_name_H-M "P -1"
_symmetry_group_IT_number 2
_symmetry_cell_setting 'triclinic'
loop_
_space_group_symop_operation_xyz
x,y,z
-x,-y,-z
loop_
_atom_site_type_symbol
_atom_site_label
_atom_site_fract_x
_atom_site_fract_y
_atom_site_fract_z
Si Si1 0.678076 0.290928 0.343863
Si Si2 0.900843 0.243339 0.083226
Si Si3 0.851573 0.674731 0.508256
Si Si4 0.154137 0.176485 0.854373
Si Si5 0.811984 0.469471 0.243947
Si Si6 0.242459 0.825567 0.244302
Si Si7 0.077921 0.106366 0.678834
Si Si8 0.292676 0.380543 0.203802
O O1 0.784330 0.305677 0.241931
O O2 0.566511 0.344929 0.506887
O O3 0.396417 0.496328 0.142187
O O4 0.000000 0.000000 0.500000
O O5 0.176054 0.098185 0.084023
O O6 0.993137 0.083526 0.133998
O O7 0.673436 0.881429 0.264084
O O8 0.091588 0.540357 0.650145
O O9 0.000000 0.500000 0.500000
O O10 0.692174 0.731277 0.642372
O O11 0.882451 0.440677 0.765023
O O12 0.128781 0.122254 0.795465
O O13 0.466885 0.703887 0.158496
O O14 0.973012 0.260497 0.443841
O O15 0.862668 0.475544 0.044528
O O16 0.887112 0.167555 0.743244
O O17 0.370081 0.848075 0.732394
#
# Coordination Sequence:
#
# PCOD9005858 Si02
#       8
#     2   2   2   2   2   2   2   2
#     4   9  20  35  59  94 136 187 237 287 338 419
#     4  10  21  38  63  96 138 189 239 289 351 425
#     4   9  21  47  75 104 141 183 236 316 374 420
#     4  10  23  43  69  99 141 184 237 295 362 423
#     4  11  24  44  73 103 141 190 247 296 360 446
#     4  11  24  42  65 102 149 194 235 294 359 426
#     4  11  26  45  68 104 151 194 235 298 363 427
#     4  11  25  45  76 105 136 192 244 303 366 432
#
# _framework density 26.596216999999999
#
# number of rings (size 3 to 8) (size 9 to 14) (size 15 to 20)
#    0.000    1.750    0.000    3.000    7.000    4.000 
#    2.250    5.000    0.000   14.250    0.000    0.000 
#    0.000    0.000    0.000    0.000    0.000    0.000 
#
# Total GULP energy -89138.001044 kJ/mol
# GULP energy per Si atom -5571.125065 kJ/mol
# Density = 2.653568 g / cm^3
# Si number density = 26.596217 Si / 1000 Ang^3
#
#
#
# Elastic Constant Matrix: (Units=GPa)
#
#
# Indices 1 2 3 4 5 6 
#
# 1 138.3632 31.6519 37.2090 7.1856 -33.9050 8.1100
# 2 31.6519 97.4345 25.5856 -5.3006 -3.8171 11.1685
# 3 37.2090 25.5856 143.8453 32.3574 -36.0287 -10.8554
# 4 7.1856 -5.3006 32.3574 43.9429 -19.8591 -19.2635
# 5 -33.9050 -3.8171 -36.0287 -19.8591 49.1277 13.6969
# 6 8.1100 11.1685 -10.8554 -19.2635 13.6969 40.6480
#
#
#
# Elastic Compliance Matrix: (Units=1/GPa)
#
#
# Indices 1 2 3 4 5 6 
#
# 1 0.009963 -0.002315 -0.000654 0.000191 0.007388 -0.003925
# 2 -0.002315 0.011981 -0.002441 0.002277 -0.000956 -0.002081
# 3 -0.000654 -0.002441 0.009935 -0.005823 0.004522 -0.000829
# 4 0.000191 0.002277 -0.005823 0.035944 0.007106 0.012421
# 5 0.007388 -0.000956 0.004522 0.007106 0.033807 -0.008028
# 6 -0.003925 -0.002081 -0.000829 0.012421 -0.008028 0.034327
#
#
# Mechanical properties :
#
#
# Convention : Reuss Voigt Hill
#
# Bulk Modulus (GPa) = 47.48481 63.17067 55.32774
# Shear Modulus (GPa) = 32.51014 45.75680 39.13347
#
# Velocity S-wave (km/s) = 3.50002 4.15230 3.84003
# Velocity P-wave (km/s) = 5.85032 6.84048 6.36468
#
# Compressibility (1/GPa) = 0.02105937
#
# Stress axis : x y z
#
# Youngs Moduli (GPa) = 100.36650 83.46383 100.65083
#
# Poissons Ratio (x) = 0.19322 0.06586
# Poissons Ratio (y) = 0.23235 0.24569
# Poissons Ratio (z) = 0.06567 0.20374
#
# Static dielectric constant tensor:
#      x y z
#    x 2.106690 -0.011210 -0.000970 
#    y -0.011210 2.145070 0.041090 
#    z -0.000970 0.041090 2.200260 
# 
# From -- ./inp_files/338434.got.cif
#   From: 2010.05.17/outbox.cif.g08.bks.cpg/sg2_170_cif.got.tgz:338434.got - 2010.06.03 11:33:40.
