data_PCOD9005835
_publ_section_title
;
Structure prediction by ZEFSAII (Michael W. Deem and Ramdas Pophale) SiO2 
 PCOD9005835
Probable space group: P -1
;
_chemical_formula_sum "Si O2"
_cell_formula_units_Z 15
_cell_length_a 11.123831
_cell_length_b 18.064035
_cell_length_c 5.037770
_cell_angle_alpha 105.902913
_cell_angle_beta 90.104863
_cell_angle_gamma 39.410664
_cell_volume 580.423087
_symmetry_space_group_name_H-M "P -1"
_symmetry_group_IT_number 2
_symmetry_cell_setting 'triclinic'
loop_
_space_group_symop_operation_xyz
x,y,z
-x,-y,-z
loop_
_atom_site_type_symbol
_atom_site_label
_atom_site_fract_x
_atom_site_fract_y
_atom_site_fract_z
Si Si1 0.679069 0.061696 0.992338
Si Si2 0.087139 0.370570 0.956692
Si Si3 0.359390 0.335188 0.190562
Si Si4 0.695941 0.328194 0.437583
Si Si5 0.765938 0.445400 0.327022
Si Si6 0.701526 0.224177 0.816905
Si Si7 0.000000 0.000000 0.000000
Si Si8 0.509062 0.908598 0.500401
O O1 0.550479 0.204514 0.223763
O O2 0.586567 0.045695 0.166416
O O3 0.623941 0.069022 0.698657
O O4 0.901404 0.965127 0.995947
O O5 0.213976 0.337466 0.175097
O O6 0.924967 0.388814 0.048519
O O7 0.264746 0.242691 0.655980
O O8 0.000000 0.500000 0.000000
O O9 0.253917 0.464240 0.426537
O O10 0.476571 0.302009 0.889633
O O11 0.812564 0.348479 0.421660
O O12 0.463584 0.457661 0.666434
O O13 0.771811 0.224180 0.541204
O O14 0.678809 0.301537 0.117433
O O15 0.858604 0.084901 0.812622
O O16 0.500000 0.000000 0.500000
#
# Coordination Sequence:
#
# PCOD9005835 Si02
#       8
#     2   2   2   2   2   2   1   2
#     4  10  23  44  69  97 131 175 226 280 337 400
#     4  11  22  38  66  99 130 174 228 276 330 406
#     4   9  20  38  63  92 130 167 213 275 334 390
#     4  10  23  40  61  93 134 171 209 270 343 400
#     4  10  21  38  63  95 133 174 217 270 338 411
#     4  10  22  41  63  91 127 170 218 273 334 403
#     4  10  24  42  70  98 128 174 232 282 336 406
#     4  11  25  46  69  95 137 180 221 279 344 402
#
# _framework density 25.843216000000002
#
# number of rings (size 3 to 8) (size 9 to 14) (size 15 to 20)
#    0.000    1.867    0.000    2.400    0.000   18.667 
#    0.000    4.000    0.000    1.600    0.000    0.000 
#    0.000    0.000    0.000    0.000    0.000    0.000 
#
# Total GULP energy -83529.489862 kJ/mol
# GULP energy per Si atom -5568.632657 kJ/mol
# Density = 2.578440 g / cm^3
# Si number density = 25.843216 Si / 1000 Ang^3
#
#
#
# Elastic Constant Matrix: (Units=GPa)
#
#
# Indices 1 2 3 4 5 6 
#
# 1 116.3989 25.4388 27.7779 -0.9743 -15.8308 7.4984
# 2 25.4388 66.9327 -3.4664 -3.7746 -17.8497 2.7827
# 3 27.7779 -3.4664 67.8857 -4.0114 -17.3161 -22.9132
# 4 -0.9743 -3.7746 -4.0114 31.6782 5.5444 -6.1295
# 5 -15.8308 -17.8497 -17.3161 5.5444 47.5114 2.2191
# 6 7.4984 2.7827 -22.9132 -6.1295 2.2191 41.3927
#
#
#
# Elastic Compliance Matrix: (Units=1/GPa)
#
#
# Indices 1 2 3 4 5 6 
#
# 1 0.011731 -0.004690 -0.007241 -0.002319 0.000066 -0.006165
# 2 -0.004690 0.018977 0.005784 0.002092 0.007305 0.002694
# 3 -0.007241 0.005784 0.025463 0.005322 0.007701 0.015393
# 4 -0.002319 0.002092 0.005322 0.034489 -0.002467 0.008465
# 5 0.000066 0.007305 0.007701 -0.002467 0.026817 0.001957
# 6 -0.006165 0.002694 0.015393 0.008465 0.001957 0.034764
#
#
# Mechanical properties :
#
#
# Convention : Reuss Voigt Hill
#
# Bulk Modulus (GPa) = 22.79049 38.96863 30.87956
# Shear Modulus (GPa) = 27.90806 37.54761 32.72783
#
# Velocity S-wave (km/s) = 3.28975 3.81583 3.56251
# Velocity P-wave (km/s) = 4.82367 5.87585 5.37557
#
# Compressibility (1/GPa) = 0.04387795
#
# Stress axis : x y z
#
# Youngs Moduli (GPa) = 85.24532 52.69649 39.27236
#
# Poissons Ratio (x) = 0.24716 0.28435
# Poissons Ratio (y) = 0.39983 -0.22717
# Poissons Ratio (z) = 0.61722 -0.30482
#
# Static dielectric constant tensor:
#      x y z
#    x 1.840080 0.313530 0.026880 
#    y 0.313530 2.004480 -0.075220 
#    z 0.026880 -0.075220 2.139280 
# 
# From -- ./inp_files/80551.got.cif
#   From: 2010.05.17/outbox.cif.g08.bks.cpg/sg2_41_cif.got.tgz:80551.got - 2010.06.03 11:33:40.
