data_PCOD9005621
_publ_section_title
;
Structure prediction by ZEFSAII (Michael W. Deem and Ramdas Pophale) SiO2 
 PCOD9005621
Probable space group: P -1
;
_chemical_formula_sum "Si O2"
_cell_formula_units_Z 16
_cell_length_a 12.351458
_cell_length_b 11.173255
_cell_length_c 15.542410
_cell_angle_alpha 65.617997
_cell_angle_beta 116.463513
_cell_angle_gamma 154.770699
_cell_volume 818.203093
_symmetry_space_group_name_H-M "P -1"
_symmetry_group_IT_number 2
_symmetry_cell_setting 'triclinic'
loop_
_space_group_symop_operation_xyz
x,y,z
-x,-y,-z
loop_
_atom_site_type_symbol
_atom_site_label
_atom_site_fract_x
_atom_site_fract_y
_atom_site_fract_z
Si Si1 0.606396 0.104373 0.712803
Si Si2 0.007689 0.859164 0.515364
Si Si3 0.059200 0.500018 0.618407
Si Si4 0.098442 0.227713 0.696894
Si Si5 0.432229 0.645970 0.364472
Si Si6 0.723627 0.404383 0.947249
Si Si7 0.285276 0.882706 0.070568
Si Si8 0.628819 0.583646 0.757630
O O1 0.608408 0.248240 0.716800
O O2 0.662536 0.062905 0.825078
O O3 0.824523 0.310830 0.655217
O O4 0.330676 0.816990 0.655220
O O5 0.956485 0.807652 0.412923
O O6 0.783892 0.577091 0.573715
O O7 0.289828 0.083029 0.573722
O O8 0.000000 0.000000 0.500000
O O9 0.089280 0.370901 0.678551
O O10 0.000000 0.500000 0.500000
O O11 0.373420 0.417655 0.745673
O O12 0.872254 0.916491 0.745682
O O13 0.412954 0.513101 0.325942
O O14 0.711491 0.263766 0.922936
O O15 0.677414 0.497869 0.854832
O O16 0.005558 0.671346 0.010794
O O17 0.505221 0.170997 0.010789
#
# Coordination Sequence:
#
# PCOD9005621 Si02
#       8
#     2   2   2   2   2   2   2   2
#     4  12  24  43  69  91 129 168 222 263 309 380
#     4  12  22  37  55  89 130 158 202 256 314 388
#     4  12  27  47  64  92 127 179 224 264 299 361
#     4  12  25  40  63  87 125 174 212 254 322 373
#     4  12  22  37  59  96 122 161 203 258 327 367
#     4  10  21  38  62  99 135 154 202 259 340 381
#     4  10  21  38  65  96 128 168 199 262 320 393
#     4  12  22  39  63  94 130 157 200 262 327 391
#
# _framework density 19.555046999999998
#
# number of rings (size 3 to 8) (size 9 to 14) (size 15 to 20)
#    0.000    0.500    3.750    6.000    0.000    0.000 
#    0.000    0.000    0.000   15.000    0.000    0.000 
#    0.000    0.000    0.000    0.000    0.000    0.000 
#
# Total GULP energy -89354.248439 kJ/mol
# GULP energy per Si atom -5584.640527 kJ/mol
# Density = 1.951054 g / cm^3
# Si number density = 19.555047 Si / 1000 Ang^3
#
#
#
# Elastic Constant Matrix: (Units=GPa)
#
#
# Indices 1 2 3 4 5 6 
#
# 1 92.0060 47.6596 20.8450 -6.3686 26.0201 0.4646
# 2 47.6596 194.1364 77.0546 -5.1483 9.8660 32.0193
# 3 20.8450 77.0546 140.9009 -3.2534 9.1799 17.3930
# 4 -6.3686 -5.1483 -3.2534 44.3041 1.2967 3.3807
# 5 26.0201 9.8660 9.1799 1.2967 39.8801 -3.6614
# 6 0.4646 32.0193 17.3930 3.3807 -3.6614 31.4706
#
#
#
# Elastic Compliance Matrix: (Units=1/GPa)
#
#
# Indices 1 2 3 4 5 6 
#
# 1 0.015429 -0.003678 0.000088 0.001893 -0.009036 0.002211
# 2 -0.003678 0.008465 -0.003257 0.000722 0.000409 -0.006788
# 3 0.000088 -0.003257 0.009230 0.000513 -0.001579 -0.002028
# 4 0.001893 0.000722 0.000513 0.023337 -0.002645 -0.003860
# 5 -0.009036 0.000409 -0.001579 -0.002645 0.031739 0.004567
# 6 0.002211 -0.006788 -0.002028 -0.003860 0.004567 0.040716
#
#
# Mechanical properties :
#
#
# Convention : Reuss Voigt Hill
#
# Bulk Modulus (GPa) = 51.46490 79.79573 65.63032
# Shear Modulus (GPa) = 33.53763 41.89656 37.71709
#
# Velocity S-wave (km/s) = 4.14579 4.63373 4.39654
# Velocity P-wave (km/s) = 7.02082 8.33804 7.70762
#
# Compressibility (1/GPa) = 0.01943072
#
# Stress axis : x y z
#
# Youngs Moduli (GPa) = 64.81097 118.13903 108.33853
#
# Poissons Ratio (x) = 0.43454 -0.00957
# Poissons Ratio (y) = 0.23839 0.35286
# Poissons Ratio (z) = -0.00572 0.38478
#
# Static dielectric constant tensor:
#      x y z
#    x 1.668180 0.001330 0.037810 
#    y 0.001330 1.669390 -0.010980 
#    z 0.037810 -0.010980 1.658610 
# 
# From -- ./inp_files/437363.got.cif
#   From: 2010.05.17/outbox.cif.g08.bks.cpg/sg2_219_cif.got.tgz:437363.got - 2010.06.03 11:33:40.
