data_PCOD9005281
_publ_section_title
;
Structure prediction by ZEFSAII (Michael W. Deem and Ramdas Pophale) SiO2 
 PCOD9005281
Probable space group: P -1
;
_chemical_formula_sum "Si O2"
_cell_formula_units_Z 14
_cell_length_a 13.205588
_cell_length_b 8.292929
_cell_length_c 6.967515
_cell_angle_alpha 103.117827
_cell_angle_beta 130.855806
_cell_angle_gamma 91.901975
_cell_volume 544.708166
_symmetry_space_group_name_H-M "P -1"
_symmetry_group_IT_number 2
_symmetry_cell_setting 'triclinic'
loop_
_space_group_symop_operation_xyz
x,y,z
-x,-y,-z
loop_
_atom_site_type_symbol
_atom_site_label
_atom_site_fract_x
_atom_site_fract_y
_atom_site_fract_z
Si Si1 0.407109 0.207360 0.878720
Si Si2 0.020800 0.477578 0.292796
Si Si3 0.317124 0.520582 0.746875
Si Si4 0.682671 0.081664 0.567184
Si Si5 0.988025 0.153835 0.898676
Si Si6 0.728063 0.828588 0.893557
Si Si7 0.714623 0.461553 0.829281
O O1 0.321005 0.321525 0.682416
O O2 0.425398 0.048945 0.732951
O O3 0.329124 0.147630 0.962238
O O4 0.548816 0.347479 0.128580
O O5 0.183099 0.563401 0.499352
O O6 0.013932 0.300731 0.131661
O O7 0.000000 0.500000 0.500000
O O8 0.883379 0.513251 0.038873
O O9 0.315394 0.542643 0.981465
O O10 0.658872 0.265982 0.639570
O O11 0.827427 0.119184 0.638243
O O12 0.698011 0.967588 0.744158
O O13 0.106557 0.154269 0.890414
O O14 0.000000 0.000000 0.000000
O O15 0.668504 0.622520 0.722803
#
# Coordination Sequence:
#
# PCOD9005281 Si02
#       7
#     2   2   2   2   2   2   2
#     4  10  21  38  61  90 125 168 208 247 307 375
#     4   9  17  33  59  87 118 158 200 251 308 357
#     4   9  18  37  61  87 125 165 204 255 306 363
#     4  10  21  39  61  92 128 157 202 263 307 363
#     4   9  18  34  57  86 121 154 194 253 306 351
#     4  10  21  40  62  92 126 163 207 248 312 376
#     4   9  20  38  63  92 122 160 205 258 316 363
#
# _framework density 25.701834999999999
#
# number of rings (size 3 to 8) (size 9 to 14) (size 15 to 20)
#    0.000    2.571    0.000    1.714    0.000    3.429 
#    0.000   27.857    0.000    0.000    0.000    0.000 
#    0.000    0.000    0.000    0.000    0.000    0.000 
#
# Total GULP energy -78175.312492 kJ/mol
# GULP energy per Si atom -5583.950892 kJ/mol
# Density = 2.564334 g / cm^3
# Si number density = 25.701835 Si / 1000 Ang^3
#
#
#
# Elastic Constant Matrix: (Units=GPa)
#
#
# Indices 1 2 3 4 5 6 
#
# 1 109.5360 40.6277 31.9816 -4.2978 -1.7521 11.4534
# 2 40.6277 162.4572 50.7715 -6.6327 -24.1458 1.0689
# 3 31.9816 50.7715 71.7922 -1.1827 -17.0056 8.3873
# 4 -4.2978 -6.6327 -1.1827 27.7991 4.2353 -9.7610
# 5 -1.7521 -24.1458 -17.0056 4.2353 30.5274 8.2974
# 6 11.4534 1.0689 8.3873 -9.7610 8.2974 33.1426
#
#
#
# Elastic Compliance Matrix: (Units=1/GPa)
#
#
# Indices 1 2 3 4 5 6 
#
# 1 0.011202 -0.001887 -0.004078 0.000884 -0.002746 -0.001831
# 2 -0.001887 0.008631 -0.004452 0.001330 0.003799 0.000941
# 3 -0.004078 -0.004452 0.022707 -0.005696 0.012104 -0.008901
# 4 0.000884 0.001330 -0.005696 0.044250 -0.012929 0.017362
# 5 -0.002746 0.003799 0.012104 -0.012929 0.049126 -0.018343
# 6 -0.001831 0.000941 -0.008901 0.017362 -0.018343 0.042733
#
#
# Mechanical properties :
#
#
# Convention : Reuss Voigt Hill
#
# Bulk Modulus (GPa) = 46.06747 65.61632 55.84189
# Shear Modulus (GPa) = 24.18742 32.98746 28.58744
#
# Velocity S-wave (km/s) = 3.07103 3.58644 3.33869
# Velocity P-wave (km/s) = 5.52609 6.53722 6.05281
#
# Compressibility (1/GPa) = 0.02170729
#
# Stress axis : x y z
#
# Youngs Moduli (GPa) = 89.26870 115.85705 44.03919
#
# Poissons Ratio (x) = 0.21863 0.17958
# Poissons Ratio (y) = 0.16846 0.19605
# Poissons Ratio (z) = 0.36402 0.51576
#
# Static dielectric constant tensor:
#      x y z
#    x 1.711140 -0.140050 0.003100 
#    y -0.140050 2.009080 -0.071330 
#    z 0.003100 -0.071330 2.052500 
# 
# From -- ./inp_files/170381.got.cif
#   From: 2010.05.17/outbox.cif.g08.bks.cpg/sg2_86_cif.got.tgz:170381.got - 2010.06.03 11:33:40.
