data_PCOD9005797
_publ_section_title
;
Structure prediction by ZEFSAII (Michael W. Deem and Ramdas Pophale) SiO2 
 PCOD9005797
Probable space group: P -1
;
_chemical_formula_sum "Si O2"
_cell_formula_units_Z 16
_cell_length_a 8.841504
_cell_length_b 13.780034
_cell_length_c 6.090887
_cell_angle_alpha 63.728669
_cell_angle_beta 93.626842
_cell_angle_gamma 85.219105
_cell_volume 658.945581
_symmetry_space_group_name_H-M "P -1"
_symmetry_group_IT_number 2
_symmetry_cell_setting 'triclinic'
loop_
_space_group_symop_operation_xyz
x,y,z
-x,-y,-z
loop_
_atom_site_type_symbol
_atom_site_label
_atom_site_fract_x
_atom_site_fract_y
_atom_site_fract_z
Si Si1 0.322051 0.095236 0.261884
Si Si2 0.882756 0.972620 0.329060
Si Si3 0.693027 0.108256 0.823742
Si Si4 0.667683 0.321066 0.344042
Si Si5 0.651964 0.618455 0.496294
Si Si6 0.099988 0.228304 0.766579
Si Si7 0.480100 0.738452 0.997664
Si Si8 0.134496 0.574956 0.417880
O O1 0.267330 0.047087 0.529117
O O2 0.436372 0.183204 0.229968
O O3 0.366005 0.992378 0.208207
O O4 0.187192 0.165695 0.041162
O O5 0.938736 0.861403 0.319825
O O6 0.000000 0.000000 0.500000
O O7 0.830068 0.060253 0.047194
O O8 0.724372 0.200485 0.562222
O O9 0.570895 0.177384 0.897995
O O10 0.494333 0.358868 0.380753
O O11 0.654183 0.306421 0.099409
O O12 0.779288 0.400766 0.373032
O O13 0.780932 0.701794 0.421198
O O14 0.738618 0.496925 0.643276
O O15 0.584435 0.640181 0.221802
O O16 0.956855 0.308141 0.765523
O O17 0.000000 0.500000 0.500000
#
# Coordination Sequence:
#
# PCOD9005797 Si02
#       8
#     2   2   2   2   2   2   2   2
#     4  10  21  39  60  87 128 167 196 247 300 356
#     4  11  24  36  58  89 126 163 206 240 293 368
#     4  10  23  37  58  92 124 161 201 246 303 359
#     4  11  22  37  67  88 124 156 201 256 308 356
#     4   9  20  42  62  91 119 159 203 256 305 359
#     4   9  21  39  62  86 126 161 204 249 301 360
#     4  10  21  38  63  94 121 156 206 248 302 363
#     4  10  22  41  65  88 119 162 204 253 312 360
#
# _framework density 24.281216000000001
#
# number of rings (size 3 to 8) (size 9 to 14) (size 15 to 20)
#    0.000    2.000    0.000    2.250    5.250    5.500 
#    0.000    1.250    0.000   10.500    0.000    0.000 
#    0.000    0.000    0.000    0.000    0.000    0.000 
#
# Total GULP energy -89423.570208 kJ/mol
# GULP energy per Si atom -5588.973138 kJ/mol
# Density = 2.422595 g / cm^3
# Si number density = 24.281216 Si / 1000 Ang^3
#
#
#
# Elastic Constant Matrix: (Units=GPa)
#
#
# Indices 1 2 3 4 5 6 
#
# 1 92.0348 49.4027 35.0330 -3.6863 12.6974 4.8080
# 2 49.4027 152.4191 59.3831 -15.1800 26.1534 -1.4901
# 3 35.0330 59.3831 73.9322 -9.3982 2.9322 6.1344
# 4 -3.6863 -15.1800 -9.3982 26.9862 -2.4086 11.2961
# 5 12.6974 26.1534 2.9322 -2.4086 33.0832 -4.1145
# 6 4.8080 -1.4901 6.1344 11.2961 -4.1145 41.7662
#
#
#
# Elastic Compliance Matrix: (Units=1/GPa)
#
#
# Indices 1 2 3 4 5 6 
#
# 1 0.014462 -0.002266 -0.004905 -0.000843 -0.003528 -0.001145
# 2 -0.002266 0.011975 -0.007905 0.002856 -0.007648 0.000323
# 3 -0.004905 -0.007905 0.022918 0.005010 0.005987 -0.003849
# 4 -0.000843 0.002856 0.005010 0.045653 -0.000665 -0.012950
# 5 -0.003528 -0.007648 0.005987 -0.000665 0.037436 0.003122
# 6 -0.001145 0.000323 -0.003849 -0.012950 0.003122 0.028461
#
#
# Mechanical properties :
#
#
# Convention : Reuss Voigt Hill
#
# Bulk Modulus (GPa) = 52.07557 67.33596 59.70577
# Shear Modulus (GPa) = 25.32162 32.00494 28.66328
#
# Velocity S-wave (km/s) = 3.23282 3.63450 3.43953
# Velocity P-wave (km/s) = 5.95216 6.73830 6.35739
#
# Compressibility (1/GPa) = 0.01920286
#
# Stress axis : x y z
#
# Youngs Moduli (GPa) = 69.14831 83.50541 43.63306
#
# Poissons Ratio (x) = 0.18925 0.21400
# Poissons Ratio (y) = 0.15671 0.34493
# Poissons Ratio (z) = 0.33915 0.66013
#
# Static dielectric constant tensor:
#      x y z
#    x 2.014350 -0.007720 -0.026250 
#    y -0.007720 1.905750 -0.008260 
#    z -0.026250 -0.008260 1.904030 
# 
# From -- ./inp_files/37547.got.cif
#   From: 2010.05.17/outbox.cif.g08.bks.cpg/sg2_19_cif.got.tgz:37547.got - 2010.06.03 11:33:40.
