data_PCOD9005915
_publ_section_title
;
Structure prediction by ZEFSAII (Michael W. Deem and Ramdas Pophale) SiO2 
 PCOD9005915
Probable space group: P -1
;
_chemical_formula_sum "Si O2"
_cell_formula_units_Z 12
_cell_length_a 13.727244
_cell_length_b 7.723167
_cell_length_c 4.740926
_cell_angle_alpha 113.011048
_cell_angle_beta 101.838416
_cell_angle_gamma 62.818283
_cell_volume 411.320013
_symmetry_space_group_name_H-M "P -1"
_symmetry_group_IT_number 2
_symmetry_cell_setting 'triclinic'
loop_
_space_group_symop_operation_xyz
x,y,z
-x,-y,-z
loop_
_atom_site_type_symbol
_atom_site_label
_atom_site_fract_x
_atom_site_fract_y
_atom_site_fract_z
Si Si1 0.850546 0.254421 0.727182
Si Si2 0.986541 0.868093 0.709301
Si Si3 0.888167 0.572541 0.777190
Si Si4 0.656512 0.138680 0.485775
Si Si5 0.270457 0.305482 0.751495
Si Si6 0.508697 0.281749 0.973842
O O1 0.726418 0.272834 0.644329
O O2 0.908802 0.004392 0.485987
O O3 0.816279 0.511784 0.983566
O O4 0.922904 0.135367 0.982693
O O5 0.924152 0.738327 0.730189
O O6 0.081987 0.681676 0.451652
O O7 0.772404 0.648703 0.559799
O O8 0.000000 0.500000 0.000000
O O9 0.552033 0.244940 0.291915
O O10 0.727654 0.907977 0.272598
O O11 0.606405 0.117035 0.741317
O O12 0.392656 0.280051 0.851437
O O13 0.500000 0.500000 0.000000
#
# Coordination Sequence:
#
# PCOD9005915 Si02
#       6
#     2   2   2   2   2   2
#     4   9  21  37  63  91 116 158 210 248 299 346
#     4   9  19  37  67  88 119 156 210 254 295 349
#     4  10  21  38  64  87 118 164 203 245 293 366
#     4  12  25  41  62  93 125 159 197 254 304 361
#     4  12  23  41  60  90 129 162 195 247 312 355
#     4  12  25  42  65  90 120 162 209 247 292 361
#
# _framework density 29.174364000000001
#
# number of rings (size 3 to 8) (size 9 to 14) (size 15 to 20)
#    1.000    0.333    0.000    6.500    2.333    0.000 
#    0.000    1.667    0.000    0.000    0.000    0.000 
#    0.000    0.000    0.000    0.000    0.000    0.000 
#
# Total GULP energy -67032.695563 kJ/mol
# GULP energy per Si atom -5586.057964 kJ/mol
# Density = 2.910796 g / cm^3
# Si number density = 29.174364 Si / 1000 Ang^3
#
#
#
# Elastic Constant Matrix: (Units=GPa)
#
#
# Indices 1 2 3 4 5 6 
#
# 1 228.2119 45.5131 101.4180 8.2950 66.9244 12.5971
# 2 45.5131 233.4858 51.6557 5.0228 25.1747 26.6197
# 3 101.4180 51.6557 209.6958 -22.3677 31.5047 -5.9025
# 4 8.2950 5.0228 -22.3677 74.2314 -11.2938 5.2194
# 5 66.9244 25.1747 31.5047 -11.2938 92.3997 7.3842
# 6 12.5971 26.6197 -5.9025 5.2194 7.3842 53.5764
#
#
#
# Elastic Compliance Matrix: (Units=1/GPa)
#
#
# Indices 1 2 3 4 5 6 
#
# 1 0.007182 -0.000068 -0.003087 -0.002302 -0.004319 -0.001176
# 2 -0.000068 0.004932 -0.001202 -0.000637 -0.000771 -0.002399
# 3 -0.003087 -0.001202 0.006806 0.002412 0.000395 0.001783
# 4 -0.002302 -0.000637 0.002412 0.014993 0.002910 -0.000738
# 5 -0.004319 -0.000771 0.000395 0.002910 0.014448 -0.000833
# 6 -0.001176 -0.002399 0.001783 -0.000738 -0.000833 0.020516
#
#
# Mechanical properties :
#
#
# Convention : Reuss Voigt Hill
#
# Bulk Modulus (GPa) = 97.96745 118.72969 108.34857
# Shear Modulus (GPa) = 61.73323 75.56195 68.64759
#
# Velocity S-wave (km/s) = 4.60500 5.09474 4.85605
# Velocity P-wave (km/s) = 7.86941 8.68294 8.28616
#
# Compressibility (1/GPa) = 0.01020747
#
# Stress axis : x y z
#
# Youngs Moduli (GPa) = 139.23254 202.74289 146.93185
#
# Poissons Ratio (x) = 0.01377 0.45355
# Poissons Ratio (y) = 0.00946 0.17658
# Poissons Ratio (z) = 0.42978 0.24365
#
# Static dielectric constant tensor:
#      x y z
#    x 2.673610 -0.162400 -0.380990 
#    y -0.162400 2.349380 0.323030 
#    z -0.380990 0.323030 2.441890 
# 
# From -- ./inp_files/105890.got.cif
#   From: 2010.05.17/outbox.cif.g08.bks.cpg/sg2_53_cif.got.tgz:105890.got - 2010.06.03 11:33:40.
