data_PCOD9005280
_publ_section_title
;
Structure prediction by ZEFSAII (Michael W. Deem and Ramdas Pophale) SiO2 
 PCOD9005280
Probable space group: P -1
;
_chemical_formula_sum "Si O2"
_cell_formula_units_Z 16
_cell_length_a 8.317068
_cell_length_b 12.102116
_cell_length_c 13.503681
_cell_angle_alpha 124.708439
_cell_angle_beta 49.083611
_cell_angle_gamma 86.757916
_cell_volume 610.027744
_symmetry_space_group_name_H-M "P -1"
_symmetry_group_IT_number 2
_symmetry_cell_setting 'triclinic'
loop_
_space_group_symop_operation_xyz
x,y,z
-x,-y,-z
loop_
_atom_site_type_symbol
_atom_site_label
_atom_site_fract_x
_atom_site_fract_y
_atom_site_fract_z
Si Si1 0.062422 0.470516 0.576497
Si Si2 0.361602 0.424520 0.974486
Si Si3 0.698415 0.234613 0.142013
Si Si4 0.854566 0.729860 0.963795
Si Si5 0.161623 0.871103 0.666863
Si Si6 0.097558 0.883082 0.301917
Si Si7 0.645442 0.437672 0.693020
Si Si8 0.409223 0.083713 0.468297
O O1 0.414659 0.320312 0.364497
O O2 0.907202 0.658714 0.793100
O O3 0.000000 0.500000 0.500000
O O4 0.909229 0.394005 0.625691
O O5 0.477271 0.397000 0.802203
O O6 0.556127 0.254063 0.890519
O O7 0.500000 0.500000 0.000000
O O8 0.094689 0.436716 0.085257
O O9 0.887478 0.274103 0.127325
O O10 0.576651 0.349952 0.145595
O O11 0.913116 0.016191 0.921344
O O12 0.584981 0.920544 0.230532
O O13 0.026305 0.989731 0.679174
O O14 0.454182 0.828204 0.551269
O O15 0.232462 0.687887 0.518336
O O16 0.938272 0.804635 0.332954
O O17 0.000000 0.000000 0.500000
O O18 0.500000 0.000000 0.500000
#
# Coordination Sequence:
#
# PCOD9005280 Si02
#       8
#     2   2   2   2   2   2   2   2
#     4  10  23  42  65  90 124 169 220 266 308 369
#     4  12  22  34  59  96 129 154 206 258 321 387
#     4  10  24  42  66  86 124 176 213 258 318 366
#     4  11  21  39  66  92 126 172 208 260 323 379
#     4  10  21  38  61  90 125 166 211 257 317 377
#     4  11  19  33  57  86 125 167 193 250 319 372
#     4  11  22  41  62  95 131 160 214 268 312 384
#     4   9  19  36  58  90 129 165 203 247 313 392
#
# _framework density 26.228317000000001
#
# number of rings (size 3 to 8) (size 9 to 14) (size 15 to 20)
#    0.000    1.500    3.750    1.875    1.750    2.000 
#    0.000    0.000    0.000    6.750    0.000    0.000 
#    0.000    0.000    0.000    0.000    0.000    0.000 
#
# Total GULP energy -89182.317916 kJ/mol
# GULP energy per Si atom -5573.894870 kJ/mol
# Density = 2.616862 g / cm^3
# Si number density = 26.228317 Si / 1000 Ang^3
#
#
#
# Elastic Constant Matrix: (Units=GPa)
#
#
# Indices 1 2 3 4 5 6 
#
# 1 103.4471 19.4192 45.3075 -10.7327 19.3907 26.2676
# 2 19.4192 69.1336 10.3134 -21.4116 0.1460 -0.5865
# 3 45.3075 10.3134 141.2961 -14.8154 7.5569 13.9789
# 4 -10.7327 -21.4116 -14.8154 37.3633 7.8569 11.7281
# 5 19.3907 0.1460 7.5569 7.8569 51.6739 2.8679
# 6 26.2676 -0.5865 13.9789 11.7281 2.8679 49.4916
#
#
#
# Elastic Compliance Matrix: (Units=1/GPa)
#
#
# Indices 1 2 3 4 5 6 
#
# 1 0.015103 -0.002079 -0.002973 0.005739 -0.005642 -0.008234
# 2 -0.002079 0.018272 0.000644 0.010749 -0.000925 -0.001355
# 3 -0.002973 0.000644 0.008548 0.003540 -0.000584 -0.001634
# 4 0.005739 0.010749 0.003540 0.041926 -0.008334 -0.013371
# 5 -0.005642 -0.000925 -0.000584 -0.008334 0.022613 0.003813
# 6 -0.008234 -0.001355 -0.001634 -0.013371 0.003813 0.027968
#
#
# Mechanical properties :
#
#
# Convention : Reuss Voigt Hill
#
# Bulk Modulus (GPa) = 30.20626 51.55075 40.87851
# Shear Modulus (GPa) = 32.40798 43.62819 38.01809
#
# Velocity S-wave (km/s) = 3.51894 4.08290 3.81137
# Velocity P-wave (km/s) = 5.29644 6.47488 5.91508
#
# Compressibility (1/GPa) = 0.03310572
#
# Stress axis : x y z
#
# Youngs Moduli (GPa) = 66.21175 54.72747 116.99083
#
# Poissons Ratio (x) = 0.11380 0.34781
# Poissons Ratio (y) = 0.13768 -0.07530
# Poissons Ratio (z) = 0.19685 -0.03522
#
# Static dielectric constant tensor:
#      x y z
#    x 2.212010 0.271260 0.044440 
#    y 0.271260 3.180630 0.203650 
#    z 0.044440 0.203650 2.302600 
# 
# From -- ./inp_files/306246.got.cif
#   From: 2010.05.17/outbox.cif.g08.bks.cpg/sg2_154_cif.got.tgz:306246.got - 2010.06.03 11:33:40.
