data_PCOD9005140
_publ_section_title
;
Structure prediction by ZEFSAII (Michael W. Deem and Ramdas Pophale) SiO2 
 PCOD9005140
Probable space group: P -1
;
_chemical_formula_sum "Si O2"
_cell_formula_units_Z 14
_cell_length_a 12.935821
_cell_length_b 7.389171
_cell_length_c 8.332470
_cell_angle_alpha 73.348363
_cell_angle_beta 131.742033
_cell_angle_gamma 86.005997
_cell_volume 530.228792
_symmetry_space_group_name_H-M "P -1"
_symmetry_group_IT_number 2
_symmetry_cell_setting 'triclinic'
loop_
_space_group_symop_operation_xyz
x,y,z
-x,-y,-z
loop_
_atom_site_type_symbol
_atom_site_label
_atom_site_fract_x
_atom_site_fract_y
_atom_site_fract_z
Si Si1 0.841367 0.194245 0.302147
Si Si2 0.787221 0.795553 0.593641
Si Si3 0.711876 0.894653 0.133688
Si Si4 0.701316 0.497449 0.819837
Si Si5 0.523432 0.143746 0.349057
Si Si6 0.991387 0.338720 0.660643
Si Si7 0.932224 0.221830 0.948485
O O1 0.861089 0.267902 0.479514
O O2 0.712877 0.111486 0.139786
O O3 0.801219 0.398718 0.103114
O O4 0.000000 0.000000 0.500000
O O5 0.748304 0.773664 0.372163
O O6 0.744546 0.654229 0.713078
O O7 0.689383 0.024784 0.491615
O O8 0.956173 0.775793 0.794939
O O9 0.845283 0.828879 0.157853
O O10 0.575885 0.871666 0.903927
O O11 0.542155 0.630516 0.698608
O O12 0.763176 0.299753 0.817120
O O13 0.500000 0.000000 0.500000
O O14 0.958158 0.370357 0.803837
O O15 0.000000 0.500000 0.500000
O O16 0.000000 0.000000 0.000000
#
# Coordination Sequence:
#
# PCOD9005140 Si02
#       7
#     2   2   2   2   2   2   2
#     4  10  21  38  60  94 129 162 206 264 322 373
#     4  11  23  42  65  94 126 167 217 262 313 387
#     4  11  21  39  63  88 125 167 208 266 319 372
#     4  11  23  41  65  92 127 168 214 260 316 383
#     4  10  23  43  65  92 126 170 217 263 317 385
#     4  11  20  34  60  92 124 161 205 258 314 373
#     4  12  23  39  63  94 126 163 208 265 319 373
#
# _framework density 26.403696
#
# number of rings (size 3 to 8) (size 9 to 14) (size 15 to 20)
#    0.000    1.143    0.000    9.429    0.000    0.000 
#    0.000    7.143    0.000    0.000    0.000    0.000 
#    0.000    0.000    0.000    0.000    0.000    0.000 
#
# Total GULP energy -78102.800516 kJ/mol
# GULP energy per Si atom -5578.771465 kJ/mol
# Density = 2.634360 g / cm^3
# Si number density = 26.403696 Si / 1000 Ang^3
#
#
#
# Elastic Constant Matrix: (Units=GPa)
#
#
# Indices 1 2 3 4 5 6 
#
# 1 89.1228 20.0660 50.4691 -8.5327 -11.9865 -15.9260
# 2 20.0660 99.4246 30.1729 -15.9470 10.7256 -19.3367
# 3 50.4691 30.1729 151.5755 -0.6548 -24.0189 -1.7597
# 4 -8.5327 -15.9470 -0.6548 44.8545 -2.5412 3.5760
# 5 -11.9865 10.7256 -24.0189 -2.5412 50.9876 -13.8323
# 6 -15.9260 -19.3367 -1.7597 3.5760 -13.8323 49.7044
#
#
#
# Elastic Compliance Matrix: (Units=1/GPa)
#
#
# Indices 1 2 3 4 5 6 
#
# 1 0.015499 -0.000729 -0.004428 0.002390 0.003257 0.005260
# 2 -0.000729 0.012637 -0.002684 0.003870 -0.002955 0.003487
# 3 -0.004428 -0.002684 0.009137 -0.001381 0.003467 -0.001075
# 4 0.002390 0.003870 -0.001381 0.024081 0.000465 0.000619
# 5 0.003257 -0.002955 0.003467 0.000465 0.024502 0.006802
# 6 0.005260 0.003487 -0.001075 0.000619 0.006802 0.024971
#
#
# Mechanical properties :
#
#
# Convention : Reuss Voigt Hill
#
# Bulk Modulus (GPa) = 46.31572 60.17098 53.24335
# Shear Modulus (GPa) = 37.39535 45.07030 41.23282
#
# Velocity S-wave (km/s) = 3.76745 4.13603 3.95603
# Velocity P-wave (km/s) = 6.04188 6.75628 6.40904
#
# Compressibility (1/GPa) = 0.02159094
#
# Stress axis : x y z
#
# Youngs Moduli (GPa) = 64.52041 79.13193 109.44600
#
# Poissons Ratio (x) = 0.05771 0.48461
# Poissons Ratio (y) = 0.04706 0.29373
# Poissons Ratio (z) = 0.28569 0.21238
#
# Static dielectric constant tensor:
#      x y z
#    x 2.045900 -0.010130 -0.031350 
#    y -0.010130 2.241990 -0.108850 
#    z -0.031350 -0.108850 2.110020 
# 
# From -- ./inp_files/294975.got.cif
#   From: 2010.05.17/outbox.cif.g08.bks.cpg/sg2_148_cif.got.tgz:294975.got - 2010.06.03 11:33:40.
