data_PCOD9005076
_publ_section_title
;
Structure prediction by ZEFSAII (Michael W. Deem and Ramdas Pophale) SiO2 
 PCOD9005076
Probable space group: P -1
;
_chemical_formula_sum "Si O2"
_cell_formula_units_Z 16
_cell_length_a 13.444103
_cell_length_b 11.756921
_cell_length_c 10.765844
_cell_angle_alpha 127.808098
_cell_angle_beta 73.855964
_cell_angle_gamma 61.922508
_cell_volume 691.045538
_symmetry_space_group_name_H-M "P -1"
_symmetry_group_IT_number 2
_symmetry_cell_setting 'triclinic'
loop_
_space_group_symop_operation_xyz
x,y,z
-x,-y,-z
loop_
_atom_site_type_symbol
_atom_site_label
_atom_site_fract_x
_atom_site_fract_y
_atom_site_fract_z
Si Si1 0.650805 0.429360 0.960413
Si Si2 0.389436 0.510889 0.714733
Si Si3 0.073245 0.677089 0.263547
Si Si4 0.677240 0.003977 0.638046
Si Si5 0.653285 0.449234 0.517079
Si Si6 0.680862 0.716597 0.315572
Si Si7 0.301226 0.046505 0.115998
Si Si8 0.135555 0.538503 0.424510
O O1 0.703123 0.328236 0.015432
O O2 0.507231 0.737337 0.206607
O O3 0.500000 0.500000 0.000000
O O4 0.835283 0.272213 0.720955
O O5 0.586102 0.375430 0.549230
O O6 0.286003 0.654050 0.714697
O O7 0.390238 0.338355 0.619106
O O8 0.140142 0.520486 0.261461
O O9 0.844198 0.925927 0.507494
O O10 0.157396 0.516727 0.998003
O O11 0.756540 0.754913 0.404579
O O12 0.627607 0.057572 0.836423
O O13 0.796223 0.385533 0.499815
O O14 0.454717 0.778359 0.801330
O O15 0.500000 0.000000 0.500000
O O16 0.270579 0.251323 0.236397
O O17 0.085742 0.232702 0.305602
#
# Coordination Sequence:
#
# PCOD9005076 Si02
#       8
#     2   2   2   2   2   2   2   2
#     4  11  22  40  61  85 121 152 192 244 293 351
#     4  10  23  39  59  91 112 159 201 232 297 359
#     4  10  22  36  60  89 115 152 197 240 299 348
#     4  11  21  38  60  87 117 153 195 247 295 345
#     4  11  22  40  62  80 126 155 192 243 292 348
#     4  11  21  38  61  84 121 151 198 247 294 347
#     4  10  22  36  61  90 116 154 200 240 289 348
#     4  10  21  38  60  90 117 152 202 240 286 351
#
# _framework density 23.153323
#
# number of rings (size 3 to 8) (size 9 to 14) (size 15 to 20)
#    0.000    1.500    2.500    3.750    1.750    0.500 
#    0.000    8.750    0.000    0.000    0.000    0.000 
#    0.000    0.000    0.000    0.000    0.000    0.000 
#
# Total GULP energy -89306.096161 kJ/mol
# GULP energy per Si atom -5581.631010 kJ/mol
# Density = 2.310063 g / cm^3
# Si number density = 23.153323 Si / 1000 Ang^3
#
#
#
# Elastic Constant Matrix: (Units=GPa)
#
#
# Indices 1 2 3 4 5 6 
#
# 1 139.9866 3.7899 12.8232 -1.4172 -0.1105 15.0846
# 2 3.7899 53.9241 31.4353 -15.7762 -13.0339 3.6073
# 3 12.8232 31.4353 57.9082 -6.5658 -3.3313 -4.9005
# 4 -1.4172 -15.7762 -6.5658 31.7851 1.8710 -2.3604
# 5 -0.1105 -13.0339 -3.3313 1.8710 37.5083 -2.9921
# 6 15.0846 3.6073 -4.9005 -2.3604 -2.9921 34.9134
#
#
#
# Elastic Compliance Matrix: (Units=1/GPa)
#
#
# Indices 1 2 3 4 5 6 
#
# 1 0.007782 0.001365 -0.002778 0.000166 -0.000068 -0.003888
# 2 0.001365 0.035338 -0.017888 0.012963 0.009646 -0.005049
# 3 -0.002778 -0.017888 0.027667 -0.002622 -0.003119 0.006487
# 4 0.000166 0.012963 -0.002622 0.037285 0.002488 0.000955
# 5 -0.000068 0.009646 -0.003119 0.002488 0.029716 0.001310
# 6 -0.003888 -0.005049 0.006487 0.000955 0.001310 0.031931
#
#
# Mechanical properties :
#
#
# Convention : Reuss Voigt Hill
#
# Bulk Modulus (GPa) = 31.07167 38.65728 34.86447
# Shear Modulus (GPa) = 22.82592 34.42607 28.62600
#
# Velocity S-wave (km/s) = 3.14325 3.86018 3.52002
# Velocity P-wave (km/s) = 5.15969 6.04983 5.62241
#
# Compressibility (1/GPa) = 0.03218366
#
# Stress axis : x y z
#
# Youngs Moduli (GPa) = 128.50787 28.29803 36.14460
#
# Poissons Ratio (x) = -0.03862 0.10041
# Poissons Ratio (y) = -0.17538 0.64655
# Poissons Ratio (z) = 0.35701 0.50620
#
# Static dielectric constant tensor:
#      x y z
#    x 1.948810 0.068020 0.054860 
#    y 0.068020 1.854980 0.050060 
#    z 0.054860 0.050060 1.899720 
# 
# From -- ./inp_files/308300.got.cif
#   From: 2010.05.17/outbox.cif.g08.bks.cpg/sg2_155_cif.got.tgz:308300.got - 2010.06.03 11:33:40.
