data_PCOD9005309
_publ_section_title
;
Structure prediction by ZEFSAII (Michael W. Deem and Ramdas Pophale) SiO2 
 PCOD9005309
Probable space group: P -1
;
_chemical_formula_sum "Si O2"
_cell_formula_units_Z 14
_cell_length_a 5.298591
_cell_length_b 11.625424
_cell_length_c 28.328057
_cell_angle_alpha 26.677679
_cell_angle_beta 111.608263
_cell_angle_gamma 117.333858
_cell_volume 692.087298
_symmetry_space_group_name_H-M "P -1"
_symmetry_group_IT_number 2
_symmetry_cell_setting 'triclinic'
loop_
_space_group_symop_operation_xyz
x,y,z
-x,-y,-z
loop_
_atom_site_type_symbol
_atom_site_label
_atom_site_fract_x
_atom_site_fract_y
_atom_site_fract_z
Si Si1 0.465740 0.413465 0.861869
Si Si2 0.476592 0.164161 0.391957
Si Si3 0.720155 0.783184 0.170898
Si Si4 0.167641 0.830960 0.674386
Si Si5 0.920596 0.231373 0.206822
Si Si6 0.772146 0.206001 0.103820
Si Si7 0.254681 0.224424 0.013335
O O1 0.505858 0.272685 0.867808
O O2 0.204036 0.533116 0.791567
O O3 0.741347 0.669558 0.797021
O O4 0.416157 0.240392 0.968951
O O5 0.668224 0.477939 0.296426
O O6 0.610166 0.057834 0.394110
O O7 0.147797 0.159747 0.363646
O O8 0.500000 0.000000 0.500000
O O9 0.740615 0.977963 0.145424
O O10 0.007101 0.948139 0.102970
O O11 0.222700 0.926571 0.698008
O O12 0.839710 0.104479 0.196440
O O13 0.849828 0.513736 0.092189
O O14 0.463882 0.246548 0.063462
O O15 0.000000 0.500000 0.000000
#
# Coordination Sequence:
#
# PCOD9005309 Si02
#       7
#     2   2   2   2   2   2   2
#     4  10  21  38  61  91 131 170 213 259 315 377
#     4  11  24  45  71  98 124 158 212 281 332 374
#     4  11  24  37  61  93 127 166 217 266 319 376
#     4  10  21  41  67  97 124 160 212 260 329 380
#     4  11  21  40  61  88 134 181 206 255 309 387
#     4  12  24  38  54  89 137 181 217 247 305 380
#     4  11  22  35  59  86 135 176 221 252 310 370
#
# _framework density 20.228662
#
# number of rings (size 3 to 8) (size 9 to 14) (size 15 to 20)
#    0.000    1.143    5.714    1.286    4.000    2.286 
#    0.000    0.000    0.000    1.714    0.000    0.000 
#    0.000    0.000    0.000    0.000    0.000    0.000 
#
# Total GULP energy -77955.339283 kJ/mol
# GULP energy per Si atom -5568.238520 kJ/mol
# Density = 2.018262 g / cm^3
# Si number density = 20.228662 Si / 1000 Ang^3
#
#
#
# Elastic Constant Matrix: (Units=GPa)
#
#
# Indices 1 2 3 4 5 6 
#
# 1 88.6484 34.3481 22.2088 27.5431 -9.6143 -1.6825
# 2 34.3481 132.1072 41.5675 40.6700 -6.5152 -22.1230
# 3 22.2088 41.5675 70.4101 28.5048 -18.0897 -10.8423
# 4 27.5431 40.6700 28.5048 33.1630 -6.2526 -3.5356
# 5 -9.6143 -6.5152 -18.0897 -6.2526 28.6156 12.2421
# 6 -1.6825 -22.1230 -10.8423 -3.5356 12.2421 42.9284
#
#
#
# Elastic Compliance Matrix: (Units=1/GPa)
#
#
# Indices 1 2 3 4 5 6 
#
# 1 0.015523 -0.000593 0.001379 -0.012794 0.003791 -0.001484
# 2 -0.000593 0.013830 -0.002118 -0.014782 -0.004451 0.006621
# 3 0.001379 -0.002118 0.025520 -0.018181 0.011923 0.000511
# 4 -0.012794 -0.014782 -0.018181 0.073793 -0.000223 -0.006570
# 5 0.003791 -0.004451 0.011923 -0.000223 0.048214 -0.012902
# 6 -0.001484 0.006621 0.000511 -0.006570 -0.012902 0.029916
#
#
# Mechanical properties :
#
#
# Convention : Reuss Voigt Hill
#
# Bulk Modulus (GPa) = 19.15349 54.15719 36.65534
# Shear Modulus (GPa) = 22.03985 33.81081 27.92533
#
# Velocity S-wave (km/s) = 3.30439 4.09275 3.71952
# Velocity P-wave (km/s) = 4.90385 7.01176 6.05031
#
# Compressibility (1/GPa) = 0.05220980
#
# Stress axis : x y z
#
# Youngs Moduli (GPa) = 64.42124 72.30743 39.18483
#
# Poissons Ratio (x) = 0.04284 -0.05402
# Poissons Ratio (y) = 0.03817 0.08298
# Poissons Ratio (z) = -0.08882 0.15312
#
# Static dielectric constant tensor:
#      x y z
#    x 1.859910 -0.052880 -0.015620 
#    y -0.052880 1.789870 0.007330 
#    z -0.015620 0.007330 1.722820 
# 
# From -- ./inp_files/85228.got.cif
#   From: 2010.05.17/outbox.cif.g08.bks.cpg/sg2_43_cif.got.tgz:85228.got - 2010.06.03 11:33:40.
