data_PCOD9005021
_publ_section_title
;
Structure prediction by ZEFSAII (Michael W. Deem and Ramdas Pophale) SiO2 
 PCOD9005021
Probable space group: P -1
;
_chemical_formula_sum "Si O2"
_cell_formula_units_Z 14
_cell_length_a 16.959839
_cell_length_b 10.973306
_cell_length_c 7.234425
_cell_angle_alpha 80.974685
_cell_angle_beta 80.519346
_cell_angle_gamma 145.507325
_cell_volume 640.571222
_symmetry_space_group_name_H-M "P -1"
_symmetry_group_IT_number 2
_symmetry_cell_setting 'triclinic'
loop_
_space_group_symop_operation_xyz
x,y,z
-x,-y,-z
loop_
_atom_site_type_symbol
_atom_site_label
_atom_site_fract_x
_atom_site_fract_y
_atom_site_fract_z
Si Si1 0.522515 0.875298 0.177879
Si Si2 0.646024 0.672684 0.040126
Si Si3 0.970373 0.974969 0.735370
Si Si4 0.551632 0.748695 0.510671
Si Si5 0.457562 0.828625 0.794531
Si Si6 0.184055 0.878003 0.945635
Si Si7 0.905364 0.671979 0.102182
O O1 0.456743 0.785204 0.018562
O O2 0.466390 0.687855 0.373209
O O3 0.722187 0.123728 0.045497
O O4 0.520476 0.053352 0.727896
O O5 0.500000 0.500000 0.000000
O O6 0.558902 0.503967 0.297242
O O7 0.738826 0.923923 0.983520
O O8 0.279565 0.589327 0.828635
O O9 0.218604 0.239996 0.104919
O O10 0.000000 0.000000 0.500000
O O11 0.993958 0.881181 0.866982
O O12 0.560725 0.871589 0.625654
O O13 0.734622 0.970770 0.316681
O O14 0.072629 0.221552 0.740598
O O15 0.995162 0.659793 0.074705
#
# Coordination Sequence:
#
# PCOD9005021 Si02
#       7
#     2   2   2   2   2   2   2
#     4   9  23  38  64  86 121 161 205 258 288 359
#     4  11  21  36  62  90 118 160 200 248 300 371
#     4  10  23  39  58  87 125 158 196 246 307 363
#     4  10  21  38  60  87 121 157 202 247 305 355
#     4  11  20  41  64  88 117 161 216 241 302 352
#     4   9  22  38  56  87 124 155 194 248 309 347
#     4  10  22  40  57  90 122 157 198 251 296 372
#
# _framework density 21.855492999999999
#
# number of rings (size 3 to 8) (size 9 to 14) (size 15 to 20)
#    0.857    1.143    1.429    1.714    2.000    2.857 
#    0.000    0.000    0.000    1.714    0.000    0.000 
#    0.000    0.000    0.000    0.000    0.000    0.000 
#
# Total GULP energy -78091.366647 kJ/mol
# GULP energy per Si atom -5577.954761 kJ/mol
# Density = 2.180575 g / cm^3
# Si number density = 21.855493 Si / 1000 Ang^3
#
#
#
# Elastic Constant Matrix: (Units=GPa)
#
#
# Indices 1 2 3 4 5 6 
#
# 1 52.5951 18.3859 -12.3723 4.6749 -12.9699 6.8100
# 2 18.3859 91.3129 30.4818 20.7297 -10.2018 19.9573
# 3 -12.3723 30.4818 75.9454 22.2782 -0.1284 7.2152
# 4 4.6749 20.7297 22.2782 21.9756 0.2117 -1.1999
# 5 -12.9699 -10.2018 -0.1284 0.2117 41.6880 2.4571
# 6 6.8100 19.9573 7.2152 -1.1999 2.4571 23.8329
#
#
#
# Elastic Compliance Matrix: (Units=1/GPa)
#
#
# Indices 1 2 3 4 5 6 
#
# 1 0.027308 -0.002316 0.010937 -0.015388 0.008680 -0.010844
# 2 -0.002316 0.020535 -0.001580 -0.018286 0.005426 -0.017536
# 3 0.010937 -0.001580 0.024269 -0.026070 0.003863 -0.010860
# 4 -0.015388 -0.018286 -0.026070 0.094404 -0.011801 0.033572
# 5 0.008680 0.005426 0.003863 -0.011801 0.028781 -0.011755
# 6 -0.010844 -0.017536 -0.010860 0.033572 -0.011755 0.065932
#
#
# Mechanical properties :
#
#
# Convention : Reuss Voigt Hill
#
# Bulk Modulus (GPa) = 11.60164 32.53823 22.06994
# Shear Modulus (GPa) = 18.12389 29.72316 23.92353
#
# Velocity S-wave (km/s) = 2.88281 3.69180 3.31210
# Velocity P-wave (km/s) = 4.04977 5.75263 4.97461
#
# Compressibility (1/GPa) = 0.08619472
#
# Stress axis : x y z
#
# Youngs Moduli (GPa) = 36.61899 48.69626 41.20455
#
# Poissons Ratio (x) = 0.11280 -0.45067
# Poissons Ratio (y) = 0.08482 0.06511
# Poissons Ratio (z) = -0.40052 0.07695
#
# Static dielectric constant tensor:
#      x y z
#    x 1.876260 -0.011810 -0.028020 
#    y -0.011810 1.807610 0.001480 
#    z -0.028020 0.001480 1.857440 
# 
# From -- ./inp_files/127398.got.cif
#   From: 2010.05.17/outbox.cif.g08.bks.cpg/sg2_64_cif.got.tgz:127398.got - 2010.06.03 11:33:40.
