data_PCOD9005381
_publ_section_title
;
Structure prediction by ZEFSAII (Michael W. Deem and Ramdas Pophale) SiO2 
 PCOD9005381
Probable space group: P -1
;
_chemical_formula_sum "Si O2"
_cell_formula_units_Z 16
_cell_length_a 10.705637
_cell_length_b 16.685923
_cell_length_c 6.826435
_cell_angle_alpha 43.142134
_cell_angle_beta 95.045821
_cell_angle_gamma 110.392358
_cell_volume 754.835038
_symmetry_space_group_name_H-M "P -1"
_symmetry_group_IT_number 2
_symmetry_cell_setting 'triclinic'
loop_
_space_group_symop_operation_xyz
x,y,z
-x,-y,-z
loop_
_atom_site_type_symbol
_atom_site_label
_atom_site_fract_x
_atom_site_fract_y
_atom_site_fract_z
Si Si1 0.469107 0.886891 0.854718
Si Si2 0.641601 0.694414 0.792414
Si Si3 0.219766 0.280183 0.831214
Si Si4 0.034368 0.650795 0.244248
Si Si5 0.671647 0.508340 0.844278
Si Si6 0.746203 0.295395 0.129759
Si Si7 0.754280 0.161930 0.762290
Si Si8 0.265187 0.096314 0.902866
O O1 0.377923 0.757730 0.950704
O O2 0.500000 0.000000 0.500000
O O3 0.373555 0.896293 0.001488
O O4 0.606153 0.888989 0.966553
O O5 0.705066 0.600817 0.871555
O O6 0.675586 0.812956 0.439549
O O7 0.704451 0.737586 0.935756
O O8 0.478760 0.605868 0.940316
O O9 0.322564 0.400138 0.500284
O O10 0.176964 0.155176 0.909791
O O11 0.096374 0.316310 0.814424
O O12 0.130415 0.718532 0.322602
O O13 0.000000 0.500000 0.500000
O O14 0.124697 0.709891 0.956534
O O15 0.771652 0.439276 0.938159
O O16 0.711424 0.209894 0.471659
O O17 0.803434 0.051046 0.910916
#
# Coordination Sequence:
#
# PCOD9005381 Si02
#       8
#     2   2   2   2   2   2   2   2
#     4  11  23  40  69 102 137 168 211 268 336 397
#     4  10  23  38  65  97 137 172 210 271 339 393
#     4  11  24  43  66  91 135 178 221 277 325 383
#     4  11  26  47  65  96 130 176 234 279 320 382
#     4  10  21  38  62 100 127 170 220 266 334 400
#     4  11  23  40  70  97 132 174 217 279 330 387
#     4  11  26  42  68 101 132 173 225 267 332 397
#     4  11  24  42  67 103 135 171 217 266 338 405
#
# _framework density 21.196687000000001
#
# number of rings (size 3 to 8) (size 9 to 14) (size 15 to 20)
#    0.000    1.250    2.500    2.250    5.250    5.000 
#    0.000    1.250    0.000    0.000    0.000    0.000 
#    0.000    0.000    0.000    0.000    0.000    0.000 
#
# Total GULP energy -89446.370720 kJ/mol
# GULP energy per Si atom -5590.398170 kJ/mol
# Density = 2.114844 g / cm^3
# Si number density = 21.196687 Si / 1000 Ang^3
#
#
#
# Elastic Constant Matrix: (Units=GPa)
#
#
# Indices 1 2 3 4 5 6 
#
# 1 43.7477 33.4392 12.4859 -3.5929 2.1407 -14.1942
# 2 33.4392 136.5295 50.8039 -5.0868 2.4951 -24.6342
# 3 12.4859 50.8039 101.4833 20.3389 7.0589 -10.9640
# 4 -3.5929 -5.0868 20.3389 37.3208 -7.3357 4.8199
# 5 2.1407 2.4951 7.0589 -7.3357 20.5510 -4.0641
# 6 -14.1942 -24.6342 -10.9640 4.8199 -4.0641 33.8371
#
#
#
# Elastic Compliance Matrix: (Units=1/GPa)
#
#
# Indices 1 2 3 4 5 6 
#
# 1 0.030081 -0.005821 -0.000077 0.001007 -0.000427 0.008161
# 2 -0.005821 0.011759 -0.005872 0.004426 0.003569 0.004015
# 3 -0.000077 -0.005872 0.015798 -0.011259 -0.008447 0.001401
# 4 0.001007 0.004426 -0.011259 0.037180 0.015824 -0.003399
# 5 -0.000427 0.003569 -0.008447 0.015824 0.057682 0.004356
# 6 0.008161 0.004015 0.001401 -0.003399 0.004356 0.037361
#
#
# Mechanical properties :
#
#
# Convention : Reuss Voigt Hill
#
# Bulk Modulus (GPa) = 29.32723 52.80207 41.06465
# Shear Modulus (GPa) = 22.24507 30.67722 26.46114
#
# Velocity S-wave (km/s) = 3.24305 3.80842 3.53705
# Velocity P-wave (km/s) = 5.28100 6.65608 6.00801
#
# Compressibility (1/GPa) = 0.03409800
#
# Stress axis : x y z
#
# Youngs Moduli (GPa) = 33.24322 85.03933 63.29756
#
# Poissons Ratio (x) = 0.49501 0.00489
# Poissons Ratio (y) = 0.19351 0.37169
# Poissons Ratio (z) = 0.00257 0.49937
#
# Static dielectric constant tensor:
#      x y z
#    x 1.774890 -0.024370 -0.023340 
#    y -0.024370 1.774020 -0.013260 
#    z -0.023340 -0.013260 1.732430 
# 
# From -- ./inp_files/70784.got.cif
#   From: 2010.05.17/outbox.cif.g08.bks.cpg/sg2_36_cif.got.tgz:70784.got - 2010.06.03 11:33:40.
