data_PCOD9005199
_publ_section_title
;
Structure prediction by ZEFSAII (Michael W. Deem and Ramdas Pophale) SiO2 
 PCOD9005199
Probable space group: P -1
;
_chemical_formula_sum "Si O2"
_cell_formula_units_Z 16
_cell_length_a 11.622752
_cell_length_b 9.628014
_cell_length_c 14.068844
_cell_angle_alpha 78.826957
_cell_angle_beta 108.143106
_cell_angle_gamma 41.122776
_cell_volume 716.491759
_symmetry_space_group_name_H-M "P -1"
_symmetry_group_IT_number 2
_symmetry_cell_setting 'triclinic'
loop_
_space_group_symop_operation_xyz
x,y,z
-x,-y,-z
loop_
_atom_site_type_symbol
_atom_site_label
_atom_site_fract_x
_atom_site_fract_y
_atom_site_fract_z
Si Si1 0.510397 0.774428 0.035197
Si Si2 0.418894 0.342648 0.510715
Si Si3 0.167920 0.724663 0.681903
Si Si4 0.721922 0.767910 0.937670
Si Si5 0.433866 0.115651 0.326304
Si Si6 0.628715 0.349822 0.428732
Si Si7 0.979115 0.621538 0.570713
Si Si8 0.018465 0.324940 0.743313
O O1 0.671313 0.486450 0.159891
O O2 0.391176 0.983224 0.066560
O O3 0.685655 0.684855 0.020163
O O4 0.262976 0.995655 0.881688
O O5 0.470687 0.385383 0.425768
O O6 0.482278 0.386697 0.604206
O O7 0.131550 0.594414 0.391328
O O8 0.552606 0.057899 0.604760
O O9 0.308758 0.697650 0.658901
O O10 0.107288 0.643045 0.614273
O O11 0.894784 0.061185 0.587515
O O12 0.564530 0.895167 0.785484
O O13 0.000000 0.500000 0.000000
O O14 0.184483 0.443249 0.256784
O O15 0.680549 0.939472 0.452418
O O16 0.000000 0.500000 0.500000
O O17 0.074834 0.426299 0.707978
#
# Coordination Sequence:
#
# PCOD9005199 Si02
#       8
#     2   2   2   2   2   2   2   2
#     4  11  23  39  58  87 132 159 196 251 301 375
#     4  10  21  38  61  87 119 157 204 259 291 351
#     4  11  22  39  60  86 118 164 202 252 299 355
#     4  11  22  36  57  92 128 164 192 231 316 386
#     4  11  21  36  61  94 122 156 197 250 316 369
#     4  10  22  39  60  83 113 161 218 247 289 350
#     4  11  20  34  59  90 121 153 196 255 313 359
#     4  11  21  37  59  91 124 156 193 250 321 374
#
# _framework density 22.331032
#
# number of rings (size 3 to 8) (size 9 to 14) (size 15 to 20)
#    0.000    1.250    1.250    8.250    1.750    0.000 
#    0.000    1.250    0.000    0.000    0.000    0.000 
#    0.000    0.000    0.000    0.000    0.000    0.000 
#
# Total GULP energy -89288.661211 kJ/mol
# GULP energy per Si atom -5580.541326 kJ/mol
# Density = 2.228021 g / cm^3
# Si number density = 22.331032 Si / 1000 Ang^3
#
#
#
# Elastic Constant Matrix: (Units=GPa)
#
#
# Indices 1 2 3 4 5 6 
#
# 1 83.3408 11.7820 16.9068 -2.9242 -9.6681 -26.0310
# 2 11.7820 66.0766 0.8709 7.5901 4.0324 -17.5781
# 3 16.9068 0.8709 125.9679 -3.9839 -11.4457 -19.6415
# 4 -2.9242 7.5901 -3.9839 32.1458 -1.8960 1.9716
# 5 -9.6681 4.0324 -11.4457 -1.8960 24.4983 5.9933
# 6 -26.0310 -17.5781 -19.6415 1.9716 5.9933 39.3375
#
#
#
# Elastic Compliance Matrix: (Units=1/GPa)
#
#
# Indices 1 2 3 4 5 6 
#
# 1 0.015514 -0.000710 -0.000249 0.001221 0.003977 0.009158
# 2 -0.000710 0.018710 0.000744 -0.005304 -0.005722 0.009400
# 3 -0.000249 0.000744 0.008907 0.000830 0.002998 0.004117
# 4 0.001221 -0.005304 0.000830 0.033101 0.005184 -0.003597
# 5 0.003977 -0.005722 0.002998 0.005184 0.046546 -0.005780
# 6 0.009158 0.009400 0.004117 -0.003597 -0.005780 0.038798
#
#
# Mechanical properties :
#
#
# Convention : Reuss Voigt Hill
#
# Bulk Modulus (GPa) = 23.41880 37.16717 30.29298
# Shear Modulus (GPa) = 28.37027 35.58470 31.97748
#
# Velocity S-wave (km/s) = 3.56819 3.99621 3.78825
# Velocity P-wave (km/s) = 5.24270 6.16221 5.72095
#
# Compressibility (1/GPa) = 0.04270074
#
# Stress axis : x y z
#
# Youngs Moduli (GPa) = 64.45629 53.44778 112.26649
#
# Poissons Ratio (x) = 0.03794 0.02801
# Poissons Ratio (y) = 0.04575 -0.08352
# Poissons Ratio (z) = 0.01608 -0.03976
#
# Static dielectric constant tensor:
#      x y z
#    x 1.867450 -0.024050 0.037240 
#    y -0.024050 1.923000 -0.005170 
#    z 0.037240 -0.005170 1.823770 
# 
# From -- ./inp_files/519594.got.cif
#   From: 2010.05.17/outbox.cif.g08.bks.cpg/sg2_260_cif.got.tgz:519594.got - 2010.06.03 11:33:40.
