data_PCOD9005087
_publ_section_title
;
Structure prediction by ZEFSAII (Michael W. Deem and Ramdas Pophale) SiO2 
 PCOD9005087
Probable space group: P -1
;
_chemical_formula_sum "Si O2"
_cell_formula_units_Z 16
_cell_length_a 20.915626
_cell_length_b 8.403359
_cell_length_c 12.120928
_cell_angle_alpha 81.204580
_cell_angle_beta 153.860808
_cell_angle_gamma 114.561806
_cell_volume 713.091293
_symmetry_space_group_name_H-M "P -1"
_symmetry_group_IT_number 2
_symmetry_cell_setting 'triclinic'
loop_
_space_group_symop_operation_xyz
x,y,z
-x,-y,-z
loop_
_atom_site_type_symbol
_atom_site_label
_atom_site_fract_x
_atom_site_fract_y
_atom_site_fract_z
Si Si1 0.857438 0.618055 0.137510
Si Si2 0.677353 0.619271 0.063657
Si Si3 0.274859 0.855580 0.795373
Si Si4 0.793654 0.412515 0.829053
Si Si5 0.384234 0.073139 0.166857
Si Si6 0.141898 0.419034 0.324186
Si Si7 0.021986 0.925281 0.731652
Si Si8 0.525423 0.272714 0.025738
O O1 0.717970 0.526272 0.035472
O O2 0.053382 0.669327 0.463275
O O3 0.914778 0.846157 0.189366
O O4 0.785903 0.495731 0.925293
O O5 0.533045 0.439752 0.946909
O O6 0.873978 0.786669 0.417242
O O7 0.616630 0.745985 0.905208
O O8 0.390589 0.801357 0.918528
O O9 0.333717 0.919097 0.005592
O O10 0.334389 0.065051 0.802512
O O11 0.590911 0.186287 0.520732
O O12 0.822358 0.551043 0.753578
O O13 0.972799 0.422110 0.093748
O O14 0.210427 0.956073 0.994428
O O15 0.324738 0.606956 0.655436
O O16 0.076035 0.204007 0.295508
#
# Coordination Sequence:
#
# PCOD9005087 Si02
#       8
#     2   2   2   2   2   2   2   2
#     4  11  21  39  61  86 118 153 188 237 288 343
#     4  10  21  38  60  91 115 145 192 247 288 327
#     4  11  20  37  60  90 110 151 196 235 282 332
#     4  11  24  39  58  82 122 159 186 229 294 346
#     4  11  21  39  61  86 118 153 188 237 288 343
#     4  10  22  40  57  85 121 155 186 236 290 341
#     4  10  21  38  62  87 115 147 198 241 280 337
#     4  10  22  36  61  91 115 143 198 246 278 333
#
# _framework density 22.437522000000001
#
# number of rings (size 3 to 8) (size 9 to 14) (size 15 to 20)
#    0.000    1.500    5.000    0.750    0.000    6.000 
#    0.000    2.500    0.000    0.000    0.000    0.000 
#    0.000    0.000    0.000    0.000    0.000    0.000 
#
# Total GULP energy -89528.856470 kJ/mol
# GULP energy per Si atom -5595.553529 kJ/mol
# Density = 2.238645 g / cm^3
# Si number density = 22.437522 Si / 1000 Ang^3
#
#
#
# Elastic Constant Matrix: (Units=GPa)
#
#
# Indices 1 2 3 4 5 6 
#
# 1 131.2221 2.7018 49.5182 2.2428 -11.9144 -1.2700
# 2 2.7018 46.7022 6.2173 -0.8820 -4.4164 24.9848
# 3 49.5182 6.2173 80.4340 -5.7093 -7.2644 -1.9736
# 4 2.2428 -0.8820 -5.7093 17.6281 -4.1697 4.4857
# 5 -11.9144 -4.4164 -7.2644 -4.1697 42.3838 2.5496
# 6 -1.2700 24.9848 -1.9736 4.4857 2.5496 40.7271
#
#
#
# Elastic Compliance Matrix: (Units=1/GPa)
#
#
# Indices 1 2 3 4 5 6 
#
# 1 0.010214 0.000319 -0.006389 -0.003008 0.001511 0.000050
# 2 0.000319 0.034334 -0.002353 0.007882 0.005385 -0.022372
# 3 -0.006389 -0.002353 0.017153 0.006261 0.001437 0.001296
# 4 -0.003008 0.007882 0.006261 0.064574 0.008138 -0.012247
# 5 0.001511 0.005385 0.001437 0.008138 0.025970 -0.005709
# 6 0.000050 -0.022372 0.001296 -0.012247 -0.005709 0.040049
#
#
# Mechanical properties :
#
#
# Convention : Reuss Voigt Hill
#
# Bulk Modulus (GPa) = 22.29398 41.69254 31.99326
# Shear Modulus (GPa) = 22.31228 33.47587 27.89408
#
# Velocity S-wave (km/s) = 3.15686 3.86678 3.52971
# Velocity P-wave (km/s) = 4.82134 6.20950 5.55892
#
# Compressibility (1/GPa) = 0.04485517
#
# Stress axis : x y z
#
# Youngs Moduli (GPa) = 97.90517 29.12577 58.29721
#
# Poissons Ratio (x) = -0.00929 0.37244
# Poissons Ratio (y) = -0.03121 0.13719
# Poissons Ratio (z) = 0.62548 0.06854
#
# Static dielectric constant tensor:
#      x y z
#    x 1.811780 0.024660 0.021850 
#    y 0.024660 1.892670 -0.018320 
#    z 0.021850 -0.018320 1.786980 
# 
# From -- ./inp_files/187776.got.cif
#   From: 2010.05.17/outbox.cif.g08.bks.cpg/sg2_94_cif.got.tgz:187776.got - 2010.06.03 11:33:40.
