data_PCOD9005900
_publ_section_title
;
Structure prediction by ZEFSAII (Michael W. Deem and Ramdas Pophale) SiO2 
 PCOD9005900
Probable space group: P -1
;
_chemical_formula_sum "Si O2"
_cell_formula_units_Z 16
_cell_length_a 14.761693
_cell_length_b 12.313252
_cell_length_c 9.015716
_cell_angle_alpha 110.728884
_cell_angle_beta 37.722589
_cell_angle_gamma 128.888959
_cell_volume 744.591493
_symmetry_space_group_name_H-M "P -1"
_symmetry_group_IT_number 2
_symmetry_cell_setting 'triclinic'
loop_
_space_group_symop_operation_xyz
x,y,z
-x,-y,-z
loop_
_atom_site_type_symbol
_atom_site_label
_atom_site_fract_x
_atom_site_fract_y
_atom_site_fract_z
Si Si1 0.211015 0.345031 0.929462
Si Si2 0.951205 0.483010 0.883804
Si Si3 0.502258 0.566273 0.871314
Si Si4 0.079676 0.908186 0.592084
Si Si5 0.201583 0.610039 0.370479
Si Si6 0.416935 0.952087 0.249797
Si Si7 0.814581 0.171228 0.890207
Si Si8 0.872859 0.804644 0.341244
O O1 0.412953 0.450999 0.795692
O O2 0.200646 0.257603 0.758040
O O3 0.135085 0.435324 0.017178
O O4 0.077125 0.230969 0.176967
O O5 0.818936 0.311752 0.929922
O O6 0.146300 0.552338 0.581028
O O7 0.000000 0.500000 0.000000
O O8 0.705011 0.706429 0.627737
O O9 0.500000 0.500000 0.000000
O O10 0.356579 0.601745 0.097459
O O11 0.275124 0.990599 0.469255
O O12 0.115580 0.860580 0.365594
O O13 0.045299 0.027069 0.670006
O O14 0.286238 0.778155 0.343902
O O15 0.000000 0.500000 0.500000
O O16 0.500000 0.000000 0.000000
O O17 0.604978 0.035971 0.140564
O O18 0.963026 0.206577 0.838332
#
# Coordination Sequence:
#
# PCOD9005900 Si02
#       8
#     2   2   2   2   2   2   2   2
#     4  12  25  45  70 100 142 187 227 290 357 418
#     4  12  24  43  71 101 140 179 234 289 354 411
#     4  12  26  44  71 105 136 180 240 286 345 421
#     4  11  23  43  70  98 135 181 239 282 348 416
#     4  12  22  44  74 100 133 181 235 292 338 409
#     4  10  21  38  64 104 126 172 232 288 340 394
#     4  11  24  43  71  99 140 184 235 289 345 409
#     4  12  26  46  65 102 145 188 222 287 358 421
#
# _framework density 21.488292000000001
#
# number of rings (size 3 to 8) (size 9 to 14) (size 15 to 20)
#    0.000    0.500    3.750    6.375    1.750    1.000 
#    0.000    2.500    0.000    0.000    0.000    0.000 
#    0.000    0.000    0.000    0.000    0.000    0.000 
#
# Total GULP energy -89447.332682 kJ/mol
# GULP energy per Si atom -5590.458293 kJ/mol
# Density = 2.143938 g / cm^3
# Si number density = 21.488292 Si / 1000 Ang^3
#
#
#
# Elastic Constant Matrix: (Units=GPa)
#
#
# Indices 1 2 3 4 5 6 
#
# 1 82.4688 22.5101 4.2834 -12.4660 1.1648 5.9289
# 2 22.5101 118.0231 12.5341 -10.5469 4.3686 -10.3422
# 3 4.2834 12.5341 36.6392 -21.6264 -5.5636 5.9811
# 4 -12.4660 -10.5469 -21.6264 42.2893 8.5495 0.6852
# 5 1.1648 4.3686 -5.5636 8.5495 40.0128 4.4740
# 6 5.9289 -10.3422 5.9811 0.6852 4.4740 30.0240
#
#
#
# Elastic Compliance Matrix: (Units=1/GPa)
#
#
# Indices 1 2 3 4 5 6 
#
# 1 0.013837 -0.002887 0.003016 0.005023 -0.000249 -0.004405
# 2 -0.002887 0.010007 -0.004423 -0.000267 -0.002151 0.005225
# 3 0.003016 -0.004423 0.043637 0.021655 0.003152 -0.011776
# 4 0.005023 -0.000267 0.021655 0.037117 -0.004412 -0.005587
# 5 -0.000249 -0.002151 0.003152 -0.004412 0.027205 -0.005273
# 6 -0.004405 0.005225 -0.011776 -0.005587 -0.005273 0.039236
#
#
# Mechanical properties :
#
#
# Convention : Reuss Voigt Hill
#
# Bulk Modulus (GPa) = 16.98021 35.08738 26.03380
# Shear Modulus (GPa) = 25.09329 35.65211 30.37270
#
# Velocity S-wave (km/s) = 3.42097 4.07767 3.76367
# Velocity P-wave (km/s) = 4.85008 6.20757 5.57033
#
# Compressibility (1/GPa) = 0.05889207
#
# Stress axis : x y z
#
# Youngs Moduli (GPa) = 72.27143 99.93097 22.91659
#
# Poissons Ratio (x) = 0.28853 -0.06912
# Poissons Ratio (y) = 0.20867 0.10136
# Poissons Ratio (z) = -0.21799 0.44199
#
# Static dielectric constant tensor:
#      x y z
#    x 1.842090 0.026080 -0.001410 
#    y 0.026080 1.833440 0.012470 
#    z -0.001410 0.012470 1.764820 
# 
# From -- ./inp_files/307896.got.cif
#   From: 2010.05.17/outbox.cif.g08.bks.cpg/sg2_154_cif.got.tgz:307896.got - 2010.06.03 11:33:40.
