data_PCOD9005173
_publ_section_title
;
Structure prediction by ZEFSAII (Michael W. Deem and Ramdas Pophale) SiO2 
 PCOD9005173
Probable space group: P -1
;
_chemical_formula_sum "Si O2"
_cell_formula_units_Z 16
_cell_length_a 7.315718
_cell_length_b 20.272727
_cell_length_c 7.548937
_cell_angle_alpha 39.660388
_cell_angle_beta 106.373240
_cell_angle_gamma 106.495185
_cell_volume 681.470966
_symmetry_space_group_name_H-M "P -1"
_symmetry_group_IT_number 2
_symmetry_cell_setting 'triclinic'
loop_
_space_group_symop_operation_xyz
x,y,z
-x,-y,-z
loop_
_atom_site_type_symbol
_atom_site_label
_atom_site_fract_x
_atom_site_fract_y
_atom_site_fract_z
Si Si1 0.804293 0.641853 0.144083
Si Si2 0.836814 0.762624 0.398330
Si Si3 0.726272 0.531923 0.001535
Si Si4 0.424607 0.787288 0.249435
Si Si5 0.912994 0.355068 0.495270
Si Si6 0.488187 0.205427 0.318739
Si Si7 0.318843 0.918476 0.653975
Si Si8 0.918041 0.862473 0.580775
O O1 0.792823 0.553735 0.176576
O O2 0.900821 0.604637 0.423355
O O3 0.598280 0.688445 0.986204
O O4 0.940253 0.746975 0.906499
O O5 0.635457 0.790828 0.211375
O O6 0.016046 0.749040 0.353546
O O7 0.894361 0.840878 0.410653
O O8 0.779453 0.644221 0.696658
O O9 0.840855 0.437231 0.168611
O O10 0.500000 0.500000 0.000000
O O11 0.284243 0.684444 0.377871
O O12 0.452178 0.787791 0.470384
O O13 0.332504 0.879437 0.939057
O O14 0.642844 0.171120 0.296593
O O15 0.293770 0.123161 0.435998
O O16 0.102678 0.940509 0.509969
O O17 0.500000 0.000000 0.500000
#
# Coordination Sequence:
#
# PCOD9005173 Si02
#       8
#     2   2   2   2   2   2   2   2
#     4   9  19  38  57  79 120 159 191 238 296 344
#     4  10  21  38  61  84 116 166 202 228 300 359
#     4  11  20  36  56  88 123 156 200 251 282 337
#     4  11  21  40  64  84 120 164 194 244 300 358
#     4  12  20  34  61  86 120 158 203 246 289 340
#     4   9  20  41  60  81 122 159 187 243 302 354
#     4  12  24  38  64  95 114 148 204 250 301 363
#     4   8  19  40  56  79 119 152 190 237 291 350
#
# _framework density 23.478621
#
# number of rings (size 3 to 8) (size 9 to 14) (size 15 to 20)
#    0.750    1.000    3.750    2.250    0.000    1.000 
#    0.000    3.125    0.000    0.000    0.000    0.000 
#    0.000    0.000    0.000    0.000    0.000    0.000 
#
# Total GULP energy -89146.252141 kJ/mol
# GULP energy per Si atom -5571.640759 kJ/mol
# Density = 2.342518 g / cm^3
# Si number density = 23.478621 Si / 1000 Ang^3
#
#
#
# Elastic Constant Matrix: (Units=GPa)
#
#
# Indices 1 2 3 4 5 6 
#
# 1 94.3156 27.9015 4.7141 12.8490 8.0934 6.4661
# 2 27.9015 54.3713 13.9597 13.1577 5.8339 10.2319
# 3 4.7141 13.9597 47.0744 18.7228 -2.7032 9.7706
# 4 12.8490 13.1577 18.7228 29.4387 10.7847 3.2865
# 5 8.0934 5.8339 -2.7032 10.7847 21.4159 -9.9096
# 6 6.4661 10.2319 9.7706 3.2865 -9.9096 40.6183
#
#
#
# Elastic Compliance Matrix: (Units=1/GPa)
#
#
# Indices 1 2 3 4 5 6 
#
# 1 0.012962 -0.005888 0.001969 -0.003453 -0.001877 -0.001233
# 2 -0.005888 0.025057 -0.005164 -0.002271 -0.006691 -0.005581
# 3 0.001969 -0.005164 0.034609 -0.027258 0.018468 -0.000627
# 4 -0.003453 -0.002271 -0.027258 0.069336 -0.039991 -0.007688
# 5 -0.001877 -0.006691 0.018468 -0.039991 0.081226 0.020594
# 6 -0.001233 -0.005581 -0.000627 -0.007688 0.020594 0.032019
#
#
# Mechanical properties :
#
#
# Convention : Reuss Voigt Hill
#
# Bulk Modulus (GPa) = 18.36092 32.10134 25.23113
# Shear Modulus (GPa) = 17.15096 28.24030 22.69563
#
# Velocity S-wave (km/s) = 2.70570 3.47192 3.11247
# Velocity P-wave (km/s) = 4.19503 5.45660 4.86687
#
# Compressibility (1/GPa) = 0.05446351
#
# Stress axis : x y z
#
# Youngs Moduli (GPa) = 77.14693 39.90837 28.89425
#
# Poissons Ratio (x) = 0.23500 -0.05691
# Poissons Ratio (y) = 0.45428 0.14920
# Poissons Ratio (z) = -0.15194 0.20607
#
# Static dielectric constant tensor:
#      x y z
#    x 1.908070 -0.041010 -0.013920 
#    y -0.041010 1.941660 -0.010010 
#    z -0.013920 -0.010010 1.892780 
# 
# From -- ./inp_files/224812.got.cif
#   From: 2010.05.17/outbox.cif.g08.bks.cpg/sg2_113_cif.got.tgz:224812.got - 2010.06.03 11:33:40.
