data_PCOD9005332
_publ_section_title
;
Structure prediction by ZEFSAII (Michael W. Deem and Ramdas Pophale) SiO2 
 PCOD9005332
Probable space group: P -1
;
_chemical_formula_sum "Si O2"
_cell_formula_units_Z 16
_cell_length_a 5.225027
_cell_length_b 9.922123
_cell_length_c 20.180401
_cell_angle_alpha 47.389862
_cell_angle_beta 74.173158
_cell_angle_gamma 86.303839
_cell_volume 730.056409
_symmetry_space_group_name_H-M "P -1"
_symmetry_group_IT_number 2
_symmetry_cell_setting 'triclinic'
loop_
_space_group_symop_operation_xyz
x,y,z
-x,-y,-z
loop_
_atom_site_type_symbol
_atom_site_label
_atom_site_fract_x
_atom_site_fract_y
_atom_site_fract_z
Si Si1 0.403692 0.160038 0.737500
Si Si2 0.727734 0.953252 0.362451
Si Si3 0.716210 0.253986 0.063034
Si Si4 0.834838 0.990083 0.582005
Si Si5 0.396479 0.669008 0.735930
Si Si6 0.722797 0.467888 0.355040
Si Si7 0.664132 0.582328 0.057388
Si Si8 0.841642 0.479454 0.586191
O O1 0.310649 0.146160 0.671911
O O2 0.248660 0.309157 0.734152
O O3 0.714279 0.263877 0.680945
O O4 0.364694 0.958286 0.838637
O O5 0.439232 0.923602 0.430789
O O6 0.972311 0.923538 0.401315
O O7 0.765167 0.177452 0.272668
O O8 0.636860 0.392078 0.079427
O O9 0.556944 0.303656 0.992761
O O10 0.036697 0.306419 0.013092
O O11 0.704968 0.776589 0.678345
O O12 0.432632 0.433930 0.424232
O O13 0.000000 0.000000 0.500000
O O14 0.305696 0.635956 0.677727
O O15 0.367886 0.485646 0.842329
O O16 0.964482 0.439265 0.394995
O O17 0.000000 0.500000 0.500000
#
# Coordination Sequence:
#
# PCOD9005332 Si02
#       8
#     2   2   2   2   2   2   2   2
#     4  10  24  41  64  90 124 158 203 262 297 355
#     4  10  23  36  63  85 123 155 202 246 310 353
#     4  10  21  38  61  93 118 155 203 251 302 357
#     4  10  23  38  60  91 121 157 198 253 305 365
#     4  10  24  41  61  89 127 161 199 250 310 365
#     4  10  25  39  64  86 128 162 203 249 307 358
#     4  10  22  36  63  90 121 156 200 248 305 368
#     4  10  24  43  64  90 121 169 210 249 299 364
#
# _framework density 21.916111999999998
#
# number of rings (size 3 to 8) (size 9 to 14) (size 15 to 20)
#    1.500    0.500    1.250    0.750    7.000    3.000 
#    0.000    1.250    0.000    0.000    0.000    0.000 
#    0.000    0.000    0.000    0.000    0.000    0.000 
#
# Total GULP energy -89400.833422 kJ/mol
# GULP energy per Si atom -5587.552089 kJ/mol
# Density = 2.186623 g / cm^3
# Si number density = 21.916112 Si / 1000 Ang^3
#
#
#
# Elastic Constant Matrix: (Units=GPa)
#
#
# Indices 1 2 3 4 5 6 
#
# 1 103.4581 25.1623 20.0437 -8.4060 11.2158 25.6566
# 2 25.1623 81.3571 9.8473 -3.0418 -6.1459 26.3205
# 3 20.0437 9.8473 102.7688 -15.6375 -0.6367 5.9746
# 4 -8.4060 -3.0418 -15.6375 31.9263 2.8508 4.4299
# 5 11.2158 -6.1459 -0.6367 2.8508 19.8075 -1.9969
# 6 25.6566 26.3205 5.9746 4.4299 -1.9969 36.3383
#
#
#
# Elastic Compliance Matrix: (Units=1/GPa)
#
#
# Indices 1 2 3 4 5 6 
#
# 1 0.014349 -0.001656 -0.001323 0.005283 -0.010443 -0.009932
# 2 -0.001656 0.016825 -0.000300 0.002119 0.004738 -0.010966
# 3 -0.001323 -0.000300 0.010868 0.005107 0.000145 -0.001250
# 4 0.005283 0.002119 0.005107 0.037748 -0.008730 -0.011185
# 5 -0.010443 0.004738 0.000145 -0.008730 0.059965 0.008277
# 6 -0.009932 -0.010966 -0.001250 -0.011185 0.008277 0.044498
#
#
# Mechanical properties :
#
#
# Convention : Reuss Voigt Hill
#
# Bulk Modulus (GPa) = 28.18221 44.18785 36.18503
# Shear Modulus (GPa) = 24.67433 33.11647 28.89540
#
# Velocity S-wave (km/s) = 3.35901 3.89145 3.63499
# Velocity P-wave (km/s) = 5.28498 6.35588 5.84501
#
# Compressibility (1/GPa) = 0.03548338
#
# Stress axis : x y z
#
# Youngs Moduli (GPa) = 69.68962 59.43631 92.01302
#
# Poissons Ratio (x) = 0.09843 0.12177
# Poissons Ratio (y) = 0.11540 0.02760
# Poissons Ratio (z) = 0.09223 0.01783
#
# Static dielectric constant tensor:
#      x y z
#    x 1.808790 -0.025130 0.029350 
#    y -0.025130 1.773630 -0.049720 
#    z 0.029350 -0.049720 1.840240 
# 
# From -- ./inp_files/604308.got.cif
#   From: 2010.05.17/outbox.cif.g08.bks.cpg/sg2_303_cif.got.tgz:604308.got - 2010.06.03 11:33:40.
