data_PCOD9005461
_publ_section_title
;
Structure prediction by ZEFSAII (Michael W. Deem and Ramdas Pophale) SiO2 
 PCOD9005461
Probable space group: P -1
;
_chemical_formula_sum "Si O2"
_cell_formula_units_Z 16
_cell_length_a 13.016225
_cell_length_b 14.978614
_cell_length_c 8.690563
_cell_angle_alpha 128.502634
_cell_angle_beta 138.269419
_cell_angle_gamma 48.895404
_cell_volume 819.897601
_symmetry_space_group_name_H-M "P -1"
_symmetry_group_IT_number 2
_symmetry_cell_setting 'triclinic'
loop_
_space_group_symop_operation_xyz
x,y,z
-x,-y,-z
loop_
_atom_site_type_symbol
_atom_site_label
_atom_site_fract_x
_atom_site_fract_y
_atom_site_fract_z
Si Si1 0.204460 0.251974 0.647265
Si Si2 0.168729 0.000877 0.845021
Si Si3 0.550239 0.228345 0.594991
Si Si4 0.192593 0.010893 0.537105
Si Si5 0.436901 0.753210 0.000041
Si Si6 0.056435 0.499277 0.240169
Si Si7 0.184246 0.244353 0.251572
Si Si8 0.573333 0.503019 0.260467
O O1 0.182470 0.132886 0.566876
O O2 0.392948 0.241248 0.867390
O O3 0.179429 0.259016 0.444251
O O4 0.077902 0.377799 0.709269
O O5 0.238452 0.016854 0.772628
O O6 0.157361 0.120352 0.054007
O O7 0.986671 0.997250 0.651523
O O8 0.288998 0.870187 0.899486
O O9 0.572485 0.232862 0.809412
O O10 0.366998 0.225079 0.370587
O O11 0.540810 0.360683 0.663037
O O12 0.684399 0.110164 0.540637
O O13 0.431900 0.621530 0.808728
O O14 0.059683 0.370487 0.174760
O O15 0.237760 0.502155 0.500648
O O16 0.000000 0.500000 0.000000
O O17 0.500000 0.500000 0.000000
#
# Coordination Sequence:
#
# PCOD9005461 Si02
#       8
#     2   2   2   2   2   2   2   2
#     4  11  23  40  63  89 122 164 208 256 311 373
#     4  11  24  39  57  86 120 157 205 259 315 375
#     4   9  20  39  61  87 117 156 202 252 307 367
#     4  11  24  39  57  85 122 160 202 258 320 372
#     4  10  21  38  62  90 119 156 207 255 303 371
#     4  11  23  40  64  94 130 167 206 257 314 366
#     4  10  22  39  61  89 120 159 208 253 304 374
#     4   9  20  40  64  90 124 163 206 252 302 368
#
# _framework density 19.514633
#
# number of rings (size 3 to 8) (size 9 to 14) (size 15 to 20)
#    0.000    1.750    0.000    4.125    0.000   12.000 
#    0.000    1.250    0.000    0.000    0.000    0.000 
#    0.000    0.000    0.000    0.000    0.000    0.000 
#
# Total GULP energy -89192.166851 kJ/mol
# GULP energy per Si atom -5574.510428 kJ/mol
# Density = 1.947022 g / cm^3
# Si number density = 19.514633 Si / 1000 Ang^3
#
#
#
# Elastic Constant Matrix: (Units=GPa)
#
#
# Indices 1 2 3 4 5 6 
#
# 1 80.2324 64.3497 24.5662 5.7578 12.3803 -13.6479
# 2 64.3497 177.4133 28.5175 22.4685 -5.4377 -20.6242
# 3 24.5662 28.5175 64.4603 12.9584 -1.5337 -10.8739
# 4 5.7578 22.4685 12.9584 51.4400 5.9587 -10.6919
# 5 12.3803 -5.4377 -1.5337 5.9587 -1.8803 4.1130
# 6 -13.6479 -20.6242 -10.8739 -10.6919 4.1130 46.4357
#
#
#
# Elastic Compliance Matrix: (Units=1/GPa)
#
#
# Indices 1 2 3 4 5 6 
#
# 1 0.008111 -0.001354 -0.001123 -0.004864 0.036603 -0.002843
# 2 -0.001354 0.006318 -0.002189 0.000533 -0.016164 0.003450
# 3 -0.001123 -0.002189 0.017481 -0.001249 -0.011564 0.003528
# 4 -0.004864 0.000533 -0.001249 0.017422 0.023610 0.000435
# 5 0.036603 -0.016164 -0.011564 0.023610 -0.122331 0.017142
# 6 -0.002843 0.003450 0.003528 0.000435 0.017142 0.021640
#
#
# Mechanical properties :
#
#
# Convention : Reuss Voigt Hill
#
# Bulk Modulus (GPa) = 44.29027 61.88588 53.08807
# Shear Modulus (GPa) = -144.91494 32.84392 -56.03551
#
# Velocity S-wave (km/s) = -8.62675 4.10694 -5.36441
# Velocity P-wave (km/s) = 8.74543 7.36686 3.33256
#
# Compressibility (1/GPa) = 0.02257832
#
# Stress axis : x y z
#
# Youngs Moduli (GPa) = 123.28876 158.28852 57.20575
#
# Poissons Ratio (x) = 0.21432 0.06424
# Poissons Ratio (y) = 0.16693 0.12521
# Poissons Ratio (z) = 0.13844 0.34644
#
# Static dielectric constant tensor:
#      x y z
#    x 1.670500 0.022810 -0.008560 
#    y 0.022810 1.662650 -0.020160 
#    z -0.008560 -0.020160 1.731720 
# 
# From -- ./inp_files/182426.got.cif
#   From: 2010.05.17/outbox.cif.g08.bks.cpg/sg2_92_cif.got.tgz:182426.got - 2010.06.03 11:33:40.
