data_PCOD9005345
_publ_section_title
;
Structure prediction by ZEFSAII (Michael W. Deem and Ramdas Pophale) SiO2 
 PCOD9005345
Probable space group: P -1
;
_chemical_formula_sum "Si O2"
_cell_formula_units_Z 14
_cell_length_a 11.341674
_cell_length_b 9.135572
_cell_length_c 20.843263
_cell_angle_alpha 38.910630
_cell_angle_beta 26.082500
_cell_angle_gamma 37.232258
_cell_volume 558.146060
_symmetry_space_group_name_H-M "P -1"
_symmetry_group_IT_number 2
_symmetry_cell_setting 'triclinic'
loop_
_space_group_symop_operation_xyz
x,y,z
-x,-y,-z
loop_
_atom_site_type_symbol
_atom_site_label
_atom_site_fract_x
_atom_site_fract_y
_atom_site_fract_z
Si Si1 0.131847 0.267172 0.727548
Si Si2 0.559706 0.270428 0.220119
Si Si3 0.861130 0.717218 0.128808
Si Si4 0.644159 0.080336 0.004480
Si Si5 0.178873 0.681852 0.347846
Si Si6 0.965492 0.256578 0.462646
Si Si7 0.925479 0.812909 0.833892
O O1 0.171666 0.277181 0.781013
O O2 0.811491 0.271225 0.866768
O O3 0.183777 0.495935 0.590315
O O4 0.332569 0.988589 0.704330
O O5 0.460518 0.519012 0.227097
O O6 0.279864 0.263208 0.323074
O O7 0.827130 0.268358 0.047039
O O8 0.850270 0.458997 0.194463
O O9 0.650444 0.953072 0.113165
O O10 0.826720 0.869688 0.936180
O O11 0.338421 0.183354 0.085057
O O12 0.000000 0.500000 0.500000
O O13 0.200261 0.737006 0.392472
O O14 0.020300 0.939952 0.300590
O O15 0.000000 0.000000 0.500000
#
# Coordination Sequence:
#
# PCOD9005345 Si02
#       7
#     2   2   2   2   2   2   2
#     4  11  24  41  64  92 127 168 203 250 316 372
#     4  10  22  42  62  88 126 162 205 256 309 368
#     4  11  23  39  64  97 128 158 201 257 318 378
#     4  10  21  38  61  94 124 156 204 254 316 375
#     4  10  22  41  62  86 121 166 209 247 296 364
#     4  11  24  42  63  90 124 165 214 254 295 364
#     4  11  21  38  64  90 123 160 201 262 314 353
#
# _framework density 25.083041000000001
#
# number of rings (size 3 to 8) (size 9 to 14) (size 15 to 20)
#    0.000    1.429    0.000    7.286    0.000    8.000 
#    0.000    4.286    0.000    0.000    0.000    0.000 
#    0.000    0.000    0.000    0.000    0.000    0.000 
#
# Total GULP energy -78420.622584 kJ/mol
# GULP energy per Si atom -5601.473042 kJ/mol
# Density = 2.502595 g / cm^3
# Si number density = 25.083041 Si / 1000 Ang^3
#
#
#
# Elastic Constant Matrix: (Units=GPa)
#
#
# Indices 1 2 3 4 5 6 
#
# 1 111.9905 13.2814 25.2118 0.4385 12.1519 9.9296
# 2 13.2814 112.3661 23.8958 -34.5678 5.6065 10.8665
# 3 25.2118 23.8958 74.1488 -18.8433 2.3501 2.5795
# 4 0.4385 -34.5678 -18.8433 49.2086 0.7361 -0.4587
# 5 12.1519 5.6065 2.3501 0.7361 35.3143 3.6472
# 6 9.9296 10.8665 2.5795 -0.4587 3.6472 38.5710
#
#
#
# Elastic Compliance Matrix: (Units=1/GPa)
#
#
# Indices 1 2 3 4 5 6 
#
# 1 0.010331 -0.000716 -0.003617 -0.001954 -0.002957 -0.001959
# 2 -0.000716 0.012090 -0.001493 0.007922 -0.001440 -0.002892
# 3 -0.003617 -0.001493 0.016530 0.005312 0.000241 0.000287
# 4 -0.001954 0.007922 0.005312 0.027943 -0.001354 -0.001624
# 5 -0.002957 -0.001440 0.000241 -0.001354 0.029749 -0.001678
# 6 -0.001959 -0.002892 0.000287 -0.001624 -0.001678 0.027365
#
#
# Mechanical properties :
#
#
# Convention : Reuss Voigt Hill
#
# Bulk Modulus (GPa) = 36.63152 47.03150 41.83151
# Shear Modulus (GPa) = 34.53991 40.35986 37.44989
#
# Velocity S-wave (km/s) = 3.71485 4.01565 3.86817
# Velocity P-wave (km/s) = 5.74769 6.34757 6.05506
#
# Compressibility (1/GPa) = 0.02729890
#
# Stress axis : x y z
#
# Youngs Moduli (GPa) = 96.79879 82.71048 60.49743
#
# Poissons Ratio (x) = 0.05922 0.21879
# Poissons Ratio (y) = 0.06931 0.09034
# Poissons Ratio (z) = 0.35007 0.12352
#
# Static dielectric constant tensor:
#      x y z
#    x 2.001050 0.001350 -0.035770 
#    y 0.001350 2.003970 0.014720 
#    z -0.035770 0.014720 1.985600 
# 
# From -- ./inp_files/593376.got.cif
#   From: 2010.05.17/outbox.cif.g08.bks.cpg/sg2_297_cif.got.tgz:593376.got - 2010.06.03 11:33:40.
