data_PCOD9005787
_publ_section_title
;
Structure prediction by ZEFSAII (Michael W. Deem and Ramdas Pophale) SiO2 
 PCOD9005787
Probable space group: P -1
;
_chemical_formula_sum "Si O2"
_cell_formula_units_Z 15
_cell_length_a 8.408785
_cell_length_b 9.070483
_cell_length_c 10.713490
_cell_angle_alpha 60.936551
_cell_angle_beta 85.049696
_cell_angle_gamma 113.871177
_cell_volume 610.876678
_symmetry_space_group_name_H-M "P -1"
_symmetry_group_IT_number 2
_symmetry_cell_setting 'triclinic'
loop_
_space_group_symop_operation_xyz
x,y,z
-x,-y,-z
loop_
_atom_site_type_symbol
_atom_site_label
_atom_site_fract_x
_atom_site_fract_y
_atom_site_fract_z
Si Si1 0.593556 0.843614 0.406563
Si Si2 0.884836 0.596847 0.014996
Si Si3 0.500000 0.000000 0.000000
Si Si4 0.109484 0.895672 0.079113
Si Si5 0.914565 0.261634 0.461214
Si Si6 0.028961 0.011688 0.287991
Si Si7 0.621970 0.227050 0.298058
Si Si8 0.281527 0.632806 0.347670
O O1 0.807572 0.914171 0.348131
O O2 0.517464 0.795371 0.573522
O O3 0.464576 0.669274 0.392659
O O4 0.562575 0.030297 0.303312
O O5 0.680126 0.414435 0.131754
O O6 0.891988 0.764423 0.855608
O O7 0.000000 0.500000 0.000000
O O8 0.989252 0.692619 0.098842
O O9 0.321654 0.022920 0.968725
O O10 0.349784 0.795177 0.167801
O O11 0.082996 0.902566 0.224556
O O12 0.000000 0.000000 0.000000
O O13 0.803970 0.254941 0.347717
O O14 0.821068 0.325678 0.548552
O O15 0.895222 0.050854 0.573052
O O16 0.133104 0.424004 0.385345
#
# Coordination Sequence:
#
# PCOD9005787 Si02
#       8
#     2   2   1   2   2   2   2   2
#     4  10  22  40  65  94 130 174 221 280 332 413
#     4  11  22  42  69  94 131 185 223 268 348 420
#     4  12  20  38  68  96 138 176 222 284 346 400
#     4  10  23  39  66  99 134 173 226 281 341 406
#     4  10  22  40  63  93 133 170 219 279 336 400
#     4  11  22  43  64 101 133 168 224 293 334 395
#     4  10  22  42  67  92 128 182 228 261 348 424
#     4  10  21  38  63  93 130 176 220 269 340 407
#
# _framework density 24.554876
#
# number of rings (size 3 to 8) (size 9 to 14) (size 15 to 20)
#    0.000    1.600    2.667    2.400    3.733    1.067 
#    4.800    0.000    0.000   10.400    0.000    0.000 
#    0.000    0.000    0.000    0.000    0.000    0.000 
#
# Total GULP energy -83569.468664 kJ/mol
# GULP energy per Si atom -5571.297911 kJ/mol
# Density = 2.449899 g / cm^3
# Si number density = 24.554876 Si / 1000 Ang^3
#
#
#
# Elastic Constant Matrix: (Units=GPa)
#
#
# Indices 1 2 3 4 5 6 
#
# 1 85.5888 12.5819 36.7817 -18.9130 -4.8517 14.1312
# 2 12.5819 91.7116 26.0700 -11.1284 2.1599 1.6165
# 3 36.7817 26.0700 125.0058 -38.9168 -7.7069 0.9663
# 4 -18.9130 -11.1284 -38.9168 29.1308 -0.2431 -7.2191
# 5 -4.8517 2.1599 -7.7069 -0.2431 46.2426 -0.7079
# 6 14.1312 1.6165 0.9663 -7.2191 -0.7079 35.9529
#
#
#
# Elastic Compliance Matrix: (Units=1/GPa)
#
#
# Indices 1 2 3 4 5 6 
#
# 1 0.014798 -0.000651 -0.002681 0.004604 0.001087 -0.004769
# 2 -0.000651 0.011725 -0.001784 0.001690 -0.000903 0.000098
# 3 -0.002681 -0.001784 0.015215 0.019066 0.002509 0.004603
# 4 0.004604 0.001690 0.019066 0.066187 0.004098 0.010972
# 5 0.001087 -0.000903 0.002509 0.004098 0.022233 0.000806
# 6 -0.004769 0.000098 0.004603 0.010972 0.000806 0.031780
#
#
# Mechanical properties :
#
#
# Convention : Reuss Voigt Hill
#
# Bulk Modulus (GPa) = 31.73988 50.35261 41.04624
# Shear Modulus (GPa) = 27.37149 37.39011 32.38080
#
# Velocity S-wave (km/s) = 3.34234 3.90643 3.63535
# Velocity P-wave (km/s) = 5.27723 6.39513 5.86288
#
# Compressibility (1/GPa) = 0.03150611
#
# Stress axis : x y z
#
# Youngs Moduli (GPa) = 67.57593 85.28969 65.72363
#
# Poissons Ratio (x) = 0.05551 0.17621
# Poissons Ratio (y) = 0.04398 0.11725
# Poissons Ratio (z) = 0.18118 0.15216
#
# Static dielectric constant tensor:
#      x y z
#    x 1.766980 -0.152690 -0.089150 
#    y -0.152690 1.939900 0.013330 
#    z -0.089150 0.013330 2.092630 
# 
# From -- ./inp_files/377949.got.cif
#   From: 2010.05.17/outbox.cif.g08.bks.cpg/sg2_189_cif.got.tgz:377949.got - 2010.06.03 11:33:40.
