data_PCOD9005583
_publ_section_title
;
Structure prediction by ZEFSAII (Michael W. Deem and Ramdas Pophale) SiO2 
 PCOD9005583
Probable space group: P -1
;
_chemical_formula_sum "Si O2"
_cell_formula_units_Z 12
_cell_length_a 15.060628
_cell_length_b 6.889583
_cell_length_c 15.492807
_cell_angle_alpha 137.676793
_cell_angle_beta 153.805370
_cell_angle_gamma 52.736168
_cell_volume 468.622484
_symmetry_space_group_name_H-M "P -1"
_symmetry_group_IT_number 2
_symmetry_cell_setting 'triclinic'
loop_
_space_group_symop_operation_xyz
x,y,z
-x,-y,-z
loop_
_atom_site_type_symbol
_atom_site_label
_atom_site_fract_x
_atom_site_fract_y
_atom_site_fract_z
Si Si1 0.228231 0.134402 0.378651
Si Si2 0.722253 0.409573 0.084881
Si Si3 0.282705 0.570813 0.725049
Si Si4 0.099643 0.117670 0.716456
Si Si5 0.857003 0.824394 0.040867
Si Si6 0.494131 0.679828 0.467463
O O1 0.207743 0.382270 0.512867
O O2 0.299518 0.268729 0.392036
O O3 0.421211 0.984235 0.521836
O O4 0.024078 0.884855 0.130270
O O5 0.818430 0.527625 0.301380
O O6 0.838520 0.541788 0.144578
O O7 0.718063 0.067628 0.980419
O O8 0.511089 0.520477 0.925021
O O9 0.267639 0.909307 0.807854
O O10 0.013480 0.114620 0.737051
O O11 0.000000 0.000000 0.500000
O O12 0.696468 0.524227 0.815013
O O13 0.500000 0.500000 0.500000
#
# Coordination Sequence:
#
# PCOD9005583 Si02
#       6
#     2   2   2   2   2   2
#     4  11  24  43  65  92 131 168 216 273 318 382
#     4  10  21  38  63  96 135 170 212 266 323 391
#     4  10  21  38  62  94 132 174 213 263 327 387
#     4  11  22  37  63  99 134 171 213 260 324 395
#     4  11  24  43  68  99 131 169 218 267 324 389
#     4  11  26  45  66  93 126 172 223 270 325 380
#
# _framework density 25.606966
#
# number of rings (size 3 to 8) (size 9 to 14) (size 15 to 20)
#    0.000    1.333    0.000    5.000    0.000   11.333 
#    0.000    0.000    0.000    0.000    0.000    0.000 
#    0.000    0.000    0.000    0.000    0.000    0.000 
#
# Total GULP energy -66975.892784 kJ/mol
# GULP energy per Si atom -5581.324399 kJ/mol
# Density = 2.554868 g / cm^3
# Si number density = 25.606966 Si / 1000 Ang^3
#
#
#
# Elastic Constant Matrix: (Units=GPa)
#
#
# Indices 1 2 3 4 5 6 
#
# 1 162.5057 51.4199 25.8193 0.2371 18.5166 36.3360
# 2 51.4199 136.5100 1.6379 -8.9430 -5.3354 21.8892
# 3 25.8193 1.6379 54.5725 -5.4496 1.5836 14.4234
# 4 0.2371 -8.9430 -5.4496 42.9843 3.8564 -2.5523
# 5 18.5166 -5.3354 1.5836 3.8564 30.6437 3.7545
# 6 36.3360 21.8892 14.4234 -2.5523 3.7545 51.2211
#
#
#
# Elastic Compliance Matrix: (Units=1/GPa)
#
#
# Indices 1 2 3 4 5 6 
#
# 1 0.009080 -0.003012 -0.003095 -0.000831 -0.005264 -0.003938
# 2 -0.003012 0.009070 0.001865 0.001692 0.003387 -0.002429
# 3 -0.003095 0.001865 0.021159 0.002701 0.001315 -0.004522
# 4 -0.000831 0.001692 0.002701 0.024212 -0.002450 0.000492
# 5 -0.005264 0.003387 0.001315 -0.002450 0.036754 -0.000900
# 6 -0.003938 -0.002429 -0.004522 0.000492 -0.000900 0.024719
#
#
# Mechanical properties :
#
#
# Convention : Reuss Voigt Hill
#
# Bulk Modulus (GPa) = 32.43929 56.81582 44.62756
# Shear Modulus (GPa) = 34.78193 43.28387 39.03290
#
# Velocity S-wave (km/s) = 3.68951 4.11581 3.90847
# Velocity P-wave (km/s) = 5.55388 6.69494 6.15093
#
# Compressibility (1/GPa) = 0.03082681
#
# Stress axis : x y z
#
# Youngs Moduli (GPa) = 110.13326 110.25083 47.26098
#
# Poissons Ratio (x) = 0.33204 0.14626
# Poissons Ratio (y) = 0.33169 -0.08815
# Poissons Ratio (z) = 0.34084 -0.20565
#
# Static dielectric constant tensor:
#      x y z
#    x 2.074880 -0.007310 -0.005870 
#    y -0.007310 1.965490 0.062150 
#    z -0.005870 0.062150 2.215150 
# 
# From -- ./inp_files/25351.got.cif
#   From: 2010.05.17/outbox.cif.g08.bks.cpg/sg2_13_cif.got.tgz:25351.got - 2010.06.03 11:33:40.
