data_PCOD9005022
_publ_section_title
;
Structure prediction by ZEFSAII (Michael W. Deem and Ramdas Pophale) SiO2 
 PCOD9005022
Probable space group: P -1
;
_chemical_formula_sum "Si O2"
_cell_formula_units_Z 16
_cell_length_a 7.644221
_cell_length_b 15.544081
_cell_length_c 6.328464
_cell_angle_alpha 69.122016
_cell_angle_beta 97.432519
_cell_angle_gamma 82.575355
_cell_volume 684.099590
_symmetry_space_group_name_H-M "P -1"
_symmetry_group_IT_number 2
_symmetry_cell_setting 'triclinic'
loop_
_space_group_symop_operation_xyz
x,y,z
-x,-y,-z
loop_
_atom_site_type_symbol
_atom_site_label
_atom_site_fract_x
_atom_site_fract_y
_atom_site_fract_z
Si Si1 0.410967 0.735504 0.010115
Si Si2 0.876275 0.047752 0.746442
Si Si3 0.081687 0.741206 0.717987
Si Si4 0.541332 0.626445 0.735624
Si Si5 0.504389 0.825957 0.319339
Si Si6 0.192288 0.101147 0.460047
Si Si7 0.801829 0.354258 0.579891
Si Si8 0.134287 0.542670 0.126621
O O1 0.521101 0.802893 0.091278
O O2 0.306604 0.694481 0.220057
O O3 0.253509 0.785278 0.782623
O O4 0.526862 0.654940 0.955289
O O5 0.703544 0.123499 0.726065
O O6 0.023723 0.085001 0.592226
O O7 0.792395 0.974051 0.656250
O O8 0.000000 0.000000 0.000000
O O9 0.073267 0.719651 0.486165
O O10 0.896154 0.796420 0.731740
O O11 0.129298 0.640265 0.921176
O O12 0.554678 0.725047 0.535687
O O13 0.356735 0.600335 0.642626
O O14 0.690035 0.537839 0.781317
O O15 0.635397 0.890181 0.381769
O O16 0.897493 0.424760 0.663604
O O17 0.000000 0.500000 0.000000
#
# Coordination Sequence:
#
# PCOD9005022 Si02
#       8
#     2   2   2   2   2   2   2   2
#     4   9  19  36  60  86 118 157 203 250 302 362
#     4  11  25  44  66  92 125 161 203 256 314 372
#     4  10  21  39  61  87 123 164 203 249 306 364
#     4  10  21  38  60  87 121 160 202 248 299 361
#     4  11  23  41  66  95 125 161 206 254 307 368
#     4  11  24  42  66  94 125 162 204 255 311 367
#     4   9  20  36  56  79 116 162 204 249 301 352
#     4  11  23  36  55  87 122 160 207 253 299 358
#
# _framework density 23.38841
#
# number of rings (size 3 to 8) (size 9 to 14) (size 15 to 20)
#    0.000    1.750    0.000    4.500    0.000   11.500 
#    0.000    0.000    0.000    0.000    0.000    0.000 
#    0.000    0.000    0.000    0.000    0.000    0.000 
#
# Total GULP energy -89239.958883 kJ/mol
# GULP energy per Si atom -5577.497430 kJ/mol
# Density = 2.333518 g / cm^3
# Si number density = 23.388410 Si / 1000 Ang^3
#
#
#
# Elastic Constant Matrix: (Units=GPa)
#
#
# Indices 1 2 3 4 5 6 
#
# 1 35.0398 30.0448 18.0621 4.9046 22.3601 15.3487
# 2 30.0448 138.2412 67.1318 39.2716 15.4406 -8.6355
# 3 18.0621 67.1318 90.7441 33.5751 13.1889 8.0164
# 4 4.9046 39.2716 33.5751 57.1294 5.4694 17.3130
# 5 22.3601 15.4406 13.1889 5.4694 33.3079 13.6605
# 6 15.3487 -8.6355 8.0164 17.3130 13.6605 38.4422
#
#
#
# Elastic Compliance Matrix: (Units=1/GPa)
#
#
# Indices 1 2 3 4 5 6 
#
# 1 0.082355 -0.023110 0.000321 0.022913 -0.033465 -0.036568
# 2 -0.023110 0.021444 -0.008037 -0.014788 0.002348 0.021546
# 3 0.000321 -0.008037 0.019192 -0.004641 -0.002048 -0.003118
# 4 0.022913 -0.014788 -0.004641 0.036940 -0.001422 -0.027634
# 5 -0.033465 0.002348 -0.002048 -0.001422 0.054212 -0.004308
# 6 -0.036568 0.021546 -0.003118 -0.027634 -0.004308 0.060080
#
#
# Mechanical properties :
#
#
# Convention : Reuss Voigt Hill
#
# Bulk Modulus (GPa) = 16.30300 54.94474 35.62387
# Shear Modulus (GPa) = 14.03220 35.69499 24.86360
#
# Velocity S-wave (km/s) = 2.45207 3.91088 3.26402
# Velocity P-wave (km/s) = 3.87331 6.62847 5.42859
#
# Compressibility (1/GPa) = 0.06133842
#
# Stress axis : x y z
#
# Youngs Moduli (GPa) = 12.14249 46.63292 52.10385
#
# Poissons Ratio (x) = 1.07770 -0.01672
# Poissons Ratio (y) = 0.28062 0.41878
# Poissons Ratio (z) = -0.00390 0.37481
#
# Static dielectric constant tensor:
#      x y z
#    x 2.217580 0.195040 0.133440 
#    y 0.195040 2.149580 0.030290 
#    z 0.133440 0.030290 2.074100 
# 
# From -- ./inp_files/38195.got.cif
#   From: 2010.05.17/outbox.cif.g08.bks.cpg/sg2_20_cif.got.tgz:38195.got - 2010.06.03 11:33:40.
