data_PCOD9005433
_publ_section_title
;
Structure prediction by ZEFSAII (Michael W. Deem and Ramdas Pophale) SiO2 
 PCOD9005433
Probable space group: P -1
;
_chemical_formula_sum "Si O2"
_cell_formula_units_Z 16
_cell_length_a 15.528401
_cell_length_b 11.594067
_cell_length_c 8.935748
_cell_angle_alpha 85.931128
_cell_angle_beta 97.437651
_cell_angle_gamma 25.944554
_cell_volume 629.473306
_symmetry_space_group_name_H-M "P -1"
_symmetry_group_IT_number 2
_symmetry_cell_setting 'triclinic'
loop_
_space_group_symop_operation_xyz
x,y,z
-x,-y,-z
loop_
_atom_site_type_symbol
_atom_site_label
_atom_site_fract_x
_atom_site_fract_y
_atom_site_fract_z
Si Si1 0.092931 0.094286 0.736948
Si Si2 0.268217 0.166335 0.289897
Si Si3 0.980364 0.969237 0.785704
Si Si4 0.330371 0.690608 0.577900
Si Si5 0.787073 0.751768 0.065667
Si Si6 0.356554 0.736190 0.079170
Si Si7 0.680121 0.623187 0.970046
Si Si8 0.375932 0.288391 0.376125
O O1 0.851683 0.433147 0.608948
O O2 0.255348 0.886812 0.652205
O O3 0.050784 0.015724 0.795752
O O4 0.206825 0.005800 0.920632
O O5 0.396816 0.131785 0.331753
O O6 0.010310 0.500632 0.231266
O O7 0.417200 0.917283 0.466427
O O8 0.253015 0.144440 0.117852
O O9 0.882146 0.078192 0.587372
O O10 0.803104 0.145105 0.857245
O O11 0.188314 0.633119 0.886372
O O12 0.500000 0.500000 0.500000
O O13 0.458468 0.449307 0.743457
O O14 0.571107 0.043531 0.081235
O O15 0.796450 0.603099 0.036737
O O16 0.500000 0.500000 0.000000
O O17 0.679084 0.580993 0.802600
#
# Coordination Sequence:
#
# PCOD9005433 Si02
#       8
#     2   2   2   2   2   2   2   2
#     4  11  21  38  60  88 125 161 196 245 307 366
#     4   9  20  42  63  86 116 156 208 252 305 361
#     4  11  21  38  58  89 125 160 199 243 302 368
#     4   9  21  40  56  81 121 164 205 246 287 356
#     4   9  20  42  62  86 116 156 207 252 304 357
#     4   9  19  38  57  79 121 162 196 245 290 352
#     4  10  21  38  62  88 122 159 198 254 301 359
#     4  10  21  38  62  90 122 157 197 255 306 358
#
# _framework density 25.418074000000001
#
# number of rings (size 3 to 8) (size 9 to 14) (size 15 to 20)
#    0.000    2.250    1.250    0.750    1.750    0.500 
#   13.500    0.000    0.000    0.000    0.000    0.000 
#    0.000    0.000    0.000    0.000    0.000    0.000 
#
# Total GULP energy -89221.535687 kJ/mol
# GULP energy per Si atom -5576.345980 kJ/mol
# Density = 2.536022 g / cm^3
# Si number density = 25.418074 Si / 1000 Ang^3
#
#
#
# Elastic Constant Matrix: (Units=GPa)
#
#
# Indices 1 2 3 4 5 6 
#
# 1 58.4034 18.6343 44.4943 5.7206 2.6028 -6.2822
# 2 18.6343 140.7844 56.1680 -1.5180 -2.7747 -17.0369
# 3 44.4943 56.1680 213.6338 -27.4576 27.7969 -11.3824
# 4 5.7206 -1.5180 -27.4576 48.6067 -8.9772 -2.4375
# 5 2.6028 -2.7747 27.7969 -8.9772 28.2646 3.1032
# 6 -6.2822 -17.0369 -11.3824 -2.4375 3.1032 30.5285
#
#
#
# Elastic Compliance Matrix: (Units=1/GPa)
#
#
# Indices 1 2 3 4 5 6 
#
# 1 0.021861 -0.000693 -0.005089 -0.005183 0.001092 0.001690
# 2 -0.000693 0.008593 -0.002318 -0.000283 0.002714 0.003490
# 3 -0.005089 -0.002318 0.007743 0.003806 -0.006328 0.001493
# 4 -0.005183 -0.000283 0.003806 0.024186 0.004201 0.001698
# 5 0.001092 0.002714 -0.006328 0.004201 0.043622 -0.004719
# 6 0.001690 0.003490 0.001493 0.001698 -0.004719 0.036223
#
#
# Mechanical properties :
#
#
# Convention : Reuss Voigt Hill
#
# Bulk Modulus (GPa) = 45.46477 72.37942 58.92209
# Shear Modulus (GPa) = 30.16403 41.04829 35.60616
#
# Velocity S-wave (km/s) = 3.44861 4.02297 3.74681
# Velocity P-wave (km/s) = 5.81230 7.07930 6.47686
#
# Compressibility (1/GPa) = 0.02199505
#
# Stress axis : x y z
#
# Youngs Moduli (GPa) = 45.74299 116.38051 129.15605
#
# Poissons Ratio (x) = 0.08066 0.65729
# Poissons Ratio (y) = 0.03170 0.29944
# Poissons Ratio (z) = 0.23279 0.26982
#
# Static dielectric constant tensor:
#      x y z
#    x 2.127030 -0.032370 0.023890 
#    y -0.032370 2.061970 -0.065450 
#    z 0.023890 -0.065450 2.161830 
# 
# From -- ./inp_files/347268.got.cif
#   From: 2010.05.17/outbox.cif.g08.bks.cpg/sg2_174_cif.got.tgz:347268.got - 2010.06.03 11:33:40.
