data_PCOD9005250
_publ_section_title
;
Structure prediction by ZEFSAII (Michael W. Deem and Ramdas Pophale) SiO2 
 PCOD9005250
Probable space group: P -1
;
_chemical_formula_sum "Si O2"
_cell_formula_units_Z 16
_cell_length_a 26.609125
_cell_length_b 13.044143
_cell_length_c 6.862470
_cell_angle_alpha 54.579367
_cell_angle_beta 66.181015
_cell_angle_gamma 25.960773
_cell_volume 802.512089
_symmetry_space_group_name_H-M "P -1"
_symmetry_group_IT_number 2
_symmetry_cell_setting 'triclinic'
loop_
_space_group_symop_operation_xyz
x,y,z
-x,-y,-z
loop_
_atom_site_type_symbol
_atom_site_label
_atom_site_fract_x
_atom_site_fract_y
_atom_site_fract_z
Si Si1 0.249415 0.279418 0.237913
Si Si2 0.927790 0.529618 0.869025
Si Si3 0.379762 0.210814 0.832477
Si Si4 0.386329 0.468860 0.474866
Si Si5 0.593282 0.024820 0.308698
Si Si6 0.808302 0.916261 0.967351
Si Si7 0.483041 0.404824 0.745863
Si Si8 0.256834 0.989544 0.605921
O O1 0.113302 0.513666 0.130072
O O2 0.306121 0.022234 0.410030
O O3 0.290560 0.226278 0.452838
O O4 0.297005 0.287584 0.007932
O O5 0.848944 0.721438 0.974439
O O6 0.875313 0.750378 0.572123
O O7 0.067691 0.259209 0.994216
O O8 0.321751 0.466281 0.599431
O O9 0.410508 0.082863 0.718603
O O10 0.500000 0.000000 0.000000
O O11 0.478711 0.270337 0.365969
O O12 0.466075 0.331828 0.693724
O O13 0.294502 0.774461 0.276971
O O14 0.578748 0.172683 0.019005
O O15 0.763095 0.954671 0.198503
O O16 0.500000 0.500000 0.500000
O O17 0.352391 0.687631 0.744342
#
# Coordination Sequence:
#
# PCOD9005250 Si02
#       8
#     2   2   2   2   2   2   2   2
#     4  10  24  39  61  89 120 166 200 252 296 363
#     4   9  23  41  62  93 120 153 204 258 303 359
#     4  12  24  41  58  87 126 162 210 245 295 365
#     4  12  24  38  60  91 122 161 203 249 298 367
#     4  12  23  39  60  86 122 168 199 243 305 363
#     4  11  21  41  66  91 120 159 199 251 317 354
#     4  12  24  36  57  96 132 153 196 251 310 369
#     4  10  21  38  61  89 121 155 201 244 300 374
#
# _framework density 19.937396
#
# number of rings (size 3 to 8) (size 9 to 14) (size 15 to 20)
#    0.750    0.250    5.000    2.250    3.500    1.000 
#    0.000    0.625    0.000    0.750    0.000    0.000 
#    0.000    0.000    0.000    0.000    0.000    0.000 
#
# Total GULP energy -89095.159859 kJ/mol
# GULP energy per Si atom -5568.447491 kJ/mol
# Density = 1.989202 g / cm^3
# Si number density = 19.937396 Si / 1000 Ang^3
#
#
#
# Elastic Constant Matrix: (Units=GPa)
#
#
# Indices 1 2 3 4 5 6 
#
# 1 103.2858 29.0389 38.3525 15.6092 19.1081 0.9024
# 2 29.0389 50.5683 22.4380 11.0819 9.2745 3.1871
# 3 38.3525 22.4380 98.1935 24.4791 7.5672 -1.0290
# 4 15.6092 11.0819 24.4791 21.1622 3.7590 7.2607
# 5 19.1081 9.2745 7.5672 3.7590 46.4807 -0.1632
# 6 0.9024 3.1871 -1.0290 7.2607 -0.1632 27.9163
#
#
#
# Elastic Compliance Matrix: (Units=1/GPa)
#
#
# Indices 1 2 3 4 5 6 
#
# 1 0.013385 -0.004991 -0.002902 -0.003557 -0.003743 0.000933
# 2 -0.004991 0.025457 -0.002112 -0.006421 -0.002169 -0.001165
# 3 -0.002902 -0.002112 0.016162 -0.017393 0.000409 0.005457
# 4 -0.003557 -0.006421 -0.017393 0.080671 -0.001022 -0.020780
# 5 -0.003743 -0.002169 0.000409 -0.001022 0.023505 0.000787
# 6 0.000933 -0.001165 0.005457 -0.020780 0.000787 0.041535
#
#
# Mechanical properties :
#
#
# Convention : Reuss Voigt Hill
#
# Bulk Modulus (GPa) = 28.57747 47.96737 38.27242
# Shear Modulus (GPa) = 21.51570 29.92639 25.72104
#
# Velocity S-wave (km/s) = 3.28863 3.87850 3.59568
# Velocity P-wave (km/s) = 5.36515 6.64592 6.03958
#
# Compressibility (1/GPa) = 0.03499260
#
# Stress axis : x y z
#
# Youngs Moduli (GPa) = 74.71204 39.28200 61.87437
#
# Poissons Ratio (x) = 0.19606 0.17958
# Poissons Ratio (y) = 0.37290 0.13067
# Poissons Ratio (z) = 0.21684 0.08296
#
# Static dielectric constant tensor:
#      x y z
#    x 1.771010 -0.010660 0.013490 
#    y -0.010660 1.710980 0.007090 
#    z 0.013490 0.007090 1.765480 
# 
# From -- ./inp_files/126666.got.cif
#   From: 2010.05.17/outbox.cif.g08.bks.cpg/sg2_64_cif.got.tgz:126666.got - 2010.06.03 11:33:40.
