data_PCOD9005714
_publ_section_title
;
Structure prediction by ZEFSAII (Michael W. Deem and Ramdas Pophale) SiO2 
 PCOD9005714
Probable space group: P -1
;
_chemical_formula_sum "Si O2"
_cell_formula_units_Z 16
_cell_length_a 9.459526
_cell_length_b 11.902968
_cell_length_c 15.702498
_cell_angle_alpha 39.696116
_cell_angle_beta 41.290828
_cell_angle_gamma 58.734069
_cell_volume 737.821051
_symmetry_space_group_name_H-M "P -1"
_symmetry_group_IT_number 2
_symmetry_cell_setting 'triclinic'
loop_
_space_group_symop_operation_xyz
x,y,z
-x,-y,-z
loop_
_atom_site_type_symbol
_atom_site_label
_atom_site_fract_x
_atom_site_fract_y
_atom_site_fract_z
Si Si1 0.723211 0.542924 0.322294
Si Si2 0.784081 0.245543 0.749350
Si Si3 0.847867 0.709878 0.879434
Si Si4 0.735114 0.631727 0.607972
Si Si5 0.705131 0.355495 0.257562
Si Si6 0.330839 0.944007 0.257592
Si Si7 0.941062 0.688204 0.653378
Si Si8 0.208752 0.048024 0.937196
O O1 0.500000 0.500000 0.500000
O O2 0.705603 0.434008 0.306498
O O3 0.916011 0.472491 0.328252
O O4 0.788690 0.749410 0.153647
O O5 0.705026 0.422922 0.718497
O O6 0.033286 0.293524 0.579591
O O7 0.656473 0.178169 0.760540
O O8 0.786425 0.091881 0.907302
O O9 0.097561 0.758664 0.768503
O O10 0.852071 0.689341 0.787695
O O11 0.708089 0.864942 0.870835
O O12 0.764529 0.522422 0.069680
O O13 0.538181 0.723248 0.608117
O O14 0.758239 0.662724 0.679937
O O15 0.117383 0.860659 0.454104
O O16 0.547613 0.950917 0.211217
O O17 0.000000 0.000000 0.000000
#
# Coordination Sequence:
#
# PCOD9005714 Si02
#       8
#     2   2   2   2   2   2   2   2
#     4  11  22  39  62  88 126 162 204 251 320 367
#     4  10  22  37  61  91 126 159 198 251 320 376
#     4  10  22  40  60  85 119 166 218 240 297 373
#     4  10  21  38  63  91 123 157 205 257 314 359
#     4  10  22  39  64  86 116 169 206 255 296 370
#     4  11  21  40  60  85 124 165 200 249 311 371
#     4  10  22  39  62  89 120 168 202 253 302 369
#     4  12  24  35  60  95 125 155 202 261 309 361
#
# _framework density 21.685475
#
# number of rings (size 3 to 8) (size 9 to 14) (size 15 to 20)
#    0.000    1.500    1.250    3.750    5.250    0.500 
#    0.000    6.250    0.000    0.000    0.000    0.000 
#    0.000    0.000    0.000    0.000    0.000    0.000 
#
# Total GULP energy -89440.257164 kJ/mol
# GULP energy per Si atom -5590.016073 kJ/mol
# Density = 2.163612 g / cm^3
# Si number density = 21.685475 Si / 1000 Ang^3
#
#
#
# Elastic Constant Matrix: (Units=GPa)
#
#
# Indices 1 2 3 4 5 6 
#
# 1 129.7629 30.2185 3.3897 9.2613 -27.8879 -11.2847
# 2 30.2185 33.9952 9.5590 -2.5502 -9.9688 -5.5135
# 3 3.3897 9.5590 57.2113 -0.8544 7.7717 11.4600
# 4 9.2613 -2.5502 -0.8544 25.3647 -2.0346 12.6734
# 5 -27.8879 -9.9688 7.7717 -2.0346 35.2364 7.3815
# 6 -11.2847 -5.5135 11.4600 12.6734 7.3815 29.9942
#
#
#
# Elastic Compliance Matrix: (Units=1/GPa)
#
#
# Indices 1 2 3 4 5 6 
#
# 1 0.011868 -0.008200 -0.001252 -0.007256 0.005871 0.005057
# 2 -0.008200 0.041974 -0.008095 0.005639 0.006724 0.003686
# 3 -0.001252 -0.008095 0.022015 0.005661 -0.005415 -0.011430
# 4 -0.007256 0.005639 0.005661 0.057786 0.004073 -0.029275
# 5 0.005871 0.006724 -0.005415 0.004073 0.037497 -0.005435
# 6 0.005057 0.003686 -0.011430 -0.029275 -0.005435 0.053994
#
#
# Mechanical properties :
#
#
# Convention : Reuss Voigt Hill
#
# Bulk Modulus (GPa) = 24.53160 34.14488 29.33824
# Shear Modulus (GPa) = 18.26054 29.97255 24.11654
#
# Velocity S-wave (km/s) = 2.90498 3.72176 3.33844
# Velocity P-wave (km/s) = 4.75278 5.85221 5.33091
#
# Compressibility (1/GPa) = 0.04076374
#
# Stress axis : x y z
#
# Youngs Moduli (GPa) = 84.26005 23.82450 45.42269
#
# Poissons Ratio (x) = 0.19536 0.05687
# Poissons Ratio (y) = 0.69094 0.36768
# Poissons Ratio (z) = 0.10549 0.19285
#
# Static dielectric constant tensor:
#      x y z
#    x 1.800370 -0.017070 -0.018940 
#    y -0.017070 1.769410 0.006030 
#    z -0.018940 0.006030 1.836420 
# 
# From -- ./inp_files/308183.got.cif
#   From: 2010.05.17/outbox.cif.g08.bks.cpg/sg2_155_cif.got.tgz:308183.got - 2010.06.03 11:33:40.
