data_PCOD9005181
_publ_section_title
;
Structure prediction by ZEFSAII (Michael W. Deem and Ramdas Pophale) SiO2 
 PCOD9005181
Probable space group: P -1
;
_chemical_formula_sum "Si O2"
_cell_formula_units_Z 16
_cell_length_a 11.975285
_cell_length_b 9.484707
_cell_length_c 14.646851
_cell_angle_alpha 145.809004
_cell_angle_beta 57.222875
_cell_angle_gamma 106.422133
_cell_volume 736.481724
_symmetry_space_group_name_H-M "P -1"
_symmetry_group_IT_number 2
_symmetry_cell_setting 'triclinic'
loop_
_space_group_symop_operation_xyz
x,y,z
-x,-y,-z
loop_
_atom_site_type_symbol
_atom_site_label
_atom_site_fract_x
_atom_site_fract_y
_atom_site_fract_z
Si Si1 0.798251 0.832375 0.739623
Si Si2 0.564306 0.229698 0.925947
Si Si3 0.951637 0.862842 0.035355
Si Si4 0.116108 0.757520 0.553000
Si Si5 0.329256 0.772538 0.312992
Si Si6 0.655437 0.026322 0.199429
Si Si7 0.452665 0.187179 0.535197
Si Si8 0.751455 0.291477 0.144227
O O1 0.798636 0.540168 0.606824
O O2 0.957172 0.782406 0.606554
O O3 0.671355 0.016388 0.831553
O O4 0.788620 0.001126 0.926840
O O5 0.659167 0.285204 0.831385
O O6 0.449141 0.100627 0.871315
O O7 0.463310 0.525093 0.160840
O O8 0.903441 0.044544 0.245346
O O9 0.812085 0.811651 0.035477
O O10 0.103658 0.646313 0.877440
O O11 0.000000 0.000000 0.000000
O O12 0.198626 0.801757 0.451870
O O13 0.353944 0.053480 0.455037
O O14 0.584671 0.149805 0.391840
O O15 0.680421 0.260392 0.254174
O O16 0.359529 0.492399 0.753316
O O17 0.500000 0.000000 0.500000
#
# Coordination Sequence:
#
# PCOD9005181 Si02
#       8
#     2   2   2   2   2   2   2   2
#     4  10  22  39  62  89 114 150 196 244 288 341
#     4  10  22  39  59  87 121 154 194 238 290 347
#     4   9  20  38  60  86 117 148 189 243 291 341
#     4  10  21  40  63  87 116 151 195 241 291 344
#     4  10  22  39  56  85 122 157 193 234 289 348
#     4  10  21  38  61  86 112 153 196 243 293 339
#     4  11  22  36  57  86 121 155 193 240 290 348
#     4  10  21  39  60  86 116 152 198 240 288 344
#
# _framework density 21.724910999999999
#
# number of rings (size 3 to 8) (size 9 to 14) (size 15 to 20)
#    0.000    2.000    0.000    2.625    0.000    9.500 
#    0.000    9.375    0.000    0.000    0.000    0.000 
#    0.000    0.000    0.000    0.000    0.000    0.000 
#
# Total GULP energy -89200.176174 kJ/mol
# GULP energy per Si atom -5575.011011 kJ/mol
# Density = 2.167546 g / cm^3
# Si number density = 21.724911 Si / 1000 Ang^3
#
#
#
# Elastic Constant Matrix: (Units=GPa)
#
#
# Indices 1 2 3 4 5 6 
#
# 1 98.6148 30.4864 14.6648 -6.8408 -24.9800 -6.6202
# 2 30.4864 67.1961 35.8721 -18.9569 -27.3729 7.6123
# 3 14.6648 35.8721 80.1326 -9.7735 -19.7206 1.2011
# 4 -6.8408 -18.9569 -9.7735 41.5146 2.8490 -9.7106
# 5 -24.9800 -27.3729 -19.7206 2.8490 21.5302 5.7478
# 6 -6.6202 7.6123 1.2011 -9.7106 5.7478 27.4789
#
#
#
# Elastic Compliance Matrix: (Units=1/GPa)
#
#
# Indices 1 2 3 4 5 6 
#
# 1 0.014715 0.000937 0.002035 0.001889 0.019961 -0.000311
# 2 0.000937 0.047958 -0.004615 0.011620 0.062099 -0.021741
# 3 0.002035 -0.004615 0.017447 0.001182 0.012644 -0.001221
# 4 0.001889 0.011620 0.001182 0.030349 0.012625 0.005269
# 5 0.019961 0.062099 0.012644 0.012625 0.170238 -0.044094
# 6 -0.000311 -0.021741 -0.001221 0.005269 -0.044094 0.053478
#
#
# Mechanical properties :
#
#
# Convention : Reuss Voigt Hill
#
# Bulk Modulus (GPa) = 13.01508 45.33224 29.17366
# Shear Modulus (GPa) = 13.77106 29.09943 21.43525
#
# Velocity S-wave (km/s) = 2.52044 3.66382 3.14453
# Velocity P-wave (km/s) = 3.80447 6.22976 5.16158
#
# Compressibility (1/GPa) = 0.07683394
#
# Stress axis : x y z
#
# Youngs Moduli (GPa) = 67.96006 20.85178 57.31685
#
# Poissons Ratio (x) = -0.01954 -0.11664
# Poissons Ratio (y) = -0.06368 0.26449
# Poissons Ratio (z) = -0.13830 0.09622
#
# Static dielectric constant tensor:
#      x y z
#    x 1.877640 0.004540 0.039750 
#    y 0.004540 1.783060 -0.001340 
#    z 0.039750 -0.001340 1.862860 
# 
# From -- ./inp_files/516347.got.cif
#   From: 2010.05.17/outbox.cif.g08.bks.cpg/sg2_259_cif.got.tgz:516347.got - 2010.06.03 11:33:40.
