data_PCOD9005233
_publ_section_title
;
Structure prediction by ZEFSAII (Michael W. Deem and Ramdas Pophale) SiO2 
 PCOD9005233
Probable space group: P -1
;
_chemical_formula_sum "Si O2"
_cell_formula_units_Z 16
_cell_length_a 11.103398
_cell_length_b 14.568135
_cell_length_c 12.458411
_cell_angle_alpha 159.887950
_cell_angle_beta 77.623340
_cell_angle_gamma 104.363038
_cell_volume 670.241355
_symmetry_space_group_name_H-M "P -1"
_symmetry_group_IT_number 2
_symmetry_cell_setting 'triclinic'
loop_
_space_group_symop_operation_xyz
x,y,z
-x,-y,-z
loop_
_atom_site_type_symbol
_atom_site_label
_atom_site_fract_x
_atom_site_fract_y
_atom_site_fract_z
Si Si1 0.813018 0.595570 0.550646
Si Si2 0.485611 0.788247 0.364532
Si Si3 0.118296 0.474956 0.778464
Si Si4 0.073615 0.195059 0.788091
Si Si5 0.252338 0.077212 0.461092
Si Si6 0.641582 0.065037 0.080903
Si Si7 0.874980 0.844325 0.030150
Si Si8 0.276356 0.692055 0.456479
O O1 0.884191 0.588357 0.417081
O O2 0.712211 0.803267 0.785226
O O3 0.898377 0.704841 0.757781
O O4 0.734622 0.300782 0.262214
O O5 0.599071 0.873361 0.518302
O O6 0.349179 0.758874 0.407758
O O7 0.500000 0.000000 0.500000
O O8 0.500000 0.500000 0.000000
O O9 0.187950 0.263076 0.595693
O O10 0.980914 0.521315 0.897591
O O11 0.200223 0.766791 0.106233
O O12 0.210922 0.173969 0.693960
O O13 0.045858 0.116657 0.832106
O O14 0.000000 0.000000 0.500000
O O15 0.500000 0.000000 0.000000
O O16 0.633721 0.185782 0.333033
O O17 0.765739 0.618729 0.850039
O O18 0.835637 0.130819 0.323654
#
# Coordination Sequence:
#
# PCOD9005233 Si02
#       8
#     2   2   2   2   2   2   2   2
#     4  10  22  39  61  93 124 161 205 253 314 356
#     4  12  24  39  60  90 124 162 205 248 305 368
#     4  11  24  40  63  93 125 158 210 260 310 368
#     4  10  23  43  67  90 121 167 213 257 321 363
#     4  11  24  41  62  91 127 164 203 265 304 367
#     4  10  21  38  61  88 123 164 201 246 296 376
#     4  10  22  42  64  88 126 161 207 259 300 381
#     4  10  22  38  61  90 121 164 200 244 312 362
#
# _framework density 23.871998999999999
#
# number of rings (size 3 to 8) (size 9 to 14) (size 15 to 20)
#    0.000    1.500    0.000    4.500    3.500    5.500 
#    0.000    0.000    0.000    8.250    0.000    0.000 
#    0.000    0.000    0.000    0.000    0.000    0.000 
#
# Total GULP energy -89418.311323 kJ/mol
# GULP energy per Si atom -5588.644458 kJ/mol
# Density = 2.381766 g / cm^3
# Si number density = 23.871999 Si / 1000 Ang^3
#
#
#
# Elastic Constant Matrix: (Units=GPa)
#
#
# Indices 1 2 3 4 5 6 
#
# 1 64.4544 10.9251 32.4601 -6.8889 12.3431 -10.6146
# 2 10.9251 126.6590 47.0620 -10.5429 -2.6101 -11.5111
# 3 32.4601 47.0620 110.0612 -2.2028 17.3383 -6.2815
# 4 -6.8889 -10.5429 -2.2028 56.3344 -3.2776 -1.6929
# 5 12.3431 -2.6101 17.3383 -3.2776 34.2795 -10.1515
# 6 -10.6146 -11.5111 -6.2815 -1.6929 -10.1515 41.8319
#
#
#
# Elastic Compliance Matrix: (Units=1/GPa)
#
#
# Indices 1 2 3 4 5 6 
#
# 1 0.019503 0.000779 -0.005366 0.002263 -0.002926 0.003739
# 2 0.000779 0.010288 -0.005066 0.002173 0.004278 0.003394
# 3 -0.005366 -0.005066 0.013647 -0.001498 -0.006170 -0.002264
# 4 0.002263 0.002173 -0.001498 0.018596 0.002575 0.002325
# 5 -0.002926 0.004278 -0.006170 0.002575 0.036421 0.008451
# 6 0.003739 0.003394 -0.002264 0.002325 0.008451 0.027593
#
#
# Mechanical properties :
#
#
# Convention : Reuss Voigt Hill
#
# Bulk Modulus (GPa) = 41.43521 53.56322 47.49921
# Shear Modulus (GPa) = 32.59554 40.53764 36.56659
#
# Velocity S-wave (km/s) = 3.69918 4.12530 3.91804
# Velocity P-wave (km/s) = 5.96994 6.72140 6.35678
#
# Compressibility (1/GPa) = 0.02413407
#
# Stress axis : x y z
#
# Youngs Moduli (GPa) = 51.27458 97.20352 73.27544
#
# Poissons Ratio (x) = -0.07576 0.39317
# Poissons Ratio (y) = -0.03996 0.37118
# Poissons Ratio (z) = 0.27512 0.49239
#
# Static dielectric constant tensor:
#      x y z
#    x 1.996130 0.001820 0.028430 
#    y 0.001820 1.943310 -0.031110 
#    z 0.028430 -0.031110 1.912270 
# 
# From -- ./inp_files/67141.got.cif
#   From: 2010.05.17/outbox.cif.g08.bks.cpg/sg2_34_cif.got.tgz:67141.got - 2010.06.03 11:33:40.
