data_PCOD9005550
_publ_section_title
;
Structure prediction by ZEFSAII (Michael W. Deem and Ramdas Pophale) SiO2 
 PCOD9005550
Probable space group: P -1
;
_chemical_formula_sum "Si O2"
_cell_formula_units_Z 10
_cell_length_a 8.725088
_cell_length_b 9.147415
_cell_length_c 11.206133
_cell_angle_alpha 41.347036
_cell_angle_beta 96.351792
_cell_angle_gamma 65.614785
_cell_volume 384.828711
_symmetry_space_group_name_H-M "P -1"
_symmetry_group_IT_number 2
_symmetry_cell_setting 'triclinic'
loop_
_space_group_symop_operation_xyz
x,y,z
-x,-y,-z
loop_
_atom_site_type_symbol
_atom_site_label
_atom_site_fract_x
_atom_site_fract_y
_atom_site_fract_z
Si Si1 0.493920 0.359361 0.769149
Si Si2 0.578084 0.045759 0.218207
Si Si3 0.012243 0.145593 0.526349
Si Si4 0.836121 0.753213 0.998717
Si Si5 0.319794 0.364835 0.324702
O O1 0.215085 0.670580 0.527462
O O2 0.568216 0.517130 0.727726
O O3 0.647495 0.118986 0.817978
O O4 0.559246 0.118812 0.031087
O O5 0.709138 0.694390 0.505031
O O6 0.726287 0.094185 0.253353
O O7 0.310372 0.252818 0.096328
O O8 0.935941 0.466856 0.275077
O O9 0.000000 0.000000 0.500000
O O10 0.072823 0.632204 0.069019
O O11 0.500000 0.000000 0.500000
#
# Coordination Sequence:
#
# PCOD9005550 Si02
#       5
#     2   2   2   2   2
#     4  11  23  41  66  95 126 163 210 256 307 376
#     4  10  23  42  66  89 128 167 200 261 318 355
#     4  10  21  38  62  93 124 161 209 251 304 374
#     4  10  23  41  63  95 126 162 213 255 307 377
#     4  11  25  42  62  93 127 164 214 256 303 376
#
# _framework density 25.985586999999999
#
# number of rings (size 3 to 8) (size 9 to 14) (size 15 to 20)
#    0.000    1.600    0.000    5.400    0.000   17.600 
#    0.000    0.000    0.000    0.000    0.000    0.000 
#    0.000    0.000    0.000    0.000    0.000    0.000 
#
# Total GULP energy -55734.528038 kJ/mol
# GULP energy per Si atom -5573.452804 kJ/mol
# Density = 2.592644 g / cm^3
# Si number density = 25.985587 Si / 1000 Ang^3
#
#
#
# Elastic Constant Matrix: (Units=GPa)
#
#
# Indices 1 2 3 4 5 6 
#
# 1 -1598.7736 -212.7314 -249.9618 291.8676 -213.2431 430.6582
# 2 -212.7314 85.4189 1.5785 26.4861 -23.3153 64.4048
# 3 -249.9618 1.5785 53.8139 51.2557 -14.8215 70.9525
# 4 291.8676 26.4861 51.2557 3.5071 50.3727 -59.2586
# 5 -213.2431 -23.3153 -14.8215 50.3727 33.9151 73.9722
# 6 430.6582 64.4048 70.9525 -59.2586 73.9722 -50.4960
#
#
#
# Elastic Compliance Matrix: (Units=1/GPa)
#
#
# Indices 1 2 3 4 5 6 
#
# 1 0.001698 -0.000718 -0.001057 0.002339 -0.003364 0.004406
# 2 -0.000718 0.010527 -0.004129 0.003310 0.000285 -0.001963
# 3 -0.001057 -0.004129 0.013082 -0.001883 -0.003514 0.001168
# 4 0.002339 0.003310 -0.001883 0.020940 -0.001976 -0.005945
# 5 -0.003364 0.000285 -0.003514 -0.001976 0.018456 -0.003910
# 6 0.004406 -0.001963 0.001168 -0.005945 -0.003910 0.018157
#
#
# Mechanical properties :
#
#
# Convention : Reuss Voigt Hill
#
# Bulk Modulus (GPa) = 74.06784 -264.64113 -95.28665
# Shear Modulus (GPa) = 50.41985 -69.17651 -9.37833
#
# Velocity S-wave (km/s) = 4.40966 -5.16516 -1.90181
# Velocity P-wave (km/s) = 7.38188 11.73177 6.44757
#
# Compressibility (1/GPa) = 0.01350114
#
# Stress axis : x y z
#
# Youngs Moduli (GPa) = 589.02721 94.99103 76.43909
#
# Poissons Ratio (x) = 0.06819 0.08076
# Poissons Ratio (y) = 0.42283 0.31560
# Poissons Ratio (z) = 0.62231 0.39219
#
# Static dielectric constant tensor:
#      x y z
#    x 2.273180 -0.132570 0.127550 
#    y -0.132570 2.188510 0.000660 
#    z 0.127550 0.000660 2.112250 
# 
# From -- ./inp_files/27427.got.cif
#   From: 2010.05.17/outbox.cif.g08.bks.cpg/sg2_14_cif.got.tgz:27427.got - 2010.06.03 11:33:40.
