data_PCOD9005748
_publ_section_title
;
Structure prediction by ZEFSAII (Michael W. Deem and Ramdas Pophale) SiO2 
 PCOD9005748
Probable space group: P -1
;
_chemical_formula_sum "Si O2"
_cell_formula_units_Z 12
_cell_length_a 12.122991
_cell_length_b 5.151042
_cell_length_c 10.408154
_cell_angle_alpha 91.186266
_cell_angle_beta 74.915843
_cell_angle_gamma 116.942240
_cell_volume 555.862310
_symmetry_space_group_name_H-M "P -1"
_symmetry_group_IT_number 2
_symmetry_cell_setting 'triclinic'
loop_
_space_group_symop_operation_xyz
x,y,z
-x,-y,-z
loop_
_atom_site_type_symbol
_atom_site_label
_atom_site_fract_x
_atom_site_fract_y
_atom_site_fract_z
Si Si1 0.727458 0.266217 0.718522
Si Si2 0.853931 0.759362 0.056009
Si Si3 0.692734 0.625975 0.360930
Si Si4 0.850583 0.882769 0.576346
Si Si5 0.450632 0.027988 0.691477
Si Si6 0.280792 0.885570 0.993194
O O1 0.802015 0.616396 0.689514
O O2 0.601615 0.149426 0.666206
O O3 0.820879 0.137048 0.640248
O O4 0.682781 0.147938 0.874045
O O5 0.800916 0.734863 0.216743
O O6 0.829068 0.438573 0.016814
O O7 0.769067 0.873265 0.000663
O O8 0.000000 0.000000 0.000000
O O9 0.764619 0.747352 0.473651
O O10 0.615911 0.276566 0.367502
O O11 0.593691 0.751402 0.357616
O O12 0.000000 0.000000 0.500000
O O13 0.389804 0.964354 0.853114
#
# Coordination Sequence:
#
# PCOD9005748 Si02
#       6
#     2   2   2   2   2   2
#     4  12  25  42  69  92 130 174 203 261 321 376
#     4  10  21  38  63  92 123 171 205 257 314 366
#     4  10  23  41  65  90 132 163 213 270 297 375
#     4  12  28  45  61  94 130 174 215 254 310 378
#     4  10  22  43  67  99 123 160 216 265 322 363
#     4  10  22  39  63  99 126 156 209 263 318 374
#
# _framework density 21.588080000000001
#
# number of rings (size 3 to 8) (size 9 to 14) (size 15 to 20)
#    0.000    1.333    0.000    4.500    4.667    4.000 
#    0.000    6.667    0.000    0.000    0.000    0.000 
#    0.000    0.000    0.000    0.000    0.000    0.000 
#
# Total GULP energy -67193.901934 kJ/mol
# GULP energy per Si atom -5599.491828 kJ/mol
# Density = 2.153894 g / cm^3
# Si number density = 21.588080 Si / 1000 Ang^3
#
#
#
# Elastic Constant Matrix: (Units=GPa)
#
#
# Indices 1 2 3 4 5 6 
#
# 1 78.6945 9.8432 26.5350 -0.5168 -13.6924 -2.8746
# 2 9.8432 64.3091 1.4683 -4.8976 -9.4970 -17.7942
# 3 26.5350 1.4683 99.1597 1.0185 19.0233 -6.2072
# 4 -0.5168 -4.8976 1.0185 31.1177 -1.9175 -7.2343
# 5 -13.6924 -9.4970 19.0233 -1.9175 36.6999 -7.5374
# 6 -2.8746 -17.7942 -6.2072 -7.2343 -7.5374 28.6287
#
#
#
# Elastic Compliance Matrix: (Units=1/GPa)
#
#
# Indices 1 2 3 4 5 6 
#
# 1 0.016763 0.000342 -0.006286 0.002073 0.010494 0.003819
# 2 0.000342 0.023268 -0.001495 0.008934 0.011380 0.019426
# 3 -0.006286 -0.001495 0.013669 -0.001831 -0.010275 -0.001765
# 4 0.002073 0.008934 -0.001831 0.038320 0.009648 0.017588
# 5 0.010494 0.011380 -0.010275 0.009648 0.044032 0.019930
# 6 0.003819 0.019426 -0.001765 0.017588 0.019930 0.056697
#
#
# Mechanical properties :
#
#
# Convention : Reuss Voigt Hill
#
# Bulk Modulus (GPa) = 25.75902 35.31738 30.53820
# Shear Modulus (GPa) = 22.66884 32.91040 27.78962
#
# Velocity S-wave (km/s) = 3.24398 3.90868 3.59174
# Velocity P-wave (km/s) = 5.09796 6.06346 5.60155
#
# Compressibility (1/GPa) = 0.03882136
#
# Stress axis : x y z
#
# Youngs Moduli (GPa) = 59.65417 42.97772 73.15976
#
# Poissons Ratio (x) = -0.01470 0.45991
# Poissons Ratio (y) = -0.02041 0.10938
# Poissons Ratio (z) = 0.37500 0.06425
#
# Static dielectric constant tensor:
#      x y z
#    x 1.730790 -0.009170 0.005280 
#    y -0.009170 1.735840 -0.013290 
#    z 0.005280 -0.013290 1.805890 
# 
# From -- ./inp_files/68747.got.cif
#   From: 2010.05.17/outbox.cif.g08.bks.cpg/sg2_35_cif.got.tgz:68747.got - 2010.06.03 11:33:40.
