data_PCOD9005485
_publ_section_title
;
Structure prediction by ZEFSAII (Michael W. Deem and Ramdas Pophale) SiO2 
 PCOD9005485
Probable space group: P -1
;
_chemical_formula_sum "Si O2"
_cell_formula_units_Z 16
_cell_length_a 11.382400
_cell_length_b 26.234738
_cell_length_c 19.760075
_cell_angle_alpha 17.618886
_cell_angle_beta 23.643723
_cell_angle_gamma 31.745424
_cell_volume 703.658603
_symmetry_space_group_name_H-M "P -1"
_symmetry_group_IT_number 2
_symmetry_cell_setting 'triclinic'
loop_
_space_group_symop_operation_xyz
x,y,z
-x,-y,-z
loop_
_atom_site_type_symbol
_atom_site_label
_atom_site_fract_x
_atom_site_fract_y
_atom_site_fract_z
Si Si1 0.134926 0.109671 0.351911
Si Si2 0.878100 0.311936 0.332196
Si Si3 0.634790 0.175006 0.318822
Si Si4 0.220671 0.780384 0.158501
Si Si5 0.050198 0.019146 0.213778
Si Si6 0.471034 0.700857 0.339408
Si Si7 0.042839 0.512856 0.695167
Si Si8 0.973233 0.995890 0.909508
O O1 0.884989 0.199793 0.403024
O O2 0.251162 0.969668 0.514002
O O3 0.439338 0.240362 0.006841
O O4 0.000000 0.000000 0.500000
O O5 0.617878 0.340226 0.484111
O O6 0.030222 0.181415 0.466709
O O7 0.000000 0.500000 0.000000
O O8 0.789859 0.130715 0.222775
O O9 0.281551 0.131259 0.563485
O O10 0.756153 0.364572 0.043298
O O11 0.023976 0.619319 0.502365
O O12 0.075130 0.837572 0.095059
O O13 0.226740 0.929106 0.024361
O O14 0.139669 0.037930 0.064095
O O15 0.331057 0.108411 0.998923
O O16 0.179682 0.641543 0.520705
O O17 0.704571 0.597379 0.315614
#
# Coordination Sequence:
#
# PCOD9005485 Si02
#       8
#     2   2   2   2   2   2   2   2
#     4  10  23  37  61  87 128 161 202 255 317 365
#     4  11  23  37  57  93 126 155 206 253 308 367
#     4   9  21  39  60  91 116 168 200 253 308 362
#     4  10  22  38  61  87 114 166 203 258 297 358
#     4  10  21  39  62  86 123 163 200 251 311 370
#     4  10  22  37  60  92 125 164 194 251 320 373
#     4  10  21  38  62  90 128 153 208 255 312 363
#     4  10  21  41  61  84 119 162 221 240 299 376
#
# _framework density 22.738298
#
# number of rings (size 3 to 8) (size 9 to 14) (size 15 to 20)
#    0.000    2.000    0.000    2.250   10.500    0.500 
#    0.000    3.750    0.000    0.000    0.000    0.000 
#    0.000    0.000    0.000    0.000    0.000    0.000 
#
# Total GULP energy -89091.653744 kJ/mol
# GULP energy per Si atom -5568.228359 kJ/mol
# Density = 2.268654 g / cm^3
# Si number density = 22.738298 Si / 1000 Ang^3
#
#
#
# Elastic Constant Matrix: (Units=GPa)
#
#
# Indices 1 2 3 4 5 6 
#
# 1 85.7787 39.8651 35.7608 -12.0014 -2.7033 17.7223
# 2 39.8651 75.2440 18.2995 2.9044 -6.5256 21.7685
# 3 35.7608 18.2995 129.1941 -7.7605 -4.2523 2.5174
# 4 -12.0014 2.9044 -7.7605 30.3542 -1.7525 4.6176
# 5 -2.7033 -6.5256 -4.2523 -1.7525 18.9814 6.4057
# 6 17.7223 21.7685 2.5174 4.6176 6.4057 24.8487
#
#
#
# Elastic Compliance Matrix: (Units=1/GPa)
#
#
# Indices 1 2 3 4 5 6 
#
# 1 0.019954 -0.006440 -0.003677 0.009515 0.004438 -0.011129
# 2 -0.006440 0.023710 -0.000836 -0.001314 0.013443 -0.019314
# 3 -0.003677 -0.000836 0.008884 0.000588 0.000484 0.002220
# 4 0.009515 -0.001314 0.000588 0.039950 0.010022 -0.015702
# 5 0.004438 0.013443 0.000484 0.010022 0.070820 -0.035110
# 6 -0.011129 -0.019314 0.002220 -0.015702 -0.035110 0.076845
#
#
# Mechanical properties :
#
#
# Convention : Reuss Voigt Hill
#
# Bulk Modulus (GPa) = 32.63398 53.11862 42.87630
# Shear Modulus (GPa) = 18.36327 27.92295 23.14311
#
# Velocity S-wave (km/s) = 2.84490 3.50810 3.19376
# Velocity P-wave (km/s) = 5.01741 6.31036 5.70066
#
# Compressibility (1/GPa) = 0.03064290
#
# Stress axis : x y z
#
# Youngs Moduli (GPa) = 50.11446 42.17667 112.55745
#
# Poissons Ratio (x) = 0.27163 0.41383
# Poissons Ratio (y) = 0.32276 0.09407
# Poissons Ratio (z) = 0.18425 0.03525
#
# Static dielectric constant tensor:
#      x y z
#    x 1.921850 0.070030 0.062440 
#    y 0.070030 1.987050 0.087650 
#    z 0.062440 0.087650 1.980470 
# 
# From -- ./inp_files/571010.got.cif
#   From: 2010.05.17/outbox.cif.g08.bks.cpg/sg2_286_cif.got.tgz:571010.got - 2010.06.03 11:33:40.
