data_PCOD9005802
_publ_section_title
;
Structure prediction by ZEFSAII (Michael W. Deem and Ramdas Pophale) SiO2 
 PCOD9005802
Probable space group: P -1
;
_chemical_formula_sum "Si O2"
_cell_formula_units_Z 16
_cell_length_a 7.935611
_cell_length_b 12.236318
_cell_length_c 9.664089
_cell_angle_alpha 41.658797
_cell_angle_beta 94.197428
_cell_angle_gamma 95.709757
_cell_volume 620.658380
_symmetry_space_group_name_H-M "P -1"
_symmetry_group_IT_number 2
_symmetry_cell_setting 'triclinic'
loop_
_space_group_symop_operation_xyz
x,y,z
-x,-y,-z
loop_
_atom_site_type_symbol
_atom_site_label
_atom_site_fract_x
_atom_site_fract_y
_atom_site_fract_z
Si Si1 0.783362 0.021341 0.324789
Si Si2 0.667566 0.620319 0.381248
Si Si3 0.639580 0.130453 0.458085
Si Si4 0.942958 0.513249 0.827760
Si Si5 0.935729 0.145138 0.644324
Si Si6 0.462877 0.859287 0.020110
Si Si7 0.642631 0.685682 0.631618
Si Si8 0.885406 0.334112 0.728510
O O1 0.753582 0.838123 0.561715
O O2 0.941701 0.994907 0.261506
O O3 0.785095 0.146406 0.333331
O O4 0.614978 0.060032 0.194709
O O5 0.500000 0.500000 0.500000
O O6 0.622454 0.744937 0.139329
O O7 0.665644 0.712772 0.442033
O O8 0.827772 0.507633 0.490955
O O9 0.744702 0.087044 0.642176
O O10 0.542796 0.290930 0.344491
O O11 0.500000 0.000000 0.500000
O O12 0.737693 0.523106 0.815040
O O13 0.970292 0.375711 0.843169
O O14 0.018909 0.682582 0.599285
O O15 0.000000 0.500000 0.000000
O O16 0.956300 0.205134 0.746927
O O17 0.299451 0.749400 0.166755
O O18 0.500000 0.000000 0.000000
#
# Coordination Sequence:
#
# PCOD9005802 Si02
#       8
#     2   2   2   2   2   2   2   2
#     4  10  22  37  61  95 135 172 215 273 337 385
#     4   9  17  34  61  87 122 168 207 267 320 378
#     4  10  21  38  63  94 125 172 220 260 337 400
#     4  10  23  44  66  94 133 172 221 278 329 392
#     4  11  23  43  69  91 134 178 223 272 335 399
#     4  11  21  37  65  97 136 165 221 280 331 378
#     4   9  18  39  62  87 126 171 216 263 327 399
#     4  10  23  41  68  95 131 179 223 261 332 404
#
# _framework density 25.779074999999999
#
# number of rings (size 3 to 8) (size 9 to 14) (size 15 to 20)
#    0.000    2.000    1.250    2.250    3.500    0.500 
#    2.250    0.625    0.000    0.000    0.000    0.000 
#    0.000    0.000    0.000    0.000    0.000    0.000 
#
# Total GULP energy -89231.492275 kJ/mol
# GULP energy per Si atom -5576.968267 kJ/mol
# Density = 2.572040 g / cm^3
# Si number density = 25.779075 Si / 1000 Ang^3
#
#
#
# Elastic Constant Matrix: (Units=GPa)
#
#
# Indices 1 2 3 4 5 6 
#
# 1 92.2612 65.5456 13.1249 6.8017 24.2537 -15.9833
# 2 65.5456 168.4302 48.6544 28.2607 9.3977 -28.9381
# 3 13.1249 48.6544 84.2238 14.6102 15.6187 -3.8118
# 4 6.8017 28.2607 14.6102 41.9569 4.2947 -0.5754
# 5 24.2537 9.3977 15.6187 4.2947 24.0962 -0.0984
# 6 -15.9833 -28.9381 -3.8118 -0.5754 -0.0984 64.2941
#
#
#
# Elastic Compliance Matrix: (Units=1/GPa)
#
#
# Indices 1 2 3 4 5 6 
#
# 1 0.023235 -0.009638 0.005939 0.003141 -0.024030 0.001782
# 2 -0.009638 0.012389 -0.006431 -0.005532 0.010035 0.002765
# 3 0.005939 -0.006431 0.017577 -0.001259 -0.014640 -0.000410
# 4 0.003141 -0.005532 -0.001259 0.027999 -0.005185 -0.001541
# 5 -0.024030 0.010035 -0.014640 -0.005185 0.072178 -0.002261
# 6 0.001782 0.002765 -0.000410 -0.001541 -0.002261 0.017199
#
#
# Mechanical properties :
#
#
# Convention : Reuss Voigt Hill
#
# Bulk Modulus (GPa) = 30.35706 66.61831 48.48769
# Shear Modulus (GPa) = 24.77480 40.57547 32.67514
#
# Velocity S-wave (km/s) = 3.10343 3.97163 3.56407
# Velocity P-wave (km/s) = 4.96419 6.85054 5.98218
#
# Compressibility (1/GPa) = 0.03294126
#
# Stress axis : x y z
#
# Youngs Moduli (GPa) = 43.03840 80.71795 56.89110
#
# Poissons Ratio (x) = 0.77794 -0.33786
# Poissons Ratio (y) = 0.41479 0.36587
# Poissons Ratio (z) = -0.25559 0.51909
#
# Static dielectric constant tensor:
#      x y z
#    x 1.478540 -1.386900 -0.296000 
#    y -1.386900 -0.635410 -0.420750 
#    z -0.296000 -0.420750 2.074370 
# 
# From -- ./inp_files/184191.got.cif
#   From: 2010.05.17/outbox.cif.g08.bks.cpg/sg2_93_cif.got.tgz:184191.got - 2010.06.03 11:33:40.
