data_PCOD9005616
_publ_section_title
;
Structure prediction by ZEFSAII (Michael W. Deem and Ramdas Pophale) SiO2 
 PCOD9005616
Probable space group: P -1
;
_chemical_formula_sum "Si O2"
_cell_formula_units_Z 16
_cell_length_a 15.162854
_cell_length_b 9.361751
_cell_length_c 9.657246
_cell_angle_alpha 67.131219
_cell_angle_beta 112.648549
_cell_angle_gamma 142.665093
_cell_volume 758.903434
_symmetry_space_group_name_H-M "P -1"
_symmetry_group_IT_number 2
_symmetry_cell_setting 'triclinic'
loop_
_space_group_symop_operation_xyz
x,y,z
-x,-y,-z
loop_
_atom_site_type_symbol
_atom_site_label
_atom_site_fract_x
_atom_site_fract_y
_atom_site_fract_z
Si Si1 0.243450 0.571925 0.175908
Si Si2 0.470828 0.599648 0.813532
Si Si3 0.928436 0.064691 0.861545
Si Si4 0.350392 0.461654 0.076505
Si Si5 0.073957 0.283821 0.581142
Si Si6 0.071561 0.912611 0.712254
Si Si7 0.379497 0.725061 0.495327
Si Si8 0.228510 0.919722 0.032706
O O1 0.320863 0.586134 0.086408
O O2 0.347857 0.675209 0.332826
O O3 0.220424 0.726138 0.082947
O O4 0.086527 0.303444 0.224318
O O5 0.503315 0.460592 0.852426
O O6 0.436873 0.642539 0.635850
O O7 0.616859 0.851025 0.882510
O O8 0.343379 0.464558 0.903507
O O9 0.896714 0.164894 0.909676
O O10 0.012970 0.228190 0.718227
O O11 0.769435 0.799457 0.830051
O O12 0.000000 0.000000 0.000000
O O13 0.220744 0.558992 0.531887
O O14 0.957600 0.175966 0.429564
O O15 0.106419 0.138489 0.643101
O O16 0.190148 0.961049 0.851409
O O17 0.500000 0.000000 0.500000
#
# Coordination Sequence:
#
# PCOD9005616 Si02
#       8
#     2   2   2   2   2   2   2   2
#     4  11  22  42  66  89 130 168 210 266 316 369
#     4  10  23  41  64  93 128 167 213 253 316 384
#     4  11  19  37  63  95 123 163 213 257 311 372
#     4  10  22  39  64  95 121 164 220 255 309 382
#     4  10  21  38  67  92 126 164 211 261 311 373
#     4  10  21  38  62  98 121 161 212 262 314 363
#     4  11  23  43  63  91 133 169 204 261 322 373
#     4  11  22  38  64  91 133 165 207 264 313 376
#
# _framework density 21.083051000000001
#
# number of rings (size 3 to 8) (size 9 to 14) (size 15 to 20)
#    0.000    1.500    3.750    1.125    3.500    1.000 
#    0.000    6.250    0.000    0.000    0.000    0.000 
#    0.000    0.000    0.000    0.000    0.000    0.000 
#
# Total GULP energy -89287.170154 kJ/mol
# GULP energy per Si atom -5580.448135 kJ/mol
# Density = 2.103507 g / cm^3
# Si number density = 21.083051 Si / 1000 Ang^3
#
#
#
# Elastic Constant Matrix: (Units=GPa)
#
#
# Indices 1 2 3 4 5 6 
#
# 1 127.1677 33.5047 57.1354 -1.8188 -14.8470 -23.3686
# 2 33.5047 93.0418 14.5647 6.3168 -2.4204 8.9581
# 3 57.1354 14.5647 125.6758 13.0133 10.2447 -0.7122
# 4 -1.8188 6.3168 13.0133 26.3791 6.8023 5.1645
# 5 -14.8470 -2.4204 10.2447 6.8023 33.8372 -4.5216
# 6 -23.3686 8.9581 -0.7122 5.1645 -4.5216 29.7236
#
#
#
# Elastic Compliance Matrix: (Units=1/GPa)
#
#
# Indices 1 2 3 4 5 6 
#
# 1 0.018112 -0.006626 -0.008402 0.000301 0.012343 0.017860
# 2 -0.006626 0.013806 0.001833 -0.001943 -0.003353 -0.009499
# 3 -0.008402 0.001833 0.012534 -0.003812 -0.007566 -0.007347
# 4 0.000301 -0.001943 -0.003812 0.044179 -0.008842 -0.008291
# 5 0.012343 -0.003353 -0.007566 -0.008842 0.041249 0.018345
# 6 0.017860 -0.009499 -0.007347 -0.008291 0.018345 0.054603
#
#
# Mechanical properties :
#
#
# Convention : Reuss Voigt Hill
#
# Bulk Modulus (GPa) = 55.36510 61.81053 58.58782
# Shear Modulus (GPa) = 23.05273 34.03336 28.54305
#
# Velocity S-wave (km/s) = 3.31028 4.02213 3.68345
# Velocity P-wave (km/s) = 6.39751 7.13802 6.77789
#
# Compressibility (1/GPa) = 0.01806192
#
# Stress axis : x y z
#
# Youngs Moduli (GPa) = 55.21227 72.43181 79.78060
#
# Poissons Ratio (x) = 0.47992 0.67035
# Poissons Ratio (y) = 0.36582 -0.14623
# Poissons Ratio (z) = 0.46391 -0.13276
#
# Static dielectric constant tensor:
#      x y z
#    x 1.775760 0.042820 0.010550 
#    y 0.042820 1.831770 0.014440 
#    z 0.010550 0.014440 1.786900 
# 
# From -- ./inp_files/297964.got.cif
#   From: 2010.05.17/outbox.cif.g08.bks.cpg/sg2_149_cif.got.tgz:297964.got - 2010.06.03 11:33:40.
