data_PCOD9005651
_publ_section_title
;
Structure prediction by ZEFSAII (Michael W. Deem and Ramdas Pophale) SiO2 
 PCOD9005651
Probable space group: P -1
;
_chemical_formula_sum "Si O2"
_cell_formula_units_Z 16
_cell_length_a 15.738971
_cell_length_b 5.542235
_cell_length_c 15.273952
_cell_angle_alpha 83.819408
_cell_angle_beta 151.446815
_cell_angle_gamma 85.716468
_cell_volume 591.595239
_symmetry_space_group_name_H-M "P -1"
_symmetry_group_IT_number 2
_symmetry_cell_setting 'triclinic'
loop_
_space_group_symop_operation_xyz
x,y,z
-x,-y,-z
loop_
_atom_site_type_symbol
_atom_site_label
_atom_site_fract_x
_atom_site_fract_y
_atom_site_fract_z
Si Si1 0.119391 0.013433 0.192114
Si Si2 0.159872 0.444517 0.324521
Si Si3 0.090823 0.990577 0.715569
Si Si4 0.366970 0.233284 0.019391
Si Si5 0.662861 0.680260 0.341985
Si Si6 0.287472 0.627652 0.063302
Si Si7 0.723928 0.326772 0.271194
Si Si8 0.431411 0.750589 0.366480
O O1 0.134952 0.743451 0.267514
O O2 0.315471 0.977488 0.318108
O O3 0.058334 0.284726 0.180682
O O4 0.000000 0.000000 0.000000
O O5 0.159241 0.405134 0.429313
O O6 0.378891 0.259176 0.509531
O O7 0.185101 0.772597 0.735966
O O8 0.151223 0.857976 0.870302
O O9 0.873153 0.127432 0.484055
O O10 0.211170 0.180234 0.819811
O O11 0.258026 0.378732 0.003298
O O12 0.509756 0.328343 0.086491
O O13 0.522944 0.971781 0.207034
O O14 0.512345 0.544809 0.240450
O O15 0.720952 0.595987 0.299144
O O16 0.301042 0.705482 0.172113
O O17 0.500000 0.500000 0.500000
#
# Coordination Sequence:
#
# PCOD9005651 Si02
#       8
#     2   2   2   2   2   2   2   2
#     4  11  23  40  60  94 128 165 212 269 328 388
#     4  10  22  40  65  87 127 167 214 264 323 393
#     4  10  22  40  59  91 126 161 213 265 317 392
#     4  10  21  38  63  87 122 167 209 259 325 380
#     4   9  21  37  61  90 116 163 208 259 319 383
#     4   9  20  39  59  89 123 157 209 265 314 387
#     4  10  22  39  61  89 126 165 211 262 321 389
#     4   9  20  39  63  89 119 167 210 260 321 387
#
# _framework density 27.045518000000001
#
# number of rings (size 3 to 8) (size 9 to 14) (size 15 to 20)
#    0.000    2.250    0.000    1.125    7.000    7.500 
#    9.000    2.500    0.000    0.000    0.000    0.000 
#    0.000    0.000    0.000    0.000    0.000    0.000 
#
# Total GULP energy -89318.493932 kJ/mol
# GULP energy per Si atom -5582.405871 kJ/mol
# Density = 2.698396 g / cm^3
# Si number density = 27.045518 Si / 1000 Ang^3
#
#
#
# Elastic Constant Matrix: (Units=GPa)
#
#
# Indices 1 2 3 4 5 6 
#
# 1 86.8036 35.6936 28.0624 15.9939 -27.9092 -27.2710
# 2 35.6936 101.5882 16.7861 0.1728 -16.5529 -24.5602
# 3 28.0624 16.7861 155.5414 18.5451 -6.9647 7.2273
# 4 15.9939 0.1728 18.5451 37.4311 -1.3799 9.1813
# 5 -27.9092 -16.5529 -6.9647 -1.3799 54.2347 9.9122
# 6 -27.2710 -24.5602 7.2273 9.1813 9.9122 34.3438
#
#
#
# Elastic Compliance Matrix: (Units=1/GPa)
#
#
# Indices 1 2 3 4 5 6 
#
# 1 0.024759 -0.001968 -0.003227 -0.013689 0.007652 0.020383
# 2 -0.001968 0.012795 -0.001271 -0.000398 0.001334 0.007576
# 3 -0.003227 -0.001271 0.007495 -0.001198 -0.000266 -0.004651
# 4 -0.013689 -0.000398 -0.001198 0.038045 -0.002639 -0.020311
# 5 0.007652 0.001334 -0.000266 -0.002639 0.022442 0.001315
# 6 0.020383 0.007576 -0.004651 -0.020311 0.001315 0.056749
#
#
# Mechanical properties :
#
#
# Convention : Reuss Voigt Hill
#
# Bulk Modulus (GPa) = 31.13513 56.11302 43.62408
# Shear Modulus (GPa) = 26.89303 42.76134 34.82718
#
# Velocity S-wave (km/s) = 3.15677 3.98060 3.59238
# Velocity P-wave (km/s) = 4.98237 6.47453 5.77684
#
# Compressibility (1/GPa) = 0.03211806
#
# Stress axis : x y z
#
# Youngs Moduli (GPa) = 40.38940 78.15731 133.41360
#
# Poissons Ratio (x) = 0.15382 0.43051
# Poissons Ratio (y) = 0.07949 0.16951
# Poissons Ratio (z) = 0.13033 0.09930
#
# Static dielectric constant tensor:
#      x y z
#    x 0.398650 -0.624390 -0.033900 
#    y -0.624390 1.997060 0.029560 
#    z -0.033900 0.029560 2.182270 
# 
# From -- ./inp_files/47163.got.cif
#   From: 2010.05.17/outbox.cif.g08.bks.cpg/sg2_24_cif.got.tgz:47163.got - 2010.06.03 11:33:40.
