data_PCOD9005683
_publ_section_title
;
Structure prediction by ZEFSAII (Michael W. Deem and Ramdas Pophale) SiO2 
 PCOD9005683
Probable space group: P -1
;
_chemical_formula_sum "Si O2"
_cell_formula_units_Z 16
_cell_length_a 18.227479
_cell_length_b 8.944776
_cell_length_c 8.774745
_cell_angle_alpha 131.195844
_cell_angle_beta 89.700314
_cell_angle_gamma 122.817032
_cell_volume 751.853444
_symmetry_space_group_name_H-M "P -1"
_symmetry_group_IT_number 2
_symmetry_cell_setting 'triclinic'
loop_
_space_group_symop_operation_xyz
x,y,z
-x,-y,-z
loop_
_atom_site_type_symbol
_atom_site_label
_atom_site_fract_x
_atom_site_fract_y
_atom_site_fract_z
Si Si1 0.378547 0.775382 0.913990
Si Si2 0.721326 0.133219 0.241563
Si Si3 0.426925 0.202332 0.714930
Si Si4 0.497726 0.708573 0.545406
Si Si5 0.091840 0.717973 0.478960
Si Si6 0.726922 0.778175 0.774624
Si Si7 0.257373 0.138676 0.514249
Si Si8 0.942487 0.092028 0.104560
O O1 0.288929 0.704061 0.763503
O O2 0.328936 0.473042 0.763449
O O3 0.500000 0.000000 0.000000
O O4 0.404593 0.976439 0.185247
O O5 0.826887 0.267646 0.416725
O O6 0.633529 0.013397 0.288894
O O7 0.697614 0.895921 0.973965
O O8 0.497427 0.257748 0.614906
O O9 0.333076 0.115286 0.559685
O O10 0.500000 0.500000 0.000000
O O11 0.500000 0.500000 0.500000
O O12 0.379602 0.546786 0.475545
O O13 0.056531 0.826255 0.665901
O O14 0.996811 0.386017 0.217054
O O15 0.154019 0.928130 0.477139
O O16 0.762750 0.923638 0.706451
O O17 0.821538 0.840488 0.888323
O O18 0.000000 0.000000 0.000000
#
# Coordination Sequence:
#
# PCOD9005683 Si02
#       8
#     2   2   2   2   2   2   2   2
#     4  12  22  36  58  92 136 174 211 254 310 386
#     4  10  21  38  63  89 123 178 209 253 327 382
#     4  11  19  36  60  85 127 171 213 253 309 384
#     4  12  20  37  58  92 129 174 208 254 317 380
#     4   9  23  46  68  94 131 163 215 283 328 382
#     4  11  21  40  66  91 127 169 215 260 326 383
#     4  11  23  39  62  97 131 164 218 262 317 388
#     4  10  23  46  72  94 125 168 220 275 339 385
#
# _framework density 21.280742
#
# number of rings (size 3 to 8) (size 9 to 14) (size 15 to 20)
#    0.000    1.250    5.000    0.750    1.750    0.500 
#    6.750    4.375    0.000    0.000    0.000    0.000 
#    0.000    0.000    0.000    0.000    0.000    0.000 
#
# Total GULP energy -89141.713854 kJ/mol
# GULP energy per Si atom -5571.357116 kJ/mol
# Density = 2.123231 g / cm^3
# Si number density = 21.280742 Si / 1000 Ang^3
#
#
#
# Elastic Constant Matrix: (Units=GPa)
#
#
# Indices 1 2 3 4 5 6 
#
# 1 86.2763 23.4711 15.2514 -0.2367 -8.1899 9.8721
# 2 23.4711 113.1551 26.5969 -6.9926 -14.7336 26.7627
# 3 15.2514 26.5969 68.0706 -3.9408 -0.5754 -2.1383
# 4 -0.2367 -6.9926 -3.9408 34.2866 2.7193 1.0872
# 5 -8.1899 -14.7336 -0.5754 2.7193 26.8463 -1.8158
# 6 9.8721 26.7627 -2.1383 1.0872 -1.8158 26.3861
#
#
#
# Elastic Compliance Matrix: (Units=1/GPa)
#
#
# Indices 1 2 3 4 5 6 
#
# 1 0.013060 -0.000653 -0.002803 -0.000496 0.003332 -0.004201
# 2 -0.000653 0.014935 -0.005972 0.002307 0.006619 -0.015027
# 3 -0.002803 -0.005972 0.017933 0.000820 -0.003270 0.008300
# 4 -0.000496 0.002307 0.000820 0.030007 -0.002142 -0.003471
# 5 0.003332 0.006619 -0.003270 -0.002142 0.041689 -0.005268
# 6 -0.004201 -0.015027 0.008300 -0.003471 -0.005268 0.055165
#
#
# Mechanical properties :
#
#
# Convention : Reuss Voigt Hill
#
# Bulk Modulus (GPa) = 36.94037 44.23788 40.58912
# Shear Modulus (GPa) = 24.91669 30.98264 27.94967
#
# Velocity S-wave (km/s) = 3.42549 3.81977 3.62799
# Velocity P-wave (km/s) = 5.74818 6.34721 6.05511
#
# Compressibility (1/GPa) = 0.02707065
#
# Stress axis : x y z
#
# Youngs Moduli (GPa) = 76.57252 66.95615 55.76436
#
# Poissons Ratio (x) = 0.04374 0.15633
# Poissons Ratio (y) = 0.05002 0.33301
# Poissons Ratio (z) = 0.21466 0.39985
#
# Static dielectric constant tensor:
#      x y z
#    x 1.826470 0.066110 -0.075000 
#    y 0.066110 1.889130 -0.086760 
#    z -0.075000 -0.086760 1.867390 
# 
# From -- ./inp_files/328056.got.cif
#   From: 2010.05.17/outbox.cif.g08.bks.cpg/sg2_165_cif.got.tgz:328056.got - 2010.06.03 11:33:40.
