data_PCOD9005079
_publ_section_title
;
Structure prediction by ZEFSAII (Michael W. Deem and Ramdas Pophale) SiO2 
 PCOD9005079
Probable space group: P -1
;
_chemical_formula_sum "Si O2"
_cell_formula_units_Z 16
_cell_length_a 10.822898
_cell_length_b 9.171811
_cell_length_c 12.229016
_cell_angle_alpha 68.316564
_cell_angle_beta 127.348774
_cell_angle_gamma 133.566599
_cell_volume 696.727604
_symmetry_space_group_name_H-M "P -1"
_symmetry_group_IT_number 2
_symmetry_cell_setting 'triclinic'
loop_
_space_group_symop_operation_xyz
x,y,z
-x,-y,-z
loop_
_atom_site_type_symbol
_atom_site_label
_atom_site_fract_x
_atom_site_fract_y
_atom_site_fract_z
Si Si1 0.888901 0.157636 0.818699
Si Si2 0.060496 0.206548 0.607250
Si Si3 0.820170 0.749122 0.858249
Si Si4 0.838511 0.402577 0.560725
Si Si5 0.331275 0.505412 0.356618
Si Si6 0.707160 0.901615 0.383604
Si Si7 0.580391 0.486744 0.157360
Si Si8 0.575057 0.133282 0.293460
O O1 0.928781 0.311298 0.701876
O O2 0.883394 0.971983 0.828586
O O3 0.661591 0.045843 0.769181
O O4 0.044186 0.253664 0.977397
O O5 0.063715 0.393585 0.518114
O O6 0.176379 0.159804 0.600525
O O7 0.213928 0.298705 0.762778
O O8 0.834077 0.999351 0.538198
O O9 0.819121 0.671302 0.759382
O O10 0.588521 0.599587 0.816008
O O11 0.763273 0.462898 0.603044
O O12 0.667346 0.220061 0.440964
O O13 0.500000 0.500000 0.500000
O O14 0.476340 0.712996 0.312242
O O15 0.691269 0.076296 0.300621
O O16 0.607783 0.320119 0.203992
O O17 0.500000 0.500000 0.000000
#
# Coordination Sequence:
#
# PCOD9005079 Si02
#       8
#     2   2   2   2   2   2   2   2
#     4  10  21  38  60  90 121 159 202 258 303 360
#     4  10  23  42  60  96 121 158 211 251 303 376
#     4  10  23  40  60  90 127 159 208 253 305 368
#     4  11  22  37  66  94 123 155 210 253 306 362
#     4  12  21  39  65  90 120 169 198 253 312 357
#     4  11  22  39  65  84 131 158 198 262 301 355
#     4  10  21  42  61  83 125 168 205 252 307 363
#     4  10  22  39  61  95 123 156 211 257 297 365
#
# _framework density 22.964500000000001
#
# number of rings (size 3 to 8) (size 9 to 14) (size 15 to 20)
#    0.000    1.500    3.750    1.875    1.750    4.500 
#    4.500    0.625    0.000    0.000    0.000    0.000 
#    0.000    0.000    0.000    0.000    0.000    0.000 
#
# Total GULP energy -89204.858744 kJ/mol
# GULP energy per Si atom -5575.303672 kJ/mol
# Density = 2.291223 g / cm^3
# Si number density = 22.964500 Si / 1000 Ang^3
#
#
#
# Elastic Constant Matrix: (Units=GPa)
#
#
# Indices 1 2 3 4 5 6 
#
# 1 43.7425 30.7776 22.4846 2.8789 12.9679 -9.8798
# 2 30.7776 81.3493 60.3447 8.3320 5.7549 -20.4580
# 3 22.4846 60.3447 162.5954 -1.7826 12.1399 -29.9223
# 4 2.8789 8.3320 -1.7826 44.6360 2.6292 7.0984
# 5 12.9679 5.7549 12.1399 2.6292 23.2959 -0.6758
# 6 -9.8798 -20.4580 -29.9223 7.0984 -0.6758 40.0908
#
#
#
# Elastic Compliance Matrix: (Units=1/GPa)
#
#
# Indices 1 2 3 4 5 6 
#
# 1 0.037632 -0.013518 0.001810 0.000739 -0.018540 0.003283
# 2 -0.013518 0.023490 -0.006449 -0.004874 0.005773 0.004802
# 3 0.001810 -0.006449 0.009335 0.001100 -0.004291 0.003856
# 4 0.000739 -0.004874 0.001100 0.024399 -0.002703 -0.005850
# 5 -0.018540 0.005773 -0.004291 -0.002703 0.054262 -0.003433
# 6 0.003283 0.004802 0.003856 -0.005850 -0.003433 0.032059
#
#
# Mechanical properties :
#
#
# Convention : Reuss Voigt Hill
#
# Bulk Modulus (GPa) = 29.29021 57.21122 43.25072
# Shear Modulus (GPa) = 21.84621 33.20991 27.52806
#
# Velocity S-wave (km/s) = 3.08767 3.80694 3.46601
# Velocity P-wave (km/s) = 5.04914 6.65513 5.90697
#
# Compressibility (1/GPa) = 0.03414110
#
# Stress axis : x y z
#
# Youngs Moduli (GPa) = 26.57336 42.57194 107.11811
#
# Poissons Ratio (x) = 0.57551 -0.19385
# Poissons Ratio (y) = 0.35923 0.69082
# Poissons Ratio (z) = -0.04809 0.27455
#
# Static dielectric constant tensor:
#      x y z
#    x 1.993850 0.058070 -0.027560 
#    y 0.058070 1.980420 -0.049700 
#    z -0.027560 -0.049700 1.862600 
# 
# From -- ./inp_files/419317.got.cif
#   From: 2010.05.17/outbox.cif.g08.bks.cpg/sg2_210_cif.got.tgz:419317.got - 2010.06.03 11:33:40.
