data_PCOD9005823
_publ_section_title
;
Structure prediction by ZEFSAII (Michael W. Deem and Ramdas Pophale) SiO2 
 PCOD9005823
Probable space group: P -1
;
_chemical_formula_sum "Si O2"
_cell_formula_units_Z 16
_cell_length_a 17.392668
_cell_length_b 5.215896
_cell_length_c 8.718451
_cell_angle_alpha 113.777672
_cell_angle_beta 104.385412
_cell_angle_gamma 52.940639
_cell_volume 577.574549
_symmetry_space_group_name_H-M "P -1"
_symmetry_group_IT_number 2
_symmetry_cell_setting 'triclinic'
loop_
_space_group_symop_operation_xyz
x,y,z
-x,-y,-z
loop_
_atom_site_type_symbol
_atom_site_label
_atom_site_fract_x
_atom_site_fract_y
_atom_site_fract_z
Si Si1 0.032182 0.140967 0.347054
Si Si2 0.068578 0.541094 0.932669
Si Si3 0.712293 0.492291 0.174640
Si Si4 0.312928 0.806510 0.380032
Si Si5 0.390907 0.264483 0.554213
Si Si6 0.132545 0.913947 0.621531
Si Si7 0.604602 0.839688 0.936665
Si Si8 0.764521 0.853989 0.864554
O O1 0.008236 0.177943 0.162660
O O2 0.964853 0.027789 0.348918
O O3 0.000000 0.500000 0.500000
O O4 0.131269 0.900044 0.433592
O O5 0.151649 0.479089 0.080102
O O6 0.130213 0.232999 0.764532
O O7 0.000000 0.500000 0.000000
O O8 0.621073 0.567297 0.245007
O O9 0.787374 0.414526 0.324875
O O10 0.670873 0.786496 0.103199
O O11 0.764152 0.154172 0.019482
O O12 0.328433 0.577861 0.481740
O O13 0.359486 0.005879 0.496590
O O14 0.371723 0.507962 0.211333
O O15 0.222794 0.095740 0.297356
O O16 0.500000 0.000000 0.500000
O O17 0.657967 0.931937 0.859054
O O18 0.500000 0.000000 0.000000
#
# Coordination Sequence:
#
# PCOD9005823 Si02
#       8
#     2   2   2   2   2   2   2   2
#     4   9  18  36  61  85 125 160 207 261 318 397
#     4  10  21  38  63  95 125 167 212 271 332 390
#     4  10  24  38  67  93 128 176 226 279 332 401
#     4  11  25  46  65  98 141 176 222 282 345 401
#     4  12  26  45  67  99 137 177 225 285 340 402
#     4   9  19  40  58  90 122 165 214 264 323 393
#     4  11  23  42  71  97 134 181 230 276 339 407
#     4  10  23  44  66  97 136 176 229 277 334 411
#
# _framework density 27.702052999999999
#
# number of rings (size 3 to 8) (size 9 to 14) (size 15 to 20)
#    0.000    1.750    1.250    1.875    3.500    2.500 
#    6.750    0.000    0.000    0.000    0.000    0.000 
#    0.000    0.000    0.000    0.000    0.000    0.000 
#
# Total GULP energy -89138.550675 kJ/mol
# GULP energy per Si atom -5571.159417 kJ/mol
# Density = 2.763900 g / cm^3
# Si number density = 27.702053 Si / 1000 Ang^3
#
#
#
# Elastic Constant Matrix: (Units=GPa)
#
#
# Indices 1 2 3 4 5 6 
#
# 1 81.0329 29.6689 12.8625 -27.7806 -9.6663 0.7170
# 2 29.6689 91.0282 26.8156 -25.9802 -5.9974 17.5138
# 3 12.8625 26.8156 156.5271 -32.3946 -12.0456 20.5290
# 4 -27.7806 -25.9802 -32.3946 52.0465 15.3163 -12.4205
# 5 -9.6663 -5.9974 -12.0456 15.3163 35.3236 -7.3335
# 6 0.7170 17.5138 20.5290 -12.4205 -7.3335 40.0300
#
#
#
# Elastic Compliance Matrix: (Units=1/GPa)
#
#
# Indices 1 2 3 4 5 6 
#
# 1 0.016466 -0.003988 0.000516 0.007586 0.001507 0.003815
# 2 -0.003988 0.014480 -0.000827 0.003885 -0.001623 -0.004932
# 3 0.000516 -0.000827 0.007634 0.003951 0.000422 -0.002259
# 4 0.007586 0.003885 0.003951 0.031195 -0.008561 0.004249
# 5 0.001507 -0.001623 0.000422 -0.008561 0.033107 0.003876
# 6 0.003815 -0.004932 -0.002259 0.004249 0.003876 0.030258
#
#
# Mechanical properties :
#
#
# Convention : Reuss Voigt Hill
#
# Bulk Modulus (GPa) = 33.35431 51.92023 42.63727
# Shear Modulus (GPa) = 32.95278 42.76278 37.85778
#
# Velocity S-wave (km/s) = 3.45272 3.93322 3.70077
# Velocity P-wave (km/s) = 5.28787 6.27774 5.80394
#
# Compressibility (1/GPa) = 0.02998114
#
# Stress axis : x y z
#
# Youngs Moduli (GPa) = 60.73180 69.06129 130.98534
#
# Poissons Ratio (x) = 0.27544 -0.06756
# Poissons Ratio (y) = 0.24222 0.10832
# Poissons Ratio (z) = -0.03132 0.05711
#
# Static dielectric constant tensor:
#      x y z
#    x 2.323600 -0.002650 0.003620 
#    y -0.002650 2.396190 0.012180 
#    z 0.003620 0.012180 2.293750 
# 
# From -- ./inp_files/322768.got.cif
#   From: 2010.05.17/outbox.cif.g08.bks.cpg/sg2_162_cif.got.tgz:322768.got - 2010.06.03 11:33:40.
