data_PCOD9005750
_publ_section_title
;
Structure prediction by ZEFSAII (Michael W. Deem and Ramdas Pophale) SiO2 
 PCOD9005750
Probable space group: P -1
;
_chemical_formula_sum "Si O2"
_cell_formula_units_Z 16
_cell_length_a 30.410794
_cell_length_b 5.360901
_cell_length_c 9.336335
_cell_angle_alpha 95.073473
_cell_angle_beta 145.300209
_cell_angle_gamma 104.017122
_cell_volume 717.759352
_symmetry_space_group_name_H-M "P -1"
_symmetry_group_IT_number 2
_symmetry_cell_setting 'triclinic'
loop_
_space_group_symop_operation_xyz
x,y,z
-x,-y,-z
loop_
_atom_site_type_symbol
_atom_site_label
_atom_site_fract_x
_atom_site_fract_y
_atom_site_fract_z
Si Si1 0.557616 0.923698 0.757228
Si Si2 0.787425 0.433098 0.716849
Si Si3 0.693710 0.780653 0.568727
Si Si4 0.128088 0.481080 0.345776
Si Si5 0.007011 0.276631 0.608170
Si Si6 0.085846 0.929789 0.365374
Si Si7 0.399285 0.254947 0.404498
Si Si8 0.534901 0.208415 0.965154
O O1 0.482753 0.594536 0.604783
O O2 0.626396 0.910300 0.827488
O O3 0.500000 0.000000 0.500000
O O4 0.590325 0.138750 0.993897
O O5 0.759542 0.660569 0.705505
O O6 0.798397 0.451413 0.576022
O O7 0.726566 0.104785 0.609247
O O8 0.891048 0.541567 0.043813
O O9 0.676056 0.761000 0.691944
O O10 0.599571 0.541377 0.218501
O O11 0.137818 0.786734 0.430666
O O12 0.131389 0.276971 0.467361
O O13 0.020621 0.264028 0.990551
O O14 0.000000 0.500000 0.500000
O O15 0.927830 0.143309 0.508541
O O16 0.000000 0.000000 0.500000
O O17 0.447593 0.144417 0.636102
O O18 0.500000 0.000000 0.000000
#
# Coordination Sequence:
#
# PCOD9005750 Si02
#       8
#     2   2   2   2   2   2   2   2
#     4   9  20  37  62  89 122 161 231 265 307 367
#     4  11  25  40  61  96 126 165 201 260 337 388
#     4  12  24  38  65  92 137 166 207 269 333 383
#     4   9  17  34  56  85 116 143 194 243 302 367
#     4  11  22  40  67  91 121 162 218 260 302 381
#     4   9  17  31  61  87 108 147 193 253 295 341
#     4  10  21  38  63  92 123 174 217 262 316 378
#     4  11  21  37  64  97 123 165 230 272 307 375
#
# _framework density 22.291591
#
# number of rings (size 3 to 8) (size 9 to 14) (size 15 to 20)
#    0.000    1.750    1.250    3.375    3.500    4.000 
#    0.000    0.000   11.000    1.500    0.000    0.000 
#    0.000    0.000    0.000    0.000    0.000    0.000 
#
# Total GULP energy -89341.556009 kJ/mol
# GULP energy per Si atom -5583.847251 kJ/mol
# Density = 2.224085 g / cm^3
# Si number density = 22.291591 Si / 1000 Ang^3
#
#
#
# Elastic Constant Matrix: (Units=GPa)
#
#
# Indices 1 2 3 4 5 6 
#
# 1 194.3417 43.9855 11.6238 -16.3888 -9.1005 7.4194
# 2 43.9855 131.6532 6.4956 -22.9917 -5.7675 19.3167
# 3 11.6238 6.4956 28.0336 -3.8430 2.2494 8.0643
# 4 -16.3888 -22.9917 -3.8430 33.1081 -4.5970 -2.4484
# 5 -9.1005 -5.7675 2.2494 -4.5970 31.8272 -6.3012
# 6 7.4194 19.3167 8.0643 -2.4484 -6.3012 39.7264
#
#
#
# Elastic Compliance Matrix: (Units=1/GPa)
#
#
# Indices 1 2 3 4 5 6 
#
# 1 0.005844 -0.001503 -0.002108 0.001907 0.001920 0.000489
# 2 -0.001503 0.009767 0.000191 0.005967 0.001413 -0.003915
# 3 -0.002108 0.000191 0.039604 0.002422 -0.004666 -0.008329
# 4 0.001907 0.005967 0.002422 0.036461 0.006633 -0.000450
# 5 0.001920 0.001413 -0.004666 0.006633 0.034662 0.005808
# 6 0.000489 -0.003915 -0.008329 -0.000450 0.005808 0.029569
#
#
# Mechanical properties :
#
#
# Convention : Reuss Voigt Hill
#
# Bulk Modulus (GPa) = 20.67211 53.13758 36.90485
# Shear Modulus (GPa) = 27.95288 40.39392 34.17340
#
# Velocity S-wave (km/s) = 3.54498 4.26146 3.91962
# Velocity P-wave (km/s) = 5.10387 6.93561 6.08901
#
# Compressibility (1/GPa) = 0.04837435
#
# Stress axis : x y z
#
# Youngs Moduli (GPa) = 171.11820 102.38556 25.24998
#
# Poissons Ratio (x) = 0.15390 0.05323
# Poissons Ratio (y) = 0.25721 -0.00483
# Poissons Ratio (z) = 0.36076 -0.01957
#
# Static dielectric constant tensor:
#      x y z
#    x 1.911840 -0.029570 -0.002750 
#    y -0.029570 1.804920 -0.015120 
#    z -0.002750 -0.015120 1.858630 
# 
# From -- ./inp_files/141140.got.cif
#   From: 2010.05.17/outbox.cif.g08.bks.cpg/sg2_71_cif.got.tgz:141140.got - 2010.06.03 11:33:40.
