data_PCOD9005405
_publ_section_title
;
Structure prediction by ZEFSAII (Michael W. Deem and Ramdas Pophale) SiO2 
 PCOD9005405
Probable space group: P -1
;
_chemical_formula_sum "Si O2"
_cell_formula_units_Z 16
_cell_length_a 9.503970
_cell_length_b 7.827705
_cell_length_c 15.694849
_cell_angle_alpha 92.589163
_cell_angle_beta 135.857428
_cell_angle_gamma 110.937864
_cell_volume 672.895008
_symmetry_space_group_name_H-M "P -1"
_symmetry_group_IT_number 2
_symmetry_cell_setting 'triclinic'
loop_
_space_group_symop_operation_xyz
x,y,z
-x,-y,-z
loop_
_atom_site_type_symbol
_atom_site_label
_atom_site_fract_x
_atom_site_fract_y
_atom_site_fract_z
Si Si1 0.352916 0.323252 0.504351
Si Si2 0.885073 0.178771 0.205597
Si Si3 0.418093 0.021302 0.778255
Si Si4 0.039438 0.781583 0.035885
Si Si5 0.686061 0.649962 0.195912
Si Si6 0.256813 0.199116 0.960856
Si Si7 0.970352 0.688387 0.483155
Si Si8 0.841389 0.471756 0.796785
O O1 0.500000 0.500000 0.500000
O O2 0.232188 0.357209 0.534890
O O3 0.568006 0.311580 0.639452
O O4 0.106645 0.166076 0.339974
O O5 0.720990 0.150146 0.212914
O O6 0.995898 0.389721 0.208527
O O7 0.732515 0.988283 0.072084
O O8 0.221352 0.908848 0.615236
O O9 0.682241 0.079979 0.870643
O O10 0.429771 0.222094 0.822142
O O11 0.046454 0.631826 0.105839
O O12 0.946278 0.891135 0.056037
O O13 0.863439 0.637042 0.879364
O O14 0.782739 0.717027 0.143371
O O15 0.885014 0.699472 0.352993
O O16 0.486298 0.406186 0.103973
O O17 0.000000 0.500000 0.500000
#
# Coordination Sequence:
#
# PCOD9005405 Si02
#       8
#     2   2   2   2   2   2   2   2
#     4   9  19  38  61  83 115 156 195 237 295 350
#     4   9  21  40  61  85 116 161 202 238 295 357
#     4  10  22  40  61  87 121 160 195 237 301 363
#     4  11  22  36  59  92 120 151 198 248 296 346
#     4  10  21  41  61  83 121 163 197 237 301 362
#     4  10  22  38  61  88 117 156 202 249 290 344
#     4  11  23  38  61  92 120 152 199 251 295 347
#     4  10  21  38  62  86 118 158 198 244 297 355
#
# _framework density 23.777854999999999
#
# number of rings (size 3 to 8) (size 9 to 14) (size 15 to 20)
#    0.000    2.000    0.000    3.375    0.000    9.000 
#    0.000    1.250    0.000    0.000    0.000    0.000 
#    0.000    0.000    0.000    0.000    0.000    0.000 
#
# Total GULP energy -89431.981054 kJ/mol
# GULP energy per Si atom -5589.498816 kJ/mol
# Density = 2.372374 g / cm^3
# Si number density = 23.777855 Si / 1000 Ang^3
#
#
#
# Elastic Constant Matrix: (Units=GPa)
#
#
# Indices 1 2 3 4 5 6 
#
# 1 103.9923 27.2861 39.1097 6.0518 -2.3371 25.7707
# 2 27.2861 63.7484 19.3222 4.1964 7.4634 15.6304
# 3 39.1097 19.3222 171.7159 -1.8251 -3.0166 15.6910
# 4 6.0518 4.1964 -1.8251 37.2233 3.2750 -2.0074
# 5 -2.3371 7.4634 -3.0166 3.2750 27.1602 2.3207
# 6 25.7707 15.6304 15.6910 -2.0074 2.3207 38.6423
#
#
#
# Elastic Compliance Matrix: (Units=1/GPa)
#
#
# Indices 1 2 3 4 5 6 
#
# 1 0.013184 -0.003530 -0.001956 -0.002455 0.002770 -0.006864
# 2 -0.003530 0.019401 -0.001043 -0.001471 -0.005160 -0.004836
# 3 -0.001956 -0.001043 0.006493 0.000630 0.000843 -0.000928
# 4 -0.002455 -0.001471 0.000630 0.027958 -0.003419 0.003634
# 5 0.002770 -0.005160 0.000843 -0.003419 0.039206 -0.002634
# 6 -0.006864 -0.004836 -0.000928 0.003634 -0.002634 0.033136
#
#
# Mechanical properties :
#
#
# Convention : Reuss Voigt Hill
#
# Bulk Modulus (GPa) = 38.43337 56.76587 47.59962
# Shear Modulus (GPa) = 31.03501 37.52106 34.27804
#
# Velocity S-wave (km/s) = 3.61668 3.97669 3.80095
# Velocity P-wave (km/s) = 5.79993 6.70900 6.27096
#
# Compressibility (1/GPa) = 0.02601906
#
# Stress axis : x y z
#
# Youngs Moduli (GPa) = 75.84918 51.54490 154.01860
#
# Poissons Ratio (x) = 0.18195 0.30122
# Poissons Ratio (y) = 0.26774 0.16071
# Poissons Ratio (z) = 0.14834 0.05378
#
# Static dielectric constant tensor:
#      x y z
#    x 1.889030 -0.002070 0.021370 
#    y -0.002070 1.977880 -0.046430 
#    z 0.021370 -0.046430 1.943840 
# 
# From -- ./inp_files/495308.got.cif
#   From: 2010.05.17/outbox.cif.g08.bks.cpg/sg2_248_cif.got.tgz:495308.got - 2010.06.03 11:33:40.
