data_PCOD9005170
_publ_section_title
;
Structure prediction by ZEFSAII (Michael W. Deem and Ramdas Pophale) SiO2 
 PCOD9005170
Probable space group: P -1
;
_chemical_formula_sum "Si O2"
_cell_formula_units_Z 16
_cell_length_a 5.456680
_cell_length_b 33.644245
_cell_length_c 9.929485
_cell_angle_alpha 155.501506
_cell_angle_beta 105.778614
_cell_angle_gamma 85.067026
_cell_volume 665.226557
_symmetry_space_group_name_H-M "P -1"
_symmetry_group_IT_number 2
_symmetry_cell_setting 'triclinic'
loop_
_space_group_symop_operation_xyz
x,y,z
-x,-y,-z
loop_
_atom_site_type_symbol
_atom_site_label
_atom_site_fract_x
_atom_site_fract_y
_atom_site_fract_z
Si Si1 0.365518 0.923188 0.366717
Si Si2 0.810822 0.065428 0.194487
Si Si3 0.122634 0.116501 0.652211
Si Si4 0.442346 0.348976 0.507362
Si Si5 0.592032 0.592750 0.623987
Si Si6 0.094311 0.737361 0.337378
Si Si7 0.969774 0.313912 0.523975
Si Si8 0.305602 0.590563 0.817831
O O1 0.644277 0.924936 0.485666
O O2 0.143014 0.952645 0.508267
O O3 0.500000 0.000000 0.500000
O O4 0.191977 0.802843 0.924034
O O5 0.814858 0.141696 0.309407
O O6 0.974749 0.139514 0.572165
O O7 0.500000 0.000000 0.000000
O O8 0.000000 0.000000 0.000000
O O9 0.297944 0.222651 0.083541
O O10 0.412714 0.389351 0.478793
O O11 0.760943 0.373438 0.667920
O O12 0.249459 0.372496 0.660084
O O13 0.361479 0.615084 0.743747
O O14 0.533117 0.473216 0.286041
O O15 0.864174 0.669986 0.985251
O O16 0.990841 0.708641 0.384480
O O17 0.335035 0.695004 0.220356
O O18 0.000000 0.500000 0.500000
#
# Coordination Sequence:
#
# PCOD9005170 Si02
#       8
#     2   2   2   2   2   2   2   2
#     4  10  21  38  61  83 121 175 223 275 321 394
#     4  12  28  42  64 101 137 177 230 284 340 398
#     4  10  21  40  60  87 123 169 231 265 322 395
#     4  10  22  43  66  96 132 180 228 270 328 409
#     4  10  21  43  76  99 134 179 232 280 335 419
#     4  11  25  44  69  97 143 179 221 295 346 398
#     4  10  25  39  63  98 134 177 224 275 348 395
#     4   9  22  41  72 107 130 172 234 274 349 410
#
# _framework density 24.051956000000001
#
# number of rings (size 3 to 8) (size 9 to 14) (size 15 to 20)
#    0.000    1.750    1.250    1.125   10.500    1.000 
#    0.000    1.250    0.000    0.000    0.000    0.000 
#    0.000    0.000    0.000    0.000    0.000    0.000 
#
# Total GULP energy -89313.530032 kJ/mol
# GULP energy per Si atom -5582.095627 kJ/mol
# Density = 2.399721 g / cm^3
# Si number density = 24.051956 Si / 1000 Ang^3
#
#
#
# Elastic Constant Matrix: (Units=GPa)
#
#
# Indices 1 2 3 4 5 6 
#
# 1 162.4011 68.4535 40.9472 7.9395 -15.4583 24.2468
# 2 68.4535 168.1119 14.9700 -1.3071 -8.8997 26.8914
# 3 40.9472 14.9700 62.5535 5.0306 -5.0219 -1.4170
# 4 7.9395 -1.3071 5.0306 23.2614 -3.2048 -1.2266
# 5 -15.4583 -8.8997 -5.0219 -3.2048 25.3199 -6.8307
# 6 24.2468 26.8914 -1.4170 -1.2266 -6.8307 37.3182
#
#
#
# Elastic Compliance Matrix: (Units=1/GPa)
#
#
# Indices 1 2 3 4 5 6 
#
# 1 0.009584 -0.002649 -0.005363 -0.002138 0.002469 -0.004141
# 2 -0.002649 0.007668 -0.000271 0.001219 0.000169 -0.003744
# 3 -0.005363 -0.000271 0.019959 -0.002036 0.001589 0.004662
# 4 -0.002138 0.001219 -0.002036 0.045096 0.005201 0.002868
# 5 0.002469 0.000169 0.001589 0.005201 0.043794 0.006521
# 6 -0.004141 -0.003744 0.004662 0.002868 0.006521 0.033650
#
#
# Mechanical properties :
#
#
# Convention : Reuss Voigt Hill
#
# Bulk Modulus (GPa) = 48.43597 71.31200 59.87399
# Shear Modulus (GPa) = 27.29279 35.09296 31.19288
#
# Velocity S-wave (km/s) = 3.37225 3.82389 3.60515
# Velocity P-wave (km/s) = 5.94513 7.01496 6.50209
#
# Compressibility (1/GPa) = 0.02064581
#
# Stress axis : x y z
#
# Youngs Moduli (GPa) = 104.34040 130.40653 50.10294
#
# Poissons Ratio (x) = 0.34538 0.26872
# Poissons Ratio (y) = 0.27635 0.01357
# Poissons Ratio (z) = 0.55962 0.03531
#
# Static dielectric constant tensor:
#      x y z
#    x 2.086930 -0.043570 -0.039530 
#    y -0.043570 1.911060 -0.042620 
#    z -0.039530 -0.042620 1.945840 
# 
# From -- ./inp_files/143450.got.cif
#   From: 2010.05.17/outbox.cif.g08.bks.cpg/sg2_72_cif.got.tgz:143450.got - 2010.06.03 11:33:40.
