data_PCOD9005694
_publ_section_title
;
Structure prediction by ZEFSAII (Michael W. Deem and Ramdas Pophale) SiO2 
 PCOD9005694
Probable space group: P -1
;
_chemical_formula_sum "Si O2"
_cell_formula_units_Z 10
_cell_length_a 9.683007
_cell_length_b 17.957802
_cell_length_c 5.610029
_cell_angle_alpha 85.718871
_cell_angle_beta 97.761105
_cell_angle_gamma 24.227282
_cell_volume 346.540595
_symmetry_space_group_name_H-M "P -1"
_symmetry_group_IT_number 2
_symmetry_cell_setting 'triclinic'
loop_
_space_group_symop_operation_xyz
x,y,z
-x,-y,-z
loop_
_atom_site_type_symbol
_atom_site_label
_atom_site_fract_x
_atom_site_fract_y
_atom_site_fract_z
Si Si1 0.761850 0.931709 0.451536
Si Si2 0.445303 0.246666 0.183508
Si Si3 0.486155 0.418871 0.044361
Si Si4 0.059415 0.636535 0.396304
Si Si5 0.559504 0.750031 0.316104
O O1 0.072459 0.816915 0.722681
O O2 0.986844 0.762842 0.361215
O O3 0.500000 0.000000 0.500000
O O4 0.508129 0.125834 0.242392
O O5 0.609776 0.190705 0.487294
O O6 0.619528 0.185444 0.989401
O O7 0.000000 0.500000 0.000000
O O8 0.249602 0.522675 0.211550
O O9 0.500000 0.500000 0.000000
O O10 0.310425 0.486956 0.726674
O O11 0.666462 0.784724 0.306057
O O12 0.000000 0.500000 0.500000
#
# Coordination Sequence:
#
# PCOD9005694 Si02
#       5
#     2   2   2   2   2
#     4  11  22  39  67 101 120 167 219 261 305 380
#     4  10  22  39  60  92 128 159 208 266 310 357
#     4  10  23  40  58  94 136 162 200 264 325 372
#     4  11  22  41  63  94 130 166 202 262 324 369
#     4  10  21  38  63  90 123 166 209 253 314 369
#
# _framework density 28.856649999999998
#
# number of rings (size 3 to 8) (size 9 to 14) (size 15 to 20)
#    0.000    1.600    2.000    3.600    2.800    5.600 
#    0.000    0.000    0.000   28.800    0.000    0.000 
#    0.000    0.000    0.000    0.000    0.000    0.000 
#
# Total GULP energy -55861.902641 kJ/mol
# GULP energy per Si atom -5586.190264 kJ/mol
# Density = 2.879097 g / cm^3
# Si number density = 28.856650 Si / 1000 Ang^3
#
#
#
# Elastic Constant Matrix: (Units=GPa)
#
#
# Indices 1 2 3 4 5 6 
#
# 1 115.3881 44.7864 49.7566 -8.5466 -21.6695 27.6477
# 2 44.7864 145.7576 113.9371 2.9026 -22.1266 -22.2579
# 3 49.7566 113.9371 288.6262 46.3791 0.7571 -11.1180
# 4 -8.5466 2.9026 46.3791 84.8940 3.3106 -30.7699
# 5 -21.6695 -22.1266 0.7571 3.3106 62.8000 -16.3282
# 6 27.6477 -22.2579 -11.1180 -30.7699 -16.3282 60.0985
#
#
#
# Elastic Compliance Matrix: (Units=1/GPa)
#
#
# Indices 1 2 3 4 5 6 
#
# 1 0.012629 -0.004617 -0.000463 -0.001267 0.000707 -0.008062
# 2 -0.004617 0.015641 -0.005950 0.006290 0.006744 0.011868
# 3 -0.000463 -0.005950 0.006508 -0.004753 -0.003143 -0.004074
# 4 -0.001267 0.006290 -0.004753 0.018438 0.004140 0.012598
# 5 0.000707 0.006744 -0.003143 0.004140 0.020797 0.009361
# 6 -0.008062 0.011868 -0.004074 0.012598 0.009361 0.032983
#
#
# Mechanical properties :
#
#
# Convention : Reuss Voigt Hill
#
# Bulk Modulus (GPa) = 78.62556 107.41470 93.02013
# Shear Modulus (GPa) = 37.51079 64.31127 50.91103
#
# Velocity S-wave (km/s) = 3.60933 4.72598 4.20488
# Velocity P-wave (km/s) = 6.68399 8.19049 7.47529
#
# Compressibility (1/GPa) = 0.01271851
#
# Stress axis : x y z
#
# Youngs Moduli (GPa) = 79.18432 63.93522 153.65053
#
# Poissons Ratio (x) = 0.29516 0.07121
# Poissons Ratio (y) = 0.36556 0.91416
# Poissons Ratio (z) = 0.03670 0.38039
#
# Static dielectric constant tensor:
#      x y z
#    x 2.237280 0.042640 0.080330 
#    y 0.042640 2.462120 -0.028460 
#    z 0.080330 -0.028460 2.314730 
# 
# From -- ./inp_files/16102.got.cif
#   From: 2010.05.17/outbox.cif.g08.bks.cpg/sg2_9_cif.got.tgz:16102.got - 2010.06.03 11:33:40.
