data_PCOD9005423
_publ_section_title
;
Structure prediction by ZEFSAII (Michael W. Deem and Ramdas Pophale) SiO2 
 PCOD9005423
Probable space group: P -1
;
_chemical_formula_sum "Si O2"
_cell_formula_units_Z 14
_cell_length_a 8.136457
_cell_length_b 7.966287
_cell_length_c 11.526590
_cell_angle_alpha 80.846876
_cell_angle_beta 124.852577
_cell_angle_gamma 79.502254
_cell_volume 569.874320
_symmetry_space_group_name_H-M "P -1"
_symmetry_group_IT_number 2
_symmetry_cell_setting 'triclinic'
loop_
_space_group_symop_operation_xyz
x,y,z
-x,-y,-z
loop_
_atom_site_type_symbol
_atom_site_label
_atom_site_fract_x
_atom_site_fract_y
_atom_site_fract_z
Si Si1 0.319806 0.916169 0.972106
Si Si2 0.942096 0.763913 0.021795
Si Si3 0.346064 0.688989 0.359739
Si Si4 0.038815 0.708418 0.406469
Si Si5 0.710872 0.622981 0.118202
Si Si6 0.979199 0.233422 0.220114
Si Si7 0.755602 0.726229 0.483275
O O1 0.142666 0.910989 0.808569
O O2 0.184769 0.029675 0.011234
O O3 0.473611 0.706915 0.062176
O O4 0.500000 0.000000 0.000000
O O5 0.774949 0.667605 0.009718
O O6 0.165679 0.684244 0.193672
O O7 0.985532 0.747116 0.905121
O O8 0.500000 0.500000 0.500000
O O9 0.209458 0.780967 0.407102
O O10 0.503523 0.784048 0.360005
O O11 0.162372 0.489630 0.490259
O O12 0.853579 0.709779 0.242241
O O13 0.909215 0.795019 0.457779
O O14 0.812308 0.410750 0.192379
O O15 0.193293 0.223879 0.373099
#
# Coordination Sequence:
#
# PCOD9005423 Si02
#       7
#     2   2   2   2   2   2   2
#     4  10  22  40  57  84 126 167 194 242 316 369
#     4  10  21  38  62  87 124 159 197 248 313 366
#     4   9  18  35  58  86 115 161 200 240 302 369
#     4   8  16  33  55  82 119 157 191 244 300 358
#     4   9  19  36  62  90 117 155 209 250 296 356
#     4  11  21  37  60  97 118 149 212 259 288 359
#     4   9  18  33  55  85 120 149 197 250 299 345
#
# _framework density 24.566821000000001
#
# number of rings (size 3 to 8) (size 9 to 14) (size 15 to 20)
#    0.000    2.571    0.000    2.143    2.000    0.000 
#   10.286    0.714    0.000    2.571    0.000    0.000 
#    0.000    0.000    0.000    0.000    0.000    0.000 
#
# Total GULP energy -77969.737847 kJ/mol
# GULP energy per Si atom -5569.266989 kJ/mol
# Density = 2.451091 g / cm^3
# Si number density = 24.566821 Si / 1000 Ang^3
#
#
#
# Elastic Constant Matrix: (Units=GPa)
#
#
# Indices 1 2 3 4 5 6 
#
# 1 144.4683 20.1994 46.1934 0.8716 7.9664 -39.2630
# 2 20.1994 86.7883 26.5990 -3.5042 16.3379 -21.3522
# 3 46.1934 26.5990 100.5787 3.2565 1.0569 -24.6522
# 4 0.8716 -3.5042 3.2565 32.8687 -7.5500 9.1138
# 5 7.9664 16.3379 1.0569 -7.5500 33.9871 -1.5147
# 6 -39.2630 -21.3522 -24.6522 9.1138 -1.5147 37.1901
#
#
#
# Elastic Compliance Matrix: (Units=1/GPa)
#
#
# Indices 1 2 3 4 5 6 
#
# 1 0.010830 0.001572 -0.002391 -0.003910 -0.003573 0.011564
# 2 0.001572 0.015571 -0.002390 -0.002550 -0.007931 0.009317
# 3 -0.002391 -0.002390 0.013106 -0.002807 0.000924 0.005516
# 4 -0.003910 -0.002550 -0.002807 0.037271 0.009787 -0.016187
# 5 -0.003573 -0.007931 0.000924 0.009787 0.035833 -0.008652
# 6 0.011564 0.009317 0.005516 -0.016187 -0.008652 0.051718
#
#
# Mechanical properties :
#
#
# Convention : Reuss Voigt Hill
#
# Bulk Modulus (GPa) = 30.22237 57.53544 43.87890
# Shear Modulus (GPa) = 27.50620 36.73208 32.11914
#
# Velocity S-wave (km/s) = 3.34974 3.87096 3.61975
# Velocity P-wave (km/s) = 5.22397 6.59166 5.94726
#
# Compressibility (1/GPa) = 0.03308807
#
# Stress axis : x y z
#
# Youngs Moduli (GPa) = 92.33495 64.22098 76.30033
#
# Poissons Ratio (x) = -0.10096 0.18245
# Poissons Ratio (y) = -0.14515 0.18239
# Poissons Ratio (z) = 0.22080 0.15352
#
# Static dielectric constant tensor:
#      x y z
#    x 2.117360 0.151570 -0.088900 
#    y 0.151570 2.139020 -0.121390 
#    z -0.088900 -0.121390 2.026130 
# 
# From -- ./inp_files/227248.got.cif
#   From: 2010.05.17/outbox.cif.g08.bks.cpg/sg2_114_cif.got.tgz:227248.got - 2010.06.03 11:33:40.
