data_PCOD9005608
_publ_section_title
;
Structure prediction by ZEFSAII (Michael W. Deem and Ramdas Pophale) SiO2 
 PCOD9005608
Probable space group: P -1
;
_chemical_formula_sum "Si O2"
_cell_formula_units_Z 16
_cell_length_a 20.525567
_cell_length_b 12.894071
_cell_length_c 9.707033
_cell_angle_alpha 121.731634
_cell_angle_beta 57.091104
_cell_angle_gamma 159.386910
_cell_volume 757.995033
_symmetry_space_group_name_H-M "P -1"
_symmetry_group_IT_number 2
_symmetry_cell_setting 'triclinic'
loop_
_space_group_symop_operation_xyz
x,y,z
-x,-y,-z
loop_
_atom_site_type_symbol
_atom_site_label
_atom_site_fract_x
_atom_site_fract_y
_atom_site_fract_z
Si Si1 0.424126 0.708140 0.785503
Si Si2 0.513102 0.804569 0.169373
Si Si3 0.318713 0.284636 0.643029
Si Si4 0.120598 0.829496 0.033122
Si Si5 0.103058 0.961114 0.400498
Si Si6 0.303057 0.502462 0.481644
Si Si7 0.704261 0.212397 0.006488
Si Si8 0.331122 0.305294 0.957838
O O1 0.327828 0.444177 0.752811
O O2 0.422898 0.702251 0.618378
O O3 0.313483 0.671500 0.931119
O O4 0.625813 0.013738 0.837873
O O5 0.424295 0.701287 0.346586
O O6 0.562834 0.986244 0.138875
O O7 0.367581 0.501604 0.054612
O O8 0.713337 0.021568 0.100818
O O9 0.500000 0.500000 0.500000
O O10 0.149159 0.008125 0.541533
O O11 0.329615 0.255663 0.767949
O O12 0.914867 0.485917 0.000121
O O13 0.147375 0.910015 0.216366
O O14 0.148753 0.993981 0.026783
O O15 0.230038 0.257626 0.409143
O O16 0.887290 0.690260 0.436235
O O17 0.500000 0.500000 0.000000
#
# Coordination Sequence:
#
# PCOD9005608 Si02
#       8
#     2   2   2   2   2   2   2   2
#     4  10  23  41  65  87 135 176 212 260 328 395
#     4  11  22  39  68  93 127 170 227 262 322 385
#     4  11  22  39  68 100 128 166 221 276 327 374
#     4  11  22  41  66  98 128 171 219 276 321 382
#     4  10  21  39  65  94 134 162 212 273 329 376
#     4  10  21  41  64  96 124 173 215 268 322 382
#     4  11  23  44  62  92 135 182 212 257 330 404
#     4  10  21  38  62  97 126 162 212 274 321 378
#
# _framework density 21.108317
#
# number of rings (size 3 to 8) (size 9 to 14) (size 15 to 20)
#    0.000    1.500    3.750    1.875    5.250    0.500 
#    4.500    1.875    0.000    0.000    0.000    0.000 
#    0.000    0.000    0.000    0.000    0.000    0.000 
#
# Total GULP energy -89327.623753 kJ/mol
# GULP energy per Si atom -5582.976485 kJ/mol
# Density = 2.106027 g / cm^3
# Si number density = 21.108317 Si / 1000 Ang^3
#
#
#
# Elastic Constant Matrix: (Units=GPa)
#
#
# Indices 1 2 3 4 5 6 
#
# 1 63.0025 20.0299 24.6009 -1.3635 14.9034 2.7991
# 2 20.0299 97.1916 48.6183 3.8589 16.1158 -2.9754
# 3 24.6009 48.6183 137.9830 6.4475 45.5130 10.5764
# 4 -1.3635 3.8589 6.4475 27.4255 4.9001 4.9564
# 5 14.9034 16.1158 45.5130 4.9001 40.8583 2.6954
# 6 2.7991 -2.9754 10.5764 4.9564 2.6954 14.7072
#
#
#
# Elastic Compliance Matrix: (Units=1/GPa)
#
#
# Indices 1 2 3 4 5 6 
#
# 1 0.018448 -0.003005 -0.000327 0.003076 -0.005288 -0.003951
# 2 -0.003005 0.013602 -0.005137 -0.002455 0.001245 0.007617
# 3 -0.000327 -0.005137 0.014071 0.001394 -0.013091 -0.009166
# 4 0.003076 -0.002455 0.001394 0.040273 -0.005571 -0.014636
# 5 -0.005288 0.001245 -0.013091 -0.005571 0.040829 0.005067
# 6 -0.003951 0.007617 -0.009166 -0.014636 0.005067 0.080882
#
#
# Mechanical properties :
#
#
# Convention : Reuss Voigt Hill
#
# Bulk Modulus (GPa) = 34.26474 53.85283 44.05879
# Shear Modulus (GPa) = 21.29737 30.26007 25.77872
#
# Velocity S-wave (km/s) = 3.17985 3.79035 3.49844
# Velocity P-wave (km/s) = 5.45436 6.68757 6.10220
#
# Compressibility (1/GPa) = 0.02918452
#
# Stress axis : x y z
#
# Youngs Moduli (GPa) = 54.20549 73.51914 71.06835
#
# Poissons Ratio (x) = 0.22089 0.02325
# Poissons Ratio (y) = 0.16286 0.36505
# Poissons Ratio (z) = 0.01773 0.37764
#
# Static dielectric constant tensor:
#      x y z
#    x 1.875440 -0.034330 0.009100 
#    y -0.034330 1.767530 0.024030 
#    z 0.009100 0.024030 1.766420 
# 
# From -- ./inp_files/354156.got.cif
#   From: 2010.05.17/outbox.cif.g08.bks.cpg/sg2_178_cif.got.tgz:354156.got - 2010.06.03 11:33:40.
