data_PCOD9005533
_publ_section_title
;
Structure prediction by ZEFSAII (Michael W. Deem and Ramdas Pophale) SiO2 
 PCOD9005533
Probable space group: P -1
;
_chemical_formula_sum "Si O2"
_cell_formula_units_Z 16
_cell_length_a 23.301198
_cell_length_b 9.726498
_cell_length_c 9.632132
_cell_angle_alpha 44.441105
_cell_angle_beta 150.274296
_cell_angle_gamma 135.526602
_cell_volume 729.864845
_symmetry_space_group_name_H-M "P -1"
_symmetry_group_IT_number 2
_symmetry_cell_setting 'triclinic'
loop_
_space_group_symop_operation_xyz
x,y,z
-x,-y,-z
loop_
_atom_site_type_symbol
_atom_site_label
_atom_site_fract_x
_atom_site_fract_y
_atom_site_fract_z
Si Si1 0.525931 0.539073 0.863773
Si Si2 0.104907 0.779805 0.293253
Si Si3 0.410277 0.127926 0.755388
Si Si4 0.218296 0.242472 0.130139
Si Si5 0.191764 0.908108 0.657526
Si Si6 0.206819 0.431658 0.678866
Si Si7 0.288006 0.600532 0.248582
Si Si8 0.122389 0.313112 0.303791
O O1 0.479129 0.326307 0.839378
O O2 0.432825 0.661174 0.522450
O O3 0.500000 0.500000 0.000000
O O4 0.667336 0.606370 0.080204
O O5 0.097162 0.765933 0.454219
O O6 0.203830 0.665454 0.532332
O O7 0.132608 0.021722 0.147288
O O8 0.987437 0.678454 0.031449
O O9 0.348595 0.194862 0.441622
O O10 0.304937 0.002228 0.725593
O O11 0.500000 0.000000 0.000000
O O12 0.239170 0.417903 0.164926
O O13 0.180932 0.321385 0.851611
O O14 0.149272 0.097178 0.487951
O O15 0.235087 0.782203 0.958151
O O16 0.110564 0.341925 0.421544
O O17 0.233181 0.497342 0.351450
#
# Coordination Sequence:
#
# PCOD9005533 Si02
#       8
#     2   2   2   2   2   2   2   2
#     4  11  21  42  65  92 136 167 203 268 320 382
#     4  11  24  44  70  92 131 172 215 272 321 372
#     4  10  21  38  62  92 129 166 213 258 314 384
#     4  10  23  41  65  97 127 165 220 261 317 385
#     4  11  22  42  64  98 126 169 219 262 318 383
#     4  12  25  43  66  99 131 170 214 264 329 379
#     4  11  23  41  68  99 127 172 217 257 324 388
#     4  12  25  45  65  96 133 168 220 272 313 381
#
# _framework density 21.921866999999999
#
# number of rings (size 3 to 8) (size 9 to 14) (size 15 to 20)
#    0.000    1.000    6.250    2.250    1.750    4.000 
#    2.250    1.250    0.000    0.000    0.000    0.000 
#    0.000    0.000    0.000    0.000    0.000    0.000 
#
# Total GULP energy -89371.856883 kJ/mol
# GULP energy per Si atom -5585.741055 kJ/mol
# Density = 2.187197 g / cm^3
# Si number density = 21.921867 Si / 1000 Ang^3
#
#
#
# Elastic Constant Matrix: (Units=GPa)
#
#
# Indices 1 2 3 4 5 6 
#
# 1 37.6984 -2.3132 21.1742 -13.5326 -7.9641 -13.8558
# 2 -2.3132 29.8510 28.7338 -9.7189 0.6573 -9.6411
# 3 21.1742 28.7338 125.0751 -18.4584 -10.4491 -8.8863
# 4 -13.5326 -9.7189 -18.4584 41.7166 -4.0852 2.0329
# 5 -7.9641 0.6573 -10.4491 -4.0852 38.6091 1.9274
# 6 -13.8558 -9.6411 -8.8863 2.0329 1.9274 28.5864
#
#
#
# Elastic Compliance Matrix: (Units=1/GPa)
#
#
# Indices 1 2 3 4 5 6 
#
# 1 0.054766 0.030773 -0.010497 0.019570 0.008420 0.031701
# 2 0.030773 0.066594 -0.015654 0.017171 0.001237 0.031204
# 3 -0.010497 -0.015654 0.012944 -0.000833 0.001836 -0.006408
# 4 0.019570 0.017171 -0.000833 0.033996 0.006509 0.012161
# 5 0.008420 0.001237 0.001836 0.006509 0.028669 0.002673
# 6 0.031701 0.031204 -0.006408 0.012161 0.002673 0.057834
#
#
# Mechanical properties :
#
#
# Convention : Reuss Voigt Hill
#
# Bulk Modulus (GPa) = 6.96636 31.97935 19.47286
# Shear Modulus (GPa) = 17.04113 31.45108 24.24611
#
# Velocity S-wave (km/s) = 2.79114 3.79184 3.32930
# Velocity P-wave (km/s) = 3.68402 5.81294 4.86633
#
# Compressibility (1/GPa) = 0.14354699
#
# Stress axis : x y z
#
# Youngs Moduli (GPa) = 18.25960 15.01635 77.25790
#
# Poissons Ratio (x) = -0.46210 0.81098
# Poissons Ratio (y) = -0.56190 1.20939
# Poissons Ratio (z) = 0.19167 0.23507
#
# Static dielectric constant tensor:
#      x y z
#    x 1.782560 0.009030 0.030720 
#    y 0.009030 1.773010 0.032800 
#    z 0.030720 0.032800 1.855150 
# 
# From -- ./inp_files/186397.got.cif
#   From: 2010.05.17/outbox.cif.g08.bks.cpg/sg2_94_cif.got.tgz:186397.got - 2010.06.03 11:33:40.
