data_PCOD9005607
_publ_section_title
;
Structure prediction by ZEFSAII (Michael W. Deem and Ramdas Pophale) SiO2 
 PCOD9005607
Probable space group: P -1
;
_chemical_formula_sum "Si O2"
_cell_formula_units_Z 15
_cell_length_a 15.711658
_cell_length_b 5.137105
_cell_length_c 8.208336
_cell_angle_alpha 83.194382
_cell_angle_beta 63.450988
_cell_angle_gamma 96.981984
_cell_volume 577.007580
_symmetry_space_group_name_H-M "P -1"
_symmetry_group_IT_number 2
_symmetry_cell_setting 'triclinic'
loop_
_space_group_symop_operation_xyz
x,y,z
-x,-y,-z
loop_
_atom_site_type_symbol
_atom_site_label
_atom_site_fract_x
_atom_site_fract_y
_atom_site_fract_z
Si Si1 0.789283 0.338107 0.925890
Si Si2 0.306812 0.043141 0.720862
Si Si3 0.197549 0.329918 0.578463
Si Si4 0.551783 0.509152 0.263251
Si Si5 0.500000 0.500000 0.000000
Si Si6 0.722845 0.837635 0.802971
Si Si7 0.994333 0.273503 0.886407
Si Si8 0.609610 0.244976 0.564247
O O1 0.774798 0.632443 0.876448
O O2 0.896453 0.284060 0.870401
O O3 0.744197 0.131725 0.839023
O O4 0.730798 0.243380 0.149096
O O5 0.372908 0.031864 0.504182
O O6 0.216681 0.162487 0.732963
O O7 0.367195 0.233486 0.786044
O O8 0.221586 0.167703 0.414935
O O9 0.087629 0.357680 0.682934
O O10 0.283989 0.590449 0.497594
O O11 0.559275 0.348300 0.436909
O O12 0.463655 0.656733 0.252914
O O13 0.548966 0.332475 0.118851
O O14 0.608443 0.719801 0.887925
O O15 0.000000 0.500000 0.000000
O O16 0.000000 0.000000 0.000000
#
# Coordination Sequence:
#
# PCOD9005607 Si02
#       8
#     2   2   2   2   1   2   2   2
#     4  12  27  49  73 107 150 192 238 309 367 426
#     4  11  22  41  70  98 141 187 247 303 357 429
#     4  11  26  44  73 105 140 190 243 300 362 440
#     4  10  21  38  62  96 136 193 239 303 354 430
#     4  12  22  46  66 102 150 200 246 278 372 438
#     4  12  29  48  72 108 155 194 239 300 368 433
#     4  12  26  48  82 112 138 188 250 305 369 439
#     4  10  21  40  62  99 140 181 247 304 354 417
#
# _framework density 25.996189999999999
#
# number of rings (size 3 to 8) (size 9 to 14) (size 15 to 20)
#    0.000    0.800    4.000    2.800    3.733    1.600 
#    4.800    0.000    0.000    0.000    0.000    0.000 
#    0.000    0.000    0.000    0.000    0.000    0.000 
#
# Total GULP energy -83622.751785 kJ/mol
# GULP energy per Si atom -5574.850119 kJ/mol
# Density = 2.593702 g / cm^3
# Si number density = 25.996190 Si / 1000 Ang^3
#
#
#
# Elastic Constant Matrix: (Units=GPa)
#
#
# Indices 1 2 3 4 5 6 
#
# 1 158.1868 30.3466 36.9577 1.1704 -28.1060 -6.3435
# 2 30.3466 97.2847 9.9566 24.3622 -1.3285 -5.9957
# 3 36.9577 9.9566 54.5482 11.8410 -31.8229 1.4463
# 4 1.1704 24.3622 11.8410 42.0366 -13.7491 10.6732
# 5 -28.1060 -1.3285 -31.8229 -13.7491 56.4742 -2.8494
# 6 -6.3435 -5.9957 1.4463 10.6732 -2.8494 37.5849
#
#
#
# Elastic Compliance Matrix: (Units=1/GPa)
#
#
# Indices 1 2 3 4 5 6 
#
# 1 0.008350 -0.002961 -0.004456 0.003455 0.002432 0.000311
# 2 -0.002961 0.014050 -0.000663 -0.010224 -0.003785 0.004383
# 3 -0.004456 -0.000663 0.030435 -0.003467 0.014074 0.000023
# 4 0.003455 -0.010224 -0.003467 0.035779 0.007707 -0.010490
# 5 0.002432 -0.003785 0.014074 0.007707 0.028597 -0.000755
# 6 0.000311 0.004383 0.000023 -0.010490 -0.000755 0.030279
#
#
# Mechanical properties :
#
#
# Convention : Reuss Voigt Hill
#
# Bulk Modulus (GPa) = 27.26787 51.61574 39.44180
# Shear Modulus (GPa) = 28.42922 42.73639 35.58280
#
# Velocity S-wave (km/s) = 3.31054 4.05896 3.70370
# Velocity P-wave (km/s) = 5.01247 6.47033 5.78748
#
# Compressibility (1/GPa) = 0.03667320
#
# Stress axis : x y z
#
# Youngs Moduli (GPa) = 119.76166 71.17688 32.85662
#
# Poissons Ratio (x) = 0.21079 0.14642
# Poissons Ratio (y) = 0.35467 0.02178
# Poissons Ratio (z) = 0.53371 0.04718
#
# Static dielectric constant tensor:
#      x y z
#    x 2.091310 -0.082990 -0.075670 
#    y -0.082990 1.554100 -0.448890 
#    z -0.075670 -0.448890 1.928990 
# 
# From -- ./inp_files/88813.got.cif
#   From: 2010.05.17/outbox.cif.g08.bks.cpg/sg2_45_cif.got.tgz:88813.got - 2010.06.03 11:33:40.
