data_PCOD9005470
_publ_section_title
;
Structure prediction by ZEFSAII (Michael W. Deem and Ramdas Pophale) SiO2 
 PCOD9005470
Probable space group: P -1
;
_chemical_formula_sum "Si O2"
_cell_formula_units_Z 16
_cell_length_a 17.646506
_cell_length_b 8.979258
_cell_length_c 8.866350
_cell_angle_alpha 73.147337
_cell_angle_beta 129.966158
_cell_angle_gamma 133.411219
_cell_volume 752.668258
_symmetry_space_group_name_H-M "P -1"
_symmetry_group_IT_number 2
_symmetry_cell_setting 'triclinic'
loop_
_space_group_symop_operation_xyz
x,y,z
-x,-y,-z
loop_
_atom_site_type_symbol
_atom_site_label
_atom_site_fract_x
_atom_site_fract_y
_atom_site_fract_z
Si Si1 0.050088 0.064205 0.788386
Si Si2 0.794412 0.770587 0.749596
Si Si3 0.711445 0.237218 0.425809
Si Si4 0.316318 0.652292 0.188918
Si Si5 0.444913 0.106946 0.238378
Si Si6 0.239102 0.814046 0.823793
Si Si7 0.410751 0.194054 0.484605
Si Si8 0.972948 0.714539 0.562537
O O1 0.908652 0.947412 0.727906
O O2 0.029852 0.885917 0.717860
O O3 0.079819 0.230036 0.655397
O O4 0.154396 0.158019 0.032505
O O5 0.766169 0.557005 0.756488
O O6 0.659034 0.724789 0.574512
O O7 0.591153 0.223650 0.324376
O O8 0.694374 0.160170 0.255281
O O9 0.854349 0.477328 0.542200
O O10 0.695865 0.060211 0.549551
O O11 0.448598 0.701305 0.285374
O O12 0.383633 0.874732 0.287466
O O13 0.226829 0.638431 0.951813
O O14 0.442950 0.223713 0.338542
O O15 0.341116 0.027945 0.992404
O O16 0.096281 0.744067 0.648693
#
# Coordination Sequence:
#
# PCOD9005470 Si02
#       8
#     2   2   2   2   2   2   2   2
#     4  10  25  41  59  87 124 160 204 251 301 359
#     4  11  22  42  63  85 125 165 198 249 303 358
#     4  11  21  37  64  89 124 158 199 252 304 350
#     4   9  21  36  63  88 122 155 200 248 297 355
#     4   9  22  38  60  94 122 152 202 252 295 356
#     4  10  21  38  62  90 123 156 203 246 298 360
#     4  11  22  38  62  95 121 158 204 246 303 362
#     4  11  23  41  63  88 123 161 203 252 302 360
#
# _framework density 21.257704
#
# number of rings (size 3 to 8) (size 9 to 14) (size 15 to 20)
#    0.750    1.000    0.000    4.875    3.500    2.000 
#    0.000    1.875    0.000    3.000    0.000    0.000 
#    0.000    0.000    0.000    0.000    0.000    0.000 
#
# Total GULP energy -89275.387923 kJ/mol
# GULP energy per Si atom -5579.711745 kJ/mol
# Density = 2.120932 g / cm^3
# Si number density = 21.257704 Si / 1000 Ang^3
#
#
#
# Elastic Constant Matrix: (Units=GPa)
#
#
# Indices 1 2 3 4 5 6 
#
# 1 63.0290 14.9840 3.0221 -10.1988 -2.1804 4.1349
# 2 14.9840 67.4468 16.5813 2.1632 -7.5076 8.7269
# 3 3.0221 16.5813 35.3383 0.3789 -2.9348 -4.3884
# 4 -10.1988 2.1632 0.3789 22.1869 -4.1701 1.9820
# 5 -2.1804 -7.5076 -2.9348 -4.1701 27.4845 0.9615
# 6 4.1349 8.7269 -4.3884 1.9820 0.9615 20.7596
#
#
#
# Elastic Compliance Matrix: (Units=1/GPa)
#
#
# Indices 1 2 3 4 5 6 
#
# 1 0.018595 -0.003771 -0.000150 0.009574 0.001992 -0.003156
# 2 -0.003771 0.019855 -0.009834 -0.001859 0.004131 -0.009688
# 3 -0.000150 -0.009834 0.034396 -0.000633 0.000477 0.011473
# 4 0.009574 -0.001859 -0.000633 0.051809 0.008275 -0.006589
# 5 0.001992 0.004131 0.000477 0.008275 0.039139 -0.004635
# 6 -0.003156 -0.009688 0.011473 -0.006589 -0.004635 0.056141
#
#
# Mechanical properties :
#
#
# Convention : Reuss Voigt Hill
#
# Bulk Modulus (GPa) = 22.05752 26.10987 24.08370
# Shear Modulus (GPa) = 19.04358 22.83466 20.93912
#
# Velocity S-wave (km/s) = 2.99631 3.28103 3.14190
# Velocity P-wave (km/s) = 4.72962 5.16360 4.95136
#
# Compressibility (1/GPa) = 0.04533601
#
# Stress axis : x y z
#
# Youngs Moduli (GPa) = 53.77917 50.36553 29.07304
#
# Poissons Ratio (x) = 0.18993 0.00436
# Poissons Ratio (y) = 0.20280 0.28590
# Poissons Ratio (z) = 0.00806 0.49528
#
# Static dielectric constant tensor:
#      x y z
#    x 1.740620 -0.005920 -0.020490 
#    y -0.005920 1.797240 0.008940 
#    z -0.020490 0.008940 1.789010 
# 
# From -- ./inp_files/328769.got.cif
#   From: 2010.05.17/outbox.cif.g08.bks.cpg/sg2_165_cif.got.tgz:328769.got - 2010.06.03 11:33:40.
