data_PCOD9005873
_publ_section_title
;
Structure prediction by ZEFSAII (Michael W. Deem and Ramdas Pophale) SiO2 
 PCOD9005873
Probable space group: P -1
;
_chemical_formula_sum "Si O2"
_cell_formula_units_Z 14
_cell_length_a 10.242044
_cell_length_b 17.800295
_cell_length_c 11.503799
_cell_angle_alpha 144.060744
_cell_angle_beta 124.253931
_cell_angle_gamma 32.981634
_cell_volume 624.121429
_symmetry_space_group_name_H-M "P -1"
_symmetry_group_IT_number 2
_symmetry_cell_setting 'triclinic'
loop_
_space_group_symop_operation_xyz
x,y,z
-x,-y,-z
loop_
_atom_site_type_symbol
_atom_site_label
_atom_site_fract_x
_atom_site_fract_y
_atom_site_fract_z
Si Si1 0.880894 0.391938 0.035686
Si Si2 0.457053 0.687814 0.994097
Si Si3 0.254995 0.141109 0.217231
Si Si4 0.679233 0.060883 0.227313
Si Si5 0.687781 0.503514 0.333109
Si Si6 0.872444 0.528875 0.852550
Si Si7 0.277068 0.070833 0.406235
O O1 0.061739 0.152191 0.844427
O O2 0.279134 0.008602 0.971893
O O3 0.072477 0.390089 0.106916
O O4 0.718558 0.515750 0.227056
O O5 0.594178 0.658942 0.913317
O O6 0.317416 0.646151 0.845526
O O7 0.680864 0.513180 0.981623
O O8 0.285802 0.914336 0.239787
O O9 0.445515 0.125516 0.242885
O O10 0.957538 0.375596 0.362748
O O11 0.327023 0.063746 0.287150
O O12 0.568294 0.272341 0.459089
O O13 0.020794 0.308455 0.609508
O O14 0.000000 0.500000 0.000000
O O15 0.500000 0.000000 0.500000
#
# Coordination Sequence:
#
# PCOD9005873 Si02
#       7
#     2   2   2   2   2   2   2
#     4  10  21  39  66  97 128 168 224 261 316 391
#     4  11  25  40  64 103 135 167 217 265 332 390
#     4  10  24  42  65  98 124 174 229 256 328 391
#     4  10  22  41  69  93 133 173 216 274 313 386
#     4  11  24  43  64  96 137 174 209 270 329 386
#     4  10  21  38  63  98 125 164 218 262 316 383
#     4  12  23  42  69  92 130 171 215 280 318 375
#
# _framework density 22.431532000000001
#
# number of rings (size 3 to 8) (size 9 to 14) (size 15 to 20)
#    0.000    1.429    2.857    2.571    2.000    6.857 
#    0.000    1.429    0.000    0.000    0.000    0.000 
#    0.000    0.000    0.000    0.000    0.000    0.000 
#
# Total GULP energy -78262.107354 kJ/mol
# GULP energy per Si atom -5590.150525 kJ/mol
# Density = 2.238048 g / cm^3
# Si number density = 22.431532 Si / 1000 Ang^3
#
#
#
# Elastic Constant Matrix: (Units=GPa)
#
#
# Indices 1 2 3 4 5 6 
#
# 1 54.0450 -1.0243 20.8139 -2.3290 -2.7137 8.6455
# 2 -1.0243 72.6248 28.2853 11.1677 -8.9840 6.9055
# 3 20.8139 28.2853 145.3841 28.5421 -2.9991 12.3611
# 4 -2.3290 11.1677 28.5421 21.9955 0.1214 -3.4987
# 5 -2.7137 -8.9840 -2.9991 0.1214 35.0747 0.0152
# 6 8.6455 6.9055 12.3611 -3.4987 0.0152 21.5644
#
#
#
# Elastic Compliance Matrix: (Units=1/GPa)
#
#
# Indices 1 2 3 4 5 6 
#
# 1 0.021333 0.001771 -0.003936 0.005508 0.001751 -0.005971
# 2 0.001771 0.016636 -0.001372 -0.007533 0.004310 -0.006476
# 3 -0.003936 -0.001372 0.011379 -0.015607 0.000374 -0.007038
# 4 0.005508 -0.007533 -0.015607 0.073494 -0.003101 0.021076
# 5 0.001751 0.004310 0.000374 -0.003101 0.029794 -0.002821
# 6 -0.005971 -0.006476 -0.007038 0.021076 -0.002821 0.058296
#
#
# Mechanical properties :
#
#
# Convention : Reuss Voigt Hill
#
# Bulk Modulus (GPa) = 23.65491 40.91152 32.28322
# Shear Modulus (GPa) = 21.54274 30.65886 26.10080
#
# Velocity S-wave (km/s) = 3.10236 3.70100 3.41482
# Velocity P-wave (km/s) = 4.83747 6.04493 5.47459
#
# Compressibility (1/GPa) = 0.04227452
#
# Stress axis : x y z
#
# Youngs Moduli (GPa) = 46.87552 60.11087 87.88166
#
# Poissons Ratio (x) = -0.10648 0.34593
# Poissons Ratio (y) = -0.08303 0.12056
# Poissons Ratio (z) = 0.18451 0.08246
#
# Static dielectric constant tensor:
#      x y z
#    x 1.828830 -0.004630 0.003770 
#    y -0.004630 1.857620 0.046090 
#    z 0.003770 0.046090 1.892290 
# 
# From -- ./inp_files/399817.got.cif
#   From: 2010.05.17/outbox.cif.g08.bks.cpg/sg2_200_cif.got.tgz:399817.got - 2010.06.03 11:33:40.
