data_PCOD9005221
_publ_section_title
;
Structure prediction by ZEFSAII (Michael W. Deem and Ramdas Pophale) SiO2 
 PCOD9005221
Probable space group: P -1
;
_chemical_formula_sum "Si O2"
_cell_formula_units_Z 16
_cell_length_a 19.548301
_cell_length_b 5.852193
_cell_length_c 7.831322
_cell_angle_alpha 138.414559
_cell_angle_beta 89.300124
_cell_angle_gamma 95.022777
_cell_volume 590.436435
_symmetry_space_group_name_H-M "P -1"
_symmetry_group_IT_number 2
_symmetry_cell_setting 'triclinic'
loop_
_space_group_symop_operation_xyz
x,y,z
-x,-y,-z
loop_
_atom_site_type_symbol
_atom_site_label
_atom_site_fract_x
_atom_site_fract_y
_atom_site_fract_z
Si Si1 0.848259 0.114439 0.764973
Si Si2 0.974276 0.863874 0.743176
Si Si3 0.274665 0.813247 0.384010
Si Si4 0.401277 0.144686 0.426249
Si Si5 0.522006 0.879098 0.125945
Si Si6 0.647601 0.139857 0.090808
Si Si7 0.897162 0.888115 0.280319
Si Si8 0.775303 0.967386 0.131905
O O1 0.767686 0.031111 0.682797
O O2 0.893100 0.863093 0.723081
O O3 0.880744 0.102111 0.566681
O O4 0.864207 0.488060 0.061715
O O5 0.000000 0.500000 0.500000
O O6 0.022052 0.109479 0.749361
O O7 0.000000 0.000000 0.000000
O O8 0.355570 0.844452 0.363220
O O9 0.256000 0.005631 0.662301
O O10 0.243344 0.412734 0.159740
O O11 0.381716 0.491261 0.706588
O O12 0.481918 0.121981 0.386628
O O13 0.371072 0.084851 0.202544
O O14 0.603969 0.950708 0.143314
O O15 0.500000 0.500000 0.000000
O O16 0.500000 0.000000 0.000000
O O17 0.729038 0.199441 0.154595
O O18 0.856379 0.036513 0.204358
#
# Coordination Sequence:
#
# PCOD9005221 Si02
#       8
#     2   2   2   2   2   2   2   2
#     4  10  21  39  60  81 114 158 202 246 306 378
#     4  12  24  36  56  86 116 148 196 256 316 372
#     4  10  21  38  61  88 117 159 208 257 312 379
#     4  11  23  40  62  93 129 168 210 261 323 385
#     4  10  23  44  68  98 134 176 224 276 334 398
#     4  11  23  40  62  93 129 168 210 261 323 385
#     4  10  21  39  60  81 114 158 202 246 306 378
#     4  10  21  38  61  88 117 159 208 257 312 379
#
# _framework density 27.098597000000002
#
# number of rings (size 3 to 8) (size 9 to 14) (size 15 to 20)
#    0.000    1.500    0.000    4.875    0.000    4.000 
#    0.000    5.625    0.000    0.000    0.000    0.000 
#    0.000    0.000    0.000    0.000    0.000    0.000 
#
# Total GULP energy -89490.304160 kJ/mol
# GULP energy per Si atom -5593.144010 kJ/mol
# Density = 2.703692 g / cm^3
# Si number density = 27.098597 Si / 1000 Ang^3
#
#
#
# Elastic Constant Matrix: (Units=GPa)
#
#
# Indices 1 2 3 4 5 6 
#
# 1 80.8209 28.6705 39.1797 -14.9983 -11.9189 -3.9068
# 2 28.6705 76.9869 39.0334 -12.7640 1.4277 -6.1146
# 3 39.1797 39.0334 106.9261 8.8678 -6.7173 -11.4412
# 4 -14.9983 -12.7640 8.8678 50.3611 -1.3343 -1.5359
# 5 -11.9189 1.4277 -6.7173 -1.3343 38.4559 -4.6175
# 6 -3.9068 -6.1146 -11.4412 -1.5359 -4.6175 50.2764
#
#
#
# Elastic Compliance Matrix: (Units=1/GPa)
#
#
# Indices 1 2 3 4 5 6 
#
# 1 0.017957 -0.002943 -0.005630 0.005736 0.004937 0.000385
# 2 -0.002943 0.017972 -0.005965 0.004681 -0.002396 0.000523
# 3 -0.005630 -0.005965 0.014340 -0.005625 0.001029 0.002023
# 4 0.005736 0.004681 -0.005625 0.023800 0.001520 0.000602
# 5 0.004937 -0.002396 0.001029 0.001520 0.028211 0.002964
# 6 0.000385 0.000523 0.002023 0.000602 0.002964 0.020734
#
#
# Mechanical properties :
#
#
# Convention : Reuss Voigt Hill
#
# Bulk Modulus (GPa) = 47.18460 53.16679 50.17570
# Shear Modulus (GPa) = 31.41576 38.34203 34.87890
#
# Velocity S-wave (km/s) = 3.40856 3.76561 3.59152
# Velocity P-wave (km/s) = 5.73943 6.21037 5.97954
#
# Compressibility (1/GPa) = 0.02119335
#
# Stress axis : x y z
#
# Youngs Moduli (GPa) = 55.68740 55.64325 69.73349
#
# Poissons Ratio (x) = 0.16376 0.39260
# Poissons Ratio (y) = 0.16389 0.41596
# Poissons Ratio (z) = 0.31352 0.33191
#
# Static dielectric constant tensor:
#      x y z
#    x 2.170820 -0.020240 0.042220 
#    y -0.020240 2.210850 0.034300 
#    z 0.042220 0.034300 2.049660 
# 
# From -- ./inp_files/10713.got.cif
#   From: 2010.05.17/outbox.cif.g08.bks.cpg/sg2_6_cif.got.tgz:10713.got - 2010.06.03 11:33:40.
