data_PCOD9005513
_publ_section_title
;
Structure prediction by ZEFSAII (Michael W. Deem and Ramdas Pophale) SiO2 
 PCOD9005513
Probable space group: P -1
;
_chemical_formula_sum "Si O2"
_cell_formula_units_Z 16
_cell_length_a 16.850902
_cell_length_b 5.453188
_cell_length_c 8.608073
_cell_angle_alpha 56.917295
_cell_angle_beta 72.665171
_cell_angle_gamma 70.163840
_cell_volume 617.036273
_symmetry_space_group_name_H-M "P -1"
_symmetry_group_IT_number 2
_symmetry_cell_setting 'triclinic'
loop_
_space_group_symop_operation_xyz
x,y,z
-x,-y,-z
loop_
_atom_site_type_symbol
_atom_site_label
_atom_site_fract_x
_atom_site_fract_y
_atom_site_fract_z
Si Si1 0.828184 0.447254 0.526288
Si Si2 0.743824 0.017207 0.866212
Si Si3 0.690956 0.959726 0.573333
Si Si4 0.012582 0.672310 0.680174
Si Si5 0.230454 0.606895 0.765660
Si Si6 0.444387 0.815829 0.988633
Si Si7 0.497920 0.848921 0.390436
Si Si8 0.926813 0.261086 0.022748
O O1 0.747716 0.708782 0.520605
O O2 0.919698 0.522263 0.414507
O O3 0.811108 0.338871 0.400156
O O4 0.818624 0.201044 0.746715
O O5 0.736908 0.917016 0.727442
O O6 0.647769 0.215790 0.885181
O O7 0.759415 0.733830 0.068163
O O8 0.688098 0.257684 0.365765
O O9 0.594812 0.974809 0.672176
O O10 0.930509 0.535573 0.808656
O O11 0.046676 0.675388 0.837187
O O12 0.000000 0.000000 0.500000
O O13 0.167949 0.785063 0.874055
O O14 0.500000 0.500000 0.000000
O O15 0.500000 0.000000 0.000000
O O16 0.426308 0.053750 0.777568
O O17 0.500000 0.500000 0.500000
O O18 0.500000 0.000000 0.500000
O O19 0.000000 0.000000 0.000000
#
# Coordination Sequence:
#
# PCOD9005513 Si02
#       8
#     2   2   2   2   2   2   2   2
#     4  10  23  41  61  92 128 168 210 270 325 393
#     4  11  24  41  64  91 127 168 215 271 328 395
#     4  11  24  42  64  90 130 165 216 271 326 395
#     4  10  21  38  62  91 127 166 212 262 325 386
#     4  10  23  41  62  93 127 167 214 263 332 390
#     4  12  25  45  68  96 134 173 223 281 334 396
#     4  12  27  45  71  99 133 179 227 278 341 401
#     4  10  21  38  62  92 127 164 212 267 316 392
#
# _framework density 25.930403999999999
#
# number of rings (size 3 to 8) (size 9 to 14) (size 15 to 20)
#    0.000    1.250    1.250    3.750    5.250    2.500 
#    0.000    0.000    0.000    0.000    0.000    0.000 
#    0.000    0.000    0.000    0.000    0.000    0.000 
#
# Total GULP energy -89246.316414 kJ/mol
# GULP energy per Si atom -5577.894776 kJ/mol
# Density = 2.587139 g / cm^3
# Si number density = 25.930404 Si / 1000 Ang^3
#
#
#
# Elastic Constant Matrix: (Units=GPa)
#
#
# Indices 1 2 3 4 5 6 
#
# 1 51.5969 9.2498 27.0779 11.4681 -21.9961 -9.2944
# 2 9.2498 130.4503 46.0026 6.7598 -23.2038 -24.7009
# 3 27.0779 46.0026 202.6273 -3.6884 -38.1952 -8.4658
# 4 11.4681 6.7598 -3.6884 54.0948 -12.8054 -4.8870
# 5 -21.9961 -23.2038 -38.1952 -12.8054 39.4230 9.2796
# 6 -9.2944 -24.7009 -8.4658 -4.8870 9.2796 38.6392
#
#
#
# Elastic Compliance Matrix: (Units=1/GPa)
#
#
# Indices 1 2 3 4 5 6 
#
# 1 0.026484 0.001734 -0.001432 -0.002585 0.012678 0.003794
# 2 0.001734 0.009802 -0.001497 -0.000278 0.003931 0.005376
# 3 -0.001432 -0.001497 0.006514 0.002165 0.005554 -0.000934
# 4 -0.002585 -0.000278 0.002165 0.020966 0.007159 0.000607
# 5 0.012678 0.003931 0.005554 0.007159 0.043087 -0.002663
# 6 0.003794 0.005376 -0.000934 0.000607 -0.002663 0.030742
#
#
# Mechanical properties :
#
#
# Convention : Reuss Voigt Hill
#
# Bulk Modulus (GPa) = 24.74500 61.03723 42.89111
# Shear Modulus (GPa) = 32.58333 46.58768 39.58551
#
# Velocity S-wave (km/s) = 3.54866 4.24328 3.91142
# Velocity P-wave (km/s) = 5.13363 6.89907 6.08076
#
# Compressibility (1/GPa) = 0.04041220
#
# Stress axis : x y z
#
# Youngs Moduli (GPa) = 37.75847 102.01753 153.52465
#
# Poissons Ratio (x) = -0.17694 0.21980
# Poissons Ratio (y) = -0.06549 0.22976
# Poissons Ratio (z) = 0.05406 0.15268
#
# Static dielectric constant tensor:
#      x y z
#    x 2.180460 0.102710 0.048620 
#    y 0.102710 2.076570 -0.046280 
#    z 0.048620 -0.046280 2.080810 
# 
# From -- ./inp_files/47654.got.cif
#   From: 2010.05.17/outbox.cif.g08.bks.cpg/sg2_24_cif.got.tgz:47654.got - 2010.06.03 11:33:40.
