data_PCOD9005292
_publ_section_title
;
Structure prediction by ZEFSAII (Michael W. Deem and Ramdas Pophale) SiO2 
 PCOD9005292
Probable space group: P -1
;
_chemical_formula_sum "Si O2"
_cell_formula_units_Z 14
_cell_length_a 6.607616
_cell_length_b 16.101619
_cell_length_c 14.428141
_cell_angle_alpha 133.760308
_cell_angle_beta 107.207699
_cell_angle_gamma 47.069279
_cell_volume 765.876499
_symmetry_space_group_name_H-M "P -1"
_symmetry_group_IT_number 2
_symmetry_cell_setting 'triclinic'
loop_
_space_group_symop_operation_xyz
x,y,z
-x,-y,-z
loop_
_atom_site_type_symbol
_atom_site_label
_atom_site_fract_x
_atom_site_fract_y
_atom_site_fract_z
Si Si1 0.631888 0.013113 0.439355
Si Si2 0.279758 0.766025 0.400627
Si Si3 0.309350 0.247917 0.246618
Si Si4 0.681958 0.951945 0.760581
Si Si5 0.358326 0.560645 0.725977
Si Si6 0.325473 0.843783 0.955739
Si Si7 0.309334 0.706821 0.567081
O O1 0.563036 0.174937 0.559408
O O2 0.498951 0.013669 0.327761
O O3 0.500000 0.000000 0.500000
O O4 0.982433 0.868334 0.381866
O O5 0.481178 0.577680 0.281757
O O6 0.206961 0.803733 0.530376
O O7 0.391359 0.105713 0.209037
O O8 0.456759 0.195990 0.125960
O O9 0.441257 0.307406 0.365246
O O10 0.960660 0.373003 0.284132
O O11 0.026618 0.805335 0.669637
O O12 0.624976 0.102556 0.903006
O O13 0.344182 0.699463 0.854682
O O14 0.552594 0.463243 0.584560
O O15 0.000000 0.000000 0.000000
#
# Coordination Sequence:
#
# PCOD9005292 Si02
#       7
#     2   2   2   2   2   2   2
#     4  11  20  39  67  90 120 154 209 260 303 350
#     4   9  22  39  61  94 117 158 200 260 300 351
#     4  12  22  38  63  90 127 164 201 247 308 368
#     4  12  23  39  63  95 122 163 205 251 305 363
#     4  10  23  41  60  90 133 158 202 250 309 359
#     4  12  25  40  59  89 131 167 202 241 304 379
#     4  10  21  38  61  91 122 154 205 250 306 352
#
# _framework density 18.279709
#
# number of rings (size 3 to 8) (size 9 to 14) (size 15 to 20)
#    0.857    0.286    5.714    0.857    0.000    5.714 
#    0.000    0.714    0.000    1.714    0.000    0.000 
#    0.000    0.000    0.000    0.000    0.000    0.000 
#
# Total GULP energy -78115.241791 kJ/mol
# GULP energy per Si atom -5579.660128 kJ/mol
# Density = 1.823810 g / cm^3
# Si number density = 18.279709 Si / 1000 Ang^3
#
#
#
# Elastic Constant Matrix: (Units=GPa)
#
#
# Indices 1 2 3 4 5 6 
#
# 1 105.1523 48.9546 57.6014 4.9699 17.9435 3.0140
# 2 48.9546 98.8523 50.3350 8.7935 21.4295 0.3831
# 3 57.6014 50.3350 115.6298 19.1041 27.3885 -7.4041
# 4 4.9699 8.7935 19.1041 21.1688 5.4251 11.3204
# 5 17.9435 21.4295 27.3885 5.4251 37.0786 0.1219
# 6 3.0140 0.3831 -7.4041 11.3204 0.1219 28.0093
#
#
#
# Elastic Compliance Matrix: (Units=1/GPa)
#
#
# Indices 1 2 3 4 5 6 
#
# 1 0.015728 -0.004514 -0.007733 0.009294 -0.000626 -0.007428
# 2 -0.004514 0.014893 -0.003070 -0.001363 -0.003956 0.000039
# 3 -0.007733 -0.003070 0.019628 -0.020854 -0.005978 0.014517
# 4 0.009294 -0.001363 -0.020854 0.086930 -0.000888 -0.041624
# 5 -0.000626 -0.003956 -0.005978 -0.000888 0.034109 -0.001248
# 6 -0.007428 0.000039 0.014517 -0.041624 -0.001248 0.057167
#
#
# Mechanical properties :
#
#
# Convention : Reuss Voigt Hill
#
# Bulk Modulus (GPa) = 50.97883 70.37961 60.67922
# Shear Modulus (GPa) = 18.82332 28.10091 23.46212
#
# Velocity S-wave (km/s) = 3.21244 3.92506 3.58649
# Velocity P-wave (km/s) = 6.45820 7.68938 7.10053
#
# Compressibility (1/GPa) = 0.01961598
#
# Stress axis : x y z
#
# Youngs Moduli (GPa) = 63.58126 67.14402 50.94757
#
# Poissons Ratio (x) = 0.30306 0.39398
# Poissons Ratio (y) = 0.28698 0.15641
# Poissons Ratio (z) = 0.49168 0.20613
#
# Static dielectric constant tensor:
#      x y z
#    x 1.647260 0.012660 -0.000380 
#    y 0.012660 1.637770 0.005990 
#    z -0.000380 0.005990 1.628930 
# 
# From -- ./inp_files/485263.got.cif
#   From: 2010.05.17/outbox.cif.g08.bks.cpg/sg2_243_cif.got.tgz:485263.got - 2010.06.03 11:33:40.
