data_PCOD9005317
_publ_section_title
;
Structure prediction by ZEFSAII (Michael W. Deem and Ramdas Pophale) SiO2 
 PCOD9005317
Probable space group: P -1
;
_chemical_formula_sum "Si O2"
_cell_formula_units_Z 14
_cell_length_a 25.789411
_cell_length_b 9.565690
_cell_length_c 12.580143
_cell_angle_alpha 144.563657
_cell_angle_beta 29.118508
_cell_angle_gamma 152.033996
_cell_volume 695.416745
_symmetry_space_group_name_H-M "P -1"
_symmetry_group_IT_number 2
_symmetry_cell_setting 'triclinic'
loop_
_space_group_symop_operation_xyz
x,y,z
-x,-y,-z
loop_
_atom_site_type_symbol
_atom_site_label
_atom_site_fract_x
_atom_site_fract_y
_atom_site_fract_z
Si Si1 0.053927 0.711999 0.680173
Si Si2 0.119350 0.953997 0.349409
Si Si3 0.416260 0.730202 0.839478
Si Si4 0.586790 0.775073 0.934450
Si Si5 0.039035 0.817882 0.168462
Si Si6 0.867355 0.837557 0.997454
Si Si7 0.359174 0.088593 0.305604
O O1 0.000488 0.374853 0.593785
O O2 0.948991 0.702864 0.786155
O O3 0.204302 0.932366 0.503650
O O4 0.057609 0.864487 0.878654
O O5 0.113465 0.922121 0.212863
O O6 0.258454 0.043055 0.198224
O O7 0.089878 0.186534 0.582635
O O8 0.544229 0.763486 0.674149
O O9 0.284624 0.404945 0.841405
O O10 0.450483 0.991081 0.856924
O O11 0.364750 0.817601 0.087761
O O12 0.579899 0.691282 0.770027
O O13 0.500000 0.500000 0.000000
O O14 0.125899 0.061358 0.071632
O O15 0.000000 0.500000 0.000000
#
# Coordination Sequence:
#
# PCOD9005317 Si02
#       7
#     2   2   2   2   2   2   2
#     4  11  21  39  65  95 119 166 214 255 318 372
#     4  11  23  40  68  90 126 172 204 257 326 367
#     4   9  20  37  59  90 118 166 201 261 308 362
#     4  10  21  38  61  92 119 163 213 255 311 380
#     4  11  24  40  59  97 131 160 208 260 320 368
#     4  11  22  37  64  89 133 160 209 270 298 379
#     4   9  20  37  60  88 123 156 215 247 315 372
#
# _framework density 20.131815
#
# number of rings (size 3 to 8) (size 9 to 14) (size 15 to 20)
#    0.857    0.857    2.857    1.714    2.000    4.571 
#    0.000    0.000    0.000    1.714    0.000    0.000 
#    0.000    0.000    0.000    0.000    0.000    0.000 
#
# Total GULP energy -78085.949290 kJ/mol
# GULP energy per Si atom -5577.567806 kJ/mol
# Density = 2.008599 g / cm^3
# Si number density = 20.131815 Si / 1000 Ang^3
#
#
#
# Elastic Constant Matrix: (Units=GPa)
#
#
# Indices 1 2 3 4 5 6 
#
# 1 129.8889 60.8060 39.9866 -8.5800 -11.9765 -20.4303
# 2 60.8060 102.3558 28.8912 -9.0751 -1.1766 -18.2125
# 3 39.9866 28.8912 76.1469 -1.2408 -6.5973 -7.2825
# 4 -8.5800 -9.0751 -1.2408 33.6025 7.1140 4.4808
# 5 -11.9765 -1.1766 -6.5973 7.1140 30.0563 -8.7988
# 6 -20.4303 -18.2125 -7.2825 4.4808 -8.7988 33.5153
#
#
#
# Elastic Compliance Matrix: (Units=1/GPa)
#
#
# Indices 1 2 3 4 5 6 
#
# 1 0.012793 -0.005563 -0.003577 -0.000339 0.005805 0.005567
# 2 -0.005563 0.014506 -0.002396 0.002366 -0.001803 0.003181
# 3 -0.003577 -0.002396 0.016223 -0.001669 0.002724 0.000980
# 4 -0.000339 0.002366 -0.001669 0.033252 -0.010151 -0.006394
# 5 0.005805 -0.001803 0.002724 -0.010151 0.043149 0.015835
# 6 0.005567 0.003181 0.000980 -0.006394 0.015835 0.040185
#
#
# Mechanical properties :
#
#
# Convention : Reuss Voigt Hill
#
# Bulk Modulus (GPa) = 48.90206 63.08434 55.99320
# Shear Modulus (GPa) = 26.31627 31.34869 28.83248
#
# Velocity S-wave (km/s) = 3.61944 3.95038 3.78853
# Velocity P-wave (km/s) = 6.46613 7.22572 6.85645
#
# Compressibility (1/GPa) = 0.02044904
#
# Stress axis : x y z
#
# Youngs Moduli (GPa) = 78.16878 68.93746 61.64189
#
# Poissons Ratio (x) = 0.38348 0.22052
# Poissons Ratio (y) = 0.43483 0.14770
# Poissons Ratio (z) = 0.27964 0.16518
#
# Static dielectric constant tensor:
#      x y z
#    x 1.745060 0.003300 0.015760 
#    y 0.003300 1.701360 0.033420 
#    z 0.015760 0.033420 1.735940 
# 
# From -- ./inp_files/474435.got.cif
#   From: 2010.05.17/outbox.cif.g08.bks.cpg/sg2_238_cif.got.tgz:474435.got - 2010.06.03 11:33:40.
