data_PCOD9005917
_publ_section_title
;
Structure prediction by ZEFSAII (Michael W. Deem and Ramdas Pophale) SiO2 
 PCOD9005917
Probable space group: P -1
;
_chemical_formula_sum "Si O2"
_cell_formula_units_Z 15
_cell_length_a 5.404143
_cell_length_b 9.137661
_cell_length_c 13.260054
_cell_angle_alpha 121.991460
_cell_angle_beta 75.917154
_cell_angle_gamma 94.597200
_cell_volume 537.713420
_symmetry_space_group_name_H-M "P -1"
_symmetry_group_IT_number 2
_symmetry_cell_setting 'triclinic'
loop_
_space_group_symop_operation_xyz
x,y,z
-x,-y,-z
loop_
_atom_site_type_symbol
_atom_site_label
_atom_site_fract_x
_atom_site_fract_y
_atom_site_fract_z
Si Si1 0.517527 0.792026 0.134032
Si Si2 0.018987 0.279569 0.077719
Si Si3 0.745336 0.702767 0.528118
Si Si4 0.828057 0.973472 0.856715
Si Si5 0.199694 0.050924 0.668063
Si Si6 0.686917 0.474126 0.622792
Si Si7 0.127850 0.626143 0.227935
Si Si8 0.000000 0.000000 0.500000
O O1 0.435007 0.971822 0.152776
O O2 0.611928 0.832334 0.251216
O O3 0.274339 0.679704 0.132461
O O4 0.742187 0.705066 0.015315
O O5 0.930001 0.478225 0.177295
O O6 0.119087 0.189999 0.137947
O O7 0.850738 0.140914 0.989966
O O8 0.672457 0.661552 0.636439
O O9 0.529941 0.622005 0.450930
O O10 0.017372 0.597297 0.446658
O O11 0.792947 0.895995 0.561427
O O12 0.046190 0.976758 0.750067
O O13 0.242224 0.925627 0.525746
O O14 0.012673 0.184502 0.662091
O O15 0.678529 0.453168 0.736498
#
# Coordination Sequence:
#
# PCOD9005917 Si02
#       8
#     2   2   2   2   2   2   2   1
#     4  10  21  40  60  89 122 161 212 266 325 388
#     4  10  21  38  64  87 124 162 210 258 331 387
#     4  10  23  42  68  91 136 176 226 278 336 398
#     4   9  21  41  60  89 122 159 203 272 317 396
#     4  10  23  40  59  89 126 161 214 265 325 391
#     4  10  22  45  63  96 133 177 221 282 333 404
#     4  11  22  37  61  90 124 167 210 266 320 405
#     4  12  22  42  66  96 128 180 222 278 334 394
#
# _framework density 27.895900000000001
#
# number of rings (size 3 to 8) (size 9 to 14) (size 15 to 20)
#    0.000    1.867    1.333    1.600    1.867    6.400 
#    4.800    1.333    0.000    0.000    0.000    0.000 
#    0.000    0.000    0.000    0.000    0.000    0.000 
#
# Total GULP energy -83730.568203 kJ/mol
# GULP energy per Si atom -5582.037880 kJ/mol
# Density = 2.783241 g / cm^3
# Si number density = 27.895900 Si / 1000 Ang^3
#
#
#
# Elastic Constant Matrix: (Units=GPa)
#
#
# Indices 1 2 3 4 5 6 
#
# 1 82.9675 40.9336 26.8116 6.9933 21.1648 -10.3068
# 2 40.9336 203.6042 67.7074 -2.1995 11.6115 -12.3587
# 3 26.8116 67.7074 122.9006 -20.6920 26.9461 -15.9296
# 4 6.9933 -2.1995 -20.6920 46.1387 -7.4620 -3.0093
# 5 21.1648 11.6115 26.9461 -7.4620 40.8418 -4.4703
# 6 -10.3068 -12.3587 -15.9296 -3.0093 -4.4703 26.3707
#
#
#
# Elastic Compliance Matrix: (Units=1/GPa)
#
#
# Indices 1 2 3 4 5 6 
#
# 1 0.016125 -0.002401 -0.000828 -0.003955 -0.007527 0.002950
# 2 -0.002401 0.006460 -0.003463 -0.000609 0.001603 0.000199
# 3 -0.000828 -0.003463 0.013075 0.005278 -0.005636 0.005598
# 4 -0.003955 -0.000609 0.005278 0.025573 0.003954 0.004946
# 5 -0.007527 0.001603 -0.005636 0.003954 0.032408 0.000350
# 6 0.002950 0.000199 0.005598 0.004946 0.000350 0.043173
#
#
# Mechanical properties :
#
#
# Convention : Reuss Voigt Hill
#
# Bulk Modulus (GPa) = 44.89330 75.59752 60.24541
# Shear Modulus (GPa) = 31.72090 40.93820 36.32955
#
# Velocity S-wave (km/s) = 3.37577 3.83500 3.61269
# Velocity P-wave (km/s) = 5.59666 6.83874 6.24863
#
# Compressibility (1/GPa) = 0.02227504
#
# Stress axis : x y z
#
# Youngs Moduli (GPa) = 62.01570 154.79986 76.48034
#
# Poissons Ratio (x) = 0.37164 0.06336
# Poissons Ratio (y) = 0.14889 0.26487
# Poissons Ratio (z) = 0.05138 0.53612
#
# Static dielectric constant tensor:
#      x y z
#    x 2.361230 0.046140 0.026260 
#    y 0.046140 2.184640 0.061110 
#    z 0.026260 0.061110 2.335230 
# 
# From -- ./inp_files/38778.got.cif
#   From: 2010.05.17/outbox.cif.g08.bks.cpg/sg2_20_cif.got.tgz:38778.got - 2010.06.03 11:33:40.
