data_PCOD9005956
_publ_section_title
;
Structure prediction by ZEFSAII (Michael W. Deem and Ramdas Pophale) SiO2 
 PCOD9005956
Probable space group: P -1
;
_chemical_formula_sum "Si O2"
_cell_formula_units_Z 14
_cell_length_a 28.821160
_cell_length_b 9.646313
_cell_length_c 4.939425
_cell_angle_alpha 114.478576
_cell_angle_beta 110.059304
_cell_angle_gamma 28.062374
_cell_volume 587.130927
_symmetry_space_group_name_H-M "P -1"
_symmetry_group_IT_number 2
_symmetry_cell_setting 'triclinic'
loop_
_space_group_symop_operation_xyz
x,y,z
-x,-y,-z
loop_
_atom_site_type_symbol
_atom_site_label
_atom_site_fract_x
_atom_site_fract_y
_atom_site_fract_z
Si Si1 0.562790 0.711281 0.721848
Si Si2 0.109494 0.702293 0.099832
Si Si3 0.501014 0.611829 0.837449
Si Si4 0.901837 0.615867 0.132931
Si Si5 0.198833 0.620126 0.707859
Si Si6 0.878078 0.878177 0.782446
Si Si7 0.382491 0.150270 0.321391
O O1 0.582390 0.520849 0.816397
O O2 0.637916 0.625182 0.651916
O O3 0.487672 0.860950 0.455787
O O4 0.500000 0.000000 0.000000
O O5 0.118774 0.780358 0.451365
O O6 0.134264 0.460000 0.005788
O O7 0.180824 0.573143 0.904035
O O8 0.000000 0.000000 0.000000
O O9 0.500000 0.500000 0.500000
O O10 0.500000 0.500000 0.000000
O O11 0.403699 0.974895 0.983066
O O12 0.848080 0.874283 0.443065
O O13 0.017227 0.314956 0.211264
O O14 0.897361 0.694059 0.887565
O O15 0.298967 0.329783 0.509084
O O16 0.188464 0.820441 0.954541
#
# Coordination Sequence:
#
# PCOD9005956 Si02
#       7
#     2   2   2   2   2   2   2
#     4   9  20  41  71  93 129 174 215 261 325 407
#     4  12  25  42  65  96 132 180 219 268 334 398
#     4  11  21  39  68  99 130 173 217 257 329 402
#     4  10  21  39  62  87 124 165 219 259 325 384
#     4  12  26  41  68  98 131 169 225 280 324 381
#     4  10  21  38  64  90 119 167 214 272 312 384
#     4  10  23  43  67 100 131 171 223 272 326 393
#
# _framework density 23.844764999999999
#
# number of rings (size 3 to 8) (size 9 to 14) (size 15 to 20)
#    0.000    1.429    2.857    2.143    8.000    0.000 
#    0.000    4.286    6.286    0.000    0.000    0.000 
#    0.000    0.000    0.000    0.000    0.000    0.000 
#
# Total GULP energy -78175.487519 kJ/mol
# GULP energy per Si atom -5583.963394 kJ/mol
# Density = 2.379049 g / cm^3
# Si number density = 23.844765 Si / 1000 Ang^3
#
#
#
# Elastic Constant Matrix: (Units=GPa)
#
#
# Indices 1 2 3 4 5 6 
#
# 1 127.9579 35.2891 22.0269 3.7739 -12.2725 60.1762
# 2 35.2891 49.7846 21.5531 -9.2694 1.7969 10.0716
# 3 22.0269 21.5531 147.2050 -1.8002 -6.1604 7.2844
# 4 3.7739 -9.2694 -1.8002 41.2463 6.1353 -8.4093
# 5 -12.2725 1.7969 -6.1604 6.1353 37.6738 -5.4357
# 6 60.1762 10.0716 7.2844 -8.4093 -5.4357 38.6105
#
#
#
# Elastic Compliance Matrix: (Units=1/GPa)
#
#
# Indices 1 2 3 4 5 6 
#
# 1 0.071275 -0.036647 0.000221 -0.039088 0.015806 -0.107856
# 2 -0.036647 0.042309 -0.003379 0.024684 -0.011240 0.050510
# 3 0.000221 -0.003379 0.007346 -0.000844 0.001452 -0.000828
# 4 -0.039088 0.024684 -0.000844 0.048140 -0.012751 0.063331
# 5 0.015806 -0.011240 0.001452 -0.012751 0.031613 -0.020303
# 6 -0.107856 0.050510 -0.000828 0.063331 -0.020303 0.191914
#
#
# Mechanical properties :
#
#
# Convention : Reuss Voigt Hill
#
# Bulk Modulus (GPa) = 24.20063 53.63174 38.91618
# Shear Modulus (GPa) = 10.28846 39.91133 25.09989
#
# Velocity S-wave (km/s) = 2.07946 4.09565 3.24796
# Velocity P-wave (km/s) = 3.99209 6.70124 5.51559
#
# Compressibility (1/GPa) = 0.04132123
#
# Stress axis : x y z
#
# Youngs Moduli (GPa) = 14.03012 23.63559 136.12151
#
# Poissons Ratio (x) = 0.86617 -0.03010
# Poissons Ratio (y) = 0.51416 0.45997
# Poissons Ratio (z) = -0.00310 0.07987
#
# Static dielectric constant tensor:
#      x y z
#    x 1.996460 -0.041770 -0.005830 
#    y -0.041770 1.997650 -0.025690 
#    z -0.005830 -0.025690 2.149670 
# 
# From -- ./inp_files/126058.got.cif
#   From: 2010.05.17/outbox.cif.g08.bks.cpg/sg2_64_cif.got.tgz:126058.got - 2010.06.03 11:33:40.
