data_PCOD9005945
_publ_section_title
;
Structure prediction by ZEFSAII (Michael W. Deem and Ramdas Pophale) SiO2 
 PCOD9005945
Probable space group: P -1
;
_chemical_formula_sum "Si O2"
_cell_formula_units_Z 16
_cell_length_a 9.293733
_cell_length_b 9.744312
_cell_length_c 19.471233
_cell_angle_alpha 51.255117
_cell_angle_beta 43.594632
_cell_angle_gamma 45.948643
_cell_volume 846.872683
_symmetry_space_group_name_H-M "P -1"
_symmetry_group_IT_number 2
_symmetry_cell_setting 'triclinic'
loop_
_space_group_symop_operation_xyz
x,y,z
-x,-y,-z
loop_
_atom_site_type_symbol
_atom_site_label
_atom_site_fract_x
_atom_site_fract_y
_atom_site_fract_z
Si Si1 0.970762 0.811555 0.047532
Si Si2 0.690955 0.528684 0.879632
Si Si3 0.334458 0.775571 0.825686
Si Si4 0.090585 0.191223 0.288158
Si Si5 0.733605 0.520938 0.399578
Si Si6 0.722445 0.126607 0.344850
Si Si7 0.797049 0.682545 0.471663
Si Si8 0.572852 0.881772 0.241041
O O1 0.702887 0.853113 0.131362
O O2 0.083502 0.667516 0.118474
O O3 0.124745 0.748045 0.945035
O O4 0.000000 0.000000 0.000000
O O5 0.575702 0.590421 0.825194
O O6 0.761388 0.697796 0.825754
O O7 0.500000 0.500000 0.000000
O O8 0.293852 0.814169 0.747734
O O9 0.364122 0.961327 0.788986
O O10 0.946857 0.319099 0.362994
O O11 0.902975 0.183637 0.303822
O O12 0.293602 0.977393 0.303051
O O13 0.500000 0.500000 0.500000
O O14 0.797589 0.604335 0.419289
O O15 0.667072 0.680140 0.312376
O O16 0.461772 0.247453 0.428309
O O17 0.811296 0.890780 0.397741
O O18 0.000000 0.500000 0.500000
#
# Coordination Sequence:
#
# PCOD9005945 Si02
#       8
#     2   2   2   2   2   2   2   2
#     4   9  17  34  62  92 122 157 209 258 307 380
#     4   9  18  36  63  93 120 166 212 253 312 382
#     4   9  19  37  64  90 121 166 207 260 320 375
#     4  11  24  38  66  93 130 163 215 265 313 373
#     4  12  24  42  64  94 124 169 220 259 314 379
#     4  11  24  45  60  95 132 165 211 270 320 375
#     4  11  27  43  65  89 131 173 212 262 327 379
#     4  10  21  38  64  89 124 166 211 260 309 375
#
# _framework density 18.893039999999999
#
# number of rings (size 3 to 8) (size 9 to 14) (size 15 to 20)
#    0.000    1.750    3.750    0.750    5.250    0.500 
#    0.000    3.125    0.000    0.000    0.000    0.000 
#    0.000    0.000    0.000    0.000    0.000    0.000 
#
# Total GULP energy -89098.236878 kJ/mol
# GULP energy per Si atom -5568.639805 kJ/mol
# Density = 1.885004 g / cm^3
# Si number density = 18.893040 Si / 1000 Ang^3
#
#
#
# Elastic Constant Matrix: (Units=GPa)
#
#
# Indices 1 2 3 4 5 6 
#
# 1 105.7757 45.8887 58.7554 7.6378 -2.0493 -3.0315
# 2 45.8887 76.6373 37.1547 2.2265 2.8064 -24.7864
# 3 58.7554 37.1547 122.3766 3.4488 -7.1730 -10.2058
# 4 7.6378 2.2265 3.4488 28.2430 -3.7623 -1.1383
# 5 -2.0493 2.8064 -7.1730 -3.7623 30.8348 -0.9835
# 6 -3.0315 -24.7864 -10.2058 -1.1383 -0.9835 32.5901
#
#
#
# Elastic Compliance Matrix: (Units=1/GPa)
#
#
# Indices 1 2 3 4 5 6 
#
# 1 0.016867 -0.009749 -0.005687 -0.003407 0.000023 -0.007745
# 2 -0.009749 0.025637 -0.001793 0.001203 -0.002678 0.017991
# 3 -0.005687 -0.001793 0.011741 0.000676 0.002659 0.001887
# 4 -0.003407 0.001203 0.000676 0.036825 0.004386 0.002228
# 5 0.000023 -0.002678 0.002659 0.004386 0.033829 -0.000028
# 6 -0.007745 0.017991 0.001887 0.002228 -0.000028 0.044315
#
#
# Mechanical properties :
#
#
# Convention : Reuss Voigt Hill
#
# Bulk Modulus (GPa) = 50.54050 65.37637 57.95844
# Shear Modulus (GPa) = 23.77920 29.19964 26.48942
#
# Velocity S-wave (km/s) = 3.55156 3.93558 3.74849
# Velocity P-wave (km/s) = 6.60507 7.43843 7.03410
#
# Compressibility (1/GPa) = 0.01978611
#
# Stress axis : x y z
#
# Youngs Moduli (GPa) = 59.28829 39.00540 85.17523
#
# Poissons Ratio (x) = 0.38027 0.48436
# Poissons Ratio (y) = 0.57801 0.15276
# Poissons Ratio (z) = 0.33715 0.06996
#
# Static dielectric constant tensor:
#      x y z
#    x 1.726680 -0.059170 -0.116890 
#    y -0.059170 1.732850 -0.003560 
#    z -0.116890 -0.003560 1.857790 
# 
# From -- ./inp_files/399152.got.cif
#   From: 2010.05.17/outbox.cif.g08.bks.cpg/sg2_200_cif.got.tgz:399152.got - 2010.06.03 11:33:40.
