data_PCOD9005691
_publ_section_title
;
Structure prediction by ZEFSAII (Michael W. Deem and Ramdas Pophale) SiO2 
 PCOD9005691
Probable space group: P -1
;
_chemical_formula_sum "Si O2"
_cell_formula_units_Z 14
_cell_length_a 12.261972
_cell_length_b 24.615051
_cell_length_c 8.679245
_cell_angle_alpha 150.719641
_cell_angle_beta 123.567327
_cell_angle_gamma 37.755831
_cell_volume 697.991591
_symmetry_space_group_name_H-M "P -1"
_symmetry_group_IT_number 2
_symmetry_cell_setting 'triclinic'
loop_
_space_group_symop_operation_xyz
x,y,z
-x,-y,-z
loop_
_atom_site_type_symbol
_atom_site_label
_atom_site_fract_x
_atom_site_fract_y
_atom_site_fract_z
Si Si1 0.454188 0.877714 0.478765
Si Si2 0.685045 0.884867 0.476812
Si Si3 0.994426 0.996403 0.170960
Si Si4 0.602679 0.327139 0.226354
Si Si5 0.413645 0.849317 0.720739
Si Si6 0.396956 0.463287 0.731943
Si Si7 0.066518 0.202135 0.815674
O O1 0.644900 0.808506 0.370255
O O2 0.474286 0.862943 0.640776
O O3 0.257040 0.079707 0.778884
O O4 0.433077 0.763740 0.121244
O O5 0.873105 0.772087 0.230450
O O6 0.500000 0.000000 0.500000
O O7 0.660791 0.011164 0.871177
O O8 0.059383 0.076634 0.465637
O O9 0.159566 0.808225 0.903635
O O10 0.779742 0.104937 0.338548
O O11 0.000000 0.000000 0.000000
O O12 0.500000 0.500000 0.500000
O O13 0.522026 0.365491 0.431827
O O14 0.579915 0.662386 0.459350
O O15 0.500000 0.500000 0.000000
O O16 0.164688 0.623996 0.898774
#
# Coordination Sequence:
#
# PCOD9005691 Si02
#       7
#     2   2   2   2   2   2   2
#     4  10  24  42  61  89 122 165 201 242 300 364
#     4  10  21  43  65  84 119 166 205 243 294 365
#     4  11  19  37  61  91 118 162 198 245 304 356
#     4  11  24  39  60  90 129 155 197 253 304 353
#     4  12  22  38  66  89 123 157 206 247 299 361
#     4  12  22  37  60  96 124 156 201 253 303 350
#     4  10  21  38  63  90 122 159 200 246 301 356
#
# _framework density 20.057545999999999
#
# number of rings (size 3 to 8) (size 9 to 14) (size 15 to 20)
#    0.000    1.143    4.286    3.000    2.000    1.143 
#    0.000    7.143    0.000    0.000    0.000    0.000 
#    0.000    0.000    0.000    0.000    0.000    0.000 
#
# Total GULP energy -78077.242543 kJ/mol
# GULP energy per Si atom -5576.945896 kJ/mol
# Density = 2.001189 g / cm^3
# Si number density = 20.057546 Si / 1000 Ang^3
#
#
#
# Elastic Constant Matrix: (Units=GPa)
#
#
# Indices 1 2 3 4 5 6 
#
# 1 73.5871 8.7108 -11.5546 6.8794 1.5124 14.5566
# 2 8.7108 56.0019 16.7037 18.4789 2.5976 17.4632
# 3 -11.5546 16.7037 36.6964 19.1644 -4.3718 5.8944
# 4 6.8794 18.4789 19.1644 41.2846 6.0612 -0.6226
# 5 1.5124 2.5976 -4.3718 6.0612 26.5114 2.4997
# 6 14.5566 17.4632 5.8944 -0.6226 2.4997 36.0004
#
#
#
# Elastic Compliance Matrix: (Units=1/GPa)
#
#
# Indices 1 2 3 4 5 6 
#
# 1 0.018535 -0.000827 0.013374 -0.009715 0.004370 -0.009755
# 2 -0.000827 0.026339 -0.005610 -0.009185 -0.000259 -0.011664
# 3 0.013374 -0.005610 0.051507 -0.026084 0.015436 -0.012643
# 4 -0.009715 -0.009185 -0.026084 0.044385 -0.014354 0.014419
# 5 0.004370 -0.000259 0.015436 -0.014354 0.044028 -0.007474
# 6 -0.009755 -0.011664 -0.012643 0.014419 -0.007474 0.040218
#
#
# Mechanical properties :
#
#
# Convention : Reuss Voigt Hill
#
# Bulk Modulus (GPa) = 9.06993 21.55612 15.31303
# Shear Modulus (GPa) = 20.17021 30.92096 25.54559
#
# Velocity S-wave (km/s) = 3.17459 3.93060 3.57265
# Velocity P-wave (km/s) = 4.23900 5.60089 4.96684
#
# Compressibility (1/GPa) = 0.11025440
#
# Stress axis : x y z
#
# Youngs Moduli (GPa) = 53.95122 37.96711 19.41477
#
# Poissons Ratio (x) = 0.03141 -0.25965
# Poissons Ratio (y) = 0.04464 0.10891
# Poissons Ratio (z) = -0.72154 0.21299
#
# Static dielectric constant tensor:
#      x y z
#    x 1.719530 -0.032480 0.021750 
#    y -0.032480 1.803400 0.001580 
#    z 0.021750 0.001580 1.702510 
# 
# From -- ./inp_files/165474.got.cif
#   From: 2010.05.17/outbox.cif.g08.bks.cpg/sg2_83_cif.got.tgz:165474.got - 2010.06.03 11:33:40.
