data_PCOD9005800
_publ_section_title
;
Structure prediction by ZEFSAII (Michael W. Deem and Ramdas Pophale) SiO2 
 PCOD9005800
Probable space group: P -1
;
_chemical_formula_sum "Si O2"
_cell_formula_units_Z 16
_cell_length_a 27.528151
_cell_length_b 11.455452
_cell_length_c 7.313525
_cell_angle_alpha 143.553018
_cell_angle_beta 36.450530
_cell_angle_gamma 151.235246
_cell_volume 618.335751
_symmetry_space_group_name_H-M "P -1"
_symmetry_group_IT_number 2
_symmetry_cell_setting 'triclinic'
loop_
_space_group_symop_operation_xyz
x,y,z
-x,-y,-z
loop_
_atom_site_type_symbol
_atom_site_label
_atom_site_fract_x
_atom_site_fract_y
_atom_site_fract_z
Si Si1 0.528236 0.229569 0.332067
Si Si2 0.990807 0.582658 0.933782
Si Si3 0.192480 0.151985 0.938870
Si Si4 0.636230 0.000487 0.136578
Si Si5 0.756021 0.415256 0.846720
Si Si6 0.378203 0.173287 0.456190
Si Si7 0.181820 0.424873 0.749896
Si Si8 0.170257 0.987746 0.383026
O O1 0.465269 0.141141 0.601832
O O2 0.653983 0.393602 0.186438
O O3 0.481289 0.329931 0.474102
O O4 0.500000 0.000000 0.000000
O O5 0.102902 0.870598 0.935825
O O6 0.937959 0.309863 0.651964
O O7 0.908155 0.618387 0.156375
O O8 0.000000 0.500000 0.000000
O O9 0.308484 0.260371 0.789831
O O10 0.188639 0.382596 0.232347
O O11 0.182172 0.089696 0.677255
O O12 0.701043 0.307367 0.321110
O O13 0.725248 0.987028 0.928649
O O14 0.608848 0.884903 0.866807
O O15 0.828911 0.511504 0.927384
O O16 0.703986 0.125274 0.592125
O O17 0.170297 0.172495 0.478964
#
# Coordination Sequence:
#
# PCOD9005800 Si02
#       8
#     2   2   2   2   2   2   2   2
#     4  10  21  38  63  94 123 168 209 247 308 366
#     4  11  24  38  60  92 123 158 201 252 314 372
#     4  10  21  39  63  86 120 161 205 257 301 363
#     4   9  19  39  62  88 132 162 203 256 298 367
#     4   9  20  39  59  91 118 154 214 246 300 363
#     4   9  20  37  61  90 126 165 202 254 307 355
#     4   9  20  39  63  88 121 159 205 252 306 364
#     4   9  20  40  62  90 115 164 208 245 315 363
#
# _framework density 25.875910000000001
#
# number of rings (size 3 to 8) (size 9 to 14) (size 15 to 20)
#    0.000    2.500    0.000    1.125    3.500    8.500 
#    4.500    8.125    0.000    0.000    0.000    0.000 
#    0.000    0.000    0.000    0.000    0.000    0.000 
#
# Total GULP energy -89433.220787 kJ/mol
# GULP energy per Si atom -5589.576299 kJ/mol
# Density = 2.581702 g / cm^3
# Si number density = 25.875910 Si / 1000 Ang^3
#
#
#
# Elastic Constant Matrix: (Units=GPa)
#
#
# Indices 1 2 3 4 5 6 
#
# 1 160.6397 58.5331 43.2410 -10.2098 -31.1123 -6.3308
# 2 58.5331 143.2238 34.6932 -8.1167 -2.2906 -16.9074
# 3 43.2410 34.6932 51.7482 2.9513 5.6067 -8.7097
# 4 -10.2098 -8.1167 2.9513 30.2167 0.4536 -8.2708
# 5 -31.1123 -2.2906 5.6067 0.4536 30.6363 13.9347
# 6 -6.3308 -16.9074 -8.7097 -8.2708 13.9347 49.8392
#
#
#
# Elastic Compliance Matrix: (Units=1/GPa)
#
#
# Indices 1 2 3 4 5 6 
#
# 1 0.015136 -0.003012 -0.014230 0.003517 0.020799 -0.006818
# 2 -0.003012 0.009493 -0.002988 0.002918 -0.003573 0.003799
# 3 -0.014230 -0.002988 0.038110 -0.006167 -0.026166 0.010131
# 4 0.003517 0.002918 -0.006167 0.037317 0.001588 0.006107
# 5 0.020799 -0.003573 -0.026166 0.001588 0.068251 -0.021962
# 6 -0.006818 0.003799 0.010131 0.006107 -0.021962 0.029412
#
#
# Mechanical properties :
#
#
# Convention : Reuss Voigt Hill
#
# Bulk Modulus (GPa) = 44.88308 69.83846 57.36077
# Shear Modulus (GPa) = 20.35783 36.74805 28.55294
#
# Velocity S-wave (km/s) = 2.80795 3.77260 3.32544
# Velocity P-wave (km/s) = 5.28166 6.78417 6.07951
#
# Compressibility (1/GPa) = 0.02228011
#
# Stress axis : x y z
#
# Youngs Moduli (GPa) = 66.06636 105.33698 26.23963
#
# Poissons Ratio (x) = 0.31725 0.37340
# Poissons Ratio (y) = 0.19898 0.07840
# Poissons Ratio (z) = 0.94015 0.31472
#
# Static dielectric constant tensor:
#      x y z
#    x 2.082390 -0.045270 -0.004770 
#    y -0.045270 2.134360 0.042550 
#    z -0.004770 0.042550 2.079380 
# 
# From -- ./inp_files/358604.got.cif
#   From: 2010.05.17/outbox.cif.g08.bks.cpg/sg2_180_cif.got.tgz:358604.got - 2010.06.03 11:33:40.
