data_PCOD9005435
_publ_section_title
;
Structure prediction by ZEFSAII (Michael W. Deem and Ramdas Pophale) SiO2 
 PCOD9005435
Probable space group: P -1
;
_chemical_formula_sum "Si O2"
_cell_formula_units_Z 14
_cell_length_a 25.958147
_cell_length_b 6.863371
_cell_length_c 5.483165
_cell_angle_alpha 72.028714
_cell_angle_beta 59.937110
_cell_angle_gamma 43.246206
_cell_volume 576.637543
_symmetry_space_group_name_H-M "P -1"
_symmetry_group_IT_number 2
_symmetry_cell_setting 'triclinic'
loop_
_space_group_symop_operation_xyz
x,y,z
-x,-y,-z
loop_
_atom_site_type_symbol
_atom_site_label
_atom_site_fract_x
_atom_site_fract_y
_atom_site_fract_z
Si Si1 0.929174 0.614863 0.428823
Si Si2 0.955452 0.944015 0.955941
Si Si3 0.434067 0.877279 0.255521
Si Si4 0.299069 0.506824 0.797664
Si Si5 0.261584 0.539971 0.373729
Si Si6 0.536428 0.658493 0.601971
Si Si7 0.181381 0.475471 0.237421
O O1 0.912571 0.868926 0.242210
O O2 0.848395 0.682360 0.674064
O O3 0.000000 0.500000 0.500000
O O4 0.974125 0.345266 0.248291
O O5 0.890105 0.212159 0.832840
O O6 0.000000 0.000000 0.000000
O O7 0.479906 0.786561 0.443259
O O8 0.419101 0.669410 0.348666
O O9 0.350643 0.209996 0.309444
O O10 0.509606 0.199636 0.084164
O O11 0.257900 0.670717 0.580872
O O12 0.393626 0.342078 0.616998
O O13 0.264448 0.670724 0.073114
O O14 0.268458 0.341796 0.960485
O O15 0.195621 0.520835 0.464697
#
# Coordination Sequence:
#
# PCOD9005435 Si02
#       7
#     2   2   2   2   2   2   2
#     4  11  24  42  72 104 127 182 230 281 349 409
#     4  11  24  42  73  99 136 173 230 288 339 418
#     4  10  21  38  62  88 125 165 224 275 317 396
#     4  10  23  39  61  92 128 171 213 265 343 393
#     4  10  23  39  61  92 128 171 211 274 334 398
#     4  10  21  38  62  89 122 171 219 273 327 384
#     4  10  25  42  62  99 138 175 219 284 343 414
#
# _framework density 24.278680999999999
#
# number of rings (size 3 to 8) (size 9 to 14) (size 15 to 20)
#    0.857    0.857    1.429    2.143    2.000    4.571 
#    0.000    0.000    0.000    0.000    0.000    0.000 
#    0.000    0.000    0.000    0.000    0.000    0.000 
#
# Total GULP energy -78177.926846 kJ/mol
# GULP energy per Si atom -5584.137632 kJ/mol
# Density = 2.422342 g / cm^3
# Si number density = 24.278681 Si / 1000 Ang^3
#
#
#
# Elastic Constant Matrix: (Units=GPa)
#
#
# Indices 1 2 3 4 5 6 
#
# 1 162.5469 42.3785 54.0627 -8.8321 -1.8296 0.6717
# 2 42.3785 94.7955 17.0891 -9.6706 -3.8098 2.3889
# 3 54.0627 17.0891 113.1291 -23.7649 10.6784 8.6789
# 4 -8.8321 -9.6706 -23.7649 28.1807 5.1451 -0.1949
# 5 -1.8296 -3.8098 10.6784 5.1451 69.0568 -12.7913
# 6 0.6717 2.3889 8.6789 -0.1949 -12.7913 35.3389
#
#
#
# Elastic Compliance Matrix: (Units=1/GPa)
#
#
# Indices 1 2 3 4 5 6 
#
# 1 0.008238 -0.003151 -0.004137 -0.002182 0.001118 0.001465
# 2 -0.003151 0.012266 0.000460 0.003585 0.000102 -0.000826
# 3 -0.004137 0.000460 0.013835 0.011214 -0.003932 -0.004712
# 4 -0.002182 0.003585 0.011214 0.046543 -0.005961 -0.004856
# 5 0.001118 0.000102 -0.003932 -0.005961 0.016867 0.007010
# 6 0.001465 -0.000826 -0.004712 -0.004856 0.007010 0.031993
#
#
# Mechanical properties :
#
#
# Convention : Reuss Voigt Hill
#
# Bulk Modulus (GPa) = 48.35225 66.39245 57.37235
# Shear Modulus (GPa) = 33.26864 43.64469 38.45666
#
# Velocity S-wave (km/s) = 3.70575 4.24448 3.98423
# Velocity P-wave (km/s) = 6.18618 7.17120 6.69683
#
# Compressibility (1/GPa) = 0.02068156
#
# Stress axis : x y z
#
# Youngs Moduli (GPa) = 121.39455 81.52885 72.27922
#
# Poissons Ratio (x) = 0.25694 0.29902
# Poissons Ratio (y) = 0.38257 -0.03325
# Poissons Ratio (z) = 0.50221 -0.03750
#
# Static dielectric constant tensor:
#      x y z
#    x 1.983230 -0.014060 -0.020790 
#    y -0.014060 1.934950 0.042290 
#    z -0.020790 0.042290 2.076260 
# 
# From -- ./inp_files/125542.got.cif
#   From: 2010.05.17/outbox.cif.g08.bks.cpg/sg2_63_cif.got.tgz:125542.got - 2010.06.03 11:33:40.
