data_PCOD9005752
_publ_section_title
;
Structure prediction by ZEFSAII (Michael W. Deem and Ramdas Pophale) SiO2 
 PCOD9005752
Probable space group: P -1
;
_chemical_formula_sum "Si O2"
_cell_formula_units_Z 12
_cell_length_a 20.854918
_cell_length_b 6.932825
_cell_length_c 13.990020
_cell_angle_alpha 111.651693
_cell_angle_beta 160.265315
_cell_angle_gamma 59.121157
_cell_volume 538.830593
_symmetry_space_group_name_H-M "P -1"
_symmetry_group_IT_number 2
_symmetry_cell_setting 'triclinic'
loop_
_space_group_symop_operation_xyz
x,y,z
-x,-y,-z
loop_
_atom_site_type_symbol
_atom_site_label
_atom_site_fract_x
_atom_site_fract_y
_atom_site_fract_z
Si Si1 0.199933 0.718478 0.120315
Si Si2 0.735583 0.802979 0.838310
Si Si3 0.809615 0.830359 0.162893
Si Si4 0.851505 0.188522 0.639565
Si Si5 0.532288 0.587325 0.723467
Si Si6 0.737560 0.257431 0.274594
O O1 0.353806 0.750151 0.418208
O O2 0.311601 0.661762 0.161117
O O3 0.218507 0.468874 0.132859
O O4 0.950642 0.941681 0.795804
O O5 0.500000 0.000000 0.500000
O O6 0.738541 0.898776 0.965808
O O7 0.945125 0.766670 0.065482
O O8 0.079550 0.693516 0.508180
O O9 0.730645 0.058727 0.162659
O O10 0.693301 0.680583 0.999550
O O11 0.623096 0.397275 0.405627
O O12 0.814875 0.154401 0.471539
O O13 0.500000 0.500000 0.000000
#
# Coordination Sequence:
#
# PCOD9005752 Si02
#       6
#     2   2   2   2   2   2
#     4  10  22  41  61  92 132 161 195 249 311 366
#     4  10  21  40  66  93 126 164 199 247 309 368
#     4   9  21  41  61  88 126 159 202 256 305 362
#     4  11  23  39  63  93 120 162 213 250 298 364
#     4  10  21  38  63  92 124 158 200 253 307 366
#     4  10  23  42  62  87 122 165 210 254 303 360
#
# _framework density 22.270448999999999
#
# number of rings (size 3 to 8) (size 9 to 14) (size 15 to 20)
#    0.000    2.000    0.000    3.500    0.000   10.667 
#    0.000    7.500    0.000    0.000    0.000    0.000 
#    0.000    0.000    0.000    0.000    0.000    0.000 
#
# Total GULP energy -67003.176051 kJ/mol
# GULP energy per Si atom -5583.598004 kJ/mol
# Density = 2.221976 g / cm^3
# Si number density = 22.270449 Si / 1000 Ang^3
#
#
#
# Elastic Constant Matrix: (Units=GPa)
#
#
# Indices 1 2 3 4 5 6 
#
# 1 69.4456 36.5051 28.7264 6.5221 39.5073 -9.6869
# 2 36.5051 84.5138 63.9379 3.3377 19.5378 -6.7540
# 3 28.7264 63.9379 115.0446 9.6344 22.0186 -8.8770
# 4 6.5221 3.3377 9.6344 39.2601 -0.3159 -0.2147
# 5 39.5073 19.5378 22.0186 -0.3159 39.8208 -13.6247
# 6 -9.6869 -6.7540 -8.8770 -0.2147 -13.6247 38.6990
#
#
#
# Elastic Compliance Matrix: (Units=1/GPa)
#
#
# Indices 1 2 3 4 5 6 
#
# 1 0.041074 -0.011912 0.004026 -0.007135 -0.038748 -0.004555
# 2 -0.011912 0.024549 -0.012151 0.002934 0.006837 0.000939
# 3 0.004026 -0.012151 0.016076 -0.003636 -0.006909 0.000122
# 4 -0.007135 0.002934 -0.003636 0.027370 0.008184 0.000925
# 5 -0.038748 0.006837 -0.006909 0.008184 0.068956 0.014232
# 6 -0.004555 0.000939 0.000122 0.000925 0.014232 0.029908
#
#
# Mechanical properties :
#
#
# Convention : Reuss Voigt Hill
#
# Bulk Modulus (GPa) = 24.02347 58.59363 41.30855
# Shear Modulus (GPa) = 19.09254 32.87828 25.98541
#
# Velocity S-wave (km/s) = 2.93115 3.84646 3.41957
# Velocity P-wave (km/s) = 4.71870 6.78927 5.84638
#
# Compressibility (1/GPa) = 0.04162595
#
# Stress axis : x y z
#
# Youngs Moduli (GPa) = 24.34603 40.73481 62.20375
#
# Poissons Ratio (x) = 0.48525 -0.25046
# Poissons Ratio (y) = 0.29002 0.75583
# Poissons Ratio (z) = -0.09803 0.49496
#
# Static dielectric constant tensor:
#      x y z
#    x 1.869490 0.033930 0.024190 
#    y 0.033930 1.815080 0.032800 
#    z 0.024190 0.032800 1.832460 
# 
# From -- ./inp_files/462317.got.cif
#   From: 2010.05.17/outbox.cif.g08.bks.cpg/sg2_232_cif.got.tgz:462317.got - 2010.06.03 11:33:40.
