data_PCOD9005414
_publ_section_title
;
Structure prediction by ZEFSAII (Michael W. Deem and Ramdas Pophale) SiO2 
 PCOD9005414
Probable space group: P -1
;
_chemical_formula_sum "Si O2"
_cell_formula_units_Z 16
_cell_length_a 14.794684
_cell_length_b 11.566195
_cell_length_c 8.753618
_cell_angle_alpha 63.260500
_cell_angle_beta 69.965744
_cell_angle_gamma 29.282934
_cell_volume 650.032962
_symmetry_space_group_name_H-M "P -1"
_symmetry_group_IT_number 2
_symmetry_cell_setting 'triclinic'
loop_
_space_group_symop_operation_xyz
x,y,z
-x,-y,-z
loop_
_atom_site_type_symbol
_atom_site_label
_atom_site_fract_x
_atom_site_fract_y
_atom_site_fract_z
Si Si1 0.982604 0.621210 0.077031
Si Si2 0.121834 0.479197 0.376941
Si Si3 0.109698 0.133063 0.284079
Si Si4 0.520468 0.749221 0.220165
Si Si5 0.748405 0.685102 0.294127
Si Si6 0.734120 0.309175 0.581621
Si Si7 0.556887 0.487720 0.142266
Si Si8 0.973028 0.935238 0.198223
O O1 0.799449 0.775509 0.175503
O O2 0.153146 0.416191 0.217253
O O3 0.000000 0.500000 0.000000
O O4 0.958864 0.781658 0.904517
O O5 0.284102 0.302813 0.514082
O O6 0.000000 0.500000 0.500000
O O7 0.003880 0.746897 0.265757
O O8 0.306564 0.980359 0.257419
O O9 0.155872 0.934171 0.416989
O O10 0.946900 0.382084 0.330477
O O11 0.605425 0.789934 0.193572
O O12 0.645116 0.512153 0.396898
O O13 0.542163 0.658081 0.093998
O O14 0.573070 0.428996 0.705298
O O15 0.871743 0.212171 0.680484
O O16 0.766146 0.201499 0.212610
O O17 0.500000 0.500000 0.000000
O O18 0.000000 0.000000 0.000000
#
# Coordination Sequence:
#
# PCOD9005414 Si02
#       8
#     2   2   2   2   2   2   2   2
#     4   9  20  40  63  86 119 163 206 255 314 371
#     4  10  22  39  65  93 123 165 212 257 314 374
#     4  10  21  38  62  86 129 162 200 255 318 361
#     4  11  24  38  60  94 126 162 207 254 308 377
#     4  10  21  40  63  89 119 163 212 255 302 379
#     4  11  23  40  60  95 126 162 207 257 310 379
#     4  11  24  40  59  95 132 161 204 261 317 369
#     4  12  23  39  69  94 126 166 211 261 317 369
#
# _framework density 24.614136999999999
#
# number of rings (size 3 to 8) (size 9 to 14) (size 15 to 20)
#    0.000    1.500    2.500    3.000    5.250    2.500 
#    0.000    0.000    0.000   12.750    0.000    0.000 
#    0.000    0.000    0.000    0.000    0.000    0.000 
#
# Total GULP energy -89388.013961 kJ/mol
# GULP energy per Si atom -5586.750873 kJ/mol
# Density = 2.455811 g / cm^3
# Si number density = 24.614137 Si / 1000 Ang^3
#
#
#
# Elastic Constant Matrix: (Units=GPa)
#
#
# Indices 1 2 3 4 5 6 
#
# 1 110.9406 24.6318 25.6009 3.8975 21.6611 1.4687
# 2 24.6318 82.3036 12.9201 -12.1298 5.7328 2.3982
# 3 25.6009 12.9201 163.0788 -1.4445 16.8169 6.6597
# 4 3.8975 -12.1298 -1.4445 25.1906 4.5923 0.7061
# 5 21.6611 5.7328 16.8169 4.5923 52.8389 -4.9250
# 6 1.4687 2.3982 6.6597 0.7061 -4.9250 24.0112
#
#
#
# Elastic Compliance Matrix: (Units=1/GPa)
#
#
# Indices 1 2 3 4 5 6 
#
# 1 0.010759 -0.003164 -0.001064 -0.002578 -0.003570 -0.000703
# 2 -0.003164 0.014394 -0.000417 0.007611 -0.000938 -0.001545
# 3 -0.001064 -0.000417 0.006621 0.000748 -0.001890 -0.002139
# 4 -0.002578 0.007611 0.000748 0.044647 -0.004165 -0.002977
# 5 -0.003570 -0.000938 -0.001890 -0.004165 0.021964 0.005464
# 6 -0.000703 -0.001545 -0.002139 -0.002977 0.005464 0.043646
#
#
# Mechanical properties :
#
#
# Convention : Reuss Voigt Hill
#
# Bulk Modulus (GPa) = 44.47384 53.62539 49.04962
# Shear Modulus (GPa) = 31.48324 39.95282 35.71803
#
# Velocity S-wave (km/s) = 3.58029 4.03322 3.81349
# Velocity P-wave (km/s) = 5.93287 6.59719 6.27383
#
# Compressibility (1/GPa) = 0.02248513
#
# Stress axis : x y z
#
# Youngs Moduli (GPa) = 92.94730 69.47162 151.03459
#
# Poissons Ratio (x) = 0.21978 0.16075
# Poissons Ratio (y) = 0.29405 0.06292
# Poissons Ratio (z) = 0.09892 0.02894
#
# Static dielectric constant tensor:
#      x y z
#    x 2.103170 0.062000 0.026320 
#    y 0.062000 1.960360 0.055930 
#    z 0.026320 0.055930 2.098560 
# 
# From -- ./inp_files/307013.got.cif
#   From: 2010.05.17/outbox.cif.g08.bks.cpg/sg2_154_cif.got.tgz:307013.got - 2010.06.03 11:33:40.
