data_PCOD9005043
_publ_section_title
;
Structure prediction by ZEFSAII (Michael W. Deem and Ramdas Pophale) SiO2 
 PCOD9005043
Probable space group: P -1
;
_chemical_formula_sum "Si O2"
_cell_formula_units_Z 16
_cell_length_a 5.570968
_cell_length_b 4.942069
_cell_length_c 25.484114
_cell_angle_alpha 93.164009
_cell_angle_beta 58.468190
_cell_angle_gamma 99.582824
_cell_volume 589.266458
_symmetry_space_group_name_H-M "P -1"
_symmetry_group_IT_number 2
_symmetry_cell_setting 'triclinic'
loop_
_space_group_symop_operation_xyz
x,y,z
-x,-y,-z
loop_
_atom_site_type_symbol
_atom_site_label
_atom_site_fract_x
_atom_site_fract_y
_atom_site_fract_z
Si Si1 0.219481 0.419605 0.567598
Si Si2 0.562291 0.017315 0.315578
Si Si3 0.957761 0.307398 0.700337
Si Si4 0.782145 0.337649 0.197215
Si Si5 0.632105 0.708220 0.046810
Si Si6 0.733681 0.845993 0.927598
Si Si7 0.457864 0.212669 0.823419
Si Si8 0.942049 0.870438 0.561688
O O1 0.500000 0.500000 0.500000
O O2 0.142990 0.497541 0.637119
O O3 0.993374 0.564045 0.562214
O O4 0.161360 0.088362 0.572742
O O5 0.817837 0.874146 0.305420
O O6 0.315598 0.833708 0.305866
O O7 0.698918 0.267122 0.265626
O O8 0.372102 0.103390 0.384701
O O9 0.773660 0.367547 0.773539
O O10 0.745751 0.642210 0.189453
O O11 0.064735 0.246643 0.140622
O O12 0.553104 0.110381 0.189347
O O13 0.549490 0.382804 0.046174
O O14 0.670709 0.755982 0.104409
O O15 0.360143 0.863275 0.068433
O O16 0.836216 0.812716 0.975560
O O17 0.000000 0.000000 0.500000
#
# Coordination Sequence:
#
# PCOD9005043 Si02
#       8
#     2   2   2   2   2   2   2   2
#     4  11  23  42  66  99 135 176 223 274 332 394
#     4  10  23  44  68  98 134 175 221 274 332 394
#     4  10  23  44  68  98 134 175 221 274 332 394
#     4  11  23  40  62  93 127 169 219 271 329 392
#     4  10  21  38  60  88 124 169 218 270 328 391
#     4  10  21  38  60  88 124 169 218 270 328 391
#     4  11  23  40  62  93 127 169 219 271 329 392
#     4  11  23  42  66  99 135 176 223 274 332 394
#
# _framework density 27.152405999999999
#
# number of rings (size 3 to 8) (size 9 to 14) (size 15 to 20)
#    0.000    1.500    0.000    4.500    0.000    5.000 
#    0.000   11.250    0.000    0.000    0.000    0.000 
#    0.000    0.000    0.000    0.000    0.000    0.000 
#
# Total GULP energy -89433.150387 kJ/mol
# GULP energy per Si atom -5589.571899 kJ/mol
# Density = 2.709061 g / cm^3
# Si number density = 27.152406 Si / 1000 Ang^3
#
#
#
# Elastic Constant Matrix: (Units=GPa)
#
#
# Indices 1 2 3 4 5 6 
#
# 1 80.3195 33.3737 37.6861 -10.2318 -1.4320 -20.9606
# 2 33.3737 96.1710 26.8458 -3.9219 -7.3164 -16.5887
# 3 37.6861 26.8458 238.3308 -14.9127 4.0736 -23.7784
# 4 -10.2318 -3.9219 -14.9127 48.2656 -9.9020 -6.0853
# 5 -1.4320 -7.3164 4.0736 -9.9020 54.4627 -7.3806
# 6 -20.9606 -16.5887 -23.7784 -6.0853 -7.3806 52.1299
#
#
#
# Elastic Compliance Matrix: (Units=1/GPa)
#
#
# Indices 1 2 3 4 5 6 
#
# 1 0.016788 -0.004241 -0.001430 0.003735 0.001387 0.005381
# 2 -0.004241 0.012621 -0.000496 0.000711 0.002084 0.002463
# 3 -0.001430 -0.000496 0.004717 0.001311 -0.000006 0.001571
# 4 0.003735 0.000711 0.001311 0.023778 0.005210 0.005840
# 5 0.001387 0.002084 -0.000006 0.005210 0.020262 0.004695
# 6 0.005381 0.002463 0.001571 0.005840 0.004695 0.024193
#
#
# Mechanical properties :
#
#
# Convention : Reuss Voigt Hill
#
# Bulk Modulus (GPa) = 45.89028 67.84806 56.86917
# Shear Modulus (GPa) = 40.99815 52.09935 46.54875
#
# Velocity S-wave (km/s) = 3.88999 4.38513 4.14496
# Velocity P-wave (km/s) = 6.09211 7.11908 6.62552
#
# Compressibility (1/GPa) = 0.02179111
#
# Stress axis : x y z
#
# Youngs Moduli (GPa) = 59.56590 79.23489 212.01203
#
# Poissons Ratio (x) = 0.33601 0.30319
# Poissons Ratio (y) = 0.25260 0.10526
# Poissons Ratio (z) = 0.08518 0.03934
#
# Static dielectric constant tensor:
#      x y z
#    x 2.261290 0.187020 0.091280 
#    y 0.187020 2.066690 0.048490 
#    z 0.091280 0.048490 2.186160 
# 
# From -- ./inp_files/14278.got.cif
#   From: 2010.05.17/outbox.cif.g08.bks.cpg/sg2_8_cif.got.tgz:14278.got - 2010.06.03 11:33:40.
