data_PCOD9005095
_publ_section_title
;
Structure prediction by ZEFSAII (Michael W. Deem and Ramdas Pophale) SiO2 
 PCOD9005095
Probable space group: P -1
;
_chemical_formula_sum "Si O2"
_cell_formula_units_Z 12
_cell_length_a 12.189425
_cell_length_b 15.033119
_cell_length_c 8.354863
_cell_angle_alpha 69.833512
_cell_angle_beta 93.469314
_cell_angle_gamma 152.850217
_cell_volume 536.587237
_symmetry_space_group_name_H-M "P -1"
_symmetry_group_IT_number 2
_symmetry_cell_setting 'triclinic'
loop_
_space_group_symop_operation_xyz
x,y,z
-x,-y,-z
loop_
_atom_site_type_symbol
_atom_site_label
_atom_site_fract_x
_atom_site_fract_y
_atom_site_fract_z
Si Si1 0.328663 0.751574 0.306477
Si Si2 0.672771 0.889403 0.796745
Si Si3 0.323797 0.789543 0.902998
Si Si4 0.362486 0.465169 0.884506
Si Si5 0.805192 0.794533 0.469429
Si Si6 0.293550 0.113439 0.826669
O O1 0.457729 0.748652 0.326732
O O2 0.000000 0.500000 0.500000
O O3 0.556508 0.009177 0.244023
O O4 0.326639 0.774886 0.103249
O O5 0.551836 0.898125 0.777786
O O6 0.480392 0.663471 0.814697
O O7 0.644458 0.830445 0.014033
O O8 0.005529 0.143649 0.606942
O O9 0.000000 0.500000 0.000000
O O10 0.491405 0.532591 0.685723
O O11 0.500000 0.500000 0.000000
O O12 0.014257 0.188193 0.027780
O O13 0.771393 0.840299 0.293743
O O14 0.000000 0.000000 0.500000
#
# Coordination Sequence:
#
# PCOD9005095 Si02
#       6
#     2   2   2   2   2   2
#     4  10  24  43  65  95 128 170 218 261 320 377
#     4  10  22  40  61  94 126 160 213 256 315 382
#     4  10  22  44  66  93 131 167 214 271 315 374
#     4  11  22  40  61  89 127 164 204 259 320 375
#     4  10  21  38  60  91 121 161 204 251 315 377
#     4  11  22  41  63  88 130 163 206 266 310 376
#
# _framework density 22.363555999999999
#
# number of rings (size 3 to 8) (size 9 to 14) (size 15 to 20)
#    0.000    1.667    3.333    1.500    0.000    8.000 
#    6.000    0.000    0.000    0.000    0.000    0.000 
#    0.000    0.000    0.000    0.000    0.000    0.000 
#
# Total GULP energy -67104.456902 kJ/mol
# GULP energy per Si atom -5592.038075 kJ/mol
# Density = 2.231266 g / cm^3
# Si number density = 22.363556 Si / 1000 Ang^3
#
#
#
# Elastic Constant Matrix: (Units=GPa)
#
#
# Indices 1 2 3 4 5 6 
#
# 1 103.0558 27.6219 25.4400 0.5387 -44.5732 -6.4699
# 2 27.6219 99.7747 6.9268 -16.5139 -9.9262 -9.8513
# 3 25.4400 6.9268 55.7282 -12.2861 -37.0261 -5.6707
# 4 0.5387 -16.5139 -12.2861 23.8909 9.2538 -3.7772
# 5 -44.5732 -9.9262 -37.0261 9.2538 46.7614 -5.4270
# 6 -6.4699 -9.8513 -5.6707 -3.7772 -5.4270 29.6372
#
#
#
# Elastic Compliance Matrix: (Units=1/GPa)
#
#
# Indices 1 2 3 4 5 6 
#
# 1 0.022906 -0.004313 0.010643 -0.008898 0.032312 0.010386
# 2 -0.004313 0.013526 0.003296 0.012187 -0.000384 0.005668
# 3 0.010643 0.003296 0.053892 0.012866 0.053900 0.025240
# 4 -0.008898 0.012187 0.012866 0.061409 -0.006561 0.011195
# 5 0.032312 -0.000384 0.053900 -0.006561 0.100112 0.034735
# 6 0.010386 0.005668 0.025240 0.011195 0.034735 0.050509
#
#
# Mechanical properties :
#
#
# Convention : Reuss Voigt Hill
#
# Bulk Modulus (GPa) = 9.12604 42.05958 25.59281
# Shear Modulus (GPa) = 15.64313 33.29590 24.46951
#
# Velocity S-wave (km/s) = 2.64766 3.86274 3.31141
# Velocity P-wave (km/s) = 3.66557 6.22434 5.10778
#
# Compressibility (1/GPa) = 0.10957651
#
# Stress axis : x y z
#
# Youngs Moduli (GPa) = 43.65594 73.93015 18.55555
#
# Poissons Ratio (x) = 0.31886 -0.19748
# Poissons Ratio (y) = 0.18829 -0.06116
# Poissons Ratio (z) = -0.46462 -0.24368
#
# Static dielectric constant tensor:
#      x y z
#    x 1.915650 0.008590 0.083450 
#    y 0.008590 1.875140 0.005800 
#    z 0.083450 0.005800 1.910620 
# 
# From -- ./inp_files/270000.got.cif
#   From: 2010.05.17/outbox.cif.g08.bks.cpg/sg2_135_cif.got.tgz:270000.got - 2010.06.03 11:33:40.
