data_PCOD9005483
_publ_section_title
;
Structure prediction by ZEFSAII (Michael W. Deem and Ramdas Pophale) SiO2 
 PCOD9005483
Probable space group: P -1
;
_chemical_formula_sum "Si O2"
_cell_formula_units_Z 16
_cell_length_a 10.851839
_cell_length_b 10.821977
_cell_length_c 7.582596
_cell_angle_alpha 77.480252
_cell_angle_beta 125.445979
_cell_angle_gamma 118.015596
_cell_volume 638.520452
_symmetry_space_group_name_H-M "P -1"
_symmetry_group_IT_number 2
_symmetry_cell_setting 'triclinic'
loop_
_space_group_symop_operation_xyz
x,y,z
-x,-y,-z
loop_
_atom_site_type_symbol
_atom_site_label
_atom_site_fract_x
_atom_site_fract_y
_atom_site_fract_z
Si Si1 0.590088 0.075562 0.231778
Si Si2 0.101804 0.358139 0.667052
Si Si3 0.269804 0.521655 0.209384
Si Si4 0.369388 0.402181 0.642847
Si Si5 0.936638 0.793146 0.983136
Si Si6 0.200407 0.083568 0.615040
Si Si7 0.148829 0.644034 0.796149
Si Si8 0.261262 0.054087 0.077558
O O1 0.697014 0.236934 0.215067
O O2 0.443670 0.057720 0.253165
O O3 0.715196 0.003187 0.391619
O O4 0.500000 0.000000 0.000000
O O5 0.294013 0.398842 0.772313
O O6 0.023189 0.229869 0.773894
O O7 0.101096 0.491486 0.722216
O O8 0.005723 0.327219 0.409679
O O9 0.332452 0.515142 0.460992
O O10 0.436866 0.560403 0.221493
O O11 0.143815 0.361352 0.115661
O O12 0.191946 0.624884 0.040672
O O13 0.268376 0.240126 0.545007
O O14 0.802158 0.858219 0.872495
O O15 0.106950 0.899364 0.001211
O O16 0.266879 0.105901 0.865260
O O17 0.000000 0.000000 0.500000
#
# Coordination Sequence:
#
# PCOD9005483 Si02
#       8
#     2   2   2   2   2   2   2   2
#     4  10  22  38  62  95 126 166 209 261 317 381
#     4  10  22  40  66  90 126 165 216 261 316 393
#     4  10  23  39  63  91 127 159 216 266 312 376
#     4  11  22  40  63  97 120 167 214 261 316 380
#     4  10  21  39  64  92 128 169 213 258 321 379
#     4  11  21  38  66  92 131 166 207 260 317 387
#     4  10  22  41  62  94 124 165 207 263 325 372
#     4  10  21  38  62  90 127 167 213 255 318 385
#
# _framework density 25.057928
#
# number of rings (size 3 to 8) (size 9 to 14) (size 15 to 20)
#    0.000    1.750    1.250    3.000    1.750    2.500 
#    0.000   13.125    0.000    0.000    0.000    0.000 
#    0.000    0.000    0.000    0.000    0.000    0.000 
#
# Total GULP energy -89394.304228 kJ/mol
# GULP energy per Si atom -5587.144014 kJ/mol
# Density = 2.500090 g / cm^3
# Si number density = 25.057928 Si / 1000 Ang^3
#
#
#
# Elastic Constant Matrix: (Units=GPa)
#
#
# Indices 1 2 3 4 5 6 
#
# 1 105.6065 35.2204 22.2741 -7.1314 37.0439 20.1164
# 2 35.2204 81.7222 26.1546 -25.8714 14.9614 16.7309
# 3 22.2741 26.1546 80.7553 -20.9778 10.4367 2.2954
# 4 -7.1314 -25.8714 -20.9778 36.8896 4.5547 5.0622
# 5 37.0439 14.9614 10.4367 4.5547 31.8266 2.8922
# 6 20.1164 16.7309 2.2954 5.0622 2.8922 36.1353
#
#
#
# Elastic Compliance Matrix: (Units=1/GPa)
#
#
# Indices 1 2 3 4 5 6 
#
# 1 0.020568 0.000804 -0.000092 0.009047 -0.024572 -0.011117
# 2 0.000804 0.023397 -0.000599 0.019648 -0.013375 -0.012924
# 3 -0.000092 -0.000599 0.015916 0.009572 -0.006061 -0.001538
# 4 0.009047 0.019648 0.009572 0.054396 -0.028868 -0.020051
# 5 -0.024572 -0.013375 -0.006061 -0.028868 0.070733 0.018640
# 6 -0.011117 -0.012924 -0.001538 -0.020051 0.018640 0.041261
#
#
# Mechanical properties :
#
#
# Convention : Reuss Voigt Hill
#
# Bulk Modulus (GPa) = 16.63723 48.37577 32.50650
# Shear Modulus (GPa) = 20.31849 33.26594 26.79222
#
# Velocity S-wave (km/s) = 2.85065 3.64752 3.27343
# Velocity P-wave (km/s) = 4.18197 6.08989 5.22377
#
# Compressibility (1/GPa) = 0.06010616
#
# Stress axis : x y z
#
# Youngs Moduli (GPa) = 48.61846 42.74117 62.82936
#
# Poissons Ratio (x) = -0.03435 0.00576
# Poissons Ratio (y) = -0.03907 0.03766
# Poissons Ratio (z) = 0.00445 0.02562
#
# Static dielectric constant tensor:
#      x y z
#    x 2.359130 0.193580 0.011650 
#    y 0.193580 2.066210 -0.037890 
#    z 0.011650 -0.037890 2.091210 
# 
# From -- ./inp_files/261984.got.cif
#   From: 2010.05.17/outbox.cif.g08.bks.cpg/sg2_131_cif.got.tgz:261984.got - 2010.06.03 11:33:40.
