data_PCOD9005284
_publ_section_title
;
Structure prediction by ZEFSAII (Michael W. Deem and Ramdas Pophale) SiO2 
 PCOD9005284
Probable space group: P -1
;
_chemical_formula_sum "Si O2"
_cell_formula_units_Z 16
_cell_length_a 22.323180
_cell_length_b 19.171051
_cell_length_c 13.322365
_cell_angle_alpha 160.073575
_cell_angle_beta 147.509038
_cell_angle_gamma 22.267925
_cell_volume 720.604754
_symmetry_space_group_name_H-M "P -1"
_symmetry_group_IT_number 2
_symmetry_cell_setting 'triclinic'
loop_
_space_group_symop_operation_xyz
x,y,z
-x,-y,-z
loop_
_atom_site_type_symbol
_atom_site_label
_atom_site_fract_x
_atom_site_fract_y
_atom_site_fract_z
Si Si1 0.436349 0.339850 0.982379
Si Si2 0.445091 0.145364 0.009035
Si Si3 0.915960 0.297442 0.982646
Si Si4 0.715139 0.571343 0.534474
Si Si5 0.248333 0.101418 0.527735
Si Si6 0.715261 0.287753 0.342839
Si Si7 0.044215 0.011816 0.189771
Si Si8 0.467276 0.266417 0.698031
O O1 0.423092 0.400353 0.926303
O O2 0.483534 0.038871 0.641932
O O3 0.260560 0.585579 0.122002
O O4 0.587104 0.271991 0.142851
O O5 0.340011 0.485873 0.340326
O O6 0.342003 0.118336 0.763779
O O7 0.500000 0.000000 0.000000
O O8 0.615979 0.910157 0.874151
O O9 0.938741 0.209177 0.013231
O O10 0.875438 0.583155 0.278621
O O11 0.090185 0.012487 0.792028
O O12 0.677821 0.456269 0.412955
O O13 0.666709 0.553095 0.332604
O O14 0.905030 0.332643 0.479306
O O15 0.178449 0.004069 0.355298
O O16 0.372446 0.850920 0.281598
O O17 0.000000 0.000000 0.000000
#
# Coordination Sequence:
#
# PCOD9005284 Si02
#       8
#     2   2   2   2   2   2   2   2
#     4  10  21  38  61  90 126 167 203 267 322 376
#     4   9  20  43  66  89 122 170 219 264 324 376
#     4  10  24  42  59 102 129 160 227 254 316 398
#     4   9  20  39  58  89 124 156 214 257 316 386
#     4  10  23  42  66  89 136 168 200 281 323 362
#     4  10  22  39  65  88 126 165 214 272 308 375
#     4  11  24  39  64 101 129 169 213 257 328 396
#     4   9  20  38  59  89 123 164 212 248 331 392
#
# _framework density 22.203574
#
# number of rings (size 3 to 8) (size 9 to 14) (size 15 to 20)
#    0.000    2.250    0.000    0.750   10.500    1.500 
#    2.250    7.500    0.000    0.000    0.000    0.000 
#    0.000    0.000    0.000    0.000    0.000    0.000 
#
# Total GULP energy -89114.712148 kJ/mol
# GULP energy per Si atom -5569.669509 kJ/mol
# Density = 2.215304 g / cm^3
# Si number density = 22.203574 Si / 1000 Ang^3
#
#
#
# Elastic Constant Matrix: (Units=GPa)
#
#
# Indices 1 2 3 4 5 6 
#
# 1 85.5359 46.6758 38.9869 6.8389 -0.5594 3.7350
# 2 46.6758 100.6011 56.7192 25.7133 -2.3152 -19.1718
# 3 38.9869 56.7192 81.9686 11.4597 -11.0059 -14.4730
# 4 6.8389 25.7133 11.4597 35.5386 1.9087 -3.6163
# 5 -0.5594 -2.3152 -11.0059 1.9087 23.2780 2.4138
# 6 3.7350 -19.1718 -14.4730 -3.6163 2.4138 51.0100
#
#
#
# Elastic Compliance Matrix: (Units=1/GPa)
#
#
# Indices 1 2 3 4 5 6 
#
# 1 0.017980 -0.007217 -0.005231 0.003055 -0.002472 -0.005180
# 2 -0.007217 0.022898 -0.010181 -0.011202 -0.002368 0.005564
# 3 -0.005231 -0.010181 0.023434 0.000585 0.009604 0.002792
# 4 0.003055 -0.011202 0.000585 0.035494 -0.003510 -0.001586
# 5 -0.002472 -0.002368 0.009604 -0.003510 0.047542 -0.000483
# 6 -0.005180 0.005564 0.002792 -0.001586 -0.000483 0.022777
#
#
# Mechanical properties :
#
#
# Convention : Reuss Voigt Hill
#
# Bulk Modulus (GPa) = 52.48847 61.42992 56.95920
# Shear Modulus (GPa) = 22.54938 30.34692 26.44815
#
# Velocity S-wave (km/s) = 3.19027 3.70098 3.45507
# Velocity P-wave (km/s) = 6.10421 6.78157 6.45179
#
# Compressibility (1/GPa) = 0.01905180
#
# Stress axis : x y z
#
# Youngs Moduli (GPa) = 55.61888 43.67134 42.67375
#
# Poissons Ratio (x) = 0.31520 0.22323
# Poissons Ratio (y) = 0.40143 0.43448
# Poissons Ratio (z) = 0.29094 0.44463
#
# Static dielectric constant tensor:
#      x y z
#    x 1.861180 -0.012490 0.011690 
#    y -0.012490 1.906200 0.057610 
#    z 0.011690 0.057610 1.829200 
# 
# From -- ./inp_files/543243.got.cif
#   From: 2010.05.17/outbox.cif.g08.bks.cpg/sg2_272_cif.got.tgz:543243.got - 2010.06.03 11:33:40.
