data_PCOD9005235
_publ_section_title
;
Structure prediction by ZEFSAII (Michael W. Deem and Ramdas Pophale) SiO2 
 PCOD9005235
Probable space group: P -1
;
_chemical_formula_sum "Si O2"
_cell_formula_units_Z 16
_cell_length_a 16.073595
_cell_length_b 6.947046
_cell_length_c 7.402569
_cell_angle_alpha 71.900821
_cell_angle_beta 118.834031
_cell_angle_gamma 114.277812
_cell_volume 653.511651
_symmetry_space_group_name_H-M "P -1"
_symmetry_group_IT_number 2
_symmetry_cell_setting 'triclinic'
loop_
_space_group_symop_operation_xyz
x,y,z
-x,-y,-z
loop_
_atom_site_type_symbol
_atom_site_label
_atom_site_fract_x
_atom_site_fract_y
_atom_site_fract_z
Si Si1 0.853649 0.969921 0.753950
Si Si2 0.553561 0.261723 0.724792
Si Si3 0.489253 0.643917 0.719350
Si Si4 0.260485 0.609852 0.868200
Si Si5 0.931337 0.284129 0.403185
Si Si6 0.337126 0.278347 0.894734
Si Si7 0.000652 0.262741 0.105718
Si Si8 0.673225 0.990838 0.384463
O O1 0.894746 0.116568 0.576080
O O2 0.734353 0.921484 0.628134
O O3 0.909217 0.103818 0.944064
O O4 0.896183 0.772527 0.839435
O O5 0.535330 0.479856 0.712232
O O6 0.562518 0.262440 0.518264
O O7 0.446610 0.088234 0.706667
O O8 0.652590 0.275354 0.933339
O O9 0.410308 0.495996 0.817423
O O10 0.584965 0.796904 0.879163
O O11 0.157676 0.645472 0.802101
O O12 0.259989 0.369321 0.895533
O O13 0.288050 0.756703 0.674077
O O14 0.986373 0.212783 0.317340
O O15 0.000000 0.500000 0.500000
O O16 0.299562 0.118500 0.737089
O O17 0.000000 0.500000 0.000000
#
# Coordination Sequence:
#
# PCOD9005235 Si02
#       8
#     2   2   2   2   2   2   2   2
#     4  10  24  44  67  99 128 172 210 265 329 380
#     4   9  17  36  55  86 125 158 201 255 298 362
#     4   8  16  33  56  82 115 162 209 246 296 361
#     4  10  22  39  59  89 121 161 211 247 308 377
#     4  11  23  44  68  96 128 172 212 267 328 382
#     4   9  18  36  58  80 118 165 201 249 306 358
#     4  11  23  46  70  95 131 163 216 274 320 383
#     4  10  21  38  61  88 124 161 202 252 309 375
#
# _framework density 24.483114
#
# number of rings (size 3 to 8) (size 9 to 14) (size 15 to 20)
#    0.000    2.250    1.250    1.500    1.750    0.000 
#   18.000    1.250    0.000    0.000    0.000    0.000 
#    0.000    0.000    0.000    0.000    0.000    0.000 
#
# Total GULP energy -89440.981775 kJ/mol
# GULP energy per Si atom -5590.061361 kJ/mol
# Density = 2.442739 g / cm^3
# Si number density = 24.483114 Si / 1000 Ang^3
#
#
#
# Elastic Constant Matrix: (Units=GPa)
#
#
# Indices 1 2 3 4 5 6 
#
# 1 56.2413 21.5676 24.7167 6.6911 6.6030 -13.0005
# 2 21.5676 59.0369 9.1104 -4.7323 10.9667 -16.5966
# 3 24.7167 9.1104 104.6874 3.3523 16.4903 -10.5027
# 4 6.6911 -4.7323 3.3523 32.4243 0.4510 -1.4216
# 5 6.6030 10.9667 16.4903 0.4510 53.2192 -4.4591
# 6 -13.0005 -16.5966 -10.5027 -1.4216 -4.4591 33.4371
#
#
#
# Elastic Compliance Matrix: (Units=1/GPa)
#
#
# Indices 1 2 3 4 5 6 
#
# 1 0.024196 -0.007492 -0.004530 -0.005444 0.000333 0.004079
# 2 -0.007492 0.022990 0.001004 0.005222 -0.003445 0.008576
# 3 -0.004530 0.001004 0.011185 0.000047 -0.002955 0.001858
# 4 -0.005444 0.005222 0.000047 0.032809 -0.000541 0.001813
# 5 0.000333 -0.003445 -0.002955 -0.000541 0.020395 0.000188
# 6 0.004079 0.008576 0.001858 0.001813 0.000188 0.036436
#
#
# Mechanical properties :
#
#
# Convention : Reuss Voigt Hill
#
# Bulk Modulus (GPa) = 27.52136 36.75054 32.13595
# Shear Modulus (GPa) = 27.44897 34.78751 31.11824
#
# Velocity S-wave (km/s) = 3.35197 3.77354 3.56899
# Velocity P-wave (km/s) = 5.12312 5.83347 5.48979
#
# Compressibility (1/GPa) = 0.03633542
#
# Stress axis : x y z
#
# Youngs Moduli (GPa) = 41.32984 43.49708 89.40763
#
# Poissons Ratio (x) = 0.32587 0.40498
# Poissons Ratio (y) = 0.30964 -0.08976
# Poissons Ratio (z) = 0.18721 -0.04367
#
# Static dielectric constant tensor:
#      x y z
#    x 2.037150 -0.028360 -0.000480 
#    y -0.028360 1.954610 -0.020070 
#    z -0.000480 -0.020070 1.977580 
# 
# From -- ./inp_files/325986.got.cif
#   From: 2010.05.17/outbox.cif.g08.bks.cpg/sg2_163_cif.got.tgz:325986.got - 2010.06.03 11:33:40.
