data_PCOD9005219
_publ_section_title
;
Structure prediction by ZEFSAII (Michael W. Deem and Ramdas Pophale) SiO2 
 PCOD9005219
Probable space group: P -1
;
_chemical_formula_sum "Si O2"
_cell_formula_units_Z 12
_cell_length_a 11.717787
_cell_length_b 8.678090
_cell_length_c 9.362992
_cell_angle_alpha 62.337652
_cell_angle_beta 140.479968
_cell_angle_gamma 118.845475
_cell_volume 523.401255
_symmetry_space_group_name_H-M "P -1"
_symmetry_group_IT_number 2
_symmetry_cell_setting 'triclinic'
loop_
_space_group_symop_operation_xyz
x,y,z
-x,-y,-z
loop_
_atom_site_type_symbol
_atom_site_label
_atom_site_fract_x
_atom_site_fract_y
_atom_site_fract_z
Si Si1 0.663644 0.709499 0.427449
Si Si2 0.670519 0.563534 0.801100
Si Si3 0.999124 0.813812 0.162213
Si Si4 0.370131 0.907445 0.787878
Si Si5 0.025607 0.186716 0.528023
Si Si6 0.422587 0.812308 0.581826
O O1 0.706186 0.601188 0.651826
O O2 0.449882 0.635715 0.212089
O O3 0.800935 0.695315 0.436787
O O4 0.688078 0.915451 0.410425
O O5 0.521802 0.674191 0.662537
O O6 0.855349 0.649946 0.023904
O O7 0.942420 0.828187 0.266546
O O8 0.202828 0.776228 0.371405
O O9 0.000000 0.000000 0.000000
O O10 0.466016 0.826168 0.787273
O O11 0.177872 0.774526 0.699699
O O12 0.500000 0.000000 0.000000
O O13 0.000000 0.000000 0.500000
O O14 0.500000 0.000000 0.500000
#
# Coordination Sequence:
#
# PCOD9005219 Si02
#       6
#     2   2   2   2   2   2
#     4  10  22  42  58  87 123 157 196 244 306 347
#     4  11  23  41  62  86 125 158 195 252 296 351
#     4  11  21  37  63  88 117 158 201 245 296 353
#     4  10  21  38  61  88 117 153 199 248 294 354
#     4   9  20  37  58  86 115 154 200 236 295 358
#     4  11  21  38  61  90 114 153 211 239 288 362
#
# _framework density 22.926960999999999
#
# number of rings (size 3 to 8) (size 9 to 14) (size 15 to 20)
#    0.000    1.667    3.333    2.000    4.667    2.000 
#    3.000    3.333    0.000    0.000    0.000    0.000 
#    0.000    0.000    0.000    0.000    0.000    0.000 
#
# Total GULP energy -67035.370642 kJ/mol
# GULP energy per Si atom -5586.280887 kJ/mol
# Density = 2.287478 g / cm^3
# Si number density = 22.926961 Si / 1000 Ang^3
#
#
#
# Elastic Constant Matrix: (Units=GPa)
#
#
# Indices 1 2 3 4 5 6 
#
# 1 167.8591 25.6845 56.5910 15.9217 -25.5758 26.2909
# 2 25.6845 84.6520 23.0260 23.9762 -0.9951 23.9368
# 3 56.5910 23.0260 107.6596 41.8773 -14.5641 15.4715
# 4 15.9217 23.9762 41.8773 43.1941 -6.2354 10.4356
# 5 -25.5758 -0.9951 -14.5641 -6.2354 34.9604 6.3881
# 6 26.2909 23.9368 15.4715 10.4356 6.3881 38.7567
#
#
#
# Elastic Compliance Matrix: (Units=1/GPa)
#
#
# Indices 1 2 3 4 5 6 
#
# 1 0.009144 -0.000865 -0.004289 0.003686 0.006640 -0.006044
# 2 -0.000865 0.016207 0.001257 -0.007948 0.000368 -0.007846
# 3 -0.004289 0.001257 0.017837 -0.015936 0.001664 -0.000971
# 4 0.003686 -0.007948 -0.015936 0.043106 0.004164 -0.003524
# 5 0.006640 0.000368 0.001664 0.004164 0.037220 -0.012652
# 6 -0.006044 -0.007846 -0.000971 -0.003524 -0.012652 0.038170
#
#
# Mechanical properties :
#
#
# Convention : Reuss Voigt Hill
#
# Bulk Modulus (GPa) = 28.25181 63.41930 45.83555
# Shear Modulus (GPa) = 27.58212 40.37350 33.97781
#
# Velocity S-wave (km/s) = 3.47225 4.20093 3.85385
# Velocity P-wave (km/s) = 5.33148 7.15905 6.31176
#
# Compressibility (1/GPa) = 0.03539596
#
# Stress axis : x y z
#
# Youngs Moduli (GPa) = 109.35756 61.69994 56.06218
#
# Poissons Ratio (x) = 0.05336 0.24043
# Poissons Ratio (y) = 0.09458 -0.07047
# Poissons Ratio (z) = 0.46900 -0.07756
#
# Static dielectric constant tensor:
#      x y z
#    x 1.839010 0.077410 -0.004090 
#    y 0.077410 1.877090 0.008060 
#    z -0.004090 0.008060 1.890000 
# 
# From -- ./inp_files/150268.got.cif
#   From: 2010.05.17/outbox.cif.g08.bks.cpg/sg2_76_cif.got.tgz:150268.got - 2010.06.03 11:33:40.
