data_PCOD9005137
_publ_section_title
;
Structure prediction by ZEFSAII (Michael W. Deem and Ramdas Pophale) SiO2 
 PCOD9005137
Probable space group: P -1
;
_chemical_formula_sum "Si O2"
_cell_formula_units_Z 16
_cell_length_a 6.991407
_cell_length_b 25.920510
_cell_length_c 4.950873
_cell_angle_alpha 81.835961
_cell_angle_beta 105.547065
_cell_angle_gamma 120.909731
_cell_volume 741.602835
_symmetry_space_group_name_H-M "P -1"
_symmetry_group_IT_number 2
_symmetry_cell_setting 'triclinic'
loop_
_space_group_symop_operation_xyz
x,y,z
-x,-y,-z
loop_
_atom_site_type_symbol
_atom_site_label
_atom_site_fract_x
_atom_site_fract_y
_atom_site_fract_z
Si Si1 0.249507 0.943349 0.946594
Si Si2 0.966330 0.808915 0.981641
Si Si3 0.162832 0.726506 0.317958
Si Si4 0.000027 0.947567 0.362468
Si Si5 0.303032 0.185909 0.630235
Si Si6 0.984341 0.352642 0.177676
Si Si7 0.495525 0.560290 0.528036
Si Si8 0.218697 0.560791 0.931208
O O1 0.177091 0.936811 0.612315
O O2 0.186281 0.875983 0.051344
O O3 0.092752 0.957184 0.084415
O O4 0.500000 0.000000 0.000000
O O5 0.771682 0.804549 0.111982
O O6 0.035254 0.760627 0.131238
O O7 0.856365 0.803511 0.650188
O O8 0.433290 0.769845 0.357888
O O9 0.107454 0.704997 0.620303
O O10 0.074805 0.668198 0.137602
O O11 0.765172 0.884396 0.349320
O O12 0.000000 0.000000 0.500000
O O13 0.254090 0.392420 0.304351
O O14 0.860566 0.390462 0.177430
O O15 0.500000 0.500000 0.500000
O O16 0.314174 0.548200 0.703684
O O17 0.415139 0.581317 0.218032
O O18 0.000000 0.500000 0.000000
#
# Coordination Sequence:
#
# PCOD9005137 Si02
#       8
#     2   2   2   2   2   2   2   2
#     4  10  21  38  60  94 125 162 213 272 332 393
#     4  10  23  43  65  91 132 172 219 275 330 386
#     4  12  26  44  68  96 132 182 222 266 322 406
#     4  10  21  38  60  94 125 162 213 272 332 393
#     4  10  23  43  65  91 132 172 219 275 330 386
#     4  12  28  44  68 106 132 172 234 258 328 400
#     4  12  26  45  74 103 141 177 215 276 331 383
#     4  12  26  45  74 103 141 177 215 276 331 383
#
# _framework density 21.574888999999999
#
# number of rings (size 3 to 8) (size 9 to 14) (size 15 to 20)
#    0.000    1.000    1.250    4.500    3.500    6.000 
#    2.250    0.000    0.000    0.000    0.000    0.000 
#    0.000    0.000    0.000    0.000    0.000    0.000 
#
# Total GULP energy -89444.867799 kJ/mol
# GULP energy per Si atom -5590.304237 kJ/mol
# Density = 2.152578 g / cm^3
# Si number density = 21.574889 Si / 1000 Ang^3
#
#
#
# Elastic Constant Matrix: (Units=GPa)
#
#
# Indices 1 2 3 4 5 6 
#
# 1 63.8771 29.6349 -1.8035 -3.8793 4.1675 -6.6463
# 2 29.6349 70.3254 -13.4146 2.5166 6.1256 6.7590
# 3 -1.8035 -13.4146 83.9913 1.6586 -4.9218 -4.0330
# 4 -3.8793 2.5166 1.6586 33.7300 2.4880 5.6125
# 5 4.1675 6.1256 -4.9218 2.4880 32.7542 4.4350
# 6 -6.6463 6.7590 -4.0330 5.6125 4.4350 47.2266
#
#
#
# Elastic Compliance Matrix: (Units=1/GPa)
#
#
# Indices 1 2 3 4 5 6 
#
# 1 0.020572 -0.009177 -0.000988 0.002567 -0.001784 0.003987
# 2 -0.009177 0.019113 0.002647 -0.001936 -0.001396 -0.003440
# 3 -0.000988 0.002647 0.012444 -0.001124 0.001513 0.000536
# 4 0.002567 -0.001936 -0.001124 0.030781 -0.002076 -0.002921
# 5 -0.001784 -0.001396 0.001513 -0.002076 0.031764 -0.002658
# 6 0.003987 -0.003440 0.000536 -0.002921 -0.002658 0.022870
#
#
# Mechanical properties :
#
#
# Convention : Reuss Voigt Hill
#
# Bulk Modulus (GPa) = 26.95902 27.44748 27.20325
# Shear Modulus (GPa) = 30.31318 36.32730 33.32024
#
# Velocity S-wave (km/s) = 3.75243 4.10784 3.93415
# Velocity P-wave (km/s) = 5.59437 5.93706 5.76826
#
# Compressibility (1/GPa) = 0.03709333
#
# Stress axis : x y z
#
# Youngs Moduli (GPa) = 48.61011 52.32002 80.35907
#
# Poissons Ratio (x) = 0.48014 0.07938
# Poissons Ratio (y) = 0.44609 -0.21270
# Poissons Ratio (z) = 0.04802 -0.13848
#
# Static dielectric constant tensor:
#      x y z
#    x 1.766360 -0.023530 0.025390 
#    y -0.023530 1.822460 -0.009710 
#    z 0.025390 -0.009710 1.755390 
# 
# From -- ./inp_files/13169.got.cif
#   From: 2010.05.17/outbox.cif.g08.bks.cpg/sg2_7_cif.got.tgz:13169.got - 2010.06.03 11:33:40.
