data_PCOD9005417
_publ_section_title
;
Structure prediction by ZEFSAII (Michael W. Deem and Ramdas Pophale) SiO2 
 PCOD9005417
Probable space group: P -1
;
_chemical_formula_sum "Si O2"
_cell_formula_units_Z 14
_cell_length_a 29.525125
_cell_length_b 17.428733
_cell_length_c 7.046209
_cell_angle_alpha 138.567328
_cell_angle_beta 39.022835
_cell_angle_gamma 161.950521
_cell_volume 706.208765
_symmetry_space_group_name_H-M "P -1"
_symmetry_group_IT_number 2
_symmetry_cell_setting 'triclinic'
loop_
_space_group_symop_operation_xyz
x,y,z
-x,-y,-z
loop_
_atom_site_type_symbol
_atom_site_label
_atom_site_fract_x
_atom_site_fract_y
_atom_site_fract_z
Si Si1 0.457358 0.332236 0.195055
Si Si2 0.007696 0.512324 0.271835
Si Si3 0.883490 0.152807 0.747274
Si Si4 0.545851 0.116015 0.265366
Si Si5 0.745744 0.620534 0.615703
Si Si6 0.348850 0.932391 0.883693
Si Si7 0.001752 0.072557 0.326382
O O1 0.500000 0.500000 0.500000
O O2 0.294676 0.126921 0.240982
O O3 0.603598 0.504543 0.908957
O O4 0.419254 0.159593 0.114526
O O5 0.028668 0.666578 0.387189
O O6 0.000000 0.500000 0.500000
O O7 0.167859 0.680025 0.009674
O O8 0.883865 0.254829 0.094181
O O9 0.972358 0.165705 0.550466
O O10 0.675876 0.399596 0.361505
O O11 0.596295 0.082254 0.171114
O O12 0.405693 0.976614 0.573505
O O13 0.500000 0.000000 0.000000
O O14 0.842575 0.732334 0.700247
O O15 0.862711 0.835700 0.477950
O O16 0.000000 0.000000 0.000000
#
# Coordination Sequence:
#
# PCOD9005417 Si02
#       7
#     2   2   2   2   2   2   2
#     4  10  21  41  62  86 124 160 195 249 301 351
#     4  10  22  40  62  88 122 157 195 251 301 348
#     4  10  23  40  63  91 118 158 209 243 293 366
#     4  10  21  38  62  87 118 157 195 248 303 349
#     4  10  24  41  61  92 121 156 206 246 298 364
#     4   9  21  38  58  89 119 150 204 248 290 359
#     4  11  24  42  63  88 122 161 200 250 300 352
#
# _framework density 19.824166000000002
#
# number of rings (size 3 to 8) (size 9 to 14) (size 15 to 20)
#    0.000    2.000    0.000    1.714    0.000   16.571 
#    0.000    1.429    0.000    0.000    0.000    0.000 
#    0.000    0.000    0.000    0.000    0.000    0.000 
#
# Total GULP energy -78168.137032 kJ/mol
# GULP energy per Si atom -5583.438359 kJ/mol
# Density = 1.977905 g / cm^3
# Si number density = 19.824166 Si / 1000 Ang^3
#
#
#
# Elastic Constant Matrix: (Units=GPa)
#
#
# Indices 1 2 3 4 5 6 
#
# 1 94.5824 32.9889 62.4459 0.0631 9.2668 -13.0599
# 2 32.9889 88.5610 55.1099 15.2718 11.2198 11.0762
# 3 62.4459 55.1099 100.7730 34.8825 13.7213 -5.8105
# 4 0.0631 15.2718 34.8825 26.6457 6.9108 2.6140
# 5 9.2668 11.2198 13.7213 6.9108 39.0980 0.9887
# 6 -13.0599 11.0762 -5.8105 2.6140 0.9887 26.1406
#
#
#
# Elastic Compliance Matrix: (Units=1/GPa)
#
#
# Indices 1 2 3 4 5 6 
#
# 1 0.044190 0.005163 -0.052554 0.066965 -0.005392 0.001716
# 2 0.005163 0.021764 -0.021687 0.017892 -0.002688 -0.013150
# 3 -0.052554 -0.021687 0.093454 -0.112642 0.005419 0.014765
# 4 0.066965 0.017892 -0.112642 0.179526 -0.012787 -0.016632
# 5 -0.005392 -0.002688 0.005419 -0.012787 0.027988 -0.000130
# 6 0.001716 -0.013150 0.014765 -0.016632 -0.000130 0.049634
#
#
# Mechanical properties :
#
#
# Convention : Reuss Voigt Hill
#
# Bulk Modulus (GPa) = 47.05400 65.00066 56.02733
# Shear Modulus (GPa) = 8.90007 27.26830 18.08419
#
# Velocity S-wave (km/s) = 2.12114 3.71281 3.02359
# Velocity P-wave (km/s) = 5.45767 7.15819 6.36498
#
# Compressibility (1/GPa) = 0.02125218
#
# Stress axis : x y z
#
# Youngs Moduli (GPa) = 22.62971 45.94834 10.70051
#
# Poissons Ratio (x) = -0.23724 0.56235
# Poissons Ratio (y) = -0.11684 0.23206
# Poissons Ratio (z) = 1.18927 0.99648
#
# Static dielectric constant tensor:
#      x y z
#    x 1.692950 -0.008660 -0.020120 
#    y -0.008660 1.702800 -0.003610 
#    z -0.020120 -0.003610 1.672820 
# 
# From -- ./inp_files/127264.got.cif
#   From: 2010.05.17/outbox.cif.g08.bks.cpg/sg2_64_cif.got.tgz:127264.got - 2010.06.03 11:33:40.
