data_PCOD9005430
_publ_section_title
;
Structure prediction by ZEFSAII (Michael W. Deem and Ramdas Pophale) SiO2 
 PCOD9005430
Probable space group: P -1
;
_chemical_formula_sum "Si O2"
_cell_formula_units_Z 14
_cell_length_a 13.339465
_cell_length_b 10.296062
_cell_length_c 13.195261
_cell_angle_alpha 121.263414
_cell_angle_beta 25.234497
_cell_angle_gamma 133.614622
_cell_volume 526.011598
_symmetry_space_group_name_H-M "P -1"
_symmetry_group_IT_number 2
_symmetry_cell_setting 'triclinic'
loop_
_space_group_symop_operation_xyz
x,y,z
-x,-y,-z
loop_
_atom_site_type_symbol
_atom_site_label
_atom_site_fract_x
_atom_site_fract_y
_atom_site_fract_z
Si Si1 0.681146 0.537409 0.250375
Si Si2 0.892212 0.055449 0.463824
Si Si3 0.778231 0.454741 0.828256
Si Si4 0.388153 0.259102 0.928415
Si Si5 0.681667 0.222857 0.217579
Si Si6 0.419295 0.790405 0.470925
Si Si7 0.700308 0.724143 0.660131
O O1 0.500000 0.500000 0.500000
O O2 0.734874 0.374943 0.146343
O O3 0.475454 0.475953 0.317037
O O4 0.005426 0.732374 0.029384
O O5 0.048401 0.227642 0.471294
O O6 0.580943 0.979103 0.669768
O O7 0.842314 0.884811 0.508410
O O8 0.117291 0.111352 0.190159
O O9 0.688401 0.354805 0.759237
O O10 0.098954 0.610977 0.646687
O O11 0.651492 0.576924 0.986199
O O12 0.551771 0.288937 0.048852
O O13 0.375654 0.179011 0.797513
O O14 0.573215 0.253718 0.435158
O O15 0.500000 0.000000 0.500000
#
# Coordination Sequence:
#
# PCOD9005430 Si02
#       7
#     2   2   2   2   2   2   2
#     4  10  21  38  62  88 121 160 205 260 316 374
#     4   9  19  38  61  90 125 161 203 265 314 379
#     4  10  21  42  65  92 123 170 221 270 312 383
#     4  10  23  41  65  91 128 172 217 262 323 381
#     4  10  22  38  58  90 123 157 207 260 312 375
#     4  12  25  38  63  93 133 170 213 263 322 388
#     4   9  18  37  64  87 119 163 207 256 321 370
#
# _framework density 26.615383000000001
#
# number of rings (size 3 to 8) (size 9 to 14) (size 15 to 20)
#    0.000    2.000    1.429    1.286    2.000    4.571 
#    0.000    0.714    0.000    0.000    0.000    0.000 
#    0.000    0.000    0.000    0.000    0.000    0.000 
#
# Total GULP energy -78225.901842 kJ/mol
# GULP energy per Si atom -5587.564417 kJ/mol
# Density = 2.655481 g / cm^3
# Si number density = 26.615383 Si / 1000 Ang^3
#
#
#
# Elastic Constant Matrix: (Units=GPa)
#
#
# Indices 1 2 3 4 5 6 
#
# 1 146.4443 62.1828 55.2252 -12.8147 10.7839 47.4316
# 2 62.1828 126.0640 44.5818 -6.2509 -6.1345 47.3069
# 3 55.2252 44.5818 139.2443 -27.9592 21.0900 27.0406
# 4 -12.8147 -6.2509 -27.9592 48.0044 15.1131 3.1883
# 5 10.7839 -6.1345 21.0900 15.1131 55.8173 -20.2613
# 6 47.4316 47.3069 27.0406 3.1883 -20.2613 73.1089
#
#
#
# Elastic Compliance Matrix: (Units=1/GPa)
#
#
# Indices 1 2 3 4 5 6 
#
# 1 0.011514 -0.002822 -0.000084 0.005290 -0.006734 -0.007710
# 2 -0.002822 0.011864 -0.001921 -0.000280 0.000880 -0.004879
# 3 -0.000084 -0.001921 0.013034 0.011139 -0.010664 -0.006964
# 4 0.005290 -0.000280 0.011139 0.036058 -0.020314 -0.014572
# 5 -0.006734 0.000880 -0.010664 -0.020314 0.035552 0.018482
# 6 -0.007710 -0.004879 -0.006964 -0.014572 0.018482 0.030171
#
#
# Mechanical properties :
#
#
# Convention : Reuss Voigt Hill
#
# Bulk Modulus (GPa) = 37.37176 81.74802 59.55989
# Shear Modulus (GPa) = 31.89453 52.03698 41.96575
#
# Velocity S-wave (km/s) = 3.46547 4.42650 3.97514
# Velocity P-wave (km/s) = 5.48494 7.54364 6.59511
#
# Compressibility (1/GPa) = 0.02675817
#
# Stress axis : x y z
#
# Youngs Moduli (GPa) = 86.84753 84.28978 76.72157
#
# Poissons Ratio (x) = 0.23787 0.00643
# Poissons Ratio (y) = 0.24509 0.14740
# Poissons Ratio (z) = 0.00728 0.16194
#
# Static dielectric constant tensor:
#      x y z
#    x 2.141030 -0.053840 -0.040930 
#    y -0.053840 2.192950 -0.027590 
#    z -0.040930 -0.027590 2.079500 
# 
# From -- ./inp_files/455775.got.cif
#   From: 2010.05.17/outbox.cif.g08.bks.cpg/sg2_228_cif.got.tgz:455775.got - 2010.06.03 11:33:40.
