data_PCOD9005521
_publ_section_title
;
Structure prediction by ZEFSAII (Michael W. Deem and Ramdas Pophale) SiO2 
 PCOD9005521
Probable space group: P -1
;
_chemical_formula_sum "Si O2"
_cell_formula_units_Z 16
_cell_length_a 9.489121
_cell_length_b 12.054799
_cell_length_c 15.750274
_cell_angle_alpha 114.676066
_cell_angle_beta 23.984494
_cell_angle_gamma 109.925141
_cell_volume 661.438998
_symmetry_space_group_name_H-M "P -1"
_symmetry_group_IT_number 2
_symmetry_cell_setting 'triclinic'
loop_
_space_group_symop_operation_xyz
x,y,z
-x,-y,-z
loop_
_atom_site_type_symbol
_atom_site_label
_atom_site_fract_x
_atom_site_fract_y
_atom_site_fract_z
Si Si1 0.062620 0.755241 0.993714
Si Si2 0.683865 0.096656 0.237099
Si Si3 0.822910 0.462752 0.372330
Si Si4 0.295040 0.886443 0.425076
Si Si5 0.590936 0.283800 0.050648
Si Si6 0.768729 0.545475 0.014316
Si Si7 0.033238 0.789962 0.713203
Si Si8 0.995119 0.335946 0.535878
O O1 0.686823 0.818752 0.194461
O O2 0.027421 0.610330 0.954510
O O3 0.338885 0.798754 0.788912
O O4 0.148541 0.794532 0.053961
O O5 0.826580 0.147659 0.261642
O O6 0.349353 0.024312 0.413851
O O7 0.000000 0.000000 0.000000
O O8 0.500000 0.500000 0.500000
O O9 0.789830 0.351302 0.420015
O O10 0.908001 0.581793 0.413637
O O11 0.134927 0.413757 0.120584
O O12 0.135289 0.864476 0.598396
O O13 0.086163 0.804477 0.451405
O O14 0.785101 0.399066 0.953329
O O15 0.381650 0.220567 0.073262
O O16 0.284731 0.332867 0.302009
O O17 0.374802 0.595163 0.269435
#
# Coordination Sequence:
#
# PCOD9005521 Si02
#       8
#     2   2   2   2   2   2   2   2
#     4  10  21  38  62  92 120 162 209 251 302 365
#     4  10  21  43  66  86 118 165 212 257 303 361
#     4  12  25  37  61  95 134 161 203 253 306 376
#     4   9  22  39  67  85 120 167 206 252 307 362
#     4  11  23  37  62  93 131 157 205 254 309 372
#     4  11  21  37  59  88 127 171 197 245 310 370
#     4  11  23  41  63  92 125 160 206 253 311 367
#     4  10  22  39  59  93 124 164 202 249 309 372
#
# _framework density 24.189682999999999
#
# number of rings (size 3 to 8) (size 9 to 14) (size 15 to 20)
#    0.000    1.500    2.500    2.250    5.250    0.000 
#    0.000    5.000    2.750    0.000    0.000    0.000 
#    0.000    0.000    0.000    0.000    0.000    0.000 
#
# Total GULP energy -89399.352525 kJ/mol
# GULP energy per Si atom -5587.459533 kJ/mol
# Density = 2.413463 g / cm^3
# Si number density = 24.189683 Si / 1000 Ang^3
#
#
#
# Elastic Constant Matrix: (Units=GPa)
#
#
# Indices 1 2 3 4 5 6 
#
# 1 108.4547 60.6310 0.5871 -18.4122 -9.4990 30.5028
# 2 60.6310 137.5078 5.1781 -45.8400 -7.4072 20.9058
# 3 0.5871 5.1781 40.3341 -9.2219 -7.2284 -2.7061
# 4 -18.4122 -45.8400 -9.2219 36.1400 5.9262 4.5424
# 5 -9.4990 -7.4072 -7.2284 5.9262 28.0672 -6.7807
# 6 30.5028 20.9058 -2.7061 4.5424 -6.7807 41.7036
#
#
#
# Elastic Compliance Matrix: (Units=1/GPa)
#
#
# Indices 1 2 3 4 5 6 
#
# 1 0.014588 -0.003789 0.000742 0.003746 0.001178 -0.008939
# 2 -0.003789 0.017489 0.001774 0.022312 -0.003049 -0.008807
# 3 0.000742 0.001774 0.027652 0.008628 0.006120 0.000418
# 4 0.003746 0.022312 0.008628 0.064397 -0.009516 -0.021926
# 5 0.001178 -0.003049 0.006120 -0.009516 0.040923 0.008754
# 6 -0.008939 -0.008807 0.000418 -0.021926 0.008754 0.038770
#
#
# Mechanical properties :
#
#
# Convention : Reuss Voigt Hill
#
# Bulk Modulus (GPa) = 17.48792 46.56545 32.02668
# Shear Modulus (GPa) = 22.18033 35.84218 29.01125
#
# Velocity S-wave (km/s) = 3.03138 3.85348 3.46688
# Velocity P-wave (km/s) = 4.41560 6.25228 5.41242
#
# Compressibility (1/GPa) = 0.05718233
#
# Stress axis : x y z
#
# Youngs Moduli (GPa) = 68.55107 57.17956 36.16392
#
# Poissons Ratio (x) = 0.21665 -0.02683
# Poissons Ratio (y) = 0.25973 -0.06416
# Poissons Ratio (z) = -0.05086 -0.10144
#
# Static dielectric constant tensor:
#      x y z
#    x 1.928220 -0.007820 -0.005910 
#    y -0.007820 1.994490 -0.011090 
#    z -0.005910 -0.011090 1.956890 
# 
# From -- ./inp_files/200389.got.cif
#   From: 2010.05.17/outbox.cif.g08.bks.cpg/sg2_101_cif.got.tgz:200389.got - 2010.06.03 11:33:40.
