data_PCOD9005676
_publ_section_title
;
Structure prediction by ZEFSAII (Michael W. Deem and Ramdas Pophale) SiO2 
 PCOD9005676
Probable space group: P -1
;
_chemical_formula_sum "Si O2"
_cell_formula_units_Z 16
_cell_length_a 19.462937
_cell_length_b 12.818561
_cell_length_c 17.652102
_cell_angle_alpha 25.042257
_cell_angle_beta 22.514219
_cell_angle_gamma 25.033786
_cell_volume 645.655834
_symmetry_space_group_name_H-M "P -1"
_symmetry_group_IT_number 2
_symmetry_cell_setting 'triclinic'
loop_
_space_group_symop_operation_xyz
x,y,z
-x,-y,-z
loop_
_atom_site_type_symbol
_atom_site_label
_atom_site_fract_x
_atom_site_fract_y
_atom_site_fract_z
Si Si1 0.975165 0.301750 0.305326
Si Si2 0.662756 0.451189 0.641255
Si Si3 0.742055 0.000671 0.453746
Si Si4 0.367378 0.379878 0.886578
Si Si5 0.465869 0.253537 0.276726
Si Si6 0.471205 0.804517 0.310525
Si Si7 0.135917 0.117564 0.111469
Si Si8 0.173414 0.821975 0.123711
O O1 0.976011 0.316860 0.202797
O O2 0.774750 0.491601 0.427299
O O3 0.168308 0.334670 0.116571
O O4 0.000000 0.000000 0.500000
O O5 0.484136 0.375188 0.847419
O O6 0.591185 0.701665 0.606649
O O7 0.814878 0.180850 0.707150
O O8 0.698172 0.310582 0.277404
O O9 0.698440 0.994376 0.592502
O O10 0.599729 0.926406 0.593597
O O11 0.967094 0.808621 0.327911
O O12 0.525923 0.185068 0.790822
O O13 0.333012 0.558625 0.177854
O O14 0.699506 0.164291 0.085987
O O15 0.500000 0.500000 0.500000
O O16 0.667805 0.836503 0.111308
O O17 0.104180 0.082462 0.079053
#
# Coordination Sequence:
#
# PCOD9005676 Si02
#       8
#     2   2   2   2   2   2   2   2
#     4   9  20  38  59  88 119 158 204 242 298 357
#     4  10  22  39  61  85 123 163 196 251 295 357
#     4  11  22  39  63  89 122 162 200 248 304 357
#     4  10  23  40  58  91 127 158 201 244 302 365
#     4  10  22  41  60  91 119 158 208 247 300 349
#     4   9  19  37  58  91 123 153 196 246 305 360
#     4   9  18  38  60  88 119 152 200 253 298 350
#     4  10  21  38  63  89 119 156 204 255 293 351
#
# _framework density 24.781005
#
# number of rings (size 3 to 8) (size 9 to 14) (size 15 to 20)
#    0.000    2.250    1.250    0.375    1.750    7.000 
#    4.500    3.125    0.000    0.000    0.000    0.000 
#    0.000    0.000    0.000    0.000    0.000    0.000 
#
# Total GULP energy -89454.031508 kJ/mol
# GULP energy per Si atom -5590.876969 kJ/mol
# Density = 2.472460 g / cm^3
# Si number density = 24.781005 Si / 1000 Ang^3
#
#
#
# Elastic Constant Matrix: (Units=GPa)
#
#
# Indices 1 2 3 4 5 6 
#
# 1 69.0548 43.5998 21.3868 18.8460 -2.4897 21.9420
# 2 43.5998 127.4370 62.2114 26.1675 -2.0505 27.7428
# 3 21.3868 62.2114 127.0894 32.4795 3.5090 30.8900
# 4 18.8460 26.1675 32.4795 47.2577 4.3627 -4.6448
# 5 -2.4897 -2.0505 3.5090 4.3627 25.7820 -0.5776
# 6 21.9420 27.7428 30.8900 -4.6448 -0.5776 35.2756
#
#
#
# Elastic Compliance Matrix: (Units=1/GPa)
#
#
# Indices 1 2 3 4 5 6 
#
# 1 0.025691 -0.004584 0.006250 -0.014235 0.003234 -0.019670
# 2 -0.004584 0.012895 -0.003596 -0.003433 0.001551 -0.004568
# 3 0.006250 -0.003596 0.016038 -0.013178 -0.000013 -0.016839
# 4 -0.014235 -0.003433 -0.013178 0.041158 -0.006182 0.028411
# 5 0.003234 0.001551 -0.000013 -0.006182 0.040194 -0.003376
# 6 -0.019670 -0.004568 -0.016839 0.028411 -0.003376 0.062606
#
#
# Mechanical properties :
#
#
# Convention : Reuss Voigt Hill
#
# Bulk Modulus (GPa) = 19.69901 64.21968 41.95934
# Shear Modulus (GPa) = 22.79314 34.75528 28.77421
#
# Velocity S-wave (km/s) = 3.03608 3.74905 3.41125
# Velocity P-wave (km/s) = 4.50076 6.68668 5.69950
#
# Compressibility (1/GPa) = 0.05076398
#
# Stress axis : x y z
#
# Youngs Moduli (GPa) = 38.92404 77.54935 62.35207
#
# Poissons Ratio (x) = 0.35546 -0.38969
# Poissons Ratio (y) = 0.17842 0.22423
# Poissons Ratio (z) = -0.24327 0.27888
#
# Static dielectric constant tensor:
#      x y z
#    x 1.980260 0.009360 0.048920 
#    y 0.009360 2.017050 -0.014990 
#    z 0.048920 -0.014990 1.987350 
# 
# From -- ./inp_files/71933.got.cif
#   From: 2010.05.17/outbox.cif.g08.bks.cpg/sg2_36_cif.got.tgz:71933.got - 2010.06.03 11:33:40.
