data_PCOD9005487
_publ_section_title
;
Structure prediction by ZEFSAII (Michael W. Deem and Ramdas Pophale) SiO2 
 PCOD9005487
Probable space group: P -1
;
_chemical_formula_sum "Si O2"
_cell_formula_units_Z 13
_cell_length_a 11.147309
_cell_length_b 15.753239
_cell_length_c 14.876493
_cell_angle_alpha 152.094517
_cell_angle_beta 28.814012
_cell_angle_gamma 145.002676
_cell_volume 577.497201
_symmetry_space_group_name_H-M "P -1"
_symmetry_group_IT_number 2
_symmetry_cell_setting 'triclinic'
loop_
_space_group_symop_operation_xyz
x,y,z
-x,-y,-z
loop_
_atom_site_type_symbol
_atom_site_label
_atom_site_fract_x
_atom_site_fract_y
_atom_site_fract_z
Si Si1 0.000000 0.500000 0.000000
Si Si2 0.325838 0.260585 0.487232
Si Si3 0.438544 0.068807 0.746435
Si Si4 0.263916 0.366435 0.421496
Si Si5 0.779849 0.458234 0.903318
Si Si6 0.783846 0.848859 0.218877
Si Si7 0.315843 0.998350 0.950464
O O1 0.078776 0.486897 0.043383
O O2 0.919158 0.701611 0.264857
O O3 0.304646 0.286369 0.418575
O O4 0.535135 0.444374 0.550162
O O5 0.430448 0.077202 0.266283
O O6 0.565270 0.276834 0.885193
O O7 0.290244 0.075984 0.757994
O O8 0.667160 0.962876 0.476643
O O9 0.275926 0.973600 0.847049
O O10 0.684695 0.790423 0.826181
O O11 0.983277 0.408945 0.651513
O O12 0.674768 0.633296 0.101135
O O13 0.087637 0.880544 0.047990
#
# Coordination Sequence:
#
# PCOD9005487 Si02
#       7
#     1   2   2   2   2   2   2
#     4  10  22  38  66  96 124 160 212 260 308 386
#     4  10  21  39  60  92 128 167 202 258 316 376
#     4  11  25  42  65  95 127 167 219 266 305 376
#     4  10  21  38  62  90 128 166 206 253 316 382
#     4  11  21  44  64  92 132 168 206 264 319 373
#     4  11  24  44  66  91 129 171 214 262 317 369
#     4  12  22  41  65  95 126 166 213 261 318 371
#
# _framework density 22.510933000000001
#
# number of rings (size 3 to 8) (size 9 to 14) (size 15 to 20)
#    0.000    1.231    3.077    3.231    0.000    0.000 
#    2.769    3.846    0.000    0.000    0.000    0.000 
#    0.000    0.000    0.000    0.000    0.000    0.000 
#
# Total GULP energy -72415.004519 kJ/mol
# GULP energy per Si atom -5570.384963 kJ/mol
# Density = 2.245970 g / cm^3
# Si number density = 22.510933 Si / 1000 Ang^3
#
#
#
# Elastic Constant Matrix: (Units=GPa)
#
#
# Indices 1 2 3 4 5 6 
#
# 1 -24.1063 -20.8282 -3.4892 -39.2098 11.3001 14.9914
# 2 -20.8282 46.3842 20.8014 -2.9883 8.1517 7.6068
# 3 -3.4892 20.8014 119.9500 -9.9136 16.9492 -5.4082
# 4 -39.2098 -2.9883 -9.9136 -0.8190 -7.8501 20.5913
# 5 11.3001 8.1517 16.9492 -7.8501 34.6837 1.0557
# 6 14.9914 7.6068 -5.4082 20.5913 1.0557 3.2757
#
#
#
# Elastic Compliance Matrix: (Units=1/GPa)
#
#
# Indices 1 2 3 4 5 6 
#
# 1 0.035372 0.006851 0.003016 -0.035631 -0.024471 0.059056
# 2 0.006851 0.025336 -0.003607 -0.016405 -0.010452 0.010349
# 3 0.003016 -0.003607 0.010219 0.000784 -0.005201 0.008189
# 4 -0.035631 -0.016405 0.000784 0.032829 0.022855 -0.011270
# 5 -0.024471 -0.010452 -0.005201 0.022855 0.047932 -0.031436
# 6 0.059056 0.010349 0.008189 -0.011270 -0.031436 0.105466
#
#
# Mechanical properties :
#
#
# Convention : Reuss Voigt Hill
#
# Bulk Modulus (GPa) = 11.98342 15.02176 13.50259
# Shear Modulus (GPa) = 18.35209 17.14435 17.74822
#
# Velocity S-wave (km/s) = 2.85836 2.76271 2.81094
# Velocity P-wave (km/s) = 4.02847 4.10662 4.06773
#
# Compressibility (1/GPa) = 0.08344865
#
# Stress axis : x y z
#
# Youngs Moduli (GPa) = 28.27057 39.46991 97.85795
#
# Poissons Ratio (x) = -0.27041 -0.29519
# Poissons Ratio (y) = -0.19368 0.35294
# Poissons Ratio (z) = -0.08528 0.14236
#
# Static dielectric constant tensor:
#      x y z
#    x 1.814760 0.000660 -0.081330 
#    y 0.000660 1.827020 -0.055440 
#    z -0.081330 -0.055440 1.832870 
# 
# From -- ./inp_files/248966.got.cif
#   From: 2010.05.17/outbox.cif.g08.bks.cpg/sg2_125_cif.got.tgz:248966.got - 2010.06.03 11:33:40.
