data_PCOD9005690
_publ_section_title
;
Structure prediction by ZEFSAII (Michael W. Deem and Ramdas Pophale) SiO2 
 PCOD9005690
Probable space group: P -1
;
_chemical_formula_sum "Si O2"
_cell_formula_units_Z 14
_cell_length_a 7.728376
_cell_length_b 14.623569
_cell_length_c 11.494309
_cell_angle_alpha 27.755266
_cell_angle_beta 101.322242
_cell_angle_gamma 96.173961
_cell_volume 586.921834
_symmetry_space_group_name_H-M "P -1"
_symmetry_group_IT_number 2
_symmetry_cell_setting 'triclinic'
loop_
_space_group_symop_operation_xyz
x,y,z
-x,-y,-z
loop_
_atom_site_type_symbol
_atom_site_label
_atom_site_fract_x
_atom_site_fract_y
_atom_site_fract_z
Si Si1 0.998304 0.360941 0.042131
Si Si2 0.610717 0.794450 0.705742
Si Si3 0.480939 0.355352 0.766362
Si Si4 0.915491 0.728063 0.218314
Si Si5 0.981250 0.259911 0.522196
Si Si6 0.154138 0.884165 0.869755
Si Si7 0.569580 0.397210 0.292820
O O1 0.990157 0.518549 0.757883
O O2 0.857249 0.221843 0.137810
O O3 0.181448 0.211696 0.238910
O O4 0.000000 0.500000 0.000000
O O5 0.556627 0.740398 0.629534
O O6 0.500000 0.000000 0.500000
O O7 0.574452 0.598128 0.992429
O O8 0.500000 0.500000 0.500000
O O9 0.293072 0.270993 0.837341
O O10 0.645497 0.180072 0.989057
O O11 0.491372 0.508493 0.700073
O O12 0.000000 0.500000 0.500000
O O13 0.947880 0.804957 0.266763
O O14 0.019882 0.815108 0.028545
O O15 0.767472 0.273643 0.469240
O O16 0.084295 0.116116 0.601852
#
# Coordination Sequence:
#
# PCOD9005690 Si02
#       7
#     2   2   2   2   2   2   2
#     4  11  23  41  62  91 134 171 209 268 321 378
#     4  10  21  38  63  90 119 164 214 258 312 374
#     4  12  23  40  68  96 129 171 212 261 322 385
#     4  12  21  44  69  92 131 169 213 265 323 382
#     4  11  23  42  66  93 131 173 213 267 326 379
#     4  12  25  42  68  98 128 171 218 265 322 384
#     4  10  21  39  62  90 125 165 208 260 318 374
#
# _framework density 23.853262000000001
#
# number of rings (size 3 to 8) (size 9 to 14) (size 15 to 20)
#    0.000    0.857    4.286    3.000    0.000    2.286 
#    0.000    1.429    0.000    0.000    0.000    0.000 
#    0.000    0.000    0.000    0.000    0.000    0.000 
#
# Total GULP energy -78293.968568 kJ/mol
# GULP energy per Si atom -5592.426326 kJ/mol
# Density = 2.379897 g / cm^3
# Si number density = 23.853262 Si / 1000 Ang^3
#
#
#
# Elastic Constant Matrix: (Units=GPa)
#
#
# Indices 1 2 3 4 5 6 
#
# 1 122.8550 24.7194 49.9385 -5.9079 33.7874 2.3150
# 2 24.7194 136.6958 44.4947 17.3605 16.0785 0.8520
# 3 49.9385 44.4947 71.7301 -17.6322 26.7068 -0.5265
# 4 -5.9079 17.3605 -17.6322 24.7281 -19.3415 -2.0413
# 5 33.7874 16.0785 26.7068 -19.3415 46.6495 0.3065
# 6 2.3150 0.8520 -0.5265 -2.0413 0.3065 29.0630
#
#
#
# Elastic Compliance Matrix: (Units=1/GPa)
#
#
# Indices 1 2 3 4 5 6 
#
# 1 0.016644 0.007728 -0.016948 -0.026240 -0.015872 -0.003535
# 2 0.007728 0.020623 -0.022087 -0.042579 -0.017685 -0.004424
# 3 -0.016948 -0.022087 0.047715 0.059494 0.017193 0.006859
# 4 -0.026240 -0.042579 0.059494 0.158859 0.065388 0.014884
# 5 -0.015872 -0.017685 0.017193 0.065388 0.056255 0.006094
# 6 -0.003535 -0.004424 0.006859 0.014884 0.006094 0.035925
#
#
# Mechanical properties :
#
#
# Convention : Reuss Voigt Hill
#
# Bulk Modulus (GPa) = 44.70820 63.28734 53.99777
# Shear Modulus (GPa) = 12.31257 34.23001 23.27129
#
# Velocity S-wave (km/s) = 2.27442 3.79228 3.12685
# Velocity P-wave (km/s) = 5.06765 6.76496 5.97686
#
# Compressibility (1/GPa) = 0.02236726
#
# Stress axis : x y z
#
# Youngs Moduli (GPa) = 60.08339 48.48991 20.95797
#
# Poissons Ratio (x) = -0.37474 0.35519
# Poissons Ratio (y) = -0.46434 0.46291
# Poissons Ratio (z) = 1.01828 1.07101
#
# Static dielectric constant tensor:
#      x y z
#    x 1.923730 -0.001720 -0.047050 
#    y -0.001720 1.993050 0.067320 
#    z -0.047050 0.067320 1.915290 
# 
# From -- ./inp_files/327998.got.cif
#   From: 2010.05.17/outbox.cif.g08.bks.cpg/sg2_164_cif.got.tgz:327998.got - 2010.06.03 11:33:40.
