data_PCOD9005505
_publ_section_title
;
Structure prediction by ZEFSAII (Michael W. Deem and Ramdas Pophale) SiO2 
 PCOD9005505
Probable space group: P -1
;
_chemical_formula_sum "Si O2"
_cell_formula_units_Z 16
_cell_length_a 9.171192
_cell_length_b 17.739742
_cell_length_c 12.607541
_cell_angle_alpha 24.590671
_cell_angle_beta 52.434380
_cell_angle_gamma 48.641989
_cell_volume 640.423810
_symmetry_space_group_name_H-M "P -1"
_symmetry_group_IT_number 2
_symmetry_cell_setting 'triclinic'
loop_
_space_group_symop_operation_xyz
x,y,z
-x,-y,-z
loop_
_atom_site_type_symbol
_atom_site_label
_atom_site_fract_x
_atom_site_fract_y
_atom_site_fract_z
Si Si1 0.421324 0.774656 0.008221
Si Si2 0.491167 0.825351 0.559698
Si Si3 0.091471 0.318498 0.417749
Si Si4 0.519570 0.740436 0.248223
Si Si5 0.290215 0.929875 0.298085
Si Si6 0.864345 0.977253 0.418016
Si Si7 0.123127 0.603796 0.379959
Si Si8 0.850353 0.625805 0.988881
O O1 0.434491 0.721445 0.195675
O O2 0.226845 0.738534 0.101223
O O3 0.629087 0.642930 0.040576
O O4 0.435157 0.987429 0.720464
O O5 0.695252 0.659283 0.695269
O O6 0.379227 0.818600 0.508810
O O7 0.342871 0.861538 0.677902
O O8 0.111416 0.160534 0.518919
O O9 0.016641 0.275538 0.619807
O O10 0.930212 0.516912 0.200471
O O11 0.351656 0.793743 0.342688
O O12 0.695180 0.568618 0.436055
O O13 0.606190 0.912356 0.969336
O O14 0.059980 0.026684 0.278145
O O15 0.861816 0.836946 0.698843
O O16 0.000000 0.500000 0.500000
O O17 0.000000 0.500000 0.000000
#
# Coordination Sequence:
#
# PCOD9005505 Si02
#       8
#     2   2   2   2   2   2   2   2
#     4  10  21  40  64  85 121 167 205 247 303 368
#     4  10  22  40  61  90 128 157 202 256 306 364
#     4  11  22  40  60  90 126 159 204 251 310 362
#     4  10  21  38  62  91 123 161 207 249 301 373
#     4  10  21  38  64  92 120 161 209 252 302 361
#     4  10  21  39  68  86 120 165 211 249 295 369
#     4  12  25  38  62  92 129 156 203 263 311 357
#     4   9  20  37  62  90 115 157 212 244 290 369
#
# _framework density 24.983456
#
# number of rings (size 3 to 8) (size 9 to 14) (size 15 to 20)
#    0.000    1.750    1.250    2.625    3.500    1.500 
#    0.000    0.625    0.000    0.000    0.000    0.000 
#    0.000    0.000    0.000    0.000    0.000    0.000 
#
# Total GULP energy -89490.742386 kJ/mol
# GULP energy per Si atom -5593.171399 kJ/mol
# Density = 2.492659 g / cm^3
# Si number density = 24.983456 Si / 1000 Ang^3
#
#
#
# Elastic Constant Matrix: (Units=GPa)
#
#
# Indices 1 2 3 4 5 6 
#
# 1 121.7755 36.6352 20.8651 17.5302 -15.8141 -16.0294
# 2 36.6352 116.7554 17.3874 41.0538 -12.6118 -16.3012
# 3 20.8651 17.3874 42.7212 19.9873 -4.6535 0.0732
# 4 17.5302 41.0538 19.9873 35.6127 -14.9991 0.0962
# 5 -15.8141 -12.6118 -4.6535 -14.9991 27.4283 5.3110
# 6 -16.0294 -16.3012 0.0732 0.0962 5.3110 43.0828
#
#
#
# Elastic Compliance Matrix: (Units=1/GPa)
#
#
# Indices 1 2 3 4 5 6 
#
# 1 0.010371 -0.002643 -0.004703 0.002680 0.004997 0.002245
# 2 -0.002643 0.017499 0.004957 -0.024828 -0.007493 0.006609
# 3 -0.004703 0.004957 0.035428 -0.027341 -0.009627 0.001313
# 4 0.002680 -0.024828 -0.027341 0.085353 0.034646 -0.012812
# 5 0.004997 -0.007493 -0.009627 0.034646 0.054714 -0.007782
# 6 0.002245 0.006609 0.001313 -0.012812 -0.007782 0.027532
#
#
# Mechanical properties :
#
#
# Convention : Reuss Voigt Hill
#
# Bulk Modulus (GPa) = 17.08804 47.89195 32.48999
# Shear Modulus (GPa) = 19.59375 34.98240 27.28808
#
# Velocity S-wave (km/s) = 2.80352 3.74601 3.30850
# Velocity P-wave (km/s) = 4.16344 6.15802 5.25621
#
# Compressibility (1/GPa) = 0.05852046
#
# Stress axis : x y z
#
# Youngs Moduli (GPa) = 96.41853 57.14532 28.22644
#
# Poissons Ratio (x) = 0.15103 0.13275
# Poissons Ratio (y) = 0.25483 -0.13992
# Poissons Ratio (z) = 0.45345 -0.28326
#
# Static dielectric constant tensor:
#      x y z
#    x 2.037150 0.022480 0.063550 
#    y 0.022480 2.005250 -0.021720 
#    z 0.063550 -0.021720 2.051710 
# 
# From -- ./inp_files/402626.got.cif
#   From: 2010.05.17/outbox.cif.g08.bks.cpg/sg2_202_cif.got.tgz:402626.got - 2010.06.03 11:33:40.
