data_PCOD9005105
_publ_section_title
;
Structure prediction by ZEFSAII (Michael W. Deem and Ramdas Pophale) SiO2 
 PCOD9005105
Probable space group: P -1
;
_chemical_formula_sum "Si O2"
_cell_formula_units_Z 14
_cell_length_a 18.471402
_cell_length_b 8.660405
_cell_length_c 9.046618
_cell_angle_alpha 31.942887
_cell_angle_beta 51.265510
_cell_angle_gamma 46.132817
_cell_volume 549.309980
_symmetry_space_group_name_H-M "P -1"
_symmetry_group_IT_number 2
_symmetry_cell_setting 'triclinic'
loop_
_space_group_symop_operation_xyz
x,y,z
-x,-y,-z
loop_
_atom_site_type_symbol
_atom_site_label
_atom_site_fract_x
_atom_site_fract_y
_atom_site_fract_z
Si Si1 0.424611 0.463460 0.334343
Si Si2 0.913442 0.445509 0.325587
Si Si3 0.071929 0.683768 0.250095
Si Si4 0.372095 0.925174 0.754503
Si Si5 0.719536 0.422204 0.053836
Si Si6 0.863324 0.874533 0.783745
Si Si7 0.329037 0.921869 0.332735
O O1 0.535449 0.195786 0.383444
O O2 0.409457 0.630936 0.375378
O O3 0.349568 0.288371 0.529458
O O4 0.409349 0.732673 0.014131
O O5 0.893664 0.365315 0.581916
O O6 0.032398 0.379868 0.210482
O O7 0.883426 0.193320 0.478195
O O8 0.859259 0.773431 0.041451
O O9 0.000000 0.500000 0.500000
O O10 0.173990 0.558729 0.129052
O O11 0.000000 0.000000 0.000000
O O12 0.297119 0.789502 0.884382
O O13 0.714401 0.231352 0.360179
O O14 0.643996 0.791712 0.869660
O O15 0.760553 0.915839 0.803234
#
# Coordination Sequence:
#
# PCOD9005105 Si02
#       7
#     2   2   2   2   2   2   2
#     4  10  23  45  74 102 141 183 225 290 352 415
#     4  10  21  38  61  87 123 179 228 282 332 400
#     4  12  25  43  65  94 138 189 234 285 350 406
#     4  10  23  46  72 105 139 180 234 283 347 434
#     4  12  26  43  69 104 143 182 236 289 350 419
#     4  10  21  38  60  91 127 167 232 283 336 396
#     4  12  25  43  67 105 141 185 224 298 347 417
#
# _framework density 25.486522000000001
#
# number of rings (size 3 to 8) (size 9 to 14) (size 15 to 20)
#    0.000    1.143    0.000    6.000    2.000    3.429 
#    0.000    0.000    0.000    0.000    0.000    0.000 
#    0.000    0.000    0.000    0.000    0.000    0.000 
#
# Total GULP energy -78287.971382 kJ/mol
# GULP energy per Si atom -5591.997956 kJ/mol
# Density = 2.542851 g / cm^3
# Si number density = 25.486522 Si / 1000 Ang^3
#
#
#
# Elastic Constant Matrix: (Units=GPa)
#
#
# Indices 1 2 3 4 5 6 
#
# 1 56.0848 12.7866 25.1085 1.4409 -2.1404 7.7018
# 2 12.7866 111.9503 40.8775 7.1677 -0.2404 15.3703
# 3 25.1085 40.8775 179.3151 -6.8193 7.8739 14.4192
# 4 1.4409 7.1677 -6.8193 38.9286 12.8986 -2.9995
# 5 -2.1404 -0.2404 7.8739 12.8986 50.1935 -0.2489
# 6 7.7018 15.3703 14.4192 -2.9995 -0.2489 19.6511
#
#
#
# Elastic Compliance Matrix: (Units=1/GPa)
#
#
# Indices 1 2 3 4 5 6 
#
# 1 0.019938 -0.000449 -0.002361 -0.002107 0.001730 -0.006031
# 2 -0.000449 0.010950 -0.002015 -0.003308 0.001163 -0.007400
# 3 -0.002361 -0.002015 0.006688 0.002027 -0.001691 -0.002118
# 4 -0.002107 -0.003308 0.002027 0.029898 -0.008075 0.006387
# 5 0.001730 0.001163 -0.001691 -0.008075 0.022336 -0.001296
# 6 -0.006031 -0.007400 -0.002118 0.006387 -0.001296 0.061552
#
#
# Mechanical properties :
#
#
# Convention : Reuss Voigt Hill
#
# Bulk Modulus (GPa) = 35.80764 56.09949 45.95357
# Shear Modulus (GPa) = 29.35649 39.65981 34.50815
#
# Velocity S-wave (km/s) = 3.39756 3.94903 3.68363
# Velocity P-wave (km/s) = 5.42876 6.54617 6.01348
#
# Compressibility (1/GPa) = 0.02792700
#
# Stress axis : x y z
#
# Youngs Moduli (GPa) = 50.15656 91.32495 149.51292
#
# Poissons Ratio (x) = 0.04098 0.35294
# Poissons Ratio (y) = 0.02250 0.30129
# Poissons Ratio (z) = 0.11840 0.18403
#
# Static dielectric constant tensor:
#      x y z
#    x 2.156320 0.026640 0.000330 
#    y 0.026640 2.120050 -0.015790 
#    z 0.000330 -0.015790 1.910610 
# 
# From -- ./inp_files/343168.got.cif
#   From: 2010.05.17/outbox.cif.g08.bks.cpg/sg2_172_cif.got.tgz:343168.got - 2010.06.03 11:33:40.
