data_PCOD9005031
_publ_section_title
;
Structure prediction by ZEFSAII (Michael W. Deem and Ramdas Pophale) SiO2 
 PCOD9005031
Probable space group: P -1
;
_chemical_formula_sum "Si O2"
_cell_formula_units_Z 16
_cell_length_a 20.195235
_cell_length_b 8.369356
_cell_length_c 14.246563
_cell_angle_alpha 68.634246
_cell_angle_beta 161.642275
_cell_angle_gamma 111.133024
_cell_volume 705.371944
_symmetry_space_group_name_H-M "P -1"
_symmetry_group_IT_number 2
_symmetry_cell_setting 'triclinic'
loop_
_space_group_symop_operation_xyz
x,y,z
-x,-y,-z
loop_
_atom_site_type_symbol
_atom_site_label
_atom_site_fract_x
_atom_site_fract_y
_atom_site_fract_z
Si Si1 0.138674 0.668552 0.833515
Si Si2 0.247146 0.155178 0.666617
Si Si3 0.494698 0.469566 0.886365
Si Si4 0.560626 0.883034 0.400441
Si Si5 0.632589 0.769816 0.873007
Si Si6 0.686184 0.618658 0.768634
Si Si7 0.313018 0.902525 0.643596
Si Si8 0.931979 0.349382 0.528332
O O1 0.976410 0.815993 0.596132
O O2 0.033977 0.540485 0.641820
O O3 0.373370 0.758928 0.128125
O O4 0.146575 0.526419 0.957888
O O5 0.253254 0.000049 0.636963
O O6 0.306698 0.329247 0.651111
O O7 0.439488 0.134586 0.002505
O O8 0.707190 0.369795 0.173172
O O9 0.500000 0.500000 0.000000
O O10 0.504666 0.637277 0.799191
O O11 0.700937 0.776489 0.682815
O O12 0.448889 0.039953 0.268746
O O13 0.700251 0.975275 0.488310
O O14 0.628319 0.693326 0.777695
O O15 0.879582 0.758959 0.233681
O O16 0.500000 0.500000 0.500000
O O17 0.149723 0.739352 0.464023
#
# Coordination Sequence:
#
# PCOD9005031 Si02
#       8
#     2   2   2   2   2   2   2   2
#     4  10  21  39  64  86 126 162 205 254 304 369
#     4  10  21  38  60  87 131 160 198 251 317 364
#     4  11  21  37  62  95 129 162 199 250 311 375
#     4  11  23  40  64  89 122 164 214 255 302 358
#     4  11  22  38  66  89 122 170 204 253 309 364
#     4   9  22  42  63  89 121 161 215 257 302 363
#     4  10  23  39  60  92 128 164 199 257 305 365
#     4  10  21  39  58  93 131 158 205 245 311 378
#
# _framework density 22.683067000000001
#
# number of rings (size 3 to 8) (size 9 to 14) (size 15 to 20)
#    0.000    1.750    1.250    3.000    5.250    0.500 
#    2.250    3.125    2.750    0.000    0.000    0.000 
#    0.000    0.000    0.000    0.000    0.000    0.000 
#
# Total GULP energy -89227.494737 kJ/mol
# GULP energy per Si atom -5576.718421 kJ/mol
# Density = 2.263144 g / cm^3
# Si number density = 22.683067 Si / 1000 Ang^3
#
#
#
# Elastic Constant Matrix: (Units=GPa)
#
#
# Indices 1 2 3 4 5 6 
#
# 1 71.1456 23.6726 2.8824 -0.8718 -11.7917 20.1628
# 2 23.6726 110.0050 4.0467 -4.3764 -11.3139 15.2837
# 3 2.8824 4.0467 34.0850 -7.4184 0.4014 1.0076
# 4 -0.8718 -4.3764 -7.4184 46.6139 1.5320 -0.9297
# 5 -11.7917 -11.3139 0.4014 1.5320 24.3541 -0.4660
# 6 20.1628 15.2837 1.0076 -0.9297 -0.4660 53.1365
#
#
#
# Elastic Compliance Matrix: (Units=1/GPa)
#
#
# Indices 1 2 3 4 5 6 
#
# 1 0.017788 -0.002186 -0.001251 -0.000439 0.007530 -0.006039
# 2 -0.002186 0.010281 -0.000882 0.000623 0.003654 -0.002068
# 3 -0.001251 -0.000882 0.030615 0.004830 -0.001820 0.000216
# 4 -0.000439 0.000623 0.004830 0.022323 -0.001402 0.000274
# 5 0.007530 0.003654 -0.001820 -0.001402 0.046455 -0.003491
# 6 -0.006039 -0.002068 0.000216 0.000274 -0.003491 0.021676
#
#
# Mechanical properties :
#
#
# Convention : Reuss Voigt Hill
#
# Bulk Modulus (GPa) = 19.98122 30.71544 25.34833
# Shear Modulus (GPa) = 28.66022 37.12981 32.89501
#
# Velocity S-wave (km/s) = 3.55844 4.05025 3.81228
# Velocity P-wave (km/s) = 5.07063 5.95342 5.52967
#
# Compressibility (1/GPa) = 0.05004699
#
# Stress axis : x y z
#
# Youngs Moduli (GPa) = 56.21879 97.26468 32.66350
#
# Poissons Ratio (x) = 0.21261 0.04085
# Poissons Ratio (y) = 0.12289 0.02881
# Poissons Ratio (z) = 0.07030 0.08580
#
# Static dielectric constant tensor:
#      x y z
#    x 1.932070 -0.000540 -0.020950 
#    y -0.000540 1.911620 -0.021010 
#    z -0.020950 -0.021010 1.837490 
# 
# From -- ./inp_files/181834.got.cif
#   From: 2010.05.17/outbox.cif.g08.bks.cpg/sg2_91_cif.got.tgz:181834.got - 2010.06.03 11:33:40.
