data_PCOD9005629
_publ_section_title
;
Structure prediction by ZEFSAII (Michael W. Deem and Ramdas Pophale) SiO2 
 PCOD9005629
Probable space group: P -1
;
_chemical_formula_sum "Si O2"
_cell_formula_units_Z 16
_cell_length_a 13.826283
_cell_length_b 10.524119
_cell_length_c 16.728713
_cell_angle_alpha 49.327103
_cell_angle_beta 156.461444
_cell_angle_gamma 125.612239
_cell_volume 736.375372
_symmetry_space_group_name_H-M "P -1"
_symmetry_group_IT_number 2
_symmetry_cell_setting 'triclinic'
loop_
_space_group_symop_operation_xyz
x,y,z
-x,-y,-z
loop_
_atom_site_type_symbol
_atom_site_label
_atom_site_fract_x
_atom_site_fract_y
_atom_site_fract_z
Si Si1 0.272349 0.934010 0.216894
Si Si2 0.859582 0.837913 0.342590
Si Si3 0.095430 0.315225 0.393369
Si Si4 0.800465 0.362040 0.416931
Si Si5 0.431879 0.895446 0.185883
Si Si6 0.800422 0.338810 0.608104
Si Si7 0.628241 0.768151 0.923184
Si Si8 0.675836 0.209210 0.030338
O O1 0.290607 0.847370 0.178816
O O2 0.331363 0.805683 0.385079
O O3 0.413802 0.101593 0.237578
O O4 0.000000 0.000000 0.000000
O O5 0.972918 0.750939 0.543207
O O6 0.045743 0.806788 0.424862
O O7 0.779641 0.030934 0.217566
O O8 0.600471 0.756147 0.166350
O O9 0.293114 0.176948 0.567488
O O10 0.223702 0.488005 0.433280
O O11 0.863986 0.337377 0.152183
O O12 0.719352 0.361909 0.446643
O O13 0.566447 0.370032 0.179172
O O14 0.000000 0.500000 0.500000
O O15 0.416351 0.099179 0.092504
O O16 0.334845 0.822391 0.059951
O O17 0.092520 0.295808 0.840529
#
# Coordination Sequence:
#
# PCOD9005629 Si02
#       8
#     2   2   2   2   2   2   2   2
#     4   8  19  43  64  88 118 156 205 256 289 359
#     4  10  22  38  55  88 123 160 205 243 288 367
#     4  11  22  36  59  93 123 156 199 249 302 356
#     4  12  24  38  60  93 124 157 201 249 299 369
#     4   9  20  41  62  90 115 153 211 249 288 363
#     4  11  23  40  62  90 127 158 199 253 311 346
#     4   9  22  41  63  85 121 161 201 249 298 352
#     4  10  21  38  63  81 124 166 197 240 302 359
#
# _framework density 21.728048000000001
#
# number of rings (size 3 to 8) (size 9 to 14) (size 15 to 20)
#    0.750    1.250    1.250    1.875    1.750    4.500 
#    0.000    1.875    0.000    0.000    0.000    0.000 
#    0.000    0.000    0.000    0.000    0.000    0.000 
#
# Total GULP energy -89242.599253 kJ/mol
# GULP energy per Si atom -5577.662453 kJ/mol
# Density = 2.167859 g / cm^3
# Si number density = 21.728048 Si / 1000 Ang^3
#
#
#
# Elastic Constant Matrix: (Units=GPa)
#
#
# Indices 1 2 3 4 5 6 
#
# 1 87.3257 4.1060 22.4176 9.0518 -4.3960 2.9748
# 2 4.1060 38.3767 9.4782 3.1213 -6.3307 -2.2701
# 3 22.4176 9.4782 74.2796 14.6877 -1.7951 -12.0698
# 4 9.0518 3.1213 14.6877 28.6713 -4.1253 -4.8821
# 5 -4.3960 -6.3307 -1.7951 -4.1253 30.2235 -7.9697
# 6 2.9748 -2.2701 -12.0698 -4.8821 -7.9697 24.8155
#
#
#
# Elastic Compliance Matrix: (Units=1/GPa)
#
#
# Indices 1 2 3 4 5 6 
#
# 1 0.012906 -0.000398 -0.003963 -0.002660 0.000144 -0.003988
# 2 -0.000398 0.028060 -0.002753 -0.000002 0.006547 0.003378
# 3 -0.003963 -0.002753 0.017495 -0.005887 0.001180 0.007953
# 4 -0.002660 -0.000002 -0.005887 0.041048 0.006909 0.007750
# 5 0.000144 0.006547 0.001180 0.006909 0.039501 0.015201
# 6 -0.003988 0.003378 0.007953 0.007750 0.015201 0.051359
#
#
# Mechanical properties :
#
#
# Convention : Reuss Voigt Hill
#
# Bulk Modulus (GPa) = 22.60747 30.22062 26.41404
# Shear Modulus (GPa) = 22.79557 27.67405 25.23481
#
# Velocity S-wave (km/s) = 3.24254 3.57270 3.41162
# Velocity P-wave (km/s) = 4.94430 5.56397 5.26326
#
# Compressibility (1/GPa) = 0.04423316
#
# Stress axis : x y z
#
# Youngs Moduli (GPa) = 77.48201 35.63805 57.15941
#
# Poissons Ratio (x) = 0.01418 0.22652
# Poissons Ratio (y) = 0.03084 0.15736
# Poissons Ratio (z) = 0.30706 0.09811
#
# Static dielectric constant tensor:
#      x y z
#    x 1.812600 0.000130 -0.012160 
#    y 0.000130 1.850090 -0.004250 
#    z -0.012160 -0.004250 1.793980 
# 
# From -- ./inp_files/573601.got.cif
#   From: 2010.05.17/outbox.cif.g08.bks.cpg/sg2_287_cif.got.tgz:573601.got - 2010.06.03 11:33:40.
