data_PCOD9005109
_publ_section_title
;
Structure prediction by ZEFSAII (Michael W. Deem and Ramdas Pophale) SiO2 
 PCOD9005109
Probable space group: P -1
;
_chemical_formula_sum "Si O2"
_cell_formula_units_Z 10
_cell_length_a 10.986308
_cell_length_b 7.378650
_cell_length_c 6.852120
_cell_angle_alpha 97.383633
_cell_angle_beta 91.184276
_cell_angle_gamma 39.534447
_cell_volume 347.924503
_symmetry_space_group_name_H-M "P -1"
_symmetry_group_IT_number 2
_symmetry_cell_setting 'triclinic'
loop_
_space_group_symop_operation_xyz
x,y,z
-x,-y,-z
loop_
_atom_site_type_symbol
_atom_site_label
_atom_site_fract_x
_atom_site_fract_y
_atom_site_fract_z
Si Si1 0.268485 0.037202 0.877797
Si Si2 0.579302 0.211916 0.544533
Si Si3 0.178502 0.462263 0.205826
Si Si4 0.721278 0.395907 0.093562
Si Si5 0.992254 0.193624 0.399811
O O1 0.396088 0.929307 0.674817
O O2 0.722252 0.821220 0.937905
O O3 0.308572 0.786186 0.921037
O O4 0.047725 0.288785 0.827857
O O5 0.500000 0.500000 0.500000
O O6 0.437623 0.331532 0.731692
O O7 0.793835 0.979570 0.606271
O O8 0.159442 0.505243 0.443227
O O9 0.266664 0.537203 0.111916
O O10 0.916141 0.231604 0.190168
O O11 0.000000 0.000000 0.500000
#
# Coordination Sequence:
#
# PCOD9005109 Si02
#       5
#     2   2   2   2   2
#     4   9  19  37  60  87 125 152 197 252 293 350
#     4   9  18  36  61  88 119 157 195 249 295 349
#     4  10  21  38  60  92 120 155 201 251 292 354
#     4  11  21  40  68  82 120 168 192 241 313 345
#     4  11  20  38  65  88 119 160 204 240 299 365
#
# _framework density 28.741868
#
# number of rings (size 3 to 8) (size 9 to 14) (size 15 to 20)
#    0.000    2.000    6.000    0.600    0.000    0.800 
#    0.000   17.000    0.000    0.000    0.000    0.000 
#    0.000    0.000    0.000    0.000    0.000    0.000 
#
# Total GULP energy -56180.343153 kJ/mol
# GULP energy per Si atom -5618.034315 kJ/mol
# Density = 2.867645 g / cm^3
# Si number density = 28.741868 Si / 1000 Ang^3
#
#
#
# Elastic Constant Matrix: (Units=GPa)
#
#
# Indices 1 2 3 4 5 6 
#
# 1 110.1622 37.6332 34.5056 11.0365 26.9665 31.4835
# 2 37.6332 126.3165 64.5549 22.3569 8.2095 -7.6669
# 3 34.5056 64.5549 147.0754 26.8723 22.9970 14.4633
# 4 11.0365 22.3569 26.8723 64.8446 1.9425 12.4420
# 5 26.9665 8.2095 22.9970 1.9425 50.9434 8.6272
# 6 31.4835 -7.6669 14.4633 12.4420 8.6272 42.8495
#
#
#
# Elastic Compliance Matrix: (Units=1/GPa)
#
#
# Indices 1 2 3 4 5 6 
#
# 1 0.015340 -0.005465 0.000556 0.001462 -0.005558 -0.011742
# 2 -0.005465 0.013074 -0.004982 -0.003220 0.001696 0.008630
# 3 0.000556 -0.004982 0.010050 -0.001769 -0.003368 -0.003500
# 4 0.001462 -0.003220 -0.001769 0.018243 0.000956 -0.006543
# 5 -0.005558 0.001696 -0.003368 0.000956 0.023702 0.000474
# 6 -0.011742 0.008630 -0.003500 -0.006543 0.000474 0.036495
#
#
# Mechanical properties :
#
#
# Convention : Reuss Voigt Hill
#
# Bulk Modulus (GPa) = 53.52594 72.99350 63.25972
# Shear Modulus (GPa) = 34.98663 48.18485 41.58574
#
# Velocity S-wave (km/s) = 3.49273 4.09891 3.80790
# Velocity P-wave (km/s) = 5.91007 6.91757 6.43357
#
# Compressibility (1/GPa) = 0.01868253
#
# Stress axis : x y z
#
# Youngs Moduli (GPa) = 65.18929 76.48625 99.50677
#
# Poissons Ratio (x) = 0.41798 -0.05535
# Poissons Ratio (y) = 0.35625 0.49575
# Poissons Ratio (z) = -0.03626 0.38106
#
# Static dielectric constant tensor:
#      x y z
#    x 2.289430 0.044620 0.002210 
#    y 0.044620 2.285720 -0.011010 
#    z 0.002210 -0.011010 2.163000 
# 
# From -- ./inp_files/318511.got.cif
#   From: 2010.05.17/outbox.cif.g08.bks.cpg/sg2_160_cif.got.tgz:318511.got - 2010.06.03 11:33:40.
