data_PCOD9005564
_publ_section_title
;
Structure prediction by ZEFSAII (Michael W. Deem and Ramdas Pophale) SiO2 
 PCOD9005564
Probable space group: P -1
;
_chemical_formula_sum "Si O2"
_cell_formula_units_Z 16
_cell_length_a 23.957813
_cell_length_b 16.743396
_cell_length_c 5.508539
_cell_angle_alpha 96.766927
_cell_angle_beta 106.704457
_cell_angle_gamma 22.584509
_cell_volume 744.533719
_symmetry_space_group_name_H-M "P -1"
_symmetry_group_IT_number 2
_symmetry_cell_setting 'triclinic'
loop_
_space_group_symop_operation_xyz
x,y,z
-x,-y,-z
loop_
_atom_site_type_symbol
_atom_site_label
_atom_site_fract_x
_atom_site_fract_y
_atom_site_fract_z
Si Si1 0.574832 0.279224 0.436981
Si Si2 0.759830 0.557345 0.189180
Si Si3 0.143517 0.205231 0.930811
Si Si4 0.693960 0.737690 0.670889
Si Si5 0.567247 0.120537 0.143035
Si Si6 0.889886 0.920101 0.371319
Si Si7 0.646326 0.311607 0.924657
Si Si8 0.153458 0.313998 0.375966
O O1 0.549446 0.217968 0.342278
O O2 0.624574 0.254361 0.743073
O O3 0.407485 0.543890 0.255134
O O4 0.734122 0.097644 0.408358
O O5 0.741217 0.635295 0.436682
O O6 0.942923 0.284465 0.344978
O O7 0.739682 0.630966 0.935387
O O8 0.609149 0.689151 0.060789
O O9 0.089694 0.183728 0.815002
O O10 0.018411 0.420176 0.683936
O O11 0.329304 0.978674 0.990290
O O12 0.125802 0.263139 0.198878
O O13 0.779456 0.714304 0.765426
O O14 0.500000 0.000000 0.500000
O O15 0.692396 0.892801 0.327354
O O16 0.823314 0.080946 0.189138
O O17 0.500000 0.500000 0.000000
#
# Coordination Sequence:
#
# PCOD9005564 Si02
#       8
#     2   2   2   2   2   2   2   2
#     4   9  20  38  67  94 124 161 211 265 325 389
#     4  12  27  42  64  94 130 178 220 268 324 384
#     4  10  22  37  57  91 121 167 219 271 320 371
#     4  12  25  43  62  87 130 182 227 267 313 381
#     4  11  23  39  60  89 128 167 216 265 323 383
#     4  10  21  38  62  93 128 167 213 267 319 393
#     4   9  18  38  66  96 122 158 205 264 329 388
#     4  11  22  36  61  86 124 171 221 274 316 371
#
# _framework density 21.489961000000001
#
# number of rings (size 3 to 8) (size 9 to 14) (size 15 to 20)
#    0.000    1.500    2.500    2.250    3.500    4.000 
#    0.000    0.625    0.000    6.750    0.000    0.000 
#    0.000    0.000    0.000    0.000    0.000    0.000 
#
# Total GULP energy -89275.107516 kJ/mol
# GULP energy per Si atom -5579.694220 kJ/mol
# Density = 2.144105 g / cm^3
# Si number density = 21.489961 Si / 1000 Ang^3
#
#
#
# Elastic Constant Matrix: (Units=GPa)
#
#
# Indices 1 2 3 4 5 6 
#
# 1 55.6124 25.7568 27.3397 -20.7872 11.6386 -5.5021
# 2 25.7568 94.3674 60.5135 -16.3727 10.2983 9.7631
# 3 27.3397 60.5135 129.2377 -38.1845 -5.9195 4.4834
# 4 -20.7872 -16.3727 -38.1845 67.0149 2.7411 4.2346
# 5 11.6386 10.2983 -5.9195 2.7411 32.3946 -6.6742
# 6 -5.5021 9.7631 4.4834 4.2346 -6.6742 26.8029
#
#
#
# Elastic Compliance Matrix: (Units=1/GPa)
#
#
# Indices 1 2 3 4 5 6 
#
# 1 0.025071 -0.003993 -0.002296 0.005547 -0.007767 0.004175
# 2 -0.003993 0.018333 -0.007947 -0.000481 -0.007442 -0.007946
# 3 -0.002296 -0.007947 0.013596 0.004815 0.005589 0.000780
# 4 0.005547 -0.000481 0.004815 0.019621 -0.003325 -0.003419
# 5 -0.007767 -0.007442 0.005589 -0.003325 0.039501 0.010543
# 6 0.004175 -0.007946 0.000780 -0.003419 0.010543 0.044096
#
#
# Mechanical properties :
#
#
# Convention : Reuss Voigt Hill
#
# Bulk Modulus (GPa) = 35.05111 56.27084 45.66097
# Shear Modulus (GPa) = 25.22712 36.28298 30.75505
#
# Velocity S-wave (km/s) = 3.42994 4.11343 3.78714
# Velocity P-wave (km/s) = 5.65967 6.98584 6.35743
#
# Compressibility (1/GPa) = 0.02852977
#
# Stress axis : x y z
#
# Youngs Moduli (GPa) = 39.88606 54.54498 73.55028
#
# Poissons Ratio (x) = 0.21778 0.16887
# Poissons Ratio (y) = 0.15925 0.58451
# Poissons Ratio (z) = 0.09158 0.43348
#
# Static dielectric constant tensor:
#      x y z
#    x 1.785660 0.008410 -0.058330 
#    y 0.008410 1.849940 0.009940 
#    z -0.058330 0.009940 1.869430 
# 
# From -- ./inp_files/109594.got.cif
#   From: 2010.05.17/outbox.cif.g08.bks.cpg/sg2_55_cif.got.tgz:109594.got - 2010.06.03 11:33:40.
