data_PCOD9005661
_publ_section_title
;
Structure prediction by ZEFSAII (Michael W. Deem and Ramdas Pophale) SiO2 
 PCOD9005661
Probable space group: P -1
;
_chemical_formula_sum "Si O2"
_cell_formula_units_Z 16
_cell_length_a 10.028928
_cell_length_b 6.768118
_cell_length_c 21.756199
_cell_angle_alpha 114.815433
_cell_angle_beta 136.645111
_cell_angle_gamma 46.238946
_cell_volume 721.817195
_symmetry_space_group_name_H-M "P -1"
_symmetry_group_IT_number 2
_symmetry_cell_setting 'triclinic'
loop_
_space_group_symop_operation_xyz
x,y,z
-x,-y,-z
loop_
_atom_site_type_symbol
_atom_site_label
_atom_site_fract_x
_atom_site_fract_y
_atom_site_fract_z
Si Si1 0.026551 0.256856 0.299614
Si Si2 0.289621 0.711537 0.708204
Si Si3 0.311893 0.702179 0.908342
Si Si4 0.410193 0.235709 0.092140
Si Si5 0.041603 0.115425 0.968920
Si Si6 0.704795 0.198127 0.420018
Si Si7 0.451437 0.171170 0.643330
Si Si8 0.312439 0.334099 0.488432
O O1 0.099474 0.435041 0.379980
O O2 0.970653 0.147371 0.326698
O O3 0.795420 0.389856 0.191954
O O4 0.271709 0.006790 0.314072
O O5 0.409515 0.819634 0.800981
O O6 0.330193 0.743407 0.656120
O O7 0.409144 0.384682 0.708376
O O8 0.447790 0.798709 0.927579
O O9 0.070026 0.950802 0.896402
O O10 0.500000 0.500000 0.000000
O O11 0.182009 0.561356 0.063668
O O12 0.294025 0.081610 0.045230
O O13 0.000000 0.000000 0.000000
O O14 0.600577 0.476223 0.460003
O O15 0.594572 0.043603 0.380821
O O16 0.000000 0.000000 0.500000
O O17 0.260932 0.349370 0.546192
O O18 0.500000 0.000000 0.500000
#
# Coordination Sequence:
#
# PCOD9005661 Si02
#       8
#     2   2   2   2   2   2   2   2
#     4  10  21  38  63  88 121 169 210 256 318 381
#     4  10  22  41  60  92 129 165 208 263 324 378
#     4  11  22  41  63  91 127 166 211 268 323 377
#     4  10  23  41  64  92 124 167 212 264 324 389
#     4  11  22  41  68  89 122 165 214 266 326 384
#     4  11  22  38  64  96 131 169 217 264 321 386
#     4  10  21  40  66  91 131 166 212 265 316 385
#     4   9  20  39  62  88 128 169 208 263 320 376
#
# _framework density 22.166277999999998
#
# number of rings (size 3 to 8) (size 9 to 14) (size 15 to 20)
#    0.000    1.750    1.250    2.625    0.000    6.000 
#    2.250    6.250    8.250    0.000    0.000    0.000 
#    0.000    0.000    0.000    0.000    0.000    0.000 
#
# Total GULP energy -89144.337660 kJ/mol
# GULP energy per Si atom -5571.521104 kJ/mol
# Density = 2.211583 g / cm^3
# Si number density = 22.166278 Si / 1000 Ang^3
#
#
#
# Elastic Constant Matrix: (Units=GPa)
#
#
# Indices 1 2 3 4 5 6 
#
# 1 140.7558 22.1791 34.7385 10.5156 -5.3152 4.0354
# 2 22.1791 58.3600 5.4058 10.1486 -3.3008 9.7196
# 3 34.7385 5.4058 113.3914 14.2122 -14.1310 16.2094
# 4 10.5156 10.1486 14.2122 20.8700 -6.5563 5.4586
# 5 -5.3152 -3.3008 -14.1310 -6.5563 32.1279 -1.0500
# 6 4.0354 9.7196 16.2094 5.4586 -1.0500 34.5369
#
#
#
# Elastic Compliance Matrix: (Units=1/GPa)
#
#
# Indices 1 2 3 4 5 6 
#
# 1 0.008214 -0.002850 -0.002394 -0.001517 -0.000257 0.001198
# 2 -0.002850 0.020322 0.001690 -0.008153 0.000536 -0.004874
# 3 -0.002394 0.001690 0.011182 -0.004926 0.003542 -0.004558
# 4 -0.001517 -0.008153 -0.004926 0.059929 0.008830 -0.004420
# 5 -0.000257 0.000536 0.003542 0.008830 0.034428 -0.002132
# 6 0.001198 -0.004874 -0.004558 -0.004420 -0.002132 0.032959
#
#
# Mechanical properties :
#
#
# Convention : Reuss Voigt Hill
#
# Bulk Modulus (GPa) = 30.66574 48.57267 39.61920
# Shear Modulus (GPa) = 27.02543 34.18588 30.60566
#
# Velocity S-wave (km/s) = 3.49551 3.93141 3.71985
# Velocity P-wave (km/s) = 5.49144 6.52444 6.03010
#
# Compressibility (1/GPa) = 0.03260968
#
# Stress axis : x y z
#
# Youngs Moduli (GPa) = 121.74950 49.20875 89.42893
#
# Poissons Ratio (x) = 0.14025 0.21406
# Poissons Ratio (y) = 0.34699 -0.15112
# Poissons Ratio (z) = 0.29142 -0.08316
#
# Static dielectric constant tensor:
#      x y z
#    x 3.424840 0.140450 0.551150 
#    y 0.140450 1.913860 -0.073480 
#    z 0.551150 -0.073480 2.589640 
# 
# From -- ./inp_files/585795.got.cif
#   From: 2010.05.17/outbox.cif.g08.bks.cpg/sg2_293_cif.got.tgz:585795.got - 2010.06.03 11:33:40.
