data_PCOD9005625
_publ_section_title
;
Structure prediction by ZEFSAII (Michael W. Deem and Ramdas Pophale) SiO2 
 PCOD9005625
Probable space group: P -1
;
_chemical_formula_sum "Si O2"
_cell_formula_units_Z 14
_cell_length_a 13.505754
_cell_length_b 12.812283
_cell_length_c 11.762419
_cell_angle_alpha 49.863980
_cell_angle_beta 25.861706
_cell_angle_gamma 40.478642
_cell_volume 570.605565
_symmetry_space_group_name_H-M "P -1"
_symmetry_group_IT_number 2
_symmetry_cell_setting 'triclinic'
loop_
_space_group_symop_operation_xyz
x,y,z
-x,-y,-z
loop_
_atom_site_type_symbol
_atom_site_label
_atom_site_fract_x
_atom_site_fract_y
_atom_site_fract_z
Si Si1 0.496475 0.293789 0.443825
Si Si2 0.128575 0.654674 0.306088
Si Si3 0.717036 0.896499 0.082567
Si Si4 0.258746 0.898331 0.884736
Si Si5 0.638107 0.483327 0.053419
Si Si6 0.348231 0.219079 0.115182
Si Si7 0.954612 0.379562 0.204402
O O1 0.457833 0.184860 0.651556
O O2 0.498882 0.211022 0.378434
O O3 0.730205 0.328933 0.146558
O O4 0.288760 0.481993 0.565206
O O5 0.374857 0.527746 0.220643
O O6 0.856688 0.737006 0.599179
O O7 0.199843 0.786086 0.103121
O O8 0.134322 0.571961 0.239522
O O9 0.711647 0.987229 0.139157
O O10 0.583949 0.037409 0.026106
O O11 0.010594 0.752091 0.832486
O O12 0.000000 0.000000 0.000000
O O13 0.569827 0.648884 0.063209
O O14 0.181287 0.261503 0.142740
O O15 0.000000 0.500000 0.000000
#
# Coordination Sequence:
#
# PCOD9005625 Si02
#       7
#     2   2   2   2   2   2   2
#     4  10  22  43  68  96 137 177 223 270 332 408
#     4  10  21  38  63 101 136 169 227 271 332 398
#     4  11  24  43  68 100 136 175 226 281 332 394
#     4  11  23  42  66 102 139 172 223 280 338 394
#     4  10  21  39  64 101 133 173 227 270 327 407
#     4  12  22  41  72  95 134 182 219 284 333 384
#     4  10  24  44  66  97 135 179 228 269 336 408
#
# _framework density 24.535336000000001
#
# number of rings (size 3 to 8) (size 9 to 14) (size 15 to 20)
#    0.000    1.429    2.857    2.143    0.000    5.714 
#    0.000   10.714    0.000    0.000    0.000    0.000 
#    0.000    0.000    0.000    0.000    0.000    0.000 
#
# Total GULP energy -77989.201017 kJ/mol
# GULP energy per Si atom -5570.657215 kJ/mol
# Density = 2.447949 g / cm^3
# Si number density = 24.535336 Si / 1000 Ang^3
#
#
#
# Elastic Constant Matrix: (Units=GPa)
#
#
# Indices 1 2 3 4 5 6 
#
# 1 48.6105 18.0490 15.7214 7.7071 17.9661 -13.1068
# 2 18.0490 168.7420 46.5867 -2.9670 11.6851 9.3971
# 3 15.7214 46.5867 52.2904 -0.8046 23.1527 6.9320
# 4 7.7071 -2.9670 -0.8046 62.6327 1.6629 16.9749
# 5 17.9661 11.6851 23.1527 1.6629 28.5136 3.7260
# 6 -13.1068 9.3971 6.9320 16.9749 3.7260 35.2464
#
#
#
# Elastic Compliance Matrix: (Units=1/GPa)
#
#
# Indices 1 2 3 4 5 6 
#
# 1 0.039767 -0.003852 -0.000561 -0.010872 -0.025506 0.023857
# 2 -0.003852 0.008548 -0.008847 0.001510 0.006462 -0.003382
# 3 -0.000561 -0.008847 0.040233 0.001920 -0.028319 -0.003693
# 4 -0.010872 0.001510 0.001920 0.021529 0.005478 -0.015770
# 5 -0.025506 0.006462 -0.028319 0.005478 0.073263 -0.016021
# 6 0.023857 -0.003382 -0.003693 -0.015770 -0.016021 0.048160
#
#
# Mechanical properties :
#
#
# Convention : Reuss Voigt Hill
#
# Bulk Modulus (GPa) = 16.12191 47.81746 31.96969
# Shear Modulus (GPa) = 17.94078 37.89758 27.91918
#
# Velocity S-wave (km/s) = 2.70705 3.93442 3.37696
# Velocity P-wave (km/s) = 4.04425 6.33807 5.31634
#
# Compressibility (1/GPa) = 0.06202739
#
# Stress axis : x y z
#
# Youngs Moduli (GPa) = 25.14679 116.98349 24.85551
#
# Poissons Ratio (x) = 0.45065 0.01393
# Poissons Ratio (y) = 0.09687 0.21990
# Poissons Ratio (z) = 0.01410 1.03496
#
# Static dielectric constant tensor:
#      x y z
#    x 2.067650 0.048290 -0.007840 
#    y 0.048290 2.010320 0.024050 
#    z -0.007840 0.024050 2.074950 
# 
# From -- ./inp_files/71212.got.cif
#   From: 2010.05.17/outbox.cif.g08.bks.cpg/sg2_36_cif.got.tgz:71212.got - 2010.06.03 11:33:40.
