data_PCOD9005340
_publ_section_title
;
Structure prediction by ZEFSAII (Michael W. Deem and Ramdas Pophale) SiO2 
 PCOD9005340
Probable space group: P -1
;
_chemical_formula_sum "Si O2"
_cell_formula_units_Z 16
_cell_length_a 9.439652
_cell_length_b 23.562774
_cell_length_c 8.430428
_cell_angle_alpha 31.272663
_cell_angle_beta 48.543526
_cell_angle_gamma 50.120135
_cell_volume 715.723065
_symmetry_space_group_name_H-M "P -1"
_symmetry_group_IT_number 2
_symmetry_cell_setting 'triclinic'
loop_
_space_group_symop_operation_xyz
x,y,z
-x,-y,-z
loop_
_atom_site_type_symbol
_atom_site_label
_atom_site_fract_x
_atom_site_fract_y
_atom_site_fract_z
Si Si1 0.210077 0.822449 0.345524
Si Si2 0.934194 0.335119 0.363353
Si Si3 0.437905 0.386158 0.381692
Si Si4 0.673504 0.040584 0.357512
Si Si5 0.728121 0.244619 0.019852
Si Si6 0.112773 0.420662 0.295001
Si Si7 0.001174 0.898129 0.625258
Si Si8 0.344945 0.528005 0.409269
O O1 0.045059 0.752981 0.582866
O O2 0.398408 0.724889 0.463467
O O3 0.156588 0.885043 0.400181
O O4 0.223910 0.907390 0.989168
O O5 0.116040 0.347820 0.306274
O O6 0.785316 0.294610 0.691744
O O7 0.846602 0.458110 0.071968
O O8 0.256727 0.370880 0.445024
O O9 0.375206 0.426901 0.507035
O O10 0.500000 0.500000 0.000000
O O11 0.638095 0.139279 0.282310
O O12 0.500000 0.000000 0.500000
O O13 0.799688 0.931840 0.605906
O O14 0.925932 0.203931 0.068274
O O15 0.619180 0.347535 0.960280
O O16 0.885197 0.449529 0.439769
O O17 0.000000 0.000000 0.500000
O O18 0.500000 0.500000 0.500000
#
# Coordination Sequence:
#
# PCOD9005340 Si02
#       8
#     2   2   2   2   2   2   2   2
#     4  11  22  43  67  96 127 180 213 263 345 390
#     4   9  19  38  61  88 130 169 220 251 313 387
#     4  12  23  38  64  98 141 173 215 262 316 405
#     4  10  22  42  68  96 123 160 222 283 326 388
#     4   9  20  40  63  90 125 171 210 261 336 377
#     4  10  21  38  61  93 136 180 217 255 311 380
#     4  10  22  44  68  87 123 164 220 280 333 382
#     4  11  23  40  63  93 140 179 213 263 320 394
#
# _framework density 22.355015000000002
#
# number of rings (size 3 to 8) (size 9 to 14) (size 15 to 20)
#    0.000    1.750    1.250    3.750    1.750    2.000 
#    4.500    3.750    0.000    0.000    0.000    0.000 
#    0.000    0.000    0.000    0.000    0.000    0.000 
#
# Total GULP energy -89149.042314 kJ/mol
# GULP energy per Si atom -5571.815145 kJ/mol
# Density = 2.230413 g / cm^3
# Si number density = 22.355015 Si / 1000 Ang^3
#
#
#
# Elastic Constant Matrix: (Units=GPa)
#
#
# Indices 1 2 3 4 5 6 
#
# 1 207.7465 52.7444 28.4017 -18.9972 9.6910 -3.9999
# 2 52.7444 101.3913 3.8576 -19.1906 -0.0698 17.7727
# 3 28.4017 3.8576 44.2374 -14.8801 -1.1123 0.5317
# 4 -18.9972 -19.1906 -14.8801 26.9725 -0.5692 4.0527
# 5 9.6910 -0.0698 -1.1123 -0.5692 36.8391 -6.3978
# 6 -3.9999 17.7727 0.5317 4.0527 -6.3978 35.2452
#
#
#
# Elastic Compliance Matrix: (Units=1/GPa)
#
#
# Indices 1 2 3 4 5 6 
#
# 1 0.006366 -0.003766 -0.004119 -0.000879 -0.001380 0.002534
# 2 -0.003766 0.015891 0.005604 0.013257 -0.000362 -0.010115
# 3 -0.004119 0.005604 0.031346 0.019269 0.001342 -0.005738
# 4 -0.000879 0.013257 0.019269 0.058599 -0.000677 -0.013937
# 5 -0.001380 -0.000362 0.001342 -0.000677 0.028449 0.005248
# 6 0.002534 -0.010115 -0.005738 -0.013937 0.005248 0.036403
#
#
# Mechanical properties :
#
#
# Convention : Reuss Voigt Hill
#
# Bulk Modulus (GPa) = 20.39169 58.15363 39.27266
# Shear Modulus (GPa) = 25.25749 37.70279 31.48014
#
# Velocity S-wave (km/s) = 3.36495 4.11121 3.75666
# Velocity P-wave (km/s) = 4.92328 6.97182 6.03511
#
# Compressibility (1/GPa) = 0.04903957
#
# Stress axis : x y z
#
# Youngs Moduli (GPa) = 157.09131 62.92922 31.90250
#
# Poissons Ratio (x) = 0.23701 0.13141
# Poissons Ratio (y) = 0.59164 -0.17879
# Poissons Ratio (z) = 0.64709 -0.35267
#
# Static dielectric constant tensor:
#      x y z
#    x 1.859330 0.033950 0.005870 
#    y 0.033950 1.950000 -0.001070 
#    z 0.005870 -0.001070 1.897590 
# 
# From -- ./inp_files/225811.got.cif
#   From: 2010.05.17/outbox.cif.g08.bks.cpg/sg2_113_cif.got.tgz:225811.got - 2010.06.03 11:33:40.
