data_PCOD9005272
_publ_section_title
;
Structure prediction by ZEFSAII (Michael W. Deem and Ramdas Pophale) SiO2 
 PCOD9005272
Probable space group: P -1
;
_chemical_formula_sum "Si O2"
_cell_formula_units_Z 16
_cell_length_a 14.184346
_cell_length_b 23.584629
_cell_length_c 20.323750
_cell_angle_alpha 160.609577
_cell_angle_beta 22.043235
_cell_angle_gamma 147.876426
_cell_volume 826.399449
_symmetry_space_group_name_H-M "P -1"
_symmetry_group_IT_number 2
_symmetry_cell_setting 'triclinic'
loop_
_space_group_symop_operation_xyz
x,y,z
-x,-y,-z
loop_
_atom_site_type_symbol
_atom_site_label
_atom_site_fract_x
_atom_site_fract_y
_atom_site_fract_z
Si Si1 0.435960 0.335962 0.531795
Si Si2 0.720848 0.975583 0.490192
Si Si3 0.714760 0.446172 0.858251
Si Si4 0.157480 0.011174 0.342790
Si Si5 0.024841 0.300766 0.090721
Si Si6 0.472139 0.166884 0.746557
Si Si7 0.298216 0.344138 0.776963
Si Si8 0.690758 0.389624 0.202416
O O1 0.300575 0.172037 0.427468
O O2 0.741264 0.277954 0.261266
O O3 0.378088 0.390514 0.704375
O O4 0.345296 0.500232 0.721402
O O5 0.605567 0.860861 0.492234
O O6 0.509407 0.118478 0.745650
O O7 0.949283 0.040500 0.450235
O O8 0.842771 0.838436 0.203138
O O9 0.714047 0.249017 0.659671
O O10 0.961161 0.511093 0.743745
O O11 0.500000 0.500000 0.000000
O O12 0.620866 0.547361 0.097143
O O13 0.000000 0.000000 0.500000
O O14 0.333243 0.813549 0.006315
O O15 0.199916 0.279929 0.020565
O O16 0.500000 0.000000 0.500000
O O17 0.988293 0.375691 0.013869
O O18 0.500000 0.500000 0.500000
#
# Coordination Sequence:
#
# PCOD9005272 Si02
#       8
#     2   2   2   2   2   2   2   2
#     4  12  23  41  64  89 139 164 206 267 323 380
#     4   9  18  36  60  86 119 160 213 252 305 377
#     4   9  18  36  61  82 116 156 208 251 300 376
#     4  11  23  40  63  94 130 171 211 256 322 378
#     4   9  20  38  57  91 120 156 211 259 311 372
#     4   9  18  35  62  87 114 155 204 260 314 364
#     4  10  21  38  61  90 121 168 204 262 318 375
#     4  11  24  41  63  94 128 169 224 257 310 385
#
# _framework density 19.361097000000001
#
# number of rings (size 3 to 8) (size 9 to 14) (size 15 to 20)
#    0.000    2.000    2.500    3.375    1.750    2.000 
#    6.750    3.125    0.000    0.000    0.000    0.000 
#    0.000    0.000    0.000    0.000    0.000    0.000 
#
# Total GULP energy -89138.664856 kJ/mol
# GULP energy per Si atom -5571.166553 kJ/mol
# Density = 1.931703 g / cm^3
# Si number density = 19.361097 Si / 1000 Ang^3
#
#
#
# Elastic Constant Matrix: (Units=GPa)
#
#
# Indices 1 2 3 4 5 6 
#
# 1 150.7432 49.9810 17.8589 8.4589 -10.0078 -16.2312
# 2 49.9810 100.0769 1.2326 12.6143 -2.2497 8.4622
# 3 17.8589 1.2326 20.2145 9.5480 0.7764 -0.4913
# 4 8.4589 12.6143 9.5480 23.5283 -2.4503 0.8000
# 5 -10.0078 -2.2497 0.7764 -2.4503 29.8062 6.9193
# 6 -16.2312 8.4622 -0.4913 0.8000 6.9193 35.1327
#
#
#
# Elastic Compliance Matrix: (Units=1/GPa)
#
#
# Indices 1 2 3 4 5 6 
#
# 1 0.010403 -0.005961 -0.010579 0.003805 0.002344 0.005546
# 2 -0.005961 0.014468 0.008469 -0.008906 -0.000512 -0.005817
# 3 -0.010579 0.008469 0.073057 -0.030922 -0.006445 -0.003932
# 4 0.003805 -0.008906 -0.030922 0.059055 0.006049 0.000934
# 5 0.002344 -0.000512 -0.006445 0.006049 0.036401 -0.006191
# 6 0.005546 -0.005817 -0.003932 0.000934 -0.006191 0.033570
#
#
# Mechanical properties :
#
#
# Convention : Reuss Voigt Hill
#
# Bulk Modulus (GPa) = 12.22716 45.46441 28.84579
# Shear Modulus (GPa) = 18.49402 31.15758 24.82580
#
# Velocity S-wave (km/s) = 3.09401 4.01595 3.58474
# Velocity P-wave (km/s) = 4.36954 6.71097 5.66260
#
# Compressibility (1/GPa) = 0.08178512
#
# Stress axis : x y z
#
# Youngs Moduli (GPa) = 96.12771 69.11834 13.68795
#
# Poissons Ratio (x) = 0.41201 0.14481
# Poissons Ratio (y) = 0.57301 -0.11592
# Poissons Ratio (z) = 1.01697 -0.58536
#
# Static dielectric constant tensor:
#      x y z
#    x 1.705220 -0.012230 -0.027760 
#    y -0.012230 1.729630 0.048760 
#    z -0.027760 0.048760 1.689820 
# 
# From -- ./inp_files/353703.got.cif
#   From: 2010.05.17/outbox.cif.g08.bks.cpg/sg2_177_cif.got.tgz:353703.got - 2010.06.03 11:33:40.
