data_PCOD9005161
_publ_section_title
;
Structure prediction by ZEFSAII (Michael W. Deem and Ramdas Pophale) SiO2 
 PCOD9005161
Probable space group: P -1
;
_chemical_formula_sum "Si O2"
_cell_formula_units_Z 16
_cell_length_a 10.362498
_cell_length_b 10.827492
_cell_length_c 11.168317
_cell_angle_alpha 112.642279
_cell_angle_beta 113.760567
_cell_angle_gamma 33.095956
_cell_volume 623.412650
_symmetry_space_group_name_H-M "P -1"
_symmetry_group_IT_number 2
_symmetry_cell_setting 'triclinic'
loop_
_space_group_symop_operation_xyz
x,y,z
-x,-y,-z
loop_
_atom_site_type_symbol
_atom_site_label
_atom_site_fract_x
_atom_site_fract_y
_atom_site_fract_z
Si Si1 0.082809 0.831547 0.108096
Si Si2 0.380481 0.234524 0.056810
Si Si3 0.661825 0.464108 0.460135
Si Si4 0.991043 0.395618 0.122228
Si Si5 0.026813 0.115263 0.633590
Si Si6 0.604034 0.072810 0.454126
Si Si7 0.866127 0.716994 0.605901
Si Si8 0.377857 0.666269 0.841322
O O1 0.056160 0.841198 0.247029
O O2 0.378927 0.596807 0.114622
O O3 0.876850 0.103391 0.100822
O O4 0.984982 0.766924 0.993510
O O5 0.186207 0.353115 0.132256
O O6 0.524303 0.262087 0.133684
O O7 0.251858 0.357903 0.927250
O O8 0.500000 0.000000 0.000000
O O9 0.500000 0.500000 0.500000
O O10 0.525363 0.699337 0.457030
O O11 0.705515 0.347517 0.313673
O O12 0.864211 0.345843 0.587451
O O13 0.989505 0.370397 0.252576
O O14 0.288938 0.970676 0.650321
O O15 0.000000 0.000000 0.500000
O O16 0.400434 0.118447 0.388590
O O17 0.809497 0.877538 0.552197
O O18 0.000000 0.500000 0.500000
#
# Coordination Sequence:
#
# PCOD9005161 Si02
#       8
#     2   2   2   2   2   2   2   2
#     4  11  22  39  61 105 145 180 227 292 370 433
#     4  10  21  38  61 103 138 179 230 297 368 429
#     4  12  22  38  64 104 143 182 230 295 370 425
#     4  10  24  39  65  94 138 184 238 301 361 425
#     4  12  22  38  68 106 149 180 225 302 367 435
#     4  11  26  45  70 102 140 190 245 297 364 438
#     4  11  27  51  69  96 139 199 248 298 350 441
#     4  11  22  37  60  98 149 181 219 285 367 431
#
# _framework density 25.665184
#
# number of rings (size 3 to 8) (size 9 to 14) (size 15 to 20)
#    0.000    1.000    5.000    0.750    3.500    6.000 
#    0.000    0.000    0.000    7.500    0.000    0.000 
#    0.000    0.000    0.000    0.000    0.000    0.000 
#
# Total GULP energy -89400.629056 kJ/mol
# GULP energy per Si atom -5587.539316 kJ/mol
# Density = 2.560677 g / cm^3
# Si number density = 25.665184 Si / 1000 Ang^3
#
#
#
# Elastic Constant Matrix: (Units=GPa)
#
#
# Indices 1 2 3 4 5 6 
#
# 1 53.1778 -6.0115 -6.0675 -2.1269 -9.1317 -22.6594
# 2 -6.0115 175.0292 47.3932 -8.1107 -8.3155 17.2874
# 3 -6.0675 47.3932 114.3104 4.3888 -14.6257 1.8374
# 4 -2.1269 -8.1107 4.3888 42.5103 2.4583 -1.8505
# 5 -9.1317 -8.3155 -14.6257 2.4583 28.0595 6.0258
# 6 -22.6594 17.2874 1.8374 -1.8505 6.0258 49.8254
#
#
#
# Elastic Compliance Matrix: (Units=1/GPa)
#
#
# Indices 1 2 3 4 5 6 
#
# 1 0.024665 -0.000402 0.002121 0.001010 0.006668 0.010509
# 2 -0.000402 0.006794 -0.002741 0.001401 0.000866 -0.002491
# 3 0.002121 -0.002741 0.010754 -0.001809 0.005472 0.000790
# 4 0.001010 0.001401 -0.001809 0.024233 -0.002591 0.001254
# 5 0.006668 0.000866 0.005472 -0.002591 0.041705 -0.002610
# 6 0.010509 -0.002491 0.000790 0.001254 -0.002610 0.026047
#
#
# Mechanical properties :
#
#
# Convention : Reuss Voigt Hill
#
# Bulk Modulus (GPa) = 24.89412 45.90510 35.39961
# Shear Modulus (GPa) = 33.41567 44.55927 38.98747
#
# Velocity S-wave (km/s) = 3.61222 4.17126 3.90177
# Velocity P-wave (km/s) = 5.20750 6.41282 5.84133
#
# Compressibility (1/GPa) = 0.04017012
#
# Stress axis : x y z
#
# Youngs Moduli (GPa) = 40.54334 147.19190 92.98853
#
# Poissons Ratio (x) = 0.05911 -0.19724
# Poissons Ratio (y) = 0.01628 0.25488
# Poissons Ratio (z) = -0.08600 0.40344
#
# Static dielectric constant tensor:
#      x y z
#    x 2.117650 -0.103480 0.014910 
#    y -0.103480 2.206640 -0.036910 
#    z 0.014910 -0.036910 1.973600 
# 
# From -- ./inp_files/428763.got.cif
#   From: 2010.05.17/outbox.cif.g08.bks.cpg/sg2_215_cif.got.tgz:428763.got - 2010.06.03 11:33:40.
