data_PCOD9005112
_publ_section_title
;
Structure prediction by ZEFSAII (Michael W. Deem and Ramdas Pophale) SiO2 
 PCOD9005112
Probable space group: P -1
;
_chemical_formula_sum "Si O2"
_cell_formula_units_Z 14
_cell_length_a 20.772557
_cell_length_b 11.317252
_cell_length_c 11.268447
_cell_angle_alpha 23.814083
_cell_angle_beta 148.843762
_cell_angle_gamma 150.964822
_cell_volume 497.585562
_symmetry_space_group_name_H-M "P -1"
_symmetry_group_IT_number 2
_symmetry_cell_setting 'triclinic'
loop_
_space_group_symop_operation_xyz
x,y,z
-x,-y,-z
loop_
_atom_site_type_symbol
_atom_site_label
_atom_site_fract_x
_atom_site_fract_y
_atom_site_fract_z
Si Si1 0.729758 0.323743 0.392291
Si Si2 0.678012 0.052223 0.252797
Si Si3 0.610716 0.477494 0.285548
Si Si4 0.656786 0.643597 0.794129
Si Si5 0.940399 0.643101 0.875499
Si Si6 0.983408 0.254716 0.493464
Si Si7 0.361485 0.905638 0.116052
O O1 0.703337 0.363994 0.451874
O O2 0.880655 0.614041 0.333237
O O3 0.733185 0.992814 0.660926
O O4 0.617273 0.400853 0.069343
O O5 0.831680 0.069427 0.480056
O O6 0.590290 0.779034 0.461741
O O7 0.703690 0.411810 0.002664
O O8 0.611720 0.974185 0.089443
O O9 0.555404 0.215230 0.547023
O O10 0.500000 0.500000 0.000000
O O11 0.680066 0.835686 0.121568
O O12 0.776063 0.434445 0.802685
O O13 0.988006 0.023593 0.607100
O O14 0.000000 0.500000 0.000000
O O15 0.986822 0.568838 0.144830
#
# Coordination Sequence:
#
# PCOD9005112 Si02
#       7
#     2   2   2   2   2   2   2
#     4  11  23  39  59  90 126 166 201 248 305 345
#     4  10  21  38  60  92 121 165 205 236 295 352
#     4  12  25  43  67  91 118 154 203 259 316 367
#     4  10  22  38  61  85 129 166 204 244 282 364
#     4  11  20  33  54  85 124 162 197 239 294 360
#     4  11  21  33  55  88 127 161 204 237 282 364
#     4  11  22  40  65  89 121 155 198 255 303 362
#
# _framework density 28.135866
#
# number of rings (size 3 to 8) (size 9 to 14) (size 15 to 20)
#    0.000    1.143    0.000    8.571    0.000    3.429 
#    0.000    0.000    0.000   17.143    0.000    0.000 
#    0.000    0.000    0.000    0.000    0.000    0.000 
#
# Total GULP energy -78262.552975 kJ/mol
# GULP energy per Si atom -5590.182355 kJ/mol
# Density = 2.807183 g / cm^3
# Si number density = 28.135866 Si / 1000 Ang^3
#
#
#
# Elastic Constant Matrix: (Units=GPa)
#
#
# Indices 1 2 3 4 5 6 
#
# 1 111.2739 49.0240 48.7131 10.8252 -9.7368 -30.3734
# 2 49.0240 138.7219 55.1159 -22.3517 13.6838 -46.8426
# 3 48.7131 55.1159 211.2513 -15.2315 -27.2514 -21.2463
# 4 10.8252 -22.3517 -15.2315 54.7448 -14.1090 12.4640
# 5 -9.7368 13.6838 -27.2514 -14.1090 60.6660 -4.7119
# 6 -30.3734 -46.8426 -21.2463 12.4640 -4.7119 47.1357
#
#
#
# Elastic Compliance Matrix: (Units=1/GPa)
#
#
# Indices 1 2 3 4 5 6 
#
# 1 0.013533 -0.002745 -0.001991 -0.005584 0.001117 0.006684
# 2 -0.002745 0.012682 -0.001977 0.002358 -0.002940 0.009026
# 3 -0.001991 -0.001977 0.006250 0.002372 0.003430 -0.000715
# 4 -0.005584 0.002358 0.002372 0.023546 0.004652 -0.005947
# 5 0.001117 -0.002940 0.003430 0.004652 0.019957 0.000110
# 6 0.006684 0.009026 -0.000715 -0.005947 0.000110 0.035753
#
#
# Mechanical properties :
#
#
# Convention : Reuss Voigt Hill
#
# Bulk Modulus (GPa) = 52.52178 85.21698 68.86938
# Shear Modulus (GPa) = 38.02443 53.06891 45.54667
#
# Velocity S-wave (km/s) = 3.68021 4.34771 4.02781
# Velocity P-wave (km/s) = 6.06352 7.45365 6.79423
#
# Compressibility (1/GPa) = 0.01903972
#
# Stress axis : x y z
#
# Youngs Moduli (GPa) = 73.89334 78.85268 159.99214
#
# Poissons Ratio (x) = 0.21642 0.31852
# Poissons Ratio (y) = 0.20280 0.31636
# Poissons Ratio (z) = 0.14711 0.15592
#
# Static dielectric constant tensor:
#      x y z
#    x 2.257420 0.056950 0.000810 
#    y 0.056950 2.190890 0.089030 
#    z 0.000810 0.089030 2.119590 
# 
# From -- ./inp_files/426110.got.cif
#   From: 2010.05.17/outbox.cif.g08.bks.cpg/sg2_214_cif.got.tgz:426110.got - 2010.06.03 11:33:40.
