data_PCOD9005055
_publ_section_title
;
Structure prediction by ZEFSAII (Michael W. Deem and Ramdas Pophale) SiO2 
 PCOD9005055
Probable space group: P -1
;
_chemical_formula_sum "Si O2"
_cell_formula_units_Z 16
_cell_length_a 8.892437
_cell_length_b 9.186001
_cell_length_c 16.234244
_cell_angle_alpha 142.255974
_cell_angle_beta 101.223668
_cell_angle_gamma 69.393301
_cell_volume 751.675780
_symmetry_space_group_name_H-M "P -1"
_symmetry_group_IT_number 2
_symmetry_cell_setting 'triclinic'
loop_
_space_group_symop_operation_xyz
x,y,z
-x,-y,-z
loop_
_atom_site_type_symbol
_atom_site_label
_atom_site_fract_x
_atom_site_fract_y
_atom_site_fract_z
Si Si1 0.766459 0.198384 0.265167
Si Si2 0.947077 0.813569 0.968545
Si Si3 0.462533 0.645297 0.375830
Si Si4 0.414643 0.952539 0.350110
Si Si5 0.893214 0.844417 0.678492
Si Si6 0.558500 0.891888 0.159885
Si Si7 0.262922 0.297250 0.240389
Si Si8 0.149627 0.583832 0.022528
O O1 0.637261 0.431934 0.311096
O O2 0.912347 0.262324 0.354595
O O3 0.667371 0.075492 0.260184
O O4 0.845653 0.985048 0.108899
O O5 0.839550 0.695402 0.849296
O O6 0.109741 0.616159 0.935523
O O7 0.000000 0.000000 0.000000
O O8 0.475344 0.889815 0.532903
O O9 0.335257 0.524627 0.346838
O O10 0.424026 0.731203 0.315790
O O11 0.229520 0.140504 0.402493
O O12 0.478120 0.870158 0.228398
O O13 0.839621 0.719188 0.696616
O O14 0.860384 0.142461 0.825001
O O15 0.681706 0.621985 0.028474
O O16 0.416325 0.036364 0.146015
O O17 0.000000 0.500000 0.000000
#
# Coordination Sequence:
#
# PCOD9005055 Si02
#       8
#     2   2   2   2   2   2   2   2
#     4  10  21  38  60  89 119 153 193 232 290 352
#     4  11  21  37  59  90 127 151 185 237 289 350
#     4  10  24  42  60  84 114 151 201 249 288 336
#     4  10  24  42  60  84 114 151 201 249 288 336
#     4  10  21  38  60  89 119 153 193 232 290 352
#     4  10  22  38  60  86 120 156 194 231 293 346
#     4  10  22  38  60  86 120 156 194 231 293 346
#     4  11  21  37  59  90 127 151 185 237 289 350
#
# _framework density 21.285772000000001
#
# number of rings (size 3 to 8) (size 9 to 14) (size 15 to 20)
#    0.000    1.750    5.000    0.000    3.500   10.000 
#    0.000    0.000    0.000    3.750    0.000    0.000 
#    0.000    0.000    0.000    0.000    0.000    0.000 
#
# Total GULP energy -89309.060759 kJ/mol
# GULP energy per Si atom -5581.816297 kJ/mol
# Density = 2.123733 g / cm^3
# Si number density = 21.285772 Si / 1000 Ang^3
#
#
#
# Elastic Constant Matrix: (Units=GPa)
#
#
# Indices 1 2 3 4 5 6 
#
# 1 89.1595 14.5682 2.2651 5.6510 22.2487 7.8919
# 2 14.5682 90.3264 6.6274 14.9698 8.5062 11.4429
# 3 2.2651 6.6274 34.1557 11.7013 12.5564 4.4978
# 4 5.6510 14.9698 11.7013 27.6934 -4.3238 5.4608
# 5 22.2487 8.5062 12.5564 -4.3238 28.7095 4.5194
# 6 7.8919 11.4429 4.4978 5.4608 4.5194 37.6232
#
#
#
# Elastic Compliance Matrix: (Units=1/GPa)
#
#
# Indices 1 2 3 4 5 6 
#
# 1 0.016074 0.000145 0.008838 -0.009665 -0.017671 -0.000947
# 2 0.000145 0.013218 0.003204 -0.009069 -0.006427 -0.002345
# 3 0.008838 0.003204 0.051421 -0.030636 -0.034848 -0.000343
# 4 -0.009665 -0.009069 -0.030636 0.062091 0.033652 -0.004607
# 5 -0.017671 -0.006427 -0.034848 0.033652 0.071310 -0.003623
# 6 -0.000947 -0.002345 -0.000343 -0.004607 -0.003623 0.028636
#
#
# Mechanical properties :
#
#
# Convention : Reuss Voigt Hill
#
# Bulk Modulus (GPa) = 9.51594 28.95145 19.23370
# Shear Modulus (GPa) = 19.73127 31.48393 25.60760
#
# Velocity S-wave (km/s) = 3.04792 3.85009 3.47225
# Velocity P-wave (km/s) = 4.10691 5.77885 5.01307
#
# Compressibility (1/GPa) = 0.10508681
#
# Stress axis : x y z
#
# Youngs Moduli (GPa) = 62.21357 75.65521 19.44724
#
# Poissons Ratio (x) = -0.01097 -0.17188
# Poissons Ratio (y) = -0.00902 -0.06231
# Poissons Ratio (z) = -0.54985 -0.24240
#
# Static dielectric constant tensor:
#      x y z
#    x 1.809760 -0.042540 0.009100 
#    y -0.042540 1.735920 -0.001330 
#    z 0.009100 -0.001330 1.788480 
# 
# From -- ./inp_files/176621.got.cif
#   From: 2010.05.17/outbox.cif.g08.bks.cpg/sg2_89_cif.got.tgz:176621.got - 2010.06.03 11:33:40.
