data_PCOD9005569
_publ_section_title
;
Structure prediction by ZEFSAII (Michael W. Deem and Ramdas Pophale) SiO2 
 PCOD9005569
Probable space group: P -1
;
_chemical_formula_sum "Si O2"
_cell_formula_units_Z 16
_cell_length_a 9.393469
_cell_length_b 11.676096
_cell_length_c 8.752587
_cell_angle_alpha 76.609275
_cell_angle_beta 131.979619
_cell_angle_gamma 91.858081
_cell_volume 684.198969
_symmetry_space_group_name_H-M "P -1"
_symmetry_group_IT_number 2
_symmetry_cell_setting 'triclinic'
loop_
_space_group_symop_operation_xyz
x,y,z
-x,-y,-z
loop_
_atom_site_type_symbol
_atom_site_label
_atom_site_fract_x
_atom_site_fract_y
_atom_site_fract_z
Si Si1 0.730734 0.304294 0.488514
Si Si2 0.428416 0.785479 0.033485
Si Si3 0.233755 0.086510 0.276372
Si Si4 0.384504 0.396016 0.000096
Si Si5 0.609934 0.133011 0.687582
Si Si6 0.173986 0.917756 0.565861
Si Si7 0.938376 0.480738 0.742911
Si Si8 0.943079 0.317066 0.084117
O O1 0.516843 0.335967 0.252962
O O2 0.719733 0.232164 0.660777
O O3 0.851349 0.210547 0.484939
O O4 0.815689 0.424731 0.544344
O O5 0.471691 0.833091 0.214782
O O6 0.596807 0.697109 0.097330
O O7 0.347010 0.887158 0.821454
O O8 0.244623 0.717108 0.956689
O O9 0.435603 0.128297 0.446078
O O10 0.064825 0.198833 0.132310
O O11 0.257293 0.998741 0.174787
O O12 0.214010 0.995870 0.427276
O O13 0.500000 0.500000 0.000000
O O14 0.165119 0.438315 0.879540
O O15 0.000000 0.000000 0.500000
O O16 0.922615 0.621305 0.721439
O O17 0.888038 0.417322 0.883596
#
# Coordination Sequence:
#
# PCOD9005569 Si02
#       8
#     2   2   2   2   2   2   2   2
#     4  10  23  42  67  94 128 176 219 260 330 388
#     4  11  22  41  65  95 132 165 217 270 330 375
#     4  10  22  40  66  93 132 168 216 269 332 387
#     4  11  24  43  62  95 138 169 213 275 317 386
#     4  10  22  42  65  97 127 169 217 273 325 388
#     4  10  21  38  62  93 130 166 210 273 322 387
#     4  11  24  43  68  96 133 176 220 264 329 383
#     4  11  22  41  67  98 125 170 223 270 311 394
#
# _framework density 23.385010000000001
#
# number of rings (size 3 to 8) (size 9 to 14) (size 15 to 20)
#    0.000    1.500    3.750    0.750    0.000    5.500 
#    0.000    2.500    0.000    0.000    0.000    0.000 
#    0.000    0.000    0.000    0.000    0.000    0.000 
#
# Total GULP energy -89440.489258 kJ/mol
# GULP energy per Si atom -5590.030579 kJ/mol
# Density = 2.333178 g / cm^3
# Si number density = 23.385010 Si / 1000 Ang^3
#
#
#
# Elastic Constant Matrix: (Units=GPa)
#
#
# Indices 1 2 3 4 5 6 
#
# 1 45.8681 3.2502 2.3677 4.0176 0.3145 -16.8118
# 2 3.2502 81.5833 20.0690 11.9579 -7.5799 -9.0966
# 3 2.3677 20.0690 45.4845 8.6922 -12.4820 -9.4936
# 4 4.0176 11.9579 8.6922 34.4998 0.8268 0.6931
# 5 0.3145 -7.5799 -12.4820 0.8268 24.3259 4.2239
# 6 -16.8118 -9.0966 -9.4936 0.6931 4.2239 42.5429
#
#
#
# Elastic Compliance Matrix: (Units=1/GPa)
#
#
# Indices 1 2 3 4 5 6 
#
# 1 0.025999 0.000297 0.001049 -0.003576 -0.001455 0.010774
# 2 0.000297 0.014369 -0.004673 -0.003923 0.001857 0.002026
# 3 0.001049 -0.004673 0.029872 -0.006444 0.013231 0.004873
# 4 -0.003576 -0.003923 -0.006444 0.032579 -0.004942 -0.003730
# 5 -0.001455 0.001857 0.013231 -0.004942 0.049012 -0.002011
# 6 0.010774 0.002026 0.004873 -0.003730 -0.002011 0.029544
#
#
# Mechanical properties :
#
#
# Convention : Reuss Voigt Hill
#
# Bulk Modulus (GPa) = 15.72728 24.92331 20.32529
# Shear Modulus (GPa) = 23.89777 30.09033 26.99405
#
# Velocity S-wave (km/s) = 3.20023 3.59100 3.40123
# Velocity P-wave (km/s) = 4.51611 5.27965 4.91273
#
# Compressibility (1/GPa) = 0.06358379
#
# Stress axis : x y z
#
# Youngs Moduli (GPa) = 38.46351 69.59638 33.47602
#
# Poissons Ratio (x) = -0.02064 -0.03511
# Poissons Ratio (y) = -0.01141 0.15644
# Poissons Ratio (z) = -0.04034 0.32523
#
# Static dielectric constant tensor:
#      x y z
#    x 1.962600 -0.001480 -0.011560 
#    y -0.001480 1.954560 0.020300 
#    z -0.011560 0.020300 1.891870 
# 
# From -- ./inp_files/187051.got.cif
#   From: 2010.05.17/outbox.cif.g08.bks.cpg/sg2_94_cif.got.tgz:187051.got - 2010.06.03 11:33:40.
