data_PCOD9005001
_publ_section_title
;
Structure prediction by ZEFSAII (Michael W. Deem and Ramdas Pophale) SiO2 
 PCOD9005001
Probable space group: P -1
;
_chemical_formula_sum "Si O2"
_cell_formula_units_Z 16
_cell_length_a 8.018606
_cell_length_b 25.620477
_cell_length_c 9.273708
_cell_angle_alpha 46.701562
_cell_angle_beta 147.588553
_cell_angle_gamma 128.692835
_cell_volume 737.977171
_symmetry_space_group_name_H-M "P -1"
_symmetry_group_IT_number 2
_symmetry_cell_setting 'triclinic'
loop_
_space_group_symop_operation_xyz
x,y,z
-x,-y,-z
loop_
_atom_site_type_symbol
_atom_site_label
_atom_site_fract_x
_atom_site_fract_y
_atom_site_fract_z
Si Si1 0.899460 0.790633 0.137630
Si Si2 0.680732 0.193928 0.113929
Si Si3 0.359920 0.272599 0.505138
Si Si4 0.746442 0.584374 0.677481
Si Si5 0.428899 0.960509 0.801548
Si Si6 0.542155 0.425054 0.819819
Si Si7 0.960630 0.051149 0.163515
Si Si8 0.497633 0.287250 0.243297
O O1 0.593366 0.782073 0.031121
O O2 0.173256 0.745533 0.475847
O O3 0.770973 0.763341 0.940258
O O4 0.020744 0.874786 0.049619
O O5 0.621094 0.230103 0.848634
O O6 0.622182 0.108487 0.207364
O O7 0.023856 0.223451 0.364625
O O8 0.352468 0.347319 0.442197
O O9 0.431959 0.287469 0.363381
O O10 0.551321 0.507695 0.720781
O O11 0.696764 0.590888 0.456521
O O12 0.111103 0.579696 0.982578
O O13 0.232335 0.942986 0.839387
O O14 0.290687 0.027472 0.497677
O O15 0.777984 0.986707 0.058784
O O16 0.496386 0.365505 0.022399
#
# Coordination Sequence:
#
# PCOD9005001 Si02
#       8
#     2   2   2   2   2   2   2   2
#     4  12  25  41  63  91 124 161 205 254 304 361
#     4  12  25  41  63  91 124 161 205 254 304 361
#     4  12  24  40  63  91 125 162 205 253 302 360
#     4  10  21  39  63  90 123 161 200 246 302 361
#     4  10  21  38  60  86 119 157 197 246 305 363
#     4  10  21  39  63  90 123 161 200 246 302 361
#     4  10  21  38  60  86 119 157 197 246 305 363
#     4  12  24  40  63  91 125 162 205 253 302 360
#
# _framework density 21.680886000000001
#
# number of rings (size 3 to 8) (size 9 to 14) (size 15 to 20)
#    0.000    1.000    0.000    8.250    0.000    3.500 
#    0.000    0.000    0.000    7.500    0.000    0.000 
#    0.000    0.000    0.000    0.000    0.000    0.000 
#
# Total GULP energy -89570.254884 kJ/mol
# GULP energy per Si atom -5598.140930 kJ/mol
# Density = 2.163154 g / cm^3
# Si number density = 21.680886 Si / 1000 Ang^3
#
#
#
# Elastic Constant Matrix: (Units=GPa)
#
#
# Indices 1 2 3 4 5 6 
#
# 1 -13.2076 19.4459 51.0283 68.0962 -55.9025 120.2142
# 2 19.4459 101.3416 -3.7393 -5.6212 -1.7611 -19.0314
# 3 51.0283 -3.7393 14.1248 -58.2106 49.9498 -122.1229
# 4 68.0962 -5.6212 -58.2106 -38.7759 62.5504 -140.7512
# 5 -55.9025 -1.7611 49.9498 62.5504 -11.6739 99.1700
# 6 120.2142 -19.0314 -122.1229 -140.7512 99.1700 -223.4605
#
#
#
# Elastic Compliance Matrix: (Units=1/GPa)
#
#
# Indices 1 2 3 4 5 6 
#
# 1 0.021231 -0.002119 0.003603 0.002161 0.001474 0.008926
# 2 -0.002119 0.010333 -0.000763 -0.001362 0.002998 0.000585
# 3 0.003603 -0.000763 0.014274 -0.004710 0.001931 -0.001974
# 4 0.002161 -0.001362 -0.004710 0.022321 -0.000937 -0.010623
# 5 0.001474 0.002998 0.001931 -0.000937 0.032243 0.014382
# 6 0.008926 0.000585 -0.001974 -0.010623 0.014382 0.014429
#
#
# Mechanical properties :
#
#
# Convention : Reuss Voigt Hill
#
# Bulk Modulus (GPa) = 21.15085 26.19204 23.67145
# Shear Modulus (GPa) = 38.71529 -52.41381 -6.84926
#
# Velocity S-wave (km/s) = 4.23032 -4.92215 -1.77932
# Velocity P-wave (km/s) = 5.79979 4.49406 2.59240
#
# Compressibility (1/GPa) = 0.04727942
#
# Stress axis : x y z
#
# Youngs Moduli (GPa) = 47.10151 96.78188 70.05801
#
# Poissons Ratio (x) = 0.20510 -0.25245
# Poissons Ratio (y) = 0.09982 0.05346
# Poissons Ratio (z) = -0.16973 0.07386
#
# Static dielectric constant tensor:
#      x y z
#    x 1.785440 0.014760 -0.015950 
#    y 0.014760 1.778420 -0.010830 
#    z -0.015950 -0.010830 1.748270 
# 
# From -- ./inp_files/226238.got.cif
#   From: 2010.05.17/outbox.cif.g08.bks.cpg/sg2_114_cif.got.tgz:226238.got - 2010.06.03 11:33:40.
