data_PCOD9005546
_publ_section_title
;
Structure prediction by ZEFSAII (Michael W. Deem and Ramdas Pophale) SiO2 
 PCOD9005546
Probable space group: P -1
;
_chemical_formula_sum "Si O2"
_cell_formula_units_Z 16
_cell_length_a 12.343793
_cell_length_b 20.324981
_cell_length_c 5.320019
_cell_angle_alpha 58.389255
_cell_angle_beta 121.247313
_cell_angle_gamma 128.502369
_cell_volume 851.669149
_symmetry_space_group_name_H-M "P -1"
_symmetry_group_IT_number 2
_symmetry_cell_setting 'triclinic'
loop_
_space_group_symop_operation_xyz
x,y,z
-x,-y,-z
loop_
_atom_site_type_symbol
_atom_site_label
_atom_site_fract_x
_atom_site_fract_y
_atom_site_fract_z
Si Si1 0.452359 0.398481 0.681274
Si Si2 0.549765 0.687348 0.642964
Si Si3 0.152817 0.809842 0.927629
Si Si4 0.315003 0.843398 0.547357
Si Si5 0.844790 0.922725 0.042310
Si Si6 0.435382 0.141736 0.484685
Si Si7 0.300073 0.993739 0.959604
Si Si8 0.172898 0.255400 0.420680
O O1 0.500000 0.500000 0.500000
O O2 0.510911 0.362904 0.592353
O O3 0.278840 0.337403 0.558862
O O4 0.494855 0.376422 0.044646
O O5 0.518600 0.767173 0.501291
O O6 0.723478 0.728576 0.727370
O O7 0.239853 0.807664 0.792833
O O8 0.197490 0.913183 0.815005
O O9 0.981892 0.754081 0.801256
O O10 0.210127 0.789424 0.295784
O O11 0.464127 0.845071 0.660395
O O12 0.336323 0.941760 0.323314
O O13 0.727040 0.895338 0.734965
O O14 0.850602 0.835413 0.303929
O O15 0.783261 0.958886 0.116643
O O16 0.000000 0.000000 0.000000
O O17 0.433796 0.067927 0.816661
#
# Coordination Sequence:
#
# PCOD9005546 Si02
#       8
#     2   2   2   2   2   2   2   2
#     4  10  21  38  62  93 120 143 180 235 306 368
#     4  10  22  36  61  89 118 146 186 237 301 352
#     4  10  24  39  54  82 112 158 204 238 279 336
#     4  10  25  38  56  76 114 162 212 237 275 326
#     4  12  24  34  58  84 126 160 197 243 296 340
#     4  12  22  38  55  82 117 158 198 247 281 337
#     4  10  22  36  53  77 115 157 209 240 277 328
#     4  10  22  37  60  87 124 146 196 236 300 351
#
# _framework density 18.786636999999999
#
# number of rings (size 3 to 8) (size 9 to 14) (size 15 to 20)
#    1.500    0.000    2.500    3.000    5.250    2.000 
#    0.000    0.000    0.000    0.000    0.000    5.250 
#    0.000    0.000    0.000    0.000    0.000    0.000 
#
# Total GULP energy -89251.631890 kJ/mol
# GULP energy per Si atom -5578.226993 kJ/mol
# Density = 1.874388 g / cm^3
# Si number density = 18.786637 Si / 1000 Ang^3
#
#
#
# Elastic Constant Matrix: (Units=GPa)
#
#
# Indices 1 2 3 4 5 6 
#
# 1 74.1834 25.3163 12.1699 7.1072 -10.9821 -1.7199
# 2 25.3163 72.2421 13.5030 -11.6351 -2.8930 -1.4813
# 3 12.1699 13.5030 57.8381 1.5535 -14.7296 3.4746
# 4 7.1072 -11.6351 1.5535 24.9155 1.2423 -1.7384
# 5 -10.9821 -2.8930 -14.7296 1.2423 32.1355 7.5323
# 6 -1.7199 -1.4813 3.4746 -1.7384 7.5323 14.5487
#
#
#
# Elastic Compliance Matrix: (Units=1/GPa)
#
#
# Indices 1 2 3 4 5 6 
#
# 1 0.017809 -0.007541 0.000122 -0.009159 0.006564 -0.003184
# 2 -0.007541 0.019287 -0.004903 0.012154 -0.005036 0.006303
# 3 0.000122 -0.004903 0.022781 -0.005357 0.013416 -0.013512
# 4 -0.009159 0.012154 -0.005357 0.050075 -0.009293 0.012229
# 5 0.006564 -0.005036 0.013416 -0.009293 0.045942 -0.027837
# 6 -0.003184 0.006303 -0.013512 0.012229 -0.027837 0.088100
#
#
# Mechanical properties :
#
#
# Convention : Reuss Voigt Hill
#
# Bulk Modulus (GPa) = 28.38356 34.02689 31.20522
# Shear Modulus (GPa) = 17.83282 24.53823 21.18553
#
# Velocity S-wave (km/s) = 3.08430 3.61800 3.36175
# Velocity P-wave (km/s) = 5.27494 5.96697 5.63160
#
# Compressibility (1/GPa) = 0.03523167
#
# Stress axis : x y z
#
# Youngs Moduli (GPa) = 56.15145 51.84917 43.89628
#
# Poissons Ratio (x) = 0.39101 -0.00537
# Poissons Ratio (y) = 0.42345 0.21524
# Poissons Ratio (z) = -0.00686 0.25424
#
# Static dielectric constant tensor:
#      x y z
#    x 1.665440 -0.001510 -0.014920 
#    y -0.001510 1.635300 0.030160 
#    z -0.014920 0.030160 1.705530 
# 
# From -- ./inp_files/82065.got.cif
#   From: 2010.05.17/outbox.cif.g08.bks.cpg/sg2_42_cif.got.tgz:82065.got - 2010.06.03 11:33:40.
