data_PCOD9005073
_publ_section_title
;
Structure prediction by ZEFSAII (Michael W. Deem and Ramdas Pophale) SiO2 
 PCOD9005073
Probable space group: P -1
;
_chemical_formula_sum "Si O2"
_cell_formula_units_Z 12
_cell_length_a 5.399703
_cell_length_b 22.839317
_cell_length_c 23.514120
_cell_angle_alpha 11.993979
_cell_angle_beta 47.001031
_cell_angle_gamma 45.996657
_cell_volume 433.408183
_symmetry_space_group_name_H-M "P -1"
_symmetry_group_IT_number 2
_symmetry_cell_setting 'triclinic'
loop_
_space_group_symop_operation_xyz
x,y,z
-x,-y,-z
loop_
_atom_site_type_symbol
_atom_site_label
_atom_site_fract_x
_atom_site_fract_y
_atom_site_fract_z
Si Si1 0.767974 0.761412 0.258327
Si Si2 0.085300 0.603645 0.525267
Si Si3 0.981194 0.385470 0.297866
Si Si4 0.739597 0.738104 0.741304
Si Si5 0.651628 0.189806 0.027728
Si Si6 0.568577 0.148703 0.207327
O O1 0.390333 0.772781 0.332955
O O2 0.755048 0.656322 0.294896
O O3 0.000000 0.500000 0.500000
O O4 0.000000 0.000000 0.000000
O O5 0.912031 0.419821 0.772688
O O6 0.822560 0.869906 0.284789
O O7 0.642964 0.614914 0.148921
O O8 0.946369 0.332154 0.285416
O O9 0.119718 0.094681 0.586465
O O10 0.292129 0.556622 0.091398
O O11 0.752415 0.813208 0.734874
O O12 0.500000 0.000000 0.500000
O O13 0.500000 0.500000 0.000000
O O14 0.511048 0.108775 0.187995
#
# Coordination Sequence:
#
# PCOD9005073 Si02
#       6
#     2   2   2   2   2   2
#     4  11  24  47  76  98 127 175 217 263 332 396
#     4  11  26  44  66 105 138 162 222 279 316 408
#     4  10  21  38  60  89 128 177 227 273 329 386
#     4   8  16  33  56  83 120 168 229 283 311 371
#     4  12  24  40  64  96 140 176 208 276 342 392
#     4  10  21  38  60  89 128 177 227 273 329 386
#
# _framework density 27.687525999999998
#
# number of rings (size 3 to 8) (size 9 to 14) (size 15 to 20)
#    0.000    1.667    0.000    4.000    0.000    8.667 
#    0.000    0.000    0.000   14.000    0.000    0.000 
#    0.000    0.000    0.000    0.000    0.000    0.000 
#
# Total GULP energy -67069.247138 kJ/mol
# GULP energy per Si atom -5589.103928 kJ/mol
# Density = 2.762451 g / cm^3
# Si number density = 27.687526 Si / 1000 Ang^3
#
#
#
# Elastic Constant Matrix: (Units=GPa)
#
#
# Indices 1 2 3 4 5 6 
#
# 1 79.4369 21.5160 32.7198 4.1057 2.4640 -12.1441
# 2 21.5160 72.5203 44.0455 4.7278 0.2002 -5.4743
# 3 32.7198 44.0455 223.8378 9.5656 -6.3177 -14.6574
# 4 4.1057 4.7278 9.5656 53.1735 -6.9492 3.4981
# 5 2.4640 0.2002 -6.3177 -6.9492 49.8852 -5.6953
# 6 -12.1441 -5.4743 -14.6574 3.4981 -5.6953 33.8794
#
#
#
# Elastic Compliance Matrix: (Units=1/GPa)
#
#
# Indices 1 2 3 4 5 6 
#
# 1 0.014675 -0.003238 -0.001204 -0.000974 -0.000517 0.004230
# 2 -0.003238 0.016482 -0.002722 -0.000791 -0.000321 0.000352
# 3 -0.001204 -0.002722 0.005337 -0.000623 0.000847 0.001644
# 4 -0.000974 -0.000791 -0.000623 0.019536 0.002425 -0.002356
# 5 -0.000517 -0.000321 0.000847 0.002425 0.020905 0.003393
# 6 0.004230 0.000352 0.001644 -0.002356 0.003393 0.032615
#
#
# Mechanical properties :
#
#
# Convention : Reuss Voigt Hill
#
# Bulk Modulus (GPa) = 45.11485 63.59529 54.35507
# Shear Modulus (GPa) = 38.09018 45.88854 41.98936
#
# Velocity S-wave (km/s) = 3.71309 4.07550 3.89851
# Velocity P-wave (km/s) = 5.89172 6.72050 6.31971
#
# Compressibility (1/GPa) = 0.02216565
#
# Stress axis : x y z
#
# Youngs Moduli (GPa) = 68.14480 60.67088 187.35918
#
# Poissons Ratio (x) = 0.19648 0.22555
# Poissons Ratio (y) = 0.22068 0.51001
# Poissons Ratio (z) = 0.08204 0.16515
#
# Static dielectric constant tensor:
#      x y z
#    x 2.118450 0.073790 -0.037860 
#    y 0.073790 2.457450 -0.002110 
#    z -0.037860 -0.002110 2.042120 
# 
# From -- ./inp_files/5449.got.cif
#   From: 2010.05.17/outbox.cif.g08.bks.cpg/sg2_3_cif.got.tgz:5449.got - 2010.06.03 11:33:40.
