data_PCOD9005190
_publ_section_title
;
Structure prediction by ZEFSAII (Michael W. Deem and Ramdas Pophale) SiO2 
 PCOD9005190
Probable space group: P -1
;
_chemical_formula_sum "Si O2"
_cell_formula_units_Z 14
_cell_length_a 4.933319
_cell_length_b 5.712537
_cell_length_c 23.859437
_cell_angle_alpha 106.647078
_cell_angle_beta 61.934467
_cell_angle_gamma 103.995775
_cell_volume 563.888187
_symmetry_space_group_name_H-M "P -1"
_symmetry_group_IT_number 2
_symmetry_cell_setting 'triclinic'
loop_
_space_group_symop_operation_xyz
x,y,z
-x,-y,-z
loop_
_atom_site_type_symbol
_atom_site_label
_atom_site_fract_x
_atom_site_fract_y
_atom_site_fract_z
Si Si1 0.226241 0.313719 0.488092
Si Si2 0.377531 0.623315 0.644370
Si Si3 0.126037 0.891500 0.171630
Si Si4 0.167578 0.705446 0.375904
Si Si5 0.396859 0.399284 0.941736
Si Si6 0.389227 0.900164 0.942999
Si Si7 0.462896 0.976483 0.257925
O O1 0.500000 0.500000 0.500000
O O2 0.401654 0.214583 0.411049
O O3 0.000000 0.500000 0.500000
O O4 0.051514 0.177439 0.549096
O O5 0.539920 0.380356 0.625927
O O6 0.051296 0.541347 0.641192
O O7 0.383341 0.768590 0.711779
O O8 0.293069 0.652225 0.124718
O O9 0.236025 0.985615 0.228713
O O10 0.758636 0.849130 0.200718
O O11 0.296830 0.084176 0.123674
O O12 0.273988 0.837594 0.317381
O O13 0.245185 0.616630 0.941529
O O14 0.223273 0.119653 0.945768
O O15 0.500000 0.500000 0.000000
O O16 0.500000 0.000000 0.000000
#
# Coordination Sequence:
#
# PCOD9005190 Si02
#       7
#     2   2   2   2   2   2   2
#     4   8  16  33  56  85 114 158 214 263 315 368
#     4  10  21  38  61  86 124 166 211 268 318 381
#     4  10  24  38  62  91 130 164 218 268 328 401
#     4  10  21  38  61  86 124 166 211 268 318 381
#     4   8  16  36  66  90 126 163 214 270 330 384
#     4   8  16  36  66  90 126 163 214 270 330 384
#     4  12  24  41  58  96 126 170 214 256 332 402
#
# _framework density 24.827617
#
# number of rings (size 3 to 8) (size 9 to 14) (size 15 to 20)
#    0.857    1.714    0.000    1.714    0.000    4.000 
#    0.000    1.429    0.000   12.000    0.000    0.000 
#    0.000    0.000    0.000    0.000    0.000    0.000 
#
# Total GULP energy -78122.032237 kJ/mol
# GULP energy per Si atom -5580.145160 kJ/mol
# Density = 2.477111 g / cm^3
# Si number density = 24.827617 Si / 1000 Ang^3
#
#
#
# Elastic Constant Matrix: (Units=GPa)
#
#
# Indices 1 2 3 4 5 6 
#
# 1 106.0053 3.6526 8.2867 -8.3919 -0.0211 1.3864
# 2 3.6526 111.7776 24.2950 -17.4306 -7.9931 -8.1552
# 3 8.2867 24.2950 132.9780 -20.2310 5.1322 1.6625
# 4 -8.3919 -17.4306 -20.2310 45.4954 -3.5516 -3.8371
# 5 -0.0211 -7.9931 5.1322 -3.5516 34.4287 3.7409
# 6 1.3864 -8.1552 1.6625 -3.8371 3.7409 20.9347
#
#
#
# Elastic Compliance Matrix: (Units=1/GPa)
#
#
# Indices 1 2 3 4 5 6 
#
# 1 0.009593 0.000008 -0.000361 0.001602 0.000266 -0.000357
# 2 0.000008 0.010375 -0.001456 0.003900 0.002548 0.004416
# 3 -0.000361 -0.001456 0.008308 0.002937 -0.001225 -0.000446
# 4 0.001602 0.003900 0.002937 0.025733 0.002532 0.005444
# 5 0.000266 0.002548 -0.001225 0.002532 0.030507 -0.003915
# 6 -0.000357 0.004416 -0.000446 0.005444 -0.003915 0.051244
#
#
# Mechanical properties :
#
#
# Convention : Reuss Voigt Hill
#
# Bulk Modulus (GPa) = 40.55581 47.02552 43.79067
# Shear Modulus (GPa) = 33.87565 41.14021 37.50793
#
# Velocity S-wave (km/s) = 3.69783 4.07508 3.89103
# Velocity P-wave (km/s) = 5.88238 6.41277 6.15329
#
# Compressibility (1/GPa) = 0.02465738
#
# Stress axis : x y z
#
# Youngs Moduli (GPa) = 104.24221 96.38321 120.36226
#
# Poissons Ratio (x) = -0.00076 0.04348
# Poissons Ratio (y) = -0.00082 0.17527
# Poissons Ratio (z) = 0.03766 0.14035
#
# Static dielectric constant tensor:
#      x y z
#    x 1.858000 0.003940 -0.046400 
#    y 0.003940 2.034340 0.012660 
#    z -0.046400 0.012660 2.014190 
# 
# From -- ./inp_files/127677.got.cif
#   From: 2010.05.17/outbox.cif.g08.bks.cpg/sg2_64_cif.got.tgz:127677.got - 2010.06.03 11:33:40.
