data_PCOD9005518
_publ_section_title
;
Structure prediction by ZEFSAII (Michael W. Deem and Ramdas Pophale) SiO2 
 PCOD9005518
Probable space group: P -1
;
_chemical_formula_sum "Si O2"
_cell_formula_units_Z 14
_cell_length_a 19.675051
_cell_length_b 5.272863
_cell_length_c 8.749911
_cell_angle_alpha 82.180706
_cell_angle_beta 49.751962
_cell_angle_gamma 94.716807
_cell_volume 668.802483
_symmetry_space_group_name_H-M "P -1"
_symmetry_group_IT_number 2
_symmetry_cell_setting 'triclinic'
loop_
_space_group_symop_operation_xyz
x,y,z
-x,-y,-z
loop_
_atom_site_type_symbol
_atom_site_label
_atom_site_fract_x
_atom_site_fract_y
_atom_site_fract_z
Si Si1 0.788983 0.831461 0.345519
Si Si2 0.107579 0.598223 0.848680
Si Si3 0.567041 0.181805 0.508923
Si Si4 0.766576 0.203769 0.095320
Si Si5 0.559094 0.612297 0.143410
Si Si6 0.619935 0.914172 0.750106
Si Si7 0.328785 0.826049 0.046933
O O1 0.839868 0.598179 0.292735
O O2 0.697115 0.778627 0.581952
O O3 0.855244 0.102721 0.285613
O O4 0.766489 0.921306 0.198443
O O5 0.146204 0.614165 0.965311
O O6 0.000000 0.500000 0.000000
O O7 0.670689 0.262465 0.291296
O O8 0.426748 0.985394 0.333298
O O9 0.500000 0.000000 0.500000
O O10 0.472107 0.578264 0.382550
O O11 0.761970 0.234959 0.918232
O O12 0.548877 0.728165 0.979870
O O13 0.609900 0.378482 0.069131
O O14 0.626190 0.873454 0.094584
O O15 0.670912 0.142317 0.773487
#
# Coordination Sequence:
#
# PCOD9005518 Si02
#       7
#     2   2   2   2   2   2   2
#     4   9  21  36  64  86 117 144 190 237 290 340
#     4  10  21  38  62  92 114 143 188 240 295 342
#     4  11  19  40  56  88 116 157 199 239 280 334
#     4   9  22  36  60  85 115 152 194 241 285 335
#     4  10  23  36  56  79 121 156 194 235 275 337
#     4   9  22  37  56  85 117 154 193 230 286 339
#     4  10  22  38  55  83 113 160 194 230 284 329
#
# _framework density 20.932936000000002
#
# number of rings (size 3 to 8) (size 9 to 14) (size 15 to 20)
#    1.714    0.571    1.429    0.857    4.000    1.143 
#    5.143    0.000    0.000    1.714    0.000    0.000 
#    0.000    0.000    0.000    0.000    0.000    0.000 
#
# Total GULP energy -77979.997800 kJ/mol
# GULP energy per Si atom -5569.999843 kJ/mol
# Density = 2.088529 g / cm^3
# Si number density = 20.932936 Si / 1000 Ang^3
#
#
#
# Elastic Constant Matrix: (Units=GPa)
#
#
# Indices 1 2 3 4 5 6 
#
# 1 145.0350 34.3904 55.0828 8.5239 11.7864 24.0724
# 2 34.3904 95.4532 16.5501 25.1244 1.7086 5.7632
# 3 55.0828 16.5501 53.6401 13.1504 8.0945 4.1153
# 4 8.5239 25.1244 13.1504 31.2717 -5.4596 -3.0447
# 5 11.7864 1.7086 8.0945 -5.4596 27.5970 -5.7979
# 6 24.0724 5.7632 4.1153 -3.0447 -5.7979 26.7181
#
#
#
# Elastic Compliance Matrix: (Units=1/GPa)
#
#
# Indices 1 2 3 4 5 6 
#
# 1 0.014644 -0.002741 -0.013160 0.001912 -0.004215 -0.011272
# 2 -0.002741 0.014774 0.002272 -0.013050 -0.003697 -0.003356
# 3 -0.013160 0.002272 0.035881 -0.014353 -0.007335 0.002613
# 4 0.001912 -0.013050 -0.014353 0.052259 0.017273 0.013007
# 5 -0.004215 -0.003697 -0.007335 0.017273 0.047620 0.018027
# 6 -0.011272 -0.003356 0.002613 0.013007 0.018027 0.053299
#
#
# Mechanical properties :
#
#
# Convention : Reuss Voigt Hill
#
# Bulk Modulus (GPa) = 26.28863 56.24166 41.26514
# Shear Modulus (GPa) = 19.34857 29.65770 24.50313
#
# Velocity S-wave (km/s) = 3.04355 3.76812 3.42505
# Velocity P-wave (km/s) = 4.99366 6.77182 5.94955
#
# Compressibility (1/GPa) = 0.03803926
#
# Stress axis : x y z
#
# Youngs Moduli (GPa) = 68.28739 67.68706 27.86996
#
# Poissons Ratio (x) = 0.18556 0.36676
# Poissons Ratio (y) = 0.18720 -0.06331
# Poissons Ratio (z) = 0.89865 -0.15375
#
# Static dielectric constant tensor:
#      x y z
#    x 1.787870 0.006110 0.047480 
#    y 0.006110 1.836600 -0.001010 
#    z 0.047480 -0.001010 1.768490 
# 
# From -- ./inp_files/323824.got.cif
#   From: 2010.05.17/outbox.cif.g08.bks.cpg/sg2_162_cif.got.tgz:323824.got - 2010.06.03 11:33:40.
