data_PCOD9005988
_publ_section_title
;
Structure prediction by ZEFSAII (Michael W. Deem and Ramdas Pophale) SiO2 
 PCOD9005988
Probable space group: P -1
;
_chemical_formula_sum "Si O2"
_cell_formula_units_Z 16
_cell_length_a 12.322960
_cell_length_b 9.302126
_cell_length_c 8.882809
_cell_angle_alpha 68.358158
_cell_angle_beta 72.233015
_cell_angle_gamma 105.516374
_cell_volume 814.010662
_symmetry_space_group_name_H-M "P -1"
_symmetry_group_IT_number 2
_symmetry_cell_setting 'triclinic'
loop_
_space_group_symop_operation_xyz
x,y,z
-x,-y,-z
loop_
_atom_site_type_symbol
_atom_site_label
_atom_site_fract_x
_atom_site_fract_y
_atom_site_fract_z
Si Si1 0.648080 0.104370 0.371246
Si Si2 0.355670 0.163894 0.733386
Si Si3 0.765669 0.118168 0.850480
Si Si4 0.048049 0.294331 0.039680
Si Si5 0.351149 0.742187 0.383351
Si Si6 0.822361 0.362403 0.997721
Si Si7 0.195026 0.353416 0.640832
Si Si8 0.009746 0.945943 0.345843
O O1 0.698061 0.199098 0.469091
O O2 0.500000 0.000000 0.500000
O O3 0.687840 0.962299 0.344219
O O4 0.685245 0.248454 0.170510
O O5 0.506053 0.233836 0.661866
O O6 0.305226 0.305126 0.674031
O O7 0.289534 0.041503 0.950085
O O8 0.658730 0.138592 0.790175
O O9 0.825493 0.290638 0.859606
O O10 0.870674 0.097049 0.712691
O O11 0.110823 0.338808 0.830552
O O12 0.916611 0.309735 0.076653
O O13 0.133133 0.438396 0.067702
O O14 0.028670 0.107927 0.170181
O O15 0.258911 0.544116 0.475453
O O16 0.110091 0.216670 0.606290
O O17 0.000000 0.000000 0.500000
#
# Coordination Sequence:
#
# PCOD9005988 Si02
#       8
#     2   2   2   2   2   2   2   2
#     4   9  19  37  60  89 119 159 210 248 292 363
#     4  10  22  43  66  88 125 171 211 250 306 376
#     4  11  23  40  65  91 132 161 203 253 324 367
#     4  11  22  41  64  88 123 163 212 249 311 377
#     4  11  24  39  64  97 124 162 213 262 304 362
#     4  10  21  38  64  91 121 166 201 255 305 376
#     4  12  23  43  66  91 126 165 210 258 311 374
#     4  12  27  40  62  94 129 163 204 261 321 371
#
# _framework density 19.655763
#
# number of rings (size 3 to 8) (size 9 to 14) (size 15 to 20)
#    0.000    1.250    3.750    2.625    5.250    0.500 
#    0.000    0.000    0.000    1.500    0.000    0.000 
#    0.000    0.000    0.000    0.000    0.000    0.000 
#
# Total GULP energy -89308.967007 kJ/mol
# GULP energy per Si atom -5581.810438 kJ/mol
# Density = 1.961103 g / cm^3
# Si number density = 19.655763 Si / 1000 Ang^3
#
#
#
# Elastic Constant Matrix: (Units=GPa)
#
#
# Indices 1 2 3 4 5 6 
#
# 1 74.3157 15.0589 26.6805 -3.4405 -6.0007 -5.6743
# 2 15.0589 116.3324 36.3979 2.0835 -9.0637 9.4025
# 3 26.6805 36.3979 65.3604 11.3866 -12.4389 -3.5830
# 4 -3.4405 2.0835 11.3866 36.1066 -2.9624 -0.0752
# 5 -6.0007 -9.0637 -12.4389 -2.9624 25.7711 -5.8268
# 6 -5.6743 9.4025 -3.5830 -0.0752 -5.8268 17.1212
#
#
#
# Elastic Compliance Matrix: (Units=1/GPa)
#
#
# Indices 1 2 3 4 5 6 
#
# 1 0.016633 -0.000425 -0.006529 0.003858 0.002177 0.005137
# 2 -0.000425 0.011435 -0.007136 0.001431 -0.001241 -0.008330
# 3 -0.006529 -0.007136 0.025696 -0.007482 0.009878 0.010462
# 4 0.003858 0.001431 -0.007482 0.030435 0.001166 -0.000543
# 5 0.002177 -0.001241 0.009878 0.001166 0.048276 0.019905
# 6 0.005137 -0.008330 0.010462 -0.000543 0.019905 0.073645
#
#
# Mechanical properties :
#
#
# Convention : Reuss Voigt Hill
#
# Bulk Modulus (GPa) = 39.08913 45.80925 42.44919
# Shear Modulus (GPa) = 20.59068 27.65785 24.12426
#
# Velocity S-wave (km/s) = 3.24012 3.75522 3.50714
# Velocity P-wave (km/s) = 5.82476 6.49296 6.16792
#
# Compressibility (1/GPa) = 0.02558256
#
# Stress axis : x y z
#
# Youngs Moduli (GPa) = 60.12167 87.45162 38.91662
#
# Poissons Ratio (x) = 0.03716 0.25409
# Poissons Ratio (y) = 0.02555 0.27773
# Poissons Ratio (z) = 0.39255 0.62410
#
# Static dielectric constant tensor:
#      x y z
#    x 1.684170 0.016810 -0.026080 
#    y 0.016810 1.705840 0.009430 
#    z -0.026080 0.009430 1.691590 
# 
# From -- ./inp_files/177373.got.cif
#   From: 2010.05.17/outbox.cif.g08.bks.cpg/sg2_89_cif.got.tgz:177373.got - 2010.06.03 11:33:40.
