data_PCOD9005149
_publ_section_title
;
Structure prediction by ZEFSAII (Michael W. Deem and Ramdas Pophale) SiO2 
 PCOD9005149
Probable space group: P -1
;
_chemical_formula_sum "Si O2"
_cell_formula_units_Z 14
_cell_length_a 11.822452
_cell_length_b 4.965697
_cell_length_c 10.719838
_cell_angle_alpha 94.711958
_cell_angle_beta 126.860806
_cell_angle_gamma 83.635037
_cell_volume 500.320475
_symmetry_space_group_name_H-M "P -1"
_symmetry_group_IT_number 2
_symmetry_cell_setting 'triclinic'
loop_
_space_group_symop_operation_xyz
x,y,z
-x,-y,-z
loop_
_atom_site_type_symbol
_atom_site_label
_atom_site_fract_x
_atom_site_fract_y
_atom_site_fract_z
Si Si1 0.980080 0.781886 0.374326
Si Si2 0.482269 0.092400 0.705784
Si Si3 0.156332 0.269989 0.224089
Si Si4 0.139109 0.375165 0.932601
Si Si5 0.370537 0.709804 0.965659
Si Si6 0.330240 0.760414 0.403834
Si Si7 0.756677 0.444785 0.356178
O O1 0.904204 0.858947 0.198485
O O2 0.872668 0.577415 0.350707
O O3 0.141527 0.655838 0.467578
O O4 0.000000 0.000000 0.500000
O O5 0.412279 0.835926 0.587725
O O6 0.358096 0.320833 0.668131
O O7 0.573795 0.192177 0.653980
O O8 0.573519 0.068149 0.893955
O O9 0.198485 0.985555 0.305335
O O10 0.001548 0.414551 0.154329
O O11 0.280716 0.462490 0.345860
O O12 0.161138 0.249821 0.077380
O O13 0.267808 0.537826 0.975215
O O14 0.303024 0.775149 0.786165
O O15 0.500000 0.500000 0.000000
#
# Coordination Sequence:
#
# PCOD9005149 Si02
#       7
#     2   2   2   2   2   2   2
#     4  10  21  38  60  96 124 172 221 276 333 392
#     4  10  21  40  66  95 130 181 219 279 335 406
#     4  11  25  46  69 103 134 179 226 281 339 394
#     4  10  22  41  66  99 136 175 226 281 338 402
#     4   9  18  40  67  95 134 176 225 272 340 403
#     4  11  25  44  70 100 136 176 228 279 335 402
#     4   9  20  39  63  88 131 169 221 274 331 399
#
# _framework density 27.982063
#
# number of rings (size 3 to 8) (size 9 to 14) (size 15 to 20)
#    0.000    2.000    1.429    0.857    2.000    5.714 
#    5.143    0.000    0.000    6.857    0.000    0.000 
#    0.000    0.000    0.000    0.000    0.000    0.000 
#
# Total GULP energy -78517.926177 kJ/mol
# GULP energy per Si atom -5608.423298 kJ/mol
# Density = 2.791837 g / cm^3
# Si number density = 27.982063 Si / 1000 Ang^3
#
#
#
# Elastic Constant Matrix: (Units=GPa)
#
#
# Indices 1 2 3 4 5 6 
#
# 1 117.7401 26.6214 43.4724 11.5938 11.2582 -6.0328
# 2 26.6214 89.8413 42.2089 -5.3262 -0.5524 -0.5488
# 3 43.4724 42.2089 274.7107 27.3025 -44.8865 7.8236
# 4 11.5938 -5.3262 27.3025 35.9889 -2.7405 -5.3539
# 5 11.2582 -0.5524 -44.8865 -2.7405 52.7381 1.0412
# 6 -6.0328 -0.5488 7.8236 -5.3539 1.0412 49.1575
#
#
#
# Elastic Compliance Matrix: (Units=1/GPa)
#
#
# Indices 1 2 3 4 5 6 
#
# 1 0.010343 -0.002445 -0.001671 -0.002521 -0.003813 0.001314
# 2 -0.002445 0.013191 -0.002281 0.004497 -0.001062 0.000723
# 3 -0.001671 -0.002281 0.005469 -0.003822 0.004821 -0.001619
# 4 -0.002521 0.004497 -0.003822 0.032668 -0.001048 0.003929
# 5 -0.003813 -0.001062 0.004821 -0.001048 0.023850 -0.001866
# 6 0.001314 0.000723 -0.001619 0.003929 -0.001866 0.021237
#
#
# Mechanical properties :
#
#
# Convention : Reuss Voigt Hill
#
# Bulk Modulus (GPa) = 61.69087 78.54416 70.11752
# Shear Modulus (GPa) = 40.01441 52.24287 46.12864
#
# Velocity S-wave (km/s) = 3.78564 4.32558 4.06459
# Velocity P-wave (km/s) = 6.41892 7.28546 6.86587
#
# Compressibility (1/GPa) = 0.01620985
#
# Stress axis : x y z
#
# Youngs Moduli (GPa) = 96.68227 75.80793 182.85731
#
# Poissons Ratio (x) = 0.18532 0.30556
# Poissons Ratio (y) = 0.23635 0.41709
# Poissons Ratio (z) = 0.16156 0.17292
#
# Static dielectric constant tensor:
#      x y z
#    x 2.231110 -0.063090 0.025630 
#    y -0.063090 2.123470 0.006420 
#    z 0.025630 0.006420 2.297110 
# 
# From -- ./inp_files/118875.got.cif
#   From: 2010.05.17/outbox.cif.g08.bks.cpg/sg2_60_cif.got.tgz:118875.got - 2010.06.03 11:33:40.
