data_PCOD9005150
_publ_section_title
;
Structure prediction by ZEFSAII (Michael W. Deem and Ramdas Pophale) SiO2 
 PCOD9005150
Probable space group: P -1
;
_chemical_formula_sum "Si O2"
_cell_formula_units_Z 16
_cell_length_a 18.131817
_cell_length_b 13.520431
_cell_length_c 9.136963
_cell_angle_alpha 30.946827
_cell_angle_beta 35.449658
_cell_angle_gamma 37.540280
_cell_volume 633.821830
_symmetry_space_group_name_H-M "P -1"
_symmetry_group_IT_number 2
_symmetry_cell_setting 'triclinic'
loop_
_space_group_symop_operation_xyz
x,y,z
-x,-y,-z
loop_
_atom_site_type_symbol
_atom_site_label
_atom_site_fract_x
_atom_site_fract_y
_atom_site_fract_z
Si Si1 0.855844 0.085386 0.307998
Si Si2 0.648969 0.924049 0.949337
Si Si3 0.869703 0.692147 0.105061
Si Si4 0.270154 0.012083 0.776698
Si Si5 0.660739 0.694031 0.942836
Si Si6 0.841356 0.327781 0.289132
Si Si7 0.422667 0.766114 0.072216
Si Si8 0.102886 0.738030 0.264223
O O1 0.891502 0.128449 0.359307
O O2 0.707128 0.076339 0.571001
O O3 0.874285 0.253170 0.956499
O O4 0.950280 0.870876 0.371264
O O5 0.596187 0.808036 0.055566
O O6 0.584208 0.048084 0.040928
O O7 0.776374 0.757274 0.031542
O O8 0.810523 0.856326 0.122668
O O9 0.861038 0.482704 0.449414
O O10 0.025212 0.667031 0.852898
O O11 0.293619 0.159026 0.427618
O O12 0.407727 0.858796 0.817043
O O13 0.187698 0.872713 0.023987
O O14 0.785170 0.514674 0.031615
O O15 0.559430 0.613696 0.109132
O O16 0.707208 0.308881 0.606243
#
# Coordination Sequence:
#
# PCOD9005150 Si02
#       8
#     2   2   2   2   2   2   2   2
#     4  10  21  38  60  96 129 169 203 264 322 386
#     4  10  23  41  65  94 127 166 215 272 317 383
#     4  11  25  41  65 103 131 165 209 266 338 378
#     4  11  24  43  68  96 130 167 215 273 318 383
#     4  12  23  43  67  93 126 176 221 260 317 380
#     4  11  24  40  66  94 136 165 216 267 317 392
#     4  10  25  44  65  90 129 177 217 263 316 376
#     4  11  22  38  64  95 137 164 209 256 334 389
#
# _framework density 25.243687000000001
#
# number of rings (size 3 to 8) (size 9 to 14) (size 15 to 20)
#    0.000    1.250    2.500    2.625    5.250    3.500 
#    0.000    0.000    0.000    3.000    0.000    0.000 
#    0.000    0.000    0.000    0.000    0.000    0.000 
#
# Total GULP energy -89481.529554 kJ/mol
# GULP energy per Si atom -5592.595597 kJ/mol
# Density = 2.518623 g / cm^3
# Si number density = 25.243687 Si / 1000 Ang^3
#
#
#
# Elastic Constant Matrix: (Units=GPa)
#
#
# Indices 1 2 3 4 5 6 
#
# 1 107.0378 -0.1944 32.8267 -0.6504 2.1495 -22.1076
# 2 -0.1944 26.5516 -3.1950 -2.9449 -0.4703 4.8121
# 3 32.8267 -3.1950 114.0061 -11.5359 -1.1555 -13.0284
# 4 -0.6504 -2.9449 -11.5359 34.7737 -6.0103 4.9047
# 5 2.1495 -0.4703 -1.1555 -6.0103 40.8966 -0.7443
# 6 -22.1076 4.8121 -13.0284 4.9047 -0.7443 40.7695
#
#
#
# Elastic Compliance Matrix: (Units=1/GPa)
#
#
# Indices 1 2 3 4 5 6 
#
# 1 0.011391 -0.001500 -0.002869 -0.001810 -0.000860 0.005639
# 2 -0.001500 0.039376 0.001392 0.004756 0.001169 -0.005567
# 3 -0.002869 0.001392 0.010122 0.003433 0.000978 0.001119
# 4 -0.001810 0.004756 0.003433 0.031688 0.004828 -0.004170
# 5 -0.000860 0.001169 0.000978 0.004828 0.025240 -0.000412
# 6 0.005639 -0.005567 0.001119 -0.004170 -0.000412 0.029095
#
#
# Mechanical properties :
#
#
# Convention : Reuss Voigt Hill
#
# Bulk Modulus (GPa) = 18.20338 34.05225 26.12781
# Shear Modulus (GPa) = 29.20962 37.83183 33.52072
#
# Velocity S-wave (km/s) = 3.40532 3.87546 3.64797
# Velocity P-wave (km/s) = 4.76322 5.79174 5.30248
#
# Compressibility (1/GPa) = 0.05493486
#
# Stress axis : x y z
#
# Youngs Moduli (GPa) = 87.79129 25.39616 98.79607
#
# Poissons Ratio (x) = 0.03809 0.28348
# Poissons Ratio (y) = 0.13167 -0.13755
# Poissons Ratio (z) = 0.25190 -0.03536
#
# Static dielectric constant tensor:
#      x y z
#    x 2.024440 -0.044810 -0.017010 
#    y -0.044810 2.160890 -0.002440 
#    z -0.017010 -0.002440 1.977560 
# 
# From -- ./inp_files/273477.got.cif
#   From: 2010.05.17/outbox.cif.g08.bks.cpg/sg2_137_cif.got.tgz:273477.got - 2010.06.03 11:33:40.
