data_PCOD9005922
_publ_section_title
;
Structure prediction by ZEFSAII (Michael W. Deem and Ramdas Pophale) SiO2 
 PCOD9005922
Probable space group: P -1
;
_chemical_formula_sum "Si O2"
_cell_formula_units_Z 14
_cell_length_a 18.599479
_cell_length_b 8.537066
_cell_length_c 8.283725
_cell_angle_alpha 145.622728
_cell_angle_beta 52.633183
_cell_angle_gamma 129.382196
_cell_volume 563.506624
_symmetry_space_group_name_H-M "P -1"
_symmetry_group_IT_number 2
_symmetry_cell_setting 'triclinic'
loop_
_space_group_symop_operation_xyz
x,y,z
-x,-y,-z
loop_
_atom_site_type_symbol
_atom_site_label
_atom_site_fract_x
_atom_site_fract_y
_atom_site_fract_z
Si Si1 0.247969 0.192407 0.130276
Si Si2 0.487191 0.063700 0.258499
Si Si3 0.075318 0.287251 0.580563
Si Si4 0.303026 0.665432 0.725831
Si Si5 0.066108 0.559720 0.305653
Si Si6 0.179579 0.232582 0.713333
Si Si7 0.578394 0.549995 0.081239
O O1 0.142687 0.226199 0.295581
O O2 0.300702 0.458008 0.400737
O O3 0.317883 0.234549 0.920395
O O4 0.241698 0.889177 0.967642
O O5 0.592657 0.110742 0.220021
O O6 0.458637 0.329042 0.604151
O O7 0.500000 0.000000 0.000000
O O8 0.413881 0.770240 0.173998
O O9 0.141563 0.350213 0.700818
O O10 0.011846 0.478665 0.764601
O O11 0.000000 0.000000 0.500000
O O12 0.284896 0.448766 0.724008
O O13 0.000000 0.500000 0.500000
O O14 0.142141 0.884148 0.468187
O O15 0.125972 0.336928 0.017678
O O16 0.500000 0.500000 0.000000
#
# Coordination Sequence:
#
# PCOD9005922 Si02
#       7
#     2   2   2   2   2   2   2
#     4  11  22  36  67  97 120 162 220 274 305 369
#     4  12  25  42  66  94 133 173 210 266 332 391
#     4   9  20  39  64  90 121 162 211 255 307 374
#     4  11  20  39  64  93 123 162 220 258 314 379
#     4  11  22  39  61  90 128 160 199 259 326 373
#     4  10  21  38  64  88 117 166 212 255 303 381
#     4  12  22  42  68  95 127 167 221 269 321 380
#
# _framework density 24.844429999999999
#
# number of rings (size 3 to 8) (size 9 to 14) (size 15 to 20)
#    0.000    1.143    2.857    5.143    0.000    3.429 
#    2.571    0.000    0.000    0.000    0.000    0.000 
#    0.000    0.000    0.000    0.000    0.000    0.000 
#
# Total GULP energy -78091.360037 kJ/mol
# GULP energy per Si atom -5577.954288 kJ/mol
# Density = 2.478788 g / cm^3
# Si number density = 24.844430 Si / 1000 Ang^3
#
#
#
# Elastic Constant Matrix: (Units=GPa)
#
#
# Indices 1 2 3 4 5 6 
#
# 1 13.5573 -4.5250 2.2498 3.7868 2.5592 -2.8673
# 2 -4.5250 102.9277 0.5601 -6.4817 10.3684 13.6471
# 3 2.2498 0.5601 115.2302 -0.4106 8.0209 -3.3511
# 4 3.7868 -6.4817 -0.4106 60.6084 7.4068 0.5152
# 5 2.5592 10.3684 8.0209 7.4068 24.9550 -11.0929
# 6 -2.8673 13.6471 -3.3511 0.5152 -11.0929 25.1392
#
#
#
# Elastic Compliance Matrix: (Units=1/GPa)
#
#
# Indices 1 2 3 4 5 6 
#
# 1 0.078138 0.003180 -0.001016 -0.003875 -0.005833 0.004556
# 2 0.003180 0.012774 0.000364 0.002711 -0.011793 -0.011783
# 3 -0.001016 0.000364 0.008914 0.000579 -0.003359 -0.000619
# 4 -0.003875 0.002711 0.000579 0.018198 -0.009079 -0.006216
# 5 -0.005833 -0.011793 -0.003359 -0.009079 0.064412 0.033898
# 6 0.004556 -0.011783 -0.000619 -0.006216 0.033898 0.061697
#
#
# Mechanical properties :
#
#
# Convention : Reuss Voigt Hill
#
# Bulk Modulus (GPa) = 9.53455 25.36499 17.44977
# Shear Modulus (GPa) = 18.24553 37.70253 27.97403
#
# Velocity S-wave (km/s) = 2.71291 3.89979 3.35918
# Velocity P-wave (km/s) = 3.69583 5.52354 4.69940
#
# Compressibility (1/GPa) = 0.10488177
#
# Stress axis : x y z
#
# Youngs Moduli (GPa) = 12.79784 78.28183 112.18030
#
# Poissons Ratio (x) = -0.24895 0.11401
# Poissons Ratio (y) = -0.04070 -0.04080
# Poissons Ratio (z) = 0.01301 -0.02847
#
# Static dielectric constant tensor:
#      x y z
#    x 2.421390 0.000360 0.241160 
#    y 0.000360 3.592460 -0.451460 
#    z 0.241160 -0.451460 2.259240 
# 
# From -- ./inp_files/216917.got.cif
#   From: 2010.05.17/outbox.cif.g08.bks.cpg/sg2_109_cif.got.tgz:216917.got - 2010.06.03 11:33:40.
