data_PCOD9005501
_publ_section_title
;
Structure prediction by ZEFSAII (Michael W. Deem and Ramdas Pophale) SiO2 
 PCOD9005501
Probable space group: P -1
;
_chemical_formula_sum "Si O2"
_cell_formula_units_Z 16
_cell_length_a 5.881205
_cell_length_b 8.855283
_cell_length_c 28.387573
_cell_angle_alpha 148.760202
_cell_angle_beta 110.650429
_cell_angle_gamma 68.539198
_cell_volume 711.142654
_symmetry_space_group_name_H-M "P -1"
_symmetry_group_IT_number 2
_symmetry_cell_setting 'triclinic'
loop_
_space_group_symop_operation_xyz
x,y,z
-x,-y,-z
loop_
_atom_site_type_symbol
_atom_site_label
_atom_site_fract_x
_atom_site_fract_y
_atom_site_fract_z
Si Si1 0.123112 0.049211 0.448610
Si Si2 0.774795 0.555767 0.745221
Si Si3 0.481035 0.361692 0.857379
Si Si4 0.784733 0.842583 0.722431
Si Si5 0.234736 0.260967 0.960820
Si Si6 0.630737 0.272304 0.524949
Si Si7 0.298972 0.849817 0.764538
Si Si8 0.922357 0.168643 0.087005
O O1 0.347713 0.203629 0.483224
O O2 0.845935 0.199631 0.481467
O O3 0.094584 0.769007 0.338824
O O4 0.245991 0.905538 0.467786
O O5 0.830427 0.760186 0.759439
O O6 0.484158 0.570970 0.720651
O O7 0.851068 0.710210 0.838663
O O8 0.286753 0.560900 0.865680
O O9 0.720986 0.193852 0.804150
O O10 0.391172 0.064791 0.790137
O O11 0.549775 0.558442 0.958456
O O12 0.621204 0.617906 0.628166
O O13 0.058136 0.749764 0.699059
O O14 0.274356 0.062411 0.864821
O O15 0.184430 0.055109 0.945543
O O16 0.000000 0.500000 0.000000
O O17 0.000000 0.000000 0.000000
#
# Coordination Sequence:
#
# PCOD9005501 Si02
#       8
#     2   2   2   2   2   2   2   2
#     4   9  19  33  58  93 129 159 207 269 331 379
#     4  10  22  38  61  90 121 168 207 259 318 383
#     4  11  24  38  60  89 124 164 210 259 318 378
#     4  10  21  38  62  91 121 165 209 259 316 379
#     4  12  21  41  63  86 122 162 212 259 315 376
#     4   9  19  32  58  94 128 157 208 273 326 380
#     4  11  21  39  62  87 121 164 214 260 311 383
#     4  12  25  42  60  91 128 165 210 260 316 377
#
# _framework density 22.498999999999999
#
# number of rings (size 3 to 8) (size 9 to 14) (size 15 to 20)
#    0.000    1.500    2.500    3.000   10.500    0.000 
#    0.000    0.000    0.000    1.500    0.000    0.000 
#    0.000    0.000    0.000    0.000    0.000    0.000 
#
# Total GULP energy -89238.746159 kJ/mol
# GULP energy per Si atom -5577.421635 kJ/mol
# Density = 2.244779 g / cm^3
# Si number density = 22.499000 Si / 1000 Ang^3
#
#
#
# Elastic Constant Matrix: (Units=GPa)
#
#
# Indices 1 2 3 4 5 6 
#
# 1 74.6469 11.5103 36.8824 4.6102 -5.8337 -10.6303
# 2 11.5103 54.1545 29.0097 13.3809 -4.3225 -9.4226
# 3 36.8824 29.0097 116.0997 12.1169 -14.4431 -1.7377
# 4 4.6102 13.3809 12.1169 15.9756 -5.0500 -4.3129
# 5 -5.8337 -4.3225 -14.4431 -5.0500 42.4246 0.1283
# 6 -10.6303 -9.4226 -1.7377 -4.3129 0.1283 17.6965
#
#
#
# Elastic Compliance Matrix: (Units=1/GPa)
#
#
# Indices 1 2 3 4 5 6 
#
# 1 0.017595 0.000855 -0.005729 0.001718 0.000728 0.010875
# 2 0.000855 0.026828 -0.005237 -0.016239 -0.000896 0.010333
# 3 -0.005729 -0.005237 0.012393 -0.004234 0.002412 -0.006063
# 4 0.001718 -0.016239 -0.004234 0.084560 0.007168 0.012526
# 5 0.000728 -0.000896 0.002412 0.007168 0.025249 0.001761
# 6 0.010875 0.010333 -0.006063 0.012526 0.001761 0.070988
#
#
# Mechanical properties :
#
#
# Convention : Reuss Voigt Hill
#
# Bulk Modulus (GPa) = 27.32685 44.41178 35.86932
# Shear Modulus (GPa) = 18.51619 26.38592 22.45106
#
# Velocity S-wave (km/s) = 2.87187 3.42827 3.16233
# Velocity P-wave (km/s) = 4.81342 5.95425 5.41397
#
# Compressibility (1/GPa) = 0.03659404
#
# Stress axis : x y z
#
# Youngs Moduli (GPa) = 56.83498 37.27398 80.68962
#
# Poissons Ratio (x) = -0.03188 0.46228
# Poissons Ratio (y) = -0.04861 0.42260
# Poissons Ratio (z) = 0.32562 0.19521
#
# Static dielectric constant tensor:
#      x y z
#    x 2.335710 -0.006030 -0.089720 
#    y -0.006030 1.784640 -0.005480 
#    z -0.089720 -0.005480 1.832150 
# 
# From -- ./inp_files/39520.got.cif
#   From: 2010.05.17/outbox.cif.g08.bks.cpg/sg2_20_cif.got.tgz:39520.got - 2010.06.03 11:33:40.
