data_PCOD9005147
_publ_section_title
;
Structure prediction by ZEFSAII (Michael W. Deem and Ramdas Pophale) SiO2 
 PCOD9005147
Probable space group: P -1
;
_chemical_formula_sum "Si O2"
_cell_formula_units_Z 14
_cell_length_a 18.692697
_cell_length_b 12.281999
_cell_length_c 8.589610
_cell_angle_alpha 114.020586
_cell_angle_beta 48.634340
_cell_angle_gamma 151.407282
_cell_volume 620.518089
_symmetry_space_group_name_H-M "P -1"
_symmetry_group_IT_number 2
_symmetry_cell_setting 'triclinic'
loop_
_space_group_symop_operation_xyz
x,y,z
-x,-y,-z
loop_
_atom_site_type_symbol
_atom_site_label
_atom_site_fract_x
_atom_site_fract_y
_atom_site_fract_z
Si Si1 0.662010 0.266032 0.699909
Si Si2 0.853698 0.200373 0.675409
Si Si3 0.380995 0.147282 0.904740
Si Si4 0.993487 0.782462 0.056502
Si Si5 0.679474 0.271936 0.027803
Si Si6 0.647768 0.563153 0.529496
Si Si7 0.281250 0.120640 0.570502
O O1 0.537249 0.208938 0.725295
O O2 0.647893 0.297677 0.919336
O O3 0.904298 0.531960 0.473068
O O4 0.536254 0.002763 0.739355
O O5 0.781232 0.256039 0.832071
O O6 0.814037 0.100605 0.505044
O O7 0.720134 0.968511 0.847342
O O8 0.522382 0.408391 0.780488
O O9 0.176463 0.914951 0.957038
O O10 0.828604 0.509419 0.062045
O O11 0.113634 0.979057 0.855688
O O12 0.864243 0.732437 0.315780
O O13 0.494516 0.337050 0.484850
O O14 0.681221 0.733863 0.523145
#
# Coordination Sequence:
#
# PCOD9005147 Si02
#       7
#     2   2   2   2   2   2   2
#     4  10  21  38  60  95 125 160 201 255 306 365
#     4  11  22  40  65  93 127 159 208 262 299 374
#     4  10  24  41  61  95 129 163 206 248 323 360
#     4  11  22  42  65  90 129 165 203 257 305 374
#     4  10  23  37  66  95 122 163 212 246 314 363
#     4  10  23  43  63  91 127 165 205 259 304 373
#     4  10  23  40  68  94 117 164 218 251 308 362
#
# _framework density 22.561793000000002
#
# number of rings (size 3 to 8) (size 9 to 14) (size 15 to 20)
#    0.000    1.714    1.429    1.714    6.000    4.000 
#    0.000    7.143    0.000    0.000    0.000    0.000 
#    0.000    0.000    0.000    0.000    0.000    0.000 
#
# Total GULP energy -78167.188466 kJ/mol
# GULP energy per Si atom -5583.370605 kJ/mol
# Density = 2.251044 g / cm^3
# Si number density = 22.561793 Si / 1000 Ang^3
#
#
#
# Elastic Constant Matrix: (Units=GPa)
#
#
# Indices 1 2 3 4 5 6 
#
# 1 118.2164 30.7428 45.1558 -15.3372 -12.0250 7.7322
# 2 30.7428 60.2644 28.6668 -16.2836 -22.1161 5.0693
# 3 45.1558 28.6668 112.4017 -38.1690 -4.0351 -5.1056
# 4 -15.3372 -16.2836 -38.1690 30.5661 5.1431 -2.1621
# 5 -12.0250 -22.1161 -4.0351 5.1431 41.6127 -15.2747
# 6 7.7322 5.0693 -5.1056 -2.1621 -15.2747 15.6135
#
#
#
# Elastic Compliance Matrix: (Units=1/GPa)
#
#
# Indices 1 2 3 4 5 6 
#
# 1 0.011433 -0.004404 -0.004965 -0.003030 -0.002258 -0.008484
# 2 -0.004404 0.026397 -0.001090 0.008623 0.014897 0.009022
# 3 -0.004965 -0.001090 0.019245 0.021564 0.002536 0.014573
# 4 -0.003030 0.008623 0.021564 0.063231 0.005163 0.019559
# 5 -0.002258 0.014897 0.002536 0.005163 0.046974 0.043781
# 6 -0.008484 0.009022 0.014573 0.019559 0.043781 0.115624
#
#
# Mechanical properties :
#
#
# Convention : Reuss Voigt Hill
#
# Bulk Modulus (GPa) = 27.65833 55.55705 41.60769
# Shear Modulus (GPa) = 15.82901 29.97960 22.90430
#
# Velocity S-wave (km/s) = 2.65162 3.64919 3.18965
# Velocity P-wave (km/s) = 4.65406 6.51409 5.66099
#
# Compressibility (1/GPa) = 0.03615548
#
# Stress axis : x y z
#
# Youngs Moduli (GPa) = 87.46501 37.88347 51.96185
#
# Poissons Ratio (x) = 0.16685 0.25800
# Poissons Ratio (y) = 0.38522 0.05665
# Poissons Ratio (z) = 0.43428 0.04130
#
# Static dielectric constant tensor:
#      x y z
#    x 1.855570 0.007380 0.020870 
#    y 0.007380 1.791910 -0.015150 
#    z 0.020870 -0.015150 1.873580 
# 
# From -- ./inp_files/333493.got.cif
#   From: 2010.05.17/outbox.cif.g08.bks.cpg/sg2_167_cif.got.tgz:333493.got - 2010.06.03 11:33:40.
