data_PCOD9005627
_publ_section_title
;
Structure prediction by ZEFSAII (Michael W. Deem and Ramdas Pophale) SiO2 
 PCOD9005627
Probable space group: P -1
;
_chemical_formula_sum "Si O2"
_cell_formula_units_Z 16
_cell_length_a 14.537933
_cell_length_b 6.553344
_cell_length_c 11.218196
_cell_angle_alpha 92.394453
_cell_angle_beta 132.875707
_cell_angle_gamma 65.364684
_cell_volume 663.366732
_symmetry_space_group_name_H-M "P -1"
_symmetry_group_IT_number 2
_symmetry_cell_setting 'triclinic'
loop_
_space_group_symop_operation_xyz
x,y,z
-x,-y,-z
loop_
_atom_site_type_symbol
_atom_site_label
_atom_site_fract_x
_atom_site_fract_y
_atom_site_fract_z
Si Si1 0.935190 0.958413 0.775972
Si Si2 0.732137 0.391762 0.426048
Si Si3 0.348728 0.761791 0.872376
Si Si4 0.450030 0.356703 0.532432
Si Si5 0.731236 0.829134 0.748950
Si Si6 0.854911 0.892476 0.085277
Si Si7 0.248027 0.231631 0.683936
Si Si8 0.050649 0.540608 0.695737
O O1 0.829824 0.178831 0.599802
O O2 0.834350 0.889429 0.761266
O O3 0.053874 0.030493 0.917375
O O4 0.039381 0.718676 0.788445
O O5 0.752455 0.271293 0.313079
O O6 0.575192 0.519701 0.358126
O O7 0.727953 0.638599 0.400825
O O8 0.264765 0.895670 0.925410
O O9 0.364889 0.962415 0.818289
O O10 0.500000 0.500000 0.000000
O O11 0.500000 0.500000 0.500000
O O12 0.307743 0.353880 0.352888
O O13 0.578955 0.081329 0.640092
O O14 0.795161 0.773626 0.937814
O O15 0.963166 0.673276 0.264044
O O16 0.209726 0.394236 0.771151
O O17 0.083890 0.287651 0.508157
#
# Coordination Sequence:
#
# PCOD9005627 Si02
#       8
#     2   2   2   2   2   2   2   2
#     4  12  23  40  71 106 142 194 243 293 365 426
#     4  12  23  41  72 103 138 185 244 299 352 433
#     4  11  25  44  70 105 145 196 237 295 363 424
#     4  11  25  47  72 100 138 193 247 294 355 428
#     4  11  26  45  70 103 143 192 243 299 358 432
#     4  11  25  45  68 109 153 185 237 300 366 428
#     4  10  21  39  66  98 143 182 235 294 350 429
#     4  10  21  38  63 102 140 189 231 287 358 425
#
# _framework density 24.119387
#
# number of rings (size 3 to 8) (size 9 to 14) (size 15 to 20)
#    0.000    1.000    3.750    2.625    0.000    3.000 
#    0.000    3.750    0.000    0.000    0.000    0.000 
#    0.000    0.000    0.000    0.000    0.000    0.000 
#
# Total GULP energy -89076.305009 kJ/mol
# GULP energy per Si atom -5567.269063 kJ/mol
# Density = 2.406449 g / cm^3
# Si number density = 24.119387 Si / 1000 Ang^3
#
#
#
# Elastic Constant Matrix: (Units=GPa)
#
#
# Indices 1 2 3 4 5 6 
#
# 1 85.0731 31.1857 23.8112 -6.7449 -15.3823 30.5405
# 2 31.1857 116.9209 40.3971 -26.5159 -2.7439 5.7525
# 3 23.8112 40.3971 80.8564 -7.4116 -9.0380 5.2668
# 4 -6.7449 -26.5159 -7.4116 48.0843 -0.7621 0.6267
# 5 -15.3823 -2.7439 -9.0380 -0.7621 19.9575 -4.7211
# 6 30.5405 5.7525 5.2668 0.6267 -4.7211 24.6273
#
#
#
# Elastic Compliance Matrix: (Units=1/GPa)
#
#
# Indices 1 2 3 4 5 6 
#
# 1 0.026937 -0.004250 -0.002370 0.001649 0.012161 -0.029616
# 2 -0.004250 0.012426 -0.004970 0.005408 -0.002967 0.002724
# 3 -0.002370 -0.004970 0.015958 -0.000555 0.005092 0.001678
# 4 0.001649 0.005408 -0.000555 0.023999 0.001865 -0.003442
# 5 0.012161 -0.002967 0.005092 0.001865 0.060521 -0.003923
# 6 -0.029616 0.002724 0.001678 -0.003442 -0.003923 0.075673
#
#
# Mechanical properties :
#
#
# Convention : Reuss Voigt Hill
#
# Bulk Modulus (GPa) = 31.11212 52.62648 41.86930
# Shear Modulus (GPa) = 20.04744 31.03092 25.53918
#
# Velocity S-wave (km/s) = 2.88614 3.59075 3.25755
# Velocity P-wave (km/s) = 4.90241 6.24963 5.61656
#
# Compressibility (1/GPa) = 0.03214181
#
# Stress axis : x y z
#
# Youngs Moduli (GPa) = 37.12320 80.47452 62.66510
#
# Poissons Ratio (x) = 0.34199 0.14851
# Poissons Ratio (y) = 0.15776 0.31146
# Poissons Ratio (z) = 0.08798 0.39998
#
# Static dielectric constant tensor:
#      x y z
#    x 1.945890 0.041260 -0.141710 
#    y 0.041260 1.989000 0.051400 
#    z -0.141710 0.051400 1.847010 
# 
# From -- ./inp_files/442002.got.cif
#   From: 2010.05.17/outbox.cif.g08.bks.cpg/sg2_222_cif.got.tgz:442002.got - 2010.06.03 11:33:40.
