data_PCOD9005736
_publ_section_title
;
Structure prediction by ZEFSAII (Michael W. Deem and Ramdas Pophale) SiO2 
 PCOD9005736
Probable space group: P -1
;
_chemical_formula_sum "Si O2"
_cell_formula_units_Z 15
_cell_length_a 8.959671
_cell_length_b 19.310848
_cell_length_c 9.150872
_cell_angle_alpha 129.565299
_cell_angle_beta 147.443491
_cell_angle_gamma 50.723321
_cell_volume 638.909010
_symmetry_space_group_name_H-M "P -1"
_symmetry_group_IT_number 2
_symmetry_cell_setting 'triclinic'
loop_
_space_group_symop_operation_xyz
x,y,z
-x,-y,-z
loop_
_atom_site_type_symbol
_atom_site_label
_atom_site_fract_x
_atom_site_fract_y
_atom_site_fract_z
Si Si1 0.000000 0.000000 0.000000
Si Si2 0.349414 0.373951 0.136293
Si Si3 0.528424 0.728501 0.187928
Si Si4 0.179120 0.122016 0.856868
Si Si5 0.111047 0.183298 0.201227
Si Si6 0.195159 0.921470 0.746744
Si Si7 0.272835 0.586997 0.260155
Si Si8 0.313191 0.437056 0.691193
O O1 0.045166 0.086122 0.057400
O O2 0.964270 0.063940 0.210963
O O3 0.311692 0.476264 0.168990
O O4 0.632455 0.366853 0.454804
O O5 0.374449 0.296906 0.930038
O O6 0.062521 0.376781 0.995996
O O7 0.683474 0.644069 0.303040
O O8 0.630485 0.809101 0.467325
O O9 0.187900 0.742998 0.925396
O O10 0.927953 0.139894 0.555163
O O11 0.181615 0.020054 0.787557
O O12 0.470598 0.118365 0.007286
O O13 0.173099 0.183303 0.079235
O O14 0.504053 0.600683 0.351430
O O15 0.000000 0.500000 0.500000
O O16 0.500000 0.500000 0.000000
#
# Coordination Sequence:
#
# PCOD9005736 Si02
#       8
#     1   2   2   2   2   2   2   2
#     4  10  24  44  68  98 124 172 224 264 324 402
#     4  10  21  38  63  91 132 166 216 258 331 380
#     4  12  25  43  64  97 132 171 213 280 321 378
#     4   9  18  36  58  87 118 161 199 253 321 374
#     4  11  25  43  65  92 132 170 218 272 330 378
#     4   9  18  34  62  88 116 152 211 257 302 384
#     4  10  21  38  63  94 124 174 213 262 312 402
#     4  12  24  41  66  95 126 168 219 261 312 397
#
# _framework density 23.477520999999999
#
# number of rings (size 3 to 8) (size 9 to 14) (size 15 to 20)
#    0.000    1.600    1.333    3.200    3.733    5.333 
#    0.000    8.000    0.000    0.000    0.000    0.000 
#    0.000    0.000    0.000    0.000    0.000    0.000 
#
# Total GULP energy -83545.536100 kJ/mol
# GULP energy per Si atom -5569.702407 kJ/mol
# Density = 2.342409 g / cm^3
# Si number density = 23.477521 Si / 1000 Ang^3
#
#
#
# Elastic Constant Matrix: (Units=GPa)
#
#
# Indices 1 2 3 4 5 6 
#
# 1 82.4853 2.2259 29.8982 12.1339 -21.8065 -9.8487
# 2 2.2259 9.1989 -0.7907 18.6229 2.3962 10.4309
# 3 29.8982 -0.7907 131.1850 7.6438 -0.7775 -19.0228
# 4 12.1339 18.6229 7.6438 -0.0819 -17.2632 -14.6224
# 5 -21.8065 2.3962 -0.7775 -17.2632 30.3569 6.0595
# 6 -9.8487 10.4309 -19.0228 -14.6224 6.0595 27.1033
#
#
#
# Elastic Compliance Matrix: (Units=1/GPa)
#
#
# Indices 1 2 3 4 5 6 
#
# 1 0.016507 -0.000230 -0.003574 -0.003110 0.010086 -0.000354
# 2 -0.000230 0.022216 -0.000890 0.036737 0.017628 0.006621
# 3 -0.003574 -0.000890 0.009326 -0.001423 -0.004218 0.005764
# 4 -0.003110 0.036737 -0.001423 -0.006685 -0.005239 -0.018703
# 5 0.010086 0.017628 -0.004218 -0.005239 0.039237 -0.017678
# 6 -0.000354 0.006621 0.005764 -0.018703 -0.017678 0.032127
#
#
# Mechanical properties :
#
#
# Convention : Reuss Voigt Hill
#
# Bulk Modulus (GPa) = 25.86610 31.72621 28.79615
# Shear Modulus (GPa) = 37.03672 24.24471 30.64072
#
# Velocity S-wave (km/s) = 3.97613 3.21702 3.61655
# Velocity P-wave (km/s) = 5.66752 5.22893 5.45264
#
# Compressibility (1/GPa) = 0.03866064
#
# Stress axis : x y z
#
# Youngs Moduli (GPa) = 60.58181 45.01267 107.22992
#
# Poissons Ratio (x) = 0.01037 0.38321
# Poissons Ratio (y) = 0.01396 0.09540
# Poissons Ratio (z) = 0.21651 0.04004
#
# Static dielectric constant tensor:
#      x y z
#    x 1.942760 -0.010580 -0.014490 
#    y -0.010580 1.909100 0.043300 
#    z -0.014490 0.043300 1.880140 
# 
# From -- ./inp_files/215267.got.cif
#   From: 2010.05.17/outbox.cif.g08.bks.cpg/sg2_108_cif.got.tgz:215267.got - 2010.06.03 11:33:40.
