data_PCOD9005037
_publ_section_title
;
Structure prediction by ZEFSAII (Michael W. Deem and Ramdas Pophale) SiO2 
 PCOD9005037
Probable space group: P -1
;
_chemical_formula_sum "Si O2"
_cell_formula_units_Z 14
_cell_length_a 9.263052
_cell_length_b 10.294247
_cell_length_c 7.957210
_cell_angle_alpha 83.930276
_cell_angle_beta 76.516519
_cell_angle_gamma 61.718451
_cell_volume 649.767354
_symmetry_space_group_name_H-M "P -1"
_symmetry_group_IT_number 2
_symmetry_cell_setting 'triclinic'
loop_
_space_group_symop_operation_xyz
x,y,z
-x,-y,-z
loop_
_atom_site_type_symbol
_atom_site_label
_atom_site_fract_x
_atom_site_fract_y
_atom_site_fract_z
Si Si1 0.221430 0.545917 0.029152
Si Si2 0.587740 0.274876 0.964101
Si Si3 0.735568 0.099480 0.626405
Si Si4 0.735191 0.798399 0.361417
Si Si5 0.943729 0.474653 0.250684
Si Si6 0.542234 0.122727 0.326721
Si Si7 0.001242 0.788058 0.502238
O O1 0.404985 0.410914 0.961763
O O2 0.105637 0.593380 0.887485
O O3 0.272174 0.667656 0.067768
O O4 0.113318 0.489650 0.179514
O O5 0.631292 0.160577 0.815473
O O6 0.575627 0.206653 0.155498
O O7 0.635670 0.121026 0.476346
O O8 0.834819 0.193668 0.561986
O O9 0.872125 0.928196 0.627799
O O10 0.792479 0.640351 0.287530
O O11 0.648219 0.806857 0.565239
O O12 0.905178 0.807999 0.350199
O O13 0.610937 0.950513 0.284346
O O14 0.961324 0.368851 0.413375
#
# Coordination Sequence:
#
# PCOD9005037 Si02
#       7
#     2   2   2   2   2   2   2
#     4  10  24  37  56  93 119 148 212 237 281 377
#     4  11  22  42  62  85 122 158 190 251 298 334
#     4  10  22  40  62  90 118 153 201 242 289 355
#     4  10  21  38  60  88 119 155 200 240 290 356
#     4  11  21  39  59  84 123 161 189 248 299 337
#     4  10  22  40  62  90 118 153 201 242 289 355
#     4  10  21  38  60  88 119 155 200 240 290 356
#
# _framework density 21.546171999999999
#
# number of rings (size 3 to 8) (size 9 to 14) (size 15 to 20)
#    0.000    1.714    0.000    3.857    0.000    4.571 
#    0.000   20.714    0.000    0.000    0.000    0.000 
#    0.000    0.000    0.000    0.000    0.000    0.000 
#
# Total GULP energy -78145.805949 kJ/mol
# GULP energy per Si atom -5581.843282 kJ/mol
# Density = 2.149713 g / cm^3
# Si number density = 21.546172 Si / 1000 Ang^3
#
#
#
# Elastic Constant Matrix: (Units=GPa)
#
#
# Indices 1 2 3 4 5 6 
#
# 1 112.0374 17.4054 27.1352 -13.2341 -10.7509 23.2135
# 2 17.4054 45.6756 3.7181 4.7130 -0.6366 14.3522
# 3 27.1352 3.7181 58.9173 4.3601 -0.9595 7.0462
# 4 -13.2341 4.7130 4.3601 24.3832 -1.7135 -2.9306
# 5 -10.7509 -0.6366 -0.9595 -1.7135 25.4392 0.7703
# 6 23.2135 14.3522 7.0462 -2.9306 0.7703 27.1144
#
#
#
# Elastic Compliance Matrix: (Units=1/GPa)
#
#
# Indices 1 2 3 4 5 6 
#
# 1 0.014229 -0.003195 -0.005924 0.008877 0.006555 -0.008178
# 2 -0.003195 0.028190 0.002000 -0.009240 -0.000777 -0.013683
# 3 -0.005924 0.002000 0.020349 -0.007636 -0.002138 -0.002040
# 4 0.008877 -0.009240 -0.007636 0.049975 0.006462 0.004493
# 5 0.006555 -0.000777 -0.002138 0.006462 0.042571 -0.005156
# 6 -0.008178 -0.013683 -0.002040 0.004493 -0.005156 0.052287
#
#
# Mechanical properties :
#
#
# Convention : Reuss Voigt Hill
#
# Bulk Modulus (GPa) = 20.60554 34.79416 27.69985
# Shear Modulus (GPa) = 21.00705 26.61215 23.80960
#
# Velocity S-wave (km/s) = 3.12585 3.51824 3.32784
# Velocity P-wave (km/s) = 4.75522 5.71732 5.25832
#
# Compressibility (1/GPa) = 0.04853063
#
# Stress axis : x y z
#
# Youngs Moduli (GPa) = 70.28054 35.47350 49.14201
#
# Poissons Ratio (x) = 0.11333 0.29111
# Poissons Ratio (y) = 0.22453 -0.09828
# Poissons Ratio (z) = 0.41632 -0.07094
#
# Static dielectric constant tensor:
#      x y z
#    x 1.804760 0.012330 -0.012810 
#    y 0.012330 1.770790 0.040960 
#    z -0.012810 0.040960 1.774610 
# 
# From -- ./inp_files/158476.got.cif
#   From: 2010.05.17/outbox.cif.g08.bks.cpg/sg2_80_cif.got.tgz:158476.got - 2010.06.03 11:33:40.
