data_PCOD9005373
_publ_section_title
;
Structure prediction by ZEFSAII (Michael W. Deem and Ramdas Pophale) SiO2 
 PCOD9005373
Probable space group: P -1
;
_chemical_formula_sum "Si O2"
_cell_formula_units_Z 14
_cell_length_a 22.253403
_cell_length_b 5.172787
_cell_length_c 10.551670
_cell_angle_alpha 62.677836
_cell_angle_beta 29.163668
_cell_angle_gamma 65.806259
_cell_volume 525.748204
_symmetry_space_group_name_H-M "P -1"
_symmetry_group_IT_number 2
_symmetry_cell_setting 'triclinic'
loop_
_space_group_symop_operation_xyz
x,y,z
-x,-y,-z
loop_
_atom_site_type_symbol
_atom_site_label
_atom_site_fract_x
_atom_site_fract_y
_atom_site_fract_z
Si Si1 0.918400 0.280388 0.618624
Si Si2 0.946274 0.178719 0.177782
Si Si3 0.293729 0.483316 0.460876
Si Si4 0.414692 0.124918 0.799966
Si Si5 0.364837 0.569038 0.569436
Si Si6 0.696443 0.505738 0.846399
Si Si7 0.836460 0.069142 0.052718
O O1 0.000000 0.500000 0.500000
O O2 0.811741 0.159939 0.934625
O O3 0.843609 0.434001 0.607815
O O4 0.000000 0.000000 0.500000
O O5 0.800861 0.237707 0.440800
O O6 0.018060 0.003307 0.193796
O O7 0.000000 0.500000 0.000000
O O8 0.000000 0.000000 0.000000
O O9 0.391765 0.554170 0.373730
O O10 0.670736 0.603791 0.727274
O O11 0.225568 0.211174 0.711380
O O12 0.392374 0.294313 0.670420
O O13 0.555656 0.178349 0.569536
O O14 0.340930 0.283370 0.016211
O O15 0.374427 0.796472 0.940173
O O16 0.219973 0.659081 0.826686
#
# Coordination Sequence:
#
# PCOD9005373 Si02
#       7
#     2   2   2   2   2   2   2
#     4  12  27  46  74 105 145 192 240 294 366 435
#     4  10  21  38  61  97 134 178 222 286 342 419
#     4  11  26  43  76 105 153 191 243 297 377 431
#     4  11  28  48  76 103 148 194 252 302 362 427
#     4  11  25  47  76 104 139 202 251 301 358 436
#     4  12  27  50  70 111 152 187 239 312 367 429
#     4  11  24  44  72 103 145 187 248 289 359 440
#
# _framework density 26.628716000000001
#
# number of rings (size 3 to 8) (size 9 to 14) (size 15 to 20)
#    0.000    0.857    2.857    2.571    6.000    4.571 
#    0.000    0.000    0.000    0.000    0.000    0.000 
#    0.000    0.000    0.000    0.000    0.000    0.000 
#
# Total GULP energy -78397.191528 kJ/mol
# GULP energy per Si atom -5599.799395 kJ/mol
# Density = 2.656811 g / cm^3
# Si number density = 26.628716 Si / 1000 Ang^3
#
#
#
# Elastic Constant Matrix: (Units=GPa)
#
#
# Indices 1 2 3 4 5 6 
#
# 1 189.8606 43.2375 40.7954 2.0572 0.3599 -6.7791
# 2 43.2375 121.7193 43.8835 6.1706 -8.2377 7.3038
# 3 40.7954 43.8835 80.8132 4.5866 -2.6972 -4.7096
# 4 2.0572 6.1706 4.5866 63.8167 1.7528 2.0955
# 5 0.3599 -8.2377 -2.6972 1.7528 47.7575 4.3450
# 6 -6.7791 7.3038 -4.7096 2.0955 4.3450 41.4069
#
#
#
# Elastic Compliance Matrix: (Units=1/GPa)
#
#
# Indices 1 2 3 4 5 6 
#
# 1 0.006123 -0.001465 -0.002257 0.000086 -0.000525 0.001055
# 2 -0.001465 0.010981 -0.005299 -0.000589 0.001896 -0.002949
# 3 -0.002257 -0.005299 0.016570 -0.000683 -0.000164 0.002502
# 4 0.000086 -0.000589 -0.000683 0.015814 -0.000658 -0.000691
# 5 -0.000525 0.001896 -0.000164 -0.000658 0.021527 -0.002665
# 6 0.001055 -0.002949 0.002502 -0.000691 -0.002665 0.025443
#
#
# Mechanical properties :
#
#
# Convention : Reuss Voigt Hill
#
# Bulk Modulus (GPa) = 63.96299 72.02510 67.99404
# Shear Modulus (GPa) = 41.76746 48.22800 44.99773
#
# Velocity S-wave (km/s) = 3.96474 4.26035 4.11520
# Velocity P-wave (km/s) = 6.71054 7.16292 6.94042
#
# Compressibility (1/GPa) = 0.01563404
#
# Stress axis : x y z
#
# Youngs Moduli (GPa) = 163.31317 91.06259 60.35028
#
# Poissons Ratio (x) = 0.13338 0.13619
# Poissons Ratio (y) = 0.23921 0.31979
# Poissons Ratio (z) = 0.36853 0.48253
#
# Static dielectric constant tensor:
#      x y z
#    x 2.165920 0.003940 -0.037370 
#    y 0.003940 1.962510 0.038370 
#    z -0.037370 0.038370 2.142190 
# 
# From -- ./inp_files/73833.got.cif
#   From: 2010.05.17/outbox.cif.g08.bks.cpg/sg2_37_cif.got.tgz:73833.got - 2010.06.03 11:33:40.
