data_PCOD9005468
_publ_section_title
;
Structure prediction by ZEFSAII (Michael W. Deem and Ramdas Pophale) SiO2 
 PCOD9005468
Probable space group: P -1
;
_chemical_formula_sum "Si O2"
_cell_formula_units_Z 16
_cell_length_a 18.018826
_cell_length_b 7.997530
_cell_length_c 8.432127
_cell_angle_alpha 102.397326
_cell_angle_beta 104.465280
_cell_angle_gamma 133.579910
_cell_volume 710.973544
_symmetry_space_group_name_H-M "P -1"
_symmetry_group_IT_number 2
_symmetry_cell_setting 'triclinic'
loop_
_space_group_symop_operation_xyz
x,y,z
-x,-y,-z
loop_
_atom_site_type_symbol
_atom_site_label
_atom_site_fract_x
_atom_site_fract_y
_atom_site_fract_z
Si Si1 0.864706 0.342382 0.850400
Si Si2 0.776455 0.652763 0.574067
Si Si3 0.131796 0.249356 0.034622
Si Si4 0.392132 0.251052 0.265376
Si Si5 0.448525 0.750444 0.831115
Si Si6 0.152049 0.883120 0.505916
Si Si7 0.998013 0.139622 0.392948
Si Si8 0.634865 0.663581 0.063822
O O1 0.854688 0.522856 0.935935
O O2 0.739278 0.031555 0.784860
O O3 0.863089 0.305239 0.653219
O O4 0.000000 0.500000 0.000000
O O5 0.777256 0.663680 0.765949
O O6 0.644417 0.367539 0.382271
O O7 0.814199 0.897588 0.554066
O O8 0.873306 0.674281 0.584896
O O9 0.112923 0.104756 0.837237
O O10 0.000000 0.000000 0.000000
O O11 0.500000 0.500000 0.500000
O O12 0.449793 0.192174 0.185760
O O13 0.362855 0.330708 0.122617
O O14 0.367699 0.516133 0.876814
O O15 0.500000 0.000000 0.000000
O O16 0.258828 0.045754 0.727299
O O17 0.032741 0.739824 0.509514
O O18 0.000000 0.000000 0.500000
O O19 0.500000 0.500000 0.000000
#
# Coordination Sequence:
#
# PCOD9005468 Si02
#       8
#     2   2   2   2   2   2   2   2
#     4  12  25  42  64  96 133 173 220 268 315 383
#     4   9  19  38  61  86 124 162 203 264 327 377
#     4  10  22  40  62  91 128 169 209 264 327 383
#     4  11  25  44  66  94 131 175 216 264 326 387
#     4  10  22  40  65  95 123 161 215 272 320 382
#     4  10  21  38  62  90 122 164 212 263 312 379
#     4   9  18  35  59  86 119 162 204 251 318 381
#     4   9  20  41  65  88 126 170 212 264 327 384
#
# _framework density 22.504356000000001
#
# number of rings (size 3 to 8) (size 9 to 14) (size 15 to 20)
#    0.000    2.000    0.000    4.500    0.000   11.000 
#    0.000    6.875    0.000    0.000    0.000    0.000 
#    0.000    0.000    0.000    0.000    0.000    0.000 
#
# Total GULP energy -89243.092231 kJ/mol
# GULP energy per Si atom -5577.693264 kJ/mol
# Density = 2.245314 g / cm^3
# Si number density = 22.504356 Si / 1000 Ang^3
#
#
#
# Elastic Constant Matrix: (Units=GPa)
#
#
# Indices 1 2 3 4 5 6 
#
# 1 112.8723 35.0587 41.6612 -1.4690 -14.1055 25.8639
# 2 35.0587 73.5355 36.6908 -5.1514 -1.3032 7.7117
# 3 41.6612 36.6908 160.1468 -20.1715 14.0560 0.5131
# 4 -1.4690 -5.1514 -20.1715 33.4170 1.3438 0.9559
# 5 -14.1055 -1.3032 14.0560 1.3438 47.0297 0.0492
# 6 25.8639 7.7117 0.5131 0.9559 0.0492 35.1228
#
#
#
# Elastic Compliance Matrix: (Units=1/GPa)
#
#
# Indices 1 2 3 4 5 6 
#
# 1 0.014201 -0.004113 -0.003437 -0.002024 0.005240 -0.009456
# 2 -0.004113 0.017056 -0.002736 0.000816 0.000034 -0.000698
# 3 -0.003437 -0.002736 0.008691 0.004745 -0.003843 0.002881
# 4 -0.002024 0.000816 0.004745 0.032934 -0.002944 0.000350
# 5 0.005240 0.000034 -0.003843 -0.002944 0.024072 -0.003764
# 6 -0.009456 -0.000698 0.002881 0.000350 -0.003764 0.035542
#
#
# Mechanical properties :
#
#
# Convention : Reuss Voigt Hill
#
# Bulk Modulus (GPa) = 51.60753 63.70842 57.65798
# Shear Modulus (GPa) = 31.34298 38.65683 34.99990
#
# Velocity S-wave (km/s) = 3.73601 4.14907 3.94794
# Velocity P-wave (km/s) = 6.44921 7.16407 6.81602
#
# Compressibility (1/GPa) = 0.01937702
#
# Stress axis : x y z
#
# Youngs Moduli (GPa) = 70.41827 58.63143 115.06469
#
# Poissons Ratio (x) = 0.24115 0.39543
# Poissons Ratio (y) = 0.28963 0.31477
# Poissons Ratio (z) = 0.24200 0.16039
#
# Static dielectric constant tensor:
#      x y z
#    x 1.920140 -0.045520 0.021530 
#    y -0.045520 2.050530 -0.032570 
#    z 0.021530 -0.032570 1.899650 
# 
# From -- ./inp_files/329316.got.cif
#   From: 2010.05.17/outbox.cif.g08.bks.cpg/sg2_165_cif.got.tgz:329316.got - 2010.06.03 11:33:40.
