data_PCOD9005209
_publ_section_title
;
Structure prediction by ZEFSAII (Michael W. Deem and Ramdas Pophale) SiO2 
 PCOD9005209
Probable space group: P -1
;
_chemical_formula_sum "Si O2"
_cell_formula_units_Z 16
_cell_length_a 19.032910
_cell_length_b 15.165454
_cell_length_c 8.720743
_cell_angle_alpha 140.735086
_cell_angle_beta 139.067660
_cell_angle_gamma 29.974501
_cell_volume 766.792417
_symmetry_space_group_name_H-M "P -1"
_symmetry_group_IT_number 2
_symmetry_cell_setting 'triclinic'
loop_
_space_group_symop_operation_xyz
x,y,z
-x,-y,-z
loop_
_atom_site_type_symbol
_atom_site_label
_atom_site_fract_x
_atom_site_fract_y
_atom_site_fract_z
Si Si1 0.260999 0.908706 0.058174
Si Si2 0.517708 0.877890 0.500967
Si Si3 0.681193 0.596921 0.622394
Si Si4 0.586584 0.367819 0.817691
Si Si5 0.305007 0.224705 0.826333
Si Si6 0.243092 0.567247 0.012850
Si Si7 0.046233 0.305789 0.370903
Si Si8 0.155054 0.786913 0.483893
O O1 0.415663 0.845489 0.230664
O O2 0.267334 0.825822 0.122849
O O3 0.137991 0.136254 0.168396
O O4 0.247954 0.820736 0.773476
O O5 0.666214 0.679526 0.541048
O O6 0.500000 0.000000 0.500000
O O7 0.440901 0.017177 0.708794
O O8 0.530241 0.639614 0.454990
O O9 0.816348 0.374541 0.579129
O O10 0.687047 0.714092 0.913100
O O11 0.639365 0.443100 0.895012
O O12 0.500000 0.500000 0.000000
O O13 0.166576 0.242115 0.609718
O O14 0.292655 0.371037 0.890534
O O15 0.201390 0.692480 0.265427
O O16 0.098426 0.658832 0.797529
O O17 0.000000 0.500000 0.500000
O O18 0.000000 0.000000 0.500000
#
# Coordination Sequence:
#
# PCOD9005209 Si02
#       8
#     2   2   2   2   2   2   2   2
#     4  10  21  38  61  87 125 162 205 266 315 359
#     4  10  22  36  63  89 123 169 208 256 315 379
#     4  10  22  39  61  92 129 161 205 265 318 363
#     4  11  23  39  60  93 130 161 204 271 313 374
#     4   9  20  36  62  89 123 164 208 261 309 375
#     4  10  22  36  66  93 120 170 212 251 324 376
#     4   9  18  39  59  87 121 165 214 251 302 378
#     4  11  21  39  64  93 126 164 204 262 312 372
#
# _framework density 20.866142
#
# number of rings (size 3 to 8) (size 9 to 14) (size 15 to 20)
#    0.000    2.000    2.500    0.375    3.500    3.500 
#    0.000    0.000    0.000    1.500    0.000    0.000 
#    0.000    0.000    0.000    0.000    0.000    0.000 
#
# Total GULP energy -89097.653253 kJ/mol
# GULP energy per Si atom -5568.603328 kJ/mol
# Density = 2.081865 g / cm^3
# Si number density = 20.866142 Si / 1000 Ang^3
#
#
#
# Elastic Constant Matrix: (Units=GPa)
#
#
# Indices 1 2 3 4 5 6 
#
# 1 45.8049 32.4033 22.0069 -3.8862 4.0911 17.9949
# 2 32.4033 131.9446 29.1798 11.5740 -10.6477 10.7299
# 3 22.0069 29.1798 160.0808 9.0571 1.9588 -4.8731
# 4 -3.8862 11.5740 9.0571 34.0901 -3.9774 -6.0164
# 5 4.0911 -10.6477 1.9588 -3.9774 17.9433 6.8659
# 6 17.9949 10.7299 -4.8731 -6.0164 6.8659 23.0204
#
#
#
# Elastic Compliance Matrix: (Units=1/GPa)
#
#
# Indices 1 2 3 4 5 6 
#
# 1 0.041019 -0.006904 -0.005428 0.003247 -0.001111 -0.028815
# 2 -0.006904 0.010796 -0.001012 -0.003784 0.008548 -0.003388
# 3 -0.005428 -0.001012 0.007505 -0.001422 -0.003124 0.006863
# 4 0.003247 -0.003784 -0.001422 0.032804 0.001775 0.006968
# 5 -0.001111 0.008548 -0.003124 0.001775 0.071183 -0.024544
# 6 -0.028815 -0.003388 0.006863 0.006968 -0.024544 0.078137
#
#
# Mechanical properties :
#
#
# Convention : Reuss Voigt Hill
#
# Bulk Modulus (GPa) = 30.64607 56.11227 43.37917
# Shear Modulus (GPa) = 17.92057 31.96012 24.94034
#
# Velocity S-wave (km/s) = 2.93377 3.91791 3.46100
# Velocity P-wave (km/s) = 5.11809 6.88597 6.06677
#
# Compressibility (1/GPa) = 0.03263061
#
# Stress axis : x y z
#
# Youngs Moduli (GPa) = 24.37912 92.62989 133.24141
#
# Poissons Ratio (x) = 0.63955 0.72320
# Poissons Ratio (y) = 0.16832 0.13488
# Poissons Ratio (z) = 0.13232 0.09377
#
# Static dielectric constant tensor:
#      x y z
#    x 1.918320 0.204040 0.009040 
#    y 0.204040 2.084180 0.002430 
#    z 0.009040 0.002430 1.756670 
# 
# From -- ./inp_files/347711.got.cif
#   From: 2010.05.17/outbox.cif.g08.bks.cpg/sg2_174_cif.got.tgz:347711.got - 2010.06.03 11:33:40.
