data_PCOD9005447
_publ_section_title
;
Structure prediction by ZEFSAII (Michael W. Deem and Ramdas Pophale) SiO2 
 PCOD9005447
Probable space group: P -1
;
_chemical_formula_sum "Si O2"
_cell_formula_units_Z 14
_cell_length_a 14.232819
_cell_length_b 23.955360
_cell_length_c 16.953723
_cell_angle_alpha 15.720800
_cell_angle_beta 150.053317
_cell_angle_gamma 154.346169
_cell_volume 678.023759
_symmetry_space_group_name_H-M "P -1"
_symmetry_group_IT_number 2
_symmetry_cell_setting 'triclinic'
loop_
_space_group_symop_operation_xyz
x,y,z
-x,-y,-z
loop_
_atom_site_type_symbol
_atom_site_label
_atom_site_fract_x
_atom_site_fract_y
_atom_site_fract_z
Si Si1 0.084387 0.071453 0.671280
Si Si2 0.775865 0.117706 0.708574
Si Si3 0.622389 0.857729 0.804884
Si Si4 0.485219 0.580072 0.581457
Si Si5 0.119568 0.606440 0.359933
Si Si6 0.387237 0.227156 0.262187
Si Si7 0.282801 0.312001 0.643974
O O1 0.842235 0.959052 0.613279
O O2 0.281487 0.231878 0.538121
O O3 0.112490 0.216496 0.576529
O O4 0.109805 0.842673 0.017342
O O5 0.558863 0.137713 0.519092
O O6 0.967499 0.381741 0.500761
O O7 0.809978 0.022559 0.778479
O O8 0.739372 0.930125 0.005740
O O9 0.673035 0.780784 0.863563
O O10 0.500000 0.000000 0.500000
O O11 0.488833 0.624901 0.077224
O O12 0.363556 0.660989 0.445687
O O13 0.322126 0.467032 0.541405
O O14 0.000000 0.500000 0.500000
O O15 0.500000 0.500000 0.000000
O O16 0.500000 0.500000 0.500000
#
# Coordination Sequence:
#
# PCOD9005447 Si02
#       7
#     2   2   2   2   2   2   2
#     4  11  22  40  62  93 125 158 196 253 308 359
#     4  10  21  38  62  89 120 160 205 246 295 360
#     4   9  21  40  61  84 120 162 204 247 292 361
#     4  10  23  39  63  91 125 155 201 254 306 359
#     4  12  22  36  64  93 120 159 205 252 301 356
#     4  11  22  39  64  89 121 159 205 248 300 361
#     4   9  20  39  61  91 121 156 196 250 307 356
#
# _framework density 20.648244999999999
#
# number of rings (size 3 to 8) (size 9 to 14) (size 15 to 20)
#    0.000    1.714    2.857    1.286    2.000    1.143 
#    0.000   12.143    3.143    0.000    0.000    0.000 
#    0.000    0.000    0.000    0.000    0.000    0.000 
#
# Total GULP energy -77982.405943 kJ/mol
# GULP energy per Si atom -5570.171853 kJ/mol
# Density = 2.060125 g / cm^3
# Si number density = 20.648245 Si / 1000 Ang^3
#
#
#
# Elastic Constant Matrix: (Units=GPa)
#
#
# Indices 1 2 3 4 5 6 
#
# 1 119.6637 44.8837 36.4962 -8.2504 -11.0027 11.7387
# 2 44.8837 98.1198 17.5003 -28.6342 -8.4656 15.5459
# 3 36.4962 17.5003 74.2374 -14.2691 -13.6990 10.7960
# 4 -8.2504 -28.6342 -14.2691 35.9262 -0.7940 2.9504
# 5 -11.0027 -8.4656 -13.6990 -0.7940 27.4222 -6.5993
# 6 11.7387 15.5459 10.7960 2.9504 -6.5993 35.9560
#
#
#
# Elastic Compliance Matrix: (Units=1/GPa)
#
#
# Indices 1 2 3 4 5 6 
#
# 1 0.011781 -0.005654 -0.005219 -0.003911 0.000396 0.000559
# 2 -0.005654 0.018115 0.003154 0.015088 0.003526 -0.007524
# 3 -0.005219 0.003154 0.019224 0.009515 0.007599 -0.004818
# 4 -0.003911 0.015088 0.009515 0.043748 0.006585 -0.010485
# 5 0.000396 0.003526 0.007599 0.006585 0.042501 0.003325
# 6 0.000559 -0.007524 -0.004818 -0.010485 0.003325 0.033800
#
#
# Mechanical properties :
#
#
# Convention : Reuss Voigt Hill
#
# Bulk Modulus (GPa) = 29.68870 54.42014 42.05442
# Shear Modulus (GPa) = 25.53179 32.73693 29.13436
#
# Velocity S-wave (km/s) = 3.52022 3.98610 3.76038
# Velocity P-wave (km/s) = 5.56167 6.89916 6.26620
#
# Compressibility (1/GPa) = 0.03368285
#
# Stress axis : x y z
#
# Youngs Moduli (GPa) = 84.88179 55.20304 52.01777
#
# Poissons Ratio (x) = 0.31212 0.27148
# Poissons Ratio (y) = 0.47992 -0.16408
# Poissons Ratio (z) = 0.44299 -0.17412
#
# Static dielectric constant tensor:
#      x y z
#    x 1.902550 -0.089860 0.062830 
#    y -0.089860 1.847650 -0.052960 
#    z 0.062830 -0.052960 1.734370 
# 
# From -- ./inp_files/154199.got.cif
#   From: 2010.05.17/outbox.cif.g08.bks.cpg/sg2_78_cif.got.tgz:154199.got - 2010.06.03 11:33:40.
