data_PCOD9005803
_publ_section_title
;
Structure prediction by ZEFSAII (Michael W. Deem and Ramdas Pophale) SiO2 
 PCOD9005803
Probable space group: P -1
;
_chemical_formula_sum "Si O2"
_cell_formula_units_Z 12
_cell_length_a 7.196129
_cell_length_b 9.822975
_cell_length_c 12.211362
_cell_angle_alpha 143.060453
_cell_angle_beta 66.612425
_cell_angle_gamma 108.179656
_cell_volume 476.110594
_symmetry_space_group_name_H-M "P -1"
_symmetry_group_IT_number 2
_symmetry_cell_setting 'triclinic'
loop_
_space_group_symop_operation_xyz
x,y,z
-x,-y,-z
loop_
_atom_site_type_symbol
_atom_site_label
_atom_site_fract_x
_atom_site_fract_y
_atom_site_fract_z
Si Si1 0.207286 0.129324 0.308491
Si Si2 0.043781 0.657865 0.297543
Si Si3 0.940668 0.189074 0.049766
Si Si4 0.558242 0.073845 0.690808
Si Si5 0.355687 0.342640 0.746498
Si Si6 0.507136 0.273125 0.180542
O O1 0.059740 0.228114 0.498769
O O2 0.306536 0.317946 0.327060
O O3 0.396948 0.015271 0.256126
O O4 0.097169 0.940876 0.139348
O O5 0.090829 0.396970 0.144079
O O6 0.876534 0.652286 0.235483
O O7 0.234318 0.801428 0.310591
O O8 0.725027 0.306787 0.208199
O O9 0.000000 0.000000 0.000000
O O10 0.389289 0.249703 0.800689
O O11 0.538239 0.844959 0.477374
O O12 0.463025 0.575804 0.837462
O O13 0.500000 0.000000 0.000000
#
# Coordination Sequence:
#
# PCOD9005803 Si02
#       6
#     2   2   2   2   2   2
#     4  10  21  41  63  93 121 165 209 246 327 360
#     4  10  22  41  65  89 131 161 203 266 301 372
#     4  10  23  41  59  94 126 159 211 260 306 368
#     4  10  21  38  63  94 126 161 205 260 306 377
#     4   9  19  38  60  89 124 159 206 252 309 360
#     4   9  20  39  61  84 127 159 201 265 296 365
#
# _framework density 25.204229999999999
#
# number of rings (size 3 to 8) (size 9 to 14) (size 15 to 20)
#    0.000    2.333    0.000    2.000    4.667    7.333 
#   12.000    9.167    0.000    0.000    0.000    0.000 
#    0.000    0.000    0.000    0.000    0.000    0.000 
#
# Total GULP energy -67065.682958 kJ/mol
# GULP energy per Si atom -5588.806913 kJ/mol
# Density = 2.514686 g / cm^3
# Si number density = 25.204230 Si / 1000 Ang^3
#
#
#
# Elastic Constant Matrix: (Units=GPa)
#
#
# Indices 1 2 3 4 5 6 
#
# 1 65.6662 10.4116 13.4795 -4.2084 6.8894 -6.9096
# 2 10.4116 69.2802 40.1144 17.1494 0.5332 -13.7506
# 3 13.4795 40.1144 100.3705 5.0567 17.2074 -2.4754
# 4 -4.2084 17.1494 5.0567 45.3547 0.9872 -2.7055
# 5 6.8894 0.5332 17.2074 0.9872 25.0497 -2.9478
# 6 -6.9096 -13.7506 -2.4754 -2.7055 -2.9478 61.2024
#
#
#
# Elastic Compliance Matrix: (Units=1/GPa)
#
#
# Indices 1 2 3 4 5 6 
#
# 1 0.016477 -0.002516 -0.000626 0.002709 -0.004014 0.001196
# 2 -0.002516 0.023265 -0.009784 -0.007836 0.007765 0.004575
# 3 -0.000626 -0.009784 0.015637 0.002007 -0.010683 -0.002062
# 4 0.002709 -0.007836 0.002007 0.025080 -0.002994 -0.000409
# 5 -0.004014 0.007765 -0.010683 -0.002994 0.048677 0.003071
# 6 0.001196 0.004575 -0.002062 -0.000409 0.003071 0.017549
#
#
# Mechanical properties :
#
#
# Convention : Reuss Voigt Hill
#
# Bulk Modulus (GPa) = 33.86750 40.36976 37.11863
# Shear Modulus (GPa) = 27.41565 37.74212 32.57889
#
# Velocity S-wave (km/s) = 3.30167 3.87389 3.59917
# Velocity P-wave (km/s) = 5.29161 6.00510 5.65961
#
# Compressibility (1/GPa) = 0.02952683
#
# Stress axis : x y z
#
# Youngs Moduli (GPa) = 60.69247 42.98277 63.95137
#
# Poissons Ratio (x) = 0.10814 0.04004
# Poissons Ratio (y) = 0.15269 0.62570
# Poissons Ratio (z) = 0.03800 0.42054
#
# Static dielectric constant tensor:
#      x y z
#    x 2.052430 0.002860 -0.045950 
#    y 0.002860 2.051710 -0.022230 
#    z -0.045950 -0.022230 2.011500 
# 
# From -- ./inp_files/144823.got.cif
#   From: 2010.05.17/outbox.cif.g08.bks.cpg/sg2_73_cif.got.tgz:144823.got - 2010.06.03 11:33:40.
