data_PCOD9005816
_publ_section_title
;
Structure prediction by ZEFSAII (Michael W. Deem and Ramdas Pophale) SiO2 
 PCOD9005816
Probable space group: P -1
;
_chemical_formula_sum "Si O2"
_cell_formula_units_Z 16
_cell_length_a 9.598394
_cell_length_b 9.554350
_cell_length_c 12.079185
_cell_angle_alpha 72.597267
_cell_angle_beta 52.124779
_cell_angle_gamma 53.924849
_cell_volume 703.332277
_symmetry_space_group_name_H-M "P -1"
_symmetry_group_IT_number 2
_symmetry_cell_setting 'triclinic'
loop_
_space_group_symop_operation_xyz
x,y,z
-x,-y,-z
loop_
_atom_site_type_symbol
_atom_site_label
_atom_site_fract_x
_atom_site_fract_y
_atom_site_fract_z
Si Si1 0.860664 0.668661 0.957686
Si Si2 0.429612 0.763971 0.516811
Si Si3 0.333569 0.689071 0.997090
Si Si4 0.522131 0.147184 0.286298
Si Si5 0.596474 0.115794 0.891771
Si Si6 0.161618 0.614243 0.636545
Si Si7 0.186119 0.085886 0.385855
Si Si8 0.925501 0.863055 0.063388
O O1 0.963406 0.640697 0.794369
O O2 0.625804 0.713359 0.072174
O O3 0.000000 0.500000 0.000000
O O4 0.889772 0.810936 0.973439
O O5 0.474396 0.830457 0.591301
O O6 0.280727 0.689702 0.627064
O O7 0.656920 0.590668 0.415518
O O8 0.290030 0.928723 0.463347
O O9 0.418255 0.730805 0.835679
O O10 0.500000 0.500000 0.000000
O O11 0.312775 0.824543 0.069122
O O12 0.116292 0.705665 0.072602
O O13 0.314280 0.175939 0.328140
O O14 0.706383 0.951289 0.211315
O O15 0.748759 0.018193 0.738142
O O16 0.500000 0.000000 0.000000
O O17 0.053860 0.748487 0.551857
O O18 0.000000 0.000000 0.000000
#
# Coordination Sequence:
#
# PCOD9005816 Si02
#       8
#     2   2   2   2   2   2   2   2
#     4  12  22  39  68 101 134 171 217 282 346 400
#     4  11  27  47  65  97 136 186 231 272 333 406
#     4  11  23  39  63 104 136 173 218 281 351 404
#     4  11  23  44  65  94 137 174 226 279 330 413
#     4  12  21  40  67  98 135 165 221 287 340 404
#     4  11  25  44  69  98 136 178 229 283 331 405
#     4  12  24  45  71  98 131 182 232 277 343 401
#     4  10  21  38  63  94 133 174 208 269 344 395
#
# _framework density 22.748850000000001
#
# number of rings (size 3 to 8) (size 9 to 14) (size 15 to 20)
#    0.000    0.750    3.750    4.500    1.750    2.500 
#    2.250    0.000    0.000    0.000    0.000    0.000 
#    0.000    0.000    0.000    0.000    0.000    0.000 
#
# Total GULP energy -89284.349356 kJ/mol
# GULP energy per Si atom -5580.271835 kJ/mol
# Density = 2.269707 g / cm^3
# Si number density = 22.748850 Si / 1000 Ang^3
#
#
#
# Elastic Constant Matrix: (Units=GPa)
#
#
# Indices 1 2 3 4 5 6 
#
# 1 124.3083 10.9094 4.6152 1.6286 8.7268 -11.4682
# 2 10.9094 107.5944 18.1345 -8.1051 11.4701 -30.2402
# 3 4.6152 18.1345 39.9573 -3.8707 24.1312 5.4932
# 4 1.6286 -8.1051 -3.8707 14.8145 -1.6717 2.2345
# 5 8.7268 11.4701 24.1312 -1.6717 37.3166 6.0915
# 6 -11.4682 -30.2402 5.4932 2.2345 6.0915 48.8369
#
#
#
# Elastic Compliance Matrix: (Units=1/GPa)
#
#
# Indices 1 2 3 4 5 6 
#
# 1 0.008454 -0.000078 0.000063 -0.001579 -0.002441 0.002306
# 2 -0.000078 0.013265 -0.005923 0.004215 -0.001485 0.008854
# 3 0.000063 -0.005923 0.044772 0.006392 -0.025922 -0.005748
# 4 -0.001579 0.004215 0.006392 0.071707 -0.001593 -0.001562
# 5 -0.002441 -0.001485 -0.025922 -0.001593 0.045192 -0.004141
# 6 0.002306 0.008854 -0.005748 -0.001562 -0.004141 0.027735
#
#
# Mechanical properties :
#
#
# Convention : Reuss Voigt Hill
#
# Bulk Modulus (GPa) = 18.31026 37.68647 27.99837
# Shear Modulus (GPa) = 20.72922 36.07367 28.40145
#
# Velocity S-wave (km/s) = 3.02192 3.98645 3.53721
# Velocity P-wave (km/s) = 4.49915 6.14747 5.38673
#
# Compressibility (1/GPa) = 0.05461419
#
# Stress axis : x y z
#
# Youngs Moduli (GPa) = 118.28907 75.38813 22.33550
#
# Poissons Ratio (x) = 0.00591 -0.00141
# Poissons Ratio (y) = 0.00927 0.13229
# Poissons Ratio (z) = -0.00749 0.44653
#
# Static dielectric constant tensor:
#      x y z
#    x 1.790220 -0.007870 0.014100 
#    y -0.007870 1.953640 -0.047930 
#    z 0.014100 -0.047930 1.822660 
# 
# From -- ./inp_files/381913.got.cif
#   From: 2010.05.17/outbox.cif.g08.bks.cpg/sg2_191_cif.got.tgz:381913.got - 2010.06.03 11:33:40.
