data_PCOD9005572
_publ_section_title
;
Structure prediction by ZEFSAII (Michael W. Deem and Ramdas Pophale) SiO2 
 PCOD9005572
Probable space group: P -1
;
_chemical_formula_sum "Si O2"
_cell_formula_units_Z 14
_cell_length_a 8.064362
_cell_length_b 9.347014
_cell_length_c 14.772403
_cell_angle_alpha 58.125450
_cell_angle_beta 52.405314
_cell_angle_gamma 93.857239
_cell_volume 611.006897
_symmetry_space_group_name_H-M "P -1"
_symmetry_group_IT_number 2
_symmetry_cell_setting 'triclinic'
loop_
_space_group_symop_operation_xyz
x,y,z
-x,-y,-z
loop_
_atom_site_type_symbol
_atom_site_label
_atom_site_fract_x
_atom_site_fract_y
_atom_site_fract_z
Si Si1 0.599690 0.616685 0.790049
Si Si2 0.012594 0.201747 0.902050
Si Si3 0.919370 0.827070 0.321399
Si Si4 0.790318 0.414246 0.178315
Si Si5 0.260317 0.524138 0.378135
Si Si6 0.470277 0.968320 0.128454
Si Si7 0.081887 0.244019 0.188963
O O1 0.485868 0.716334 0.734453
O O2 0.733614 0.549060 0.699683
O O3 0.798294 0.754424 0.755822
O O4 0.341437 0.412153 0.988822
O O5 0.073742 0.229296 0.765653
O O6 0.190393 0.398014 0.840053
O O7 0.730156 0.158028 0.021413
O O8 0.000000 0.000000 0.000000
O O9 0.192748 0.918751 0.250415
O O10 0.717001 0.618606 0.511508
O O11 0.914411 0.025198 0.266126
O O12 0.889852 0.311911 0.243137
O O13 0.000000 0.500000 0.000000
O O14 0.460350 0.769653 0.228623
O O15 0.000000 0.500000 0.500000
O O16 0.500000 0.000000 0.000000
#
# Coordination Sequence:
#
# PCOD9005572 Si02
#       7
#     2   2   2   2   2   2   2
#     4  10  21  39  65  89 129 166 216 261 320 374
#     4  11  21  37  64  90 126 161 216 274 310 373
#     4  10  22  38  59  93 125 165 211 257 326 382
#     4  10  22  38  62  97 127 158 214 273 317 370
#     4  10  21  38  62  93 133 166 207 265 319 390
#     4   9  19  34  62  87 118 156 213 256 305 366
#     4  10  22  38  68  92 125 168 215 268 318 376
#
# _framework density 22.912997000000001
#
# number of rings (size 3 to 8) (size 9 to 14) (size 15 to 20)
#    0.000    2.000    0.000    4.286   12.000    0.571 
#    0.000    3.571    0.000    0.000    0.000    0.000 
#    0.000    0.000    0.000    0.000    0.000    0.000 
#
# Total GULP energy -78101.431557 kJ/mol
# GULP energy per Si atom -5578.673683 kJ/mol
# Density = 2.286085 g / cm^3
# Si number density = 22.912997 Si / 1000 Ang^3
#
#
#
# Elastic Constant Matrix: (Units=GPa)
#
#
# Indices 1 2 3 4 5 6 
#
# 1 117.7328 28.8644 19.5346 7.4301 -4.3912 7.4084
# 2 28.8644 113.9404 22.4196 11.9013 10.2127 -0.1073
# 3 19.5346 22.4196 69.0018 1.7830 7.9008 1.9298
# 4 7.4301 11.9013 1.7830 30.8687 -8.0018 4.2985
# 5 -4.3912 10.2127 7.9008 -8.0018 26.7564 5.9297
# 6 7.4084 -0.1073 1.9298 4.2985 5.9297 32.7753
#
#
#
# Elastic Compliance Matrix: (Units=1/GPa)
#
#
# Indices 1 2 3 4 5 6 
#
# 1 0.009781 -0.002369 -0.002364 0.000081 0.003849 -0.002786
# 2 -0.002369 0.010911 -0.002103 -0.005452 -0.006121 0.002517
# 3 -0.002364 -0.002103 0.016404 -0.000893 -0.004818 0.000551
# 4 0.000081 -0.005452 -0.000893 0.039824 0.016066 -0.008113
# 5 0.003849 -0.006121 -0.004818 0.016066 0.049141 -0.011604
# 6 -0.002786 0.002517 0.000551 -0.008113 -0.011604 0.034280
#
#
# Mechanical properties :
#
#
# Convention : Reuss Voigt Hill
#
# Bulk Modulus (GPa) = 42.69174 49.14581 45.91878
# Shear Modulus (GPa) = 27.49956 33.40383 30.45170
#
# Velocity S-wave (km/s) = 3.46811 3.82233 3.64952
# Velocity P-wave (km/s) = 5.89149 6.40123 6.15164
#
# Compressibility (1/GPa) = 0.02342373
#
# Stress axis : x y z
#
# Youngs Moduli (GPa) = 102.24338 91.65153 60.95907
#
# Poissons Ratio (x) = 0.21709 0.14412
# Poissons Ratio (y) = 0.24218 0.12821
# Poissons Ratio (z) = 0.24173 0.19276
#
# Static dielectric constant tensor:
#      x y z
#    x 1.987330 -0.054910 -0.042590 
#    y -0.054910 1.853330 -0.032620 
#    z -0.042590 -0.032620 1.935690 
# 
# From -- ./inp_files/238361.got.cif
#   From: 2010.05.17/outbox.cif.g08.bks.cpg/sg2_120_cif.got.tgz:238361.got - 2010.06.03 11:33:40.
