data_PCOD9005997
_publ_section_title
;
Structure prediction by ZEFSAII (Michael W. Deem and Ramdas Pophale) SiO2 
 PCOD9005997
Probable space group: P -1
;
_chemical_formula_sum "Si O2"
_cell_formula_units_Z 16
_cell_length_a 13.423442
_cell_length_b 13.427539
_cell_length_c 11.286710
_cell_angle_alpha 32.857353
_cell_angle_beta 41.933645
_cell_angle_gamma 46.111613
_cell_volume 724.372702
_symmetry_space_group_name_H-M "P -1"
_symmetry_group_IT_number 2
_symmetry_cell_setting 'triclinic'
loop_
_space_group_symop_operation_xyz
x,y,z
-x,-y,-z
loop_
_atom_site_type_symbol
_atom_site_label
_atom_site_fract_x
_atom_site_fract_y
_atom_site_fract_z
Si Si1 0.837754 0.696553 0.695387
Si Si2 0.143071 0.517744 0.740289
Si Si3 0.529854 0.873315 0.787933
Si Si4 0.964627 0.197917 0.266766
Si Si5 0.174857 0.702499 0.948608
Si Si6 0.325315 0.598699 0.283101
Si Si7 0.978222 0.215604 0.769834
Si Si8 0.506202 0.749820 0.662895
O O1 0.699433 0.848665 0.713390
O O2 0.989948 0.639174 0.694106
O O3 0.887022 0.752299 0.465801
O O4 0.773265 0.505854 0.936670
O O5 0.160396 0.650228 0.703722
O O6 0.273302 0.505227 0.540385
O O7 0.100361 0.318285 0.011315
O O8 0.546298 0.790925 0.720783
O O9 0.456054 0.087613 0.618093
O O10 0.429268 0.749585 0.068407
O O11 0.905321 0.172628 0.211998
O O12 0.000000 0.000000 0.500000
O O13 0.323522 0.766222 0.803377
O O14 0.050053 0.685266 0.177001
O O15 0.174741 0.711101 0.240866
O O16 0.409115 0.445639 0.269044
O O17 0.000000 0.000000 0.000000
#
# Coordination Sequence:
#
# PCOD9005997 Si02
#       8
#     2   2   2   2   2   2   2   2
#     4  10  21  38  64  91 129 160 196 256 308 366
#     4   9  23  44  63  96 118 156 211 258 310 359
#     4  11  22  37  62  91 130 170 198 242 308 380
#     4  10  23  41  69  88 118 161 210 263 307 355
#     4  11  21  40  62  92 122 165 206 253 310 364
#     4  11  22  42  63  90 134 161 198 255 306 374
#     4  11  23  36  58  97 130 157 203 251 304 373
#     4  11  23  37  59  92 131 167 205 240 308 377
#
# _framework density 22.088076999999998
#
# number of rings (size 3 to 8) (size 9 to 14) (size 15 to 20)
#    0.000    1.500    2.500    2.250    7.000    3.000 
#    0.000    0.625    0.000    1.500    0.000    0.000 
#    0.000    0.000    0.000    0.000    0.000    0.000 
#
# Total GULP energy -89401.228649 kJ/mol
# GULP energy per Si atom -5587.576791 kJ/mol
# Density = 2.203780 g / cm^3
# Si number density = 22.088077 Si / 1000 Ang^3
#
#
#
# Elastic Constant Matrix: (Units=GPa)
#
#
# Indices 1 2 3 4 5 6 
#
# 1 52.5362 4.9804 21.0727 12.1469 5.4377 -7.9421
# 2 4.9804 45.8792 29.3018 -6.9429 0.0820 -10.0072
# 3 21.0727 29.3018 157.1122 -6.6701 12.3896 -11.0202
# 4 12.1469 -6.9429 -6.6701 38.9136 2.0485 3.5312
# 5 5.4377 0.0820 12.3896 2.0485 30.4904 -0.1405
# 6 -7.9421 -10.0072 -11.0202 3.5312 -0.1405 24.1006
#
#
#
# Elastic Compliance Matrix: (Units=1/GPa)
#
#
# Indices 1 2 3 4 5 6 
#
# 1 0.023510 -0.000453 -0.002701 -0.008436 -0.002493 0.007546
# 2 -0.000453 0.027006 -0.004357 0.003350 0.001593 0.008590
# 3 -0.002701 -0.004357 0.007871 0.001502 -0.002803 0.000664
# 4 -0.008436 0.003350 0.001502 0.029705 -0.001134 -0.005061
# 5 -0.002493 0.001593 -0.002803 -0.001134 0.034448 -0.001074
# 6 0.007546 0.008590 0.000664 -0.005061 -0.001074 0.048585
#
#
# Mechanical properties :
#
#
# Convention : Reuss Voigt Hill
#
# Bulk Modulus (GPa) = 23.06018 40.69306 31.87662
# Shear Modulus (GPa) = 24.92490 32.04575 28.48532
#
# Velocity S-wave (km/s) = 3.36286 3.81309 3.59503
# Velocity P-wave (km/s) = 5.05383 6.15218 5.62985
#
# Compressibility (1/GPa) = 0.04336479
#
# Stress axis : x y z
#
# Youngs Moduli (GPa) = 42.53487 37.02886 127.04793
#
# Poissons Ratio (x) = 0.01679 0.34316
# Poissons Ratio (y) = 0.01928 0.55351
# Poissons Ratio (z) = 0.11489 0.16133
#
# Static dielectric constant tensor:
#      x y z
#    x 1.856510 0.020010 0.013230 
#    y 0.020010 1.845510 -0.017430 
#    z 0.013230 -0.017430 1.833750 
# 
# From -- ./inp_files/454310.got.cif
#   From: 2010.05.17/outbox.cif.g08.bks.cpg/sg2_228_cif.got.tgz:454310.got - 2010.06.03 11:33:40.
