data_PCOD9005495
_publ_section_title
;
Structure prediction by ZEFSAII (Michael W. Deem and Ramdas Pophale) SiO2 
 PCOD9005495
Probable space group: P -1
;
_chemical_formula_sum "Si O2"
_cell_formula_units_Z 14
_cell_length_a 13.696485
_cell_length_b 8.644869
_cell_length_c 11.608529
_cell_angle_alpha 33.653426
_cell_angle_beta 64.465455
_cell_angle_gamma 72.931831
_cell_volume 681.418561
_symmetry_space_group_name_H-M "P -1"
_symmetry_group_IT_number 2
_symmetry_cell_setting 'triclinic'
loop_
_space_group_symop_operation_xyz
x,y,z
-x,-y,-z
loop_
_atom_site_type_symbol
_atom_site_label
_atom_site_fract_x
_atom_site_fract_y
_atom_site_fract_z
Si Si1 0.594187 0.762437 0.789343
Si Si2 0.481347 0.326816 0.498845
Si Si3 0.667085 0.530938 0.113902
Si Si4 0.029431 0.335661 0.272383
Si Si5 0.947798 0.745645 0.435412
Si Si6 0.882697 0.686463 0.005678
Si Si7 0.285956 0.095334 0.592821
O O1 0.662680 0.762006 0.638517
O O2 0.538392 0.043929 0.652659
O O3 0.500000 0.500000 0.000000
O O4 0.669399 0.737216 0.877077
O O5 0.500000 0.500000 0.500000
O O6 0.548607 0.491639 0.257858
O O7 0.357806 0.230383 0.579279
O O8 0.693249 0.228899 0.238636
O O9 0.753051 0.657854 0.088007
O O10 0.080242 0.382722 0.342812
O O11 0.096256 0.421338 0.069011
O O12 0.000000 0.000000 0.500000
O O13 0.923964 0.490981 0.204583
O O14 0.839765 0.852088 0.371656
O O15 0.000000 0.500000 0.500000
O O16 0.043096 0.013169 0.217249
#
# Coordination Sequence:
#
# PCOD9005495 Si02
#       7
#     2   2   2   2   2   2   2
#     4  11  20  42  68  94 119 169 221 249 308 384
#     4  11  25  41  61  98 134 159 202 271 323 369
#     4  11  21  40  68  94 123 164 215 258 309 382
#     4   9  18  37  59  85 117 155 209 253 298 362
#     4  11  25  41  60  91 133 168 207 260 319 377
#     4  10  21  38  62  91 118 161 211 255 306 368
#     4  11  22  41  65  89 128 168 212 262 307 373
#
# _framework density 20.545373999999999
#
# number of rings (size 3 to 8) (size 9 to 14) (size 15 to 20)
#    0.000    1.429    2.857    4.286    0.000    6.857 
#    2.571    0.000    0.000    0.000    0.000    0.000 
#    0.000    0.000    0.000    0.000    0.000    0.000 
#
# Total GULP energy -78087.845266 kJ/mol
# GULP energy per Si atom -5577.703233 kJ/mol
# Density = 2.049861 g / cm^3
# Si number density = 20.545374 Si / 1000 Ang^3
#
#
#
# Elastic Constant Matrix: (Units=GPa)
#
#
# Indices 1 2 3 4 5 6 
#
# 1 131.9891 30.1038 16.3029 -10.0562 4.1099 20.1119
# 2 30.1038 97.7678 8.7557 -11.0192 -0.1999 11.6377
# 3 16.3029 8.7557 67.0108 0.3899 11.0558 12.8362
# 4 -10.0562 -11.0192 0.3899 14.7530 7.3700 1.5040
# 5 4.1099 -0.1999 11.0558 7.3700 38.5258 2.4031
# 6 20.1119 11.6377 12.8362 1.5040 2.4031 24.5869
#
#
#
# Elastic Compliance Matrix: (Units=1/GPa)
#
#
# Indices 1 2 3 4 5 6 
#
# 1 0.009651 -0.001232 -0.000528 0.007332 -0.001831 -0.007305
# 2 -0.001232 0.012310 -0.000162 0.009515 -0.001254 -0.005194
# 3 -0.000528 -0.000162 0.017448 0.002340 -0.004884 -0.008266
# 4 0.007332 0.009515 0.002340 0.090250 -0.017702 -0.015514
# 5 -0.001831 -0.001254 -0.004884 -0.017702 0.030764 0.002717
# 6 -0.007305 -0.005194 -0.008266 -0.015514 0.002717 0.054105
#
#
# Mechanical properties :
#
#
# Convention : Reuss Voigt Hill
#
# Bulk Modulus (GPa) = 28.11786 45.23250 36.67518
# Shear Modulus (GPa) = 21.71747 31.68016 26.69882
#
# Velocity S-wave (km/s) = 3.25476 3.93104 3.60878
# Velocity P-wave (km/s) = 5.27637 6.53206 5.93750
#
# Compressibility (1/GPa) = 0.03556459
#
# Stress axis : x y z
#
# Youngs Moduli (GPa) = 103.61116 81.23232 57.31240
#
# Poissons Ratio (x) = 0.10010 0.03027
# Poissons Ratio (y) = 0.12768 0.00930
# Poissons Ratio (z) = 0.05473 0.01318
#
# Static dielectric constant tensor:
#      x y z
#    x 1.844170 -0.000340 -0.008780 
#    y -0.000340 1.760420 0.030150 
#    z -0.008780 0.030150 1.732470 
# 
# From -- ./inp_files/38551.got.cif
#   From: 2010.05.17/outbox.cif.g08.bks.cpg/sg2_20_cif.got.tgz:38551.got - 2010.06.03 11:33:40.
