data_PCOD9005020
_publ_section_title
;
Structure prediction by ZEFSAII (Michael W. Deem and Ramdas Pophale) SiO2 
 PCOD9005020
Probable space group: P -1
;
_chemical_formula_sum "Si O2"
_cell_formula_units_Z 16
_cell_length_a 9.434005
_cell_length_b 16.085039
_cell_length_c 12.149676
_cell_angle_alpha 132.119171
_cell_angle_beta 54.379201
_cell_angle_gamma 146.221404
_cell_volume 758.940522
_symmetry_space_group_name_H-M "P -1"
_symmetry_group_IT_number 2
_symmetry_cell_setting 'triclinic'
loop_
_space_group_symop_operation_xyz
x,y,z
-x,-y,-z
loop_
_atom_site_type_symbol
_atom_site_label
_atom_site_fract_x
_atom_site_fract_y
_atom_site_fract_z
Si Si1 0.242363 0.266244 0.694925
Si Si2 0.938201 0.423290 0.643564
Si Si3 0.734467 0.587686 0.390630
Si Si4 0.811520 0.804436 0.907007
Si Si5 0.325482 0.081246 0.355147
Si Si6 0.402426 0.246508 0.819084
Si Si7 0.881183 0.276647 0.306540
Si Si8 0.122600 0.136021 0.312350
O O1 0.326760 0.405646 0.700478
O O2 0.335102 0.189470 0.534071
O O3 0.346826 0.317513 0.816926
O O4 0.935947 0.110865 0.690496
O O5 0.661234 0.308005 0.720393
O O6 0.934829 0.339675 0.464219
O O7 0.131253 0.464031 0.682778
O O8 0.024012 0.581231 0.691894
O O9 0.500000 0.500000 0.500000
O O10 0.921760 0.776417 0.514346
O O11 0.741028 0.769970 0.779941
O O12 0.974965 0.770029 0.824584
O O13 0.603810 0.719568 0.021160
O O14 0.000000 0.000000 0.000000
O O15 0.577115 0.127251 0.296372
O O16 0.299973 0.134038 0.297925
O O17 0.152730 0.049846 0.745215
#
# Coordination Sequence:
#
# PCOD9005020 Si02
#       8
#     2   2   2   2   2   2   2   2
#     4   9  18  33  56  86 117 151 192 244 297 339
#     4  11  23  36  59  92 116 155 197 252 293 340
#     4  11  22  35  58  89 121 151 192 249 304 343
#     4  10  22  41  59  86 121 163 194 239 297 354
#     4   9  17  34  59  84 115 153 192 249 291 340
#     4  10  21  38  60  87 121 156 203 235 297 354
#     4  11  22  38  59  88 120 153 204 242 293 352
#     4   9  19  37  59  87 121 157 194 242 297 349
#
# _framework density 21.082018999999999
#
# number of rings (size 3 to 8) (size 9 to 14) (size 15 to 20)
#    0.000    2.000    2.500    2.250    1.750    3.000 
#    0.000    6.875    0.000    2.250    0.000    0.000 
#    0.000    0.000    0.000    0.000    0.000    0.000 
#
# Total GULP energy -89355.157498 kJ/mol
# GULP energy per Si atom -5584.697344 kJ/mol
# Density = 2.103404 g / cm^3
# Si number density = 21.082019 Si / 1000 Ang^3
#
#
#
# Elastic Constant Matrix: (Units=GPa)
#
#
# Indices 1 2 3 4 5 6 
#
# 1 81.3007 33.7551 16.4982 -20.6837 -0.6167 -17.8357
# 2 33.7551 70.4483 23.9126 -22.3388 0.9730 -14.6866
# 3 16.4982 23.9126 68.8256 -18.5706 3.8888 -10.5685
# 4 -20.6837 -22.3388 -18.5706 33.2982 -9.1620 4.3898
# 5 -0.6167 0.9730 3.8888 -9.1620 34.5623 -7.9153
# 6 -17.8357 -14.6866 -10.5685 4.3898 -7.9153 34.8468
#
#
#
# Elastic Compliance Matrix: (Units=1/GPa)
#
#
# Indices 1 2 3 4 5 6 
#
# 1 0.017910 -0.004570 0.000478 0.008556 0.004333 0.007292
# 2 -0.004570 0.021790 -0.003049 0.010363 0.003641 0.005441
# 3 0.000478 -0.003049 0.018194 0.008206 0.001067 0.003686
# 4 0.008556 0.010363 0.008206 0.049643 0.013965 0.008154
# 5 0.004333 0.003641 0.001067 0.013965 0.034832 0.010229
# 6 0.007292 0.005441 0.003686 0.008154 0.010229 0.037137
#
#
# Mechanical properties :
#
#
# Convention : Reuss Voigt Hill
#
# Bulk Modulus (GPa) = 22.92950 40.98960 31.95955
# Shear Modulus (GPa) = 24.00091 30.30204 27.15148
#
# Velocity S-wave (km/s) = 3.37776 3.79534 3.59262
# Velocity P-wave (km/s) = 5.11002 6.22023 5.69226
#
# Compressibility (1/GPa) = 0.04361194
#
# Stress axis : x y z
#
# Youngs Moduli (GPa) = 55.83508 45.89295 54.96274
#
# Poissons Ratio (x) = 0.20974 -0.02629
# Poissons Ratio (y) = 0.25518 0.16758
# Poissons Ratio (z) = -0.02671 0.13993
#
# Static dielectric constant tensor:
#      x y z
#    x 1.756370 -0.011240 0.051970 
#    y -0.011240 1.822950 0.030810 
#    z 0.051970 0.030810 1.793140 
# 
# From -- ./inp_files/206464.got.cif
#   From: 2010.05.17/outbox.cif.g08.bks.cpg/sg2_104_cif.got.tgz:206464.got - 2010.06.03 11:33:40.
