data_PCOD9005183
_publ_section_title
;
Structure prediction by ZEFSAII (Michael W. Deem and Ramdas Pophale) SiO2 
 PCOD9005183
Probable space group: P -1
;
_chemical_formula_sum "Si O2"
_cell_formula_units_Z 12
_cell_length_a 10.926405
_cell_length_b 8.366798
_cell_length_c 8.537768
_cell_angle_alpha 49.650792
_cell_angle_beta 93.333144
_cell_angle_gamma 59.992610
_cell_volume 420.081805
_symmetry_space_group_name_H-M "P -1"
_symmetry_group_IT_number 2
_symmetry_cell_setting 'triclinic'
loop_
_space_group_symop_operation_xyz
x,y,z
-x,-y,-z
loop_
_atom_site_type_symbol
_atom_site_label
_atom_site_fract_x
_atom_site_fract_y
_atom_site_fract_z
Si Si1 0.476963 0.817039 0.725567
Si Si2 0.707719 0.659664 0.115489
Si Si3 0.015709 0.228721 0.217660
Si Si4 0.218583 0.704738 0.096572
Si Si5 0.815295 0.652367 0.456585
Si Si6 0.680106 0.163870 0.708290
O O1 0.586387 0.528811 0.808553
O O2 0.500000 0.000000 0.500000
O O3 0.281058 0.060864 0.621301
O O4 0.583225 0.675387 0.987485
O O5 0.906669 0.353690 0.289001
O O6 0.697034 0.717696 0.260693
O O7 0.666042 0.934326 0.859948
O O8 0.906207 0.206111 0.110624
O O9 0.211300 0.924977 0.385267
O O10 0.000000 0.500000 0.000000
O O11 0.183077 0.553698 0.305309
O O12 0.206592 0.914346 0.079372
O O13 0.000000 0.500000 0.500000
O O14 0.500000 0.500000 0.500000
#
# Coordination Sequence:
#
# PCOD9005183 Si02
#       6
#     2   2   2   2   2   2
#     4   9  19  37  59  83 114 158 200 234 287 362
#     4  10  21  38  61  86 117 157 200 244 293 354
#     4   9  19  37  59  83 114 158 200 234 287 362
#     4  10  21  38  61  86 117 157 200 244 293 354
#     4  11  21  35  59  91 120 153 197 248 297 351
#     4  11  21  35  59  91 120 153 197 248 297 351
#
# _framework density 28.565866
#
# number of rings (size 3 to 8) (size 9 to 14) (size 15 to 20)
#    0.000    2.000    0.000    5.000    0.000    4.000 
#    0.000    1.667    0.000   20.000    0.000    0.000 
#    0.000    0.000    0.000    0.000    0.000    0.000 
#
# Total GULP energy -67134.851449 kJ/mol
# GULP energy per Si atom -5594.570954 kJ/mol
# Density = 2.850085 g / cm^3
# Si number density = 28.565866 Si / 1000 Ang^3
#
#
#
# Elastic Constant Matrix: (Units=GPa)
#
#
# Indices 1 2 3 4 5 6 
#
# 1 136.3481 63.2504 37.5247 -11.3537 3.3398 -32.4542
# 2 63.2504 206.6194 34.1692 4.8844 19.9023 -54.6199
# 3 37.5247 34.1692 109.3737 6.1603 7.2519 -12.5078
# 4 -11.3537 4.8844 6.1603 49.8848 -2.3930 23.5950
# 5 3.3398 19.9023 7.2519 -2.3930 36.0989 -5.2217
# 6 -32.4542 -54.6199 -12.5078 23.5950 -5.2217 67.0689
#
#
#
# Elastic Compliance Matrix: (Units=1/GPa)
#
#
# Indices 1 2 3 4 5 6 
#
# 1 0.009633 -0.002211 -0.002601 0.001944 0.001238 0.001788
# 2 -0.002211 0.007710 -0.000449 -0.004395 -0.003320 0.006413
# 3 -0.002601 -0.000449 0.010544 -0.002435 -0.001636 0.001071
# 4 0.001944 -0.004395 -0.002435 0.027247 0.002736 -0.012465
# 5 0.001238 -0.003320 -0.001636 0.002736 0.029775 -0.001054
# 6 0.001788 0.006413 0.001071 -0.012465 -0.001054 0.025501
#
#
# Mechanical properties :
#
#
# Convention : Reuss Voigt Hill
#
# Bulk Modulus (GPa) = 57.59094 80.24776 68.91935
# Shear Modulus (GPa) = 39.45695 51.77031 45.61363
#
# Velocity S-wave (km/s) = 3.72057 4.26175 4.00032
# Velocity P-wave (km/s) = 6.21782 7.23670 6.74652
#
# Compressibility (1/GPa) = 0.01736384
#
# Stress axis : x y z
#
# Youngs Moduli (GPa) = 103.81043 129.70399 94.84188
#
# Poissons Ratio (x) = 0.28680 0.24671
# Poissons Ratio (y) = 0.22955 0.04258
# Poissons Ratio (z) = 0.27004 0.05823
#
# Static dielectric constant tensor:
#      x y z
#    x 2.306300 -0.004770 0.044420 
#    y -0.004770 2.134970 -0.055530 
#    z 0.044420 -0.055530 2.276210 
# 
# From -- ./inp_files/294885.got.cif
#   From: 2010.05.17/outbox.cif.g08.bks.cpg/sg2_148_cif.got.tgz:294885.got - 2010.06.03 11:33:40.
