data_PCOD9005066
_publ_section_title
;
Structure prediction by ZEFSAII (Michael W. Deem and Ramdas Pophale) SiO2 
 PCOD9005066
Probable space group: P -1
;
_chemical_formula_sum "Si O2"
_cell_formula_units_Z 16
_cell_length_a 11.584677
_cell_length_b 18.215238
_cell_length_c 9.206548
_cell_angle_alpha 31.273715
_cell_angle_beta 39.736761
_cell_angle_gamma 41.465206
_cell_volume 619.386120
_symmetry_space_group_name_H-M "P -1"
_symmetry_group_IT_number 2
_symmetry_cell_setting 'triclinic'
loop_
_space_group_symop_operation_xyz
x,y,z
-x,-y,-z
loop_
_atom_site_type_symbol
_atom_site_label
_atom_site_fract_x
_atom_site_fract_y
_atom_site_fract_z
Si Si1 0.536183 0.723823 0.677954
Si Si2 0.895470 0.649633 0.926744
Si Si3 0.901889 0.943081 0.829479
Si Si4 0.981118 0.631025 0.183744
Si Si5 0.416519 0.599130 0.730815
Si Si6 0.314033 0.139686 0.450637
Si Si7 0.250534 0.770919 0.349037
Si Si8 0.808660 0.108718 0.110316
O O1 0.522591 0.687063 0.583920
O O2 0.693779 0.766121 0.554368
O O3 0.361499 0.857896 0.665236
O O4 0.505792 0.574419 0.028249
O O5 0.718649 0.745320 0.845459
O O6 0.048128 0.743893 0.625641
O O7 0.000000 0.500000 0.000000
O O8 0.879354 0.600335 0.189033
O O9 0.032203 0.886773 0.938316
O O10 0.746456 0.080730 0.816416
O O11 0.000000 0.000000 0.500000
O O12 0.861963 0.794890 0.064732
O O13 0.000000 0.500000 0.500000
O O14 0.197719 0.634177 0.939650
O O15 0.401711 0.643539 0.502025
O O16 0.500000 0.000000 0.500000
O O17 0.159458 0.052401 0.719079
O O18 0.256270 0.786235 0.144271
#
# Coordination Sequence:
#
# PCOD9005066 Si02
#       8
#     2   2   2   2   2   2   2   2
#     4  10  21  40  64  81 125 172 209 255 311 396
#     4  11  23  39  63  93 131 163 210 272 331 380
#     4  12  20  40  63  89 127 163 204 259 322 381
#     4  11  24  40  65  99 127 163 216 273 325 379
#     4  10  21  42  61  89 123 170 209 254 327 380
#     4  10  21  38  60  89 124 168 212 256 324 382
#     4  11  23  37  64  94 120 163 214 268 322 373
#     4  11  22  38  62  93 119 162 214 262 316 375
#
# _framework density 25.832028999999999
#
# number of rings (size 3 to 8) (size 9 to 14) (size 15 to 20)
#    0.000    1.250    5.000    1.875    1.750    2.500 
#    0.000    5.625    0.000    0.000    0.000    0.000 
#    0.000    0.000    0.000    0.000    0.000    0.000 
#
# Total GULP energy -89346.720968 kJ/mol
# GULP energy per Si atom -5584.170061 kJ/mol
# Density = 2.577323 g / cm^3
# Si number density = 25.832029 Si / 1000 Ang^3
#
#
#
# Elastic Constant Matrix: (Units=GPa)
#
#
# Indices 1 2 3 4 5 6 
#
# 1 175.3094 35.1191 64.5484 -2.9356 36.1468 29.5790
# 2 35.1191 82.2656 21.5377 -10.4106 5.3239 33.6470
# 3 64.5484 21.5377 104.8109 2.9347 26.7689 10.0676
# 4 -2.9356 -10.4106 2.9347 39.4244 4.8160 5.2997
# 5 36.1468 5.3239 26.7689 4.8160 61.9915 -3.6290
# 6 29.5790 33.6470 10.0676 5.2997 -3.6290 42.8997
#
#
#
# Elastic Compliance Matrix: (Units=1/GPa)
#
#
# Indices 1 2 3 4 5 6 
#
# 1 0.009072 0.000279 -0.004072 0.002382 -0.004101 -0.006160
# 2 0.000279 0.020989 -0.002389 0.008391 -0.002601 -0.017350
# 3 -0.004072 -0.002389 0.013175 -0.001773 -0.002880 0.001565
# 4 0.002382 0.008391 -0.001773 0.030022 -0.004372 -0.011886
# 5 -0.004101 -0.002601 -0.002880 -0.004372 0.020788 0.007843
# 6 -0.006160 -0.017350 0.001565 -0.011886 0.007843 0.042930
#
#
# Mechanical properties :
#
#
# Convention : Reuss Voigt Hill
#
# Bulk Modulus (GPa) = 32.39181 67.19959 49.79570
# Shear Modulus (GPa) = 31.32230 44.94182 38.13206
#
# Velocity S-wave (km/s) = 3.48593 4.17558 3.84624
# Velocity P-wave (km/s) = 5.36366 7.02267 6.24847
#
# Compressibility (1/GPa) = 0.03087200
#
# Stress axis : x y z
#
# Youngs Moduli (GPa) = 110.22335 47.64509 75.90309
#
# Poissons Ratio (x) = -0.01331 0.30910
# Poissons Ratio (y) = -0.03079 0.18133
# Poissons Ratio (z) = 0.44886 0.11382
#
# Static dielectric constant tensor:
#      x y z
#    x 2.100660 -0.073120 -0.032120 
#    y -0.073120 2.053800 0.103290 
#    z -0.032120 0.103290 2.012160 
# 
# From -- ./inp_files/254060.got.cif
#   From: 2010.05.17/outbox.cif.g08.bks.cpg/sg2_128_cif.got.tgz:254060.got - 2010.06.03 11:33:40.
