data_PCOD9005110
_publ_section_title
;
Structure prediction by ZEFSAII (Michael W. Deem and Ramdas Pophale) SiO2 
 PCOD9005110
Probable space group: P -1
;
_chemical_formula_sum "Si O2"
_cell_formula_units_Z 14
_cell_length_a 5.929308
_cell_length_b 13.710324
_cell_length_c 14.342472
_cell_angle_alpha 149.576625
_cell_angle_beta 101.261859
_cell_angle_gamma 93.421259
_cell_volume 514.370786
_symmetry_space_group_name_H-M "P -1"
_symmetry_group_IT_number 2
_symmetry_cell_setting 'triclinic'
loop_
_space_group_symop_operation_xyz
x,y,z
-x,-y,-z
loop_
_atom_site_type_symbol
_atom_site_label
_atom_site_fract_x
_atom_site_fract_y
_atom_site_fract_z
Si Si1 0.269697 0.754767 0.289427
Si Si2 0.091896 0.938325 0.084215
Si Si3 0.646886 0.359620 0.490031
Si Si4 0.326644 0.738869 0.071803
Si Si5 0.436738 0.414712 0.692893
Si Si6 0.788311 0.175706 0.192189
Si Si7 0.896614 0.144014 0.464582
O O1 0.224412 0.667322 0.108952
O O2 0.371870 0.621566 0.252345
O O3 0.066958 0.786797 0.366224
O O4 0.500000 0.000000 0.500000
O O5 0.125835 0.808136 0.064979
O O6 0.371461 0.148405 0.276383
O O7 0.056230 0.794291 0.868087
O O8 0.895372 0.041054 0.153706
O O9 0.555269 0.491761 0.663004
O O10 0.766724 0.370275 0.406145
O O11 0.821689 0.297494 0.521001
O O12 0.628484 0.922587 0.255399
O O13 0.350391 0.575123 0.866702
O O14 0.174146 0.183719 0.481812
O O15 0.500000 0.000000 0.000000
#
# Coordination Sequence:
#
# PCOD9005110 Si02
#       7
#     2   2   2   2   2   2   2
#     4   9  20  38  57  86 122 159 205 245 287 352
#     4   9  18  35  60  85 115 156 199 248 301 350
#     4   9  18  34  56  85 118 154 198 241 291 357
#     4  10  21  38  60  92 121 152 204 249 294 356
#     4  11  21  37  60  87 125 162 193 243 300 351
#     4   9  17  33  60  87 113 154 202 245 298 358
#     4   9  20  38  58  83 118 161 200 240 294 349
#
# _framework density 27.21772
#
# number of rings (size 3 to 8) (size 9 to 14) (size 15 to 20)
#    0.000    2.571    0.000    2.143    0.000    2.857 
#    0.000   25.000    0.000   12.000    0.000   12.000 
#    0.000    0.000    0.000    0.000    0.000    0.000 
#
# Total GULP energy -78248.880912 kJ/mol
# GULP energy per Si atom -5589.205779 kJ/mol
# Density = 2.715577 g / cm^3
# Si number density = 27.217720 Si / 1000 Ang^3
#
#
#
# Elastic Constant Matrix: (Units=GPa)
#
#
# Indices 1 2 3 4 5 6 
#
# 1 135.2887 72.1707 38.8196 -23.7488 -0.1771 21.1279
# 2 72.1707 108.4162 39.4063 -34.9165 -7.1834 6.8167
# 3 38.8196 39.4063 138.8517 -44.6885 -26.2055 9.4423
# 4 -23.7488 -34.9165 -44.6885 41.9872 16.7143 -3.1302
# 5 -0.1771 -7.1834 -26.2055 16.7143 51.8829 -4.3521
# 6 21.1279 6.8167 9.4423 -3.1302 -4.3521 62.3961
#
#
#
# Elastic Compliance Matrix: (Units=1/GPa)
#
#
# Indices 1 2 3 4 5 6 
#
# 1 0.012413 -0.007817 -0.001606 -0.000673 -0.001909 -0.003273
# 2 -0.007817 0.017755 0.000569 0.011373 -0.000850 0.001132
# 3 -0.001606 0.000569 0.011430 0.010761 0.002334 -0.000545
# 4 -0.000673 0.011373 0.010761 0.047631 -0.008408 -0.000840
# 5 -0.001909 -0.000850 0.002334 -0.008408 0.023170 0.001580
# 6 -0.003273 0.001132 -0.000545 -0.000840 0.001580 0.017162
#
#
# Mechanical properties :
#
#
# Convention : Reuss Voigt Hill
#
# Bulk Modulus (GPa) = 41.85661 75.92774 58.89218
# Shear Modulus (GPa) = 32.20981 46.73057 39.47019
#
# Velocity S-wave (km/s) = 3.44381 4.14807 3.81223
# Velocity P-wave (km/s) = 5.58793 7.13435 6.40796
#
# Compressibility (1/GPa) = 0.02389109
#
# Stress axis : x y z
#
# Youngs Moduli (GPa) = 80.56192 56.32102 87.48639
#
# Poissons Ratio (x) = 0.44024 0.14053
# Poissons Ratio (y) = 0.62972 -0.04979
# Poissons Ratio (z) = 0.12940 -0.03206
#
# Static dielectric constant tensor:
#      x y z
#    x 2.194890 0.032930 -0.013290 
#    y 0.032930 2.116290 0.027070 
#    z -0.013290 0.027070 2.271090 
# 
# From -- ./inp_files/484656.got.cif
#   From: 2010.05.17/outbox.cif.g08.bks.cpg/sg2_243_cif.got.tgz:484656.got - 2010.06.03 11:33:40.
