data_PCOD9005134
_publ_section_title
;
Structure prediction by ZEFSAII (Michael W. Deem and Ramdas Pophale) SiO2 
 PCOD9005134
Probable space group: P -1
;
_chemical_formula_sum "Si O2"
_cell_formula_units_Z 16
_cell_length_a 7.952988
_cell_length_b 13.421672
_cell_length_c 9.061755
_cell_angle_alpha 76.549865
_cell_angle_beta 85.217888
_cell_angle_gamma 124.604054
_cell_volume 745.748772
_symmetry_space_group_name_H-M "P -1"
_symmetry_group_IT_number 2
_symmetry_cell_setting 'triclinic'
loop_
_space_group_symop_operation_xyz
x,y,z
-x,-y,-z
loop_
_atom_site_type_symbol
_atom_site_label
_atom_site_fract_x
_atom_site_fract_y
_atom_site_fract_z
Si Si1 0.887113 0.375590 0.812828
Si Si2 0.005245 0.696589 0.459123
Si Si3 0.701474 0.531587 0.776497
Si Si4 0.542753 0.900037 0.985307
Si Si5 0.786616 0.653450 0.044810
Si Si6 0.103058 0.943664 0.869797
Si Si7 0.124266 0.961663 0.315746
Si Si8 0.742235 0.097417 0.407803
O O1 0.835240 0.475729 0.804141
O O2 0.668318 0.240514 0.923893
O O3 0.934760 0.367722 0.639975
O O4 0.079714 0.392760 0.881975
O O5 0.779656 0.604410 0.588328
O O6 0.040295 0.816970 0.328397
O O7 0.162939 0.767565 0.564458
O O8 0.447868 0.423145 0.841957
O O9 0.756760 0.623771 0.880934
O O10 0.737324 0.946802 0.064483
O O11 0.500000 0.000000 0.000000
O O12 0.642033 0.933290 0.804369
O O13 0.921619 0.806477 0.001397
O O14 0.219582 0.906440 0.764336
O O15 0.013098 0.000504 0.756206
O O16 0.141560 0.951069 0.492482
O O17 0.500000 0.000000 0.500000
#
# Coordination Sequence:
#
# PCOD9005134 Si02
#       8
#     2   2   2   2   2   2   2   2
#     4  12  24  43  68  95 130 174 215 267 327 388
#     4  10  22  42  63  90 136 165 215 267 313 390
#     4  11  25  45  66  93 128 176 224 259 320 384
#     4  12  21  39  64  95 128 162 207 268 332 380
#     4  11  24  44  68  95 129 170 218 278 311 381
#     4  12  21  40  67  94 131 164 211 272 330 385
#     4  10  22  36  62  95 127 166 208 263 331 382
#     4  10  21  38  60  93 129 170 202 260 324 383
#
# _framework density 21.454948999999999
#
# number of rings (size 3 to 8) (size 9 to 14) (size 15 to 20)
#    0.750    0.250    3.750    3.750    0.000    1.500 
#    0.000    3.750    0.000    0.000    0.000    0.000 
#    0.000    0.000    0.000    0.000    0.000    0.000 
#
# Total GULP energy -89276.690382 kJ/mol
# GULP energy per Si atom -5579.793149 kJ/mol
# Density = 2.140612 g / cm^3
# Si number density = 21.454949 Si / 1000 Ang^3
#
#
#
# Elastic Constant Matrix: (Units=GPa)
#
#
# Indices 1 2 3 4 5 6 
#
# 1 98.0181 25.9444 3.9913 -9.6425 2.9084 2.6961
# 2 25.9444 34.8271 29.6830 -7.2746 -7.9945 7.1793
# 3 3.9913 29.6830 101.6451 -1.6287 -21.3331 6.5447
# 4 -9.6425 -7.2746 -1.6287 35.6692 0.6605 -4.7727
# 5 2.9084 -7.9945 -21.3331 0.6605 34.9985 -0.3752
# 6 2.6961 7.1793 6.5447 -4.7727 -0.3752 28.5630
#
#
#
# Elastic Compliance Matrix: (Units=1/GPa)
#
#
# Indices 1 2 3 4 5 6 
#
# 1 0.013740 -0.013137 0.002690 0.001418 -0.002513 0.001593
# 2 -0.013137 0.054138 -0.013634 0.005674 0.004953 -0.008231
# 3 0.002690 -0.013634 0.014932 -0.001536 0.005788 -0.000429
# 4 0.001418 0.005674 -0.001536 0.030020 -0.000284 0.003804
# 5 -0.002513 0.004953 0.005788 -0.000284 0.033425 -0.001942
# 6 0.001593 -0.008231 -0.000429 0.003804 -0.001942 0.037637
#
#
# Mechanical properties :
#
#
# Convention : Reuss Voigt Hill
#
# Bulk Modulus (GPa) = 28.86166 39.30308 34.08237
# Shear Modulus (GPa) = 20.52507 31.50425 26.01466
#
# Velocity S-wave (km/s) = 3.09635 3.83612 3.48591
# Velocity P-wave (km/s) = 5.12490 6.16277 5.66764
#
# Compressibility (1/GPa) = 0.03464804
#
# Stress axis : x y z
#
# Youngs Moduli (GPa) = 72.77948 18.47118 66.97142
#
# Poissons Ratio (x) = 0.24266 -0.18013
# Poissons Ratio (y) = 0.95611 0.91306
# Poissons Ratio (z) = -0.19575 0.25183
#
# Static dielectric constant tensor:
#      x y z
#    x 1.809090 0.012760 -0.002350 
#    y 0.012760 1.799840 0.014100 
#    z -0.002350 0.014100 1.795030 
# 
# From -- ./inp_files/206893.got.cif
#   From: 2010.05.17/outbox.cif.g08.bks.cpg/sg2_104_cif.got.tgz:206893.got - 2010.06.03 11:33:40.
