data_PCOD9005534
_publ_section_title
;
Structure prediction by ZEFSAII (Michael W. Deem and Ramdas Pophale) SiO2 
 PCOD9005534
Probable space group: P -1
;
_chemical_formula_sum "Si O2"
_cell_formula_units_Z 16
_cell_length_a 6.719951
_cell_length_b 26.349476
_cell_length_c 13.636113
_cell_angle_alpha 156.712164
_cell_angle_beta 132.426105
_cell_angle_gamma 47.553011
_cell_volume 691.884409
_symmetry_space_group_name_H-M "P -1"
_symmetry_group_IT_number 2
_symmetry_cell_setting 'triclinic'
loop_
_space_group_symop_operation_xyz
x,y,z
-x,-y,-z
loop_
_atom_site_type_symbol
_atom_site_label
_atom_site_fract_x
_atom_site_fract_y
_atom_site_fract_z
Si Si1 0.595733 0.089500 0.428664
Si Si2 0.686505 0.325326 0.009557
Si Si3 0.880592 0.053406 0.918391
Si Si4 0.652709 0.476736 0.613662
Si Si5 0.252122 0.792848 0.494271
Si Si6 0.364800 0.761822 0.683354
Si Si7 0.215334 0.552768 0.940439
Si Si8 0.071027 0.151624 0.966687
O O1 0.532179 0.160960 0.427835
O O2 0.391275 0.004916 0.256714
O O3 0.879800 0.988280 0.321006
O O4 0.609980 0.202079 0.709969
O O5 0.459062 0.397171 0.134078
O O6 0.734327 0.423017 0.113589
O O7 0.948578 0.267561 0.059612
O O8 0.884885 0.147956 0.994062
O O9 0.884156 0.137044 0.167701
O O10 0.102591 0.928733 0.735679
O O11 0.500000 0.500000 0.500000
O O12 0.570038 0.353519 0.421707
O O13 0.982682 0.464627 0.707190
O O14 0.315902 0.709838 0.467443
O O15 0.110713 0.698669 0.211151
O O16 0.623810 0.831298 0.873452
O O17 0.500000 0.500000 0.000000
#
# Coordination Sequence:
#
# PCOD9005534 Si02
#       8
#     2   2   2   2   2   2   2   2
#     4   9  21  39  62  93 125 164 214 267 323 383
#     4  11  23  42  67  91 129 170 214 271 325 380
#     4  10  21  38  62  92 129 169 213 265 322 383
#     4  12  27  45  68  97 129 173 222 264 321 391
#     4  10  22  40  63  93 126 165 214 265 322 384
#     4  11  24  39  61  93 133 171 215 266 321 382
#     4  11  26  46  69  97 130 170 217 271 325 381
#     4  10  22  39  61  95 129 169 215 266 323 382
#
# _framework density 23.125249
#
# number of rings (size 3 to 8) (size 9 to 14) (size 15 to 20)
#    0.000    1.500    0.000    3.750    0.000   16.000 
#    0.000    0.000    0.000    0.000    0.000    0.000 
#    0.000    0.000    0.000    0.000    0.000    0.000 
#
# Total GULP energy -89248.513166 kJ/mol
# GULP energy per Si atom -5578.032073 kJ/mol
# Density = 2.307262 g / cm^3
# Si number density = 23.125249 Si / 1000 Ang^3
#
#
#
# Elastic Constant Matrix: (Units=GPa)
#
#
# Indices 1 2 3 4 5 6 
#
# 1 136.0833 43.9307 49.9545 -21.3138 -3.8265 27.1655
# 2 43.9307 94.6703 5.1119 -1.6607 -11.3142 27.8982
# 3 49.9545 5.1119 58.3229 -7.5397 -8.7183 4.7238
# 4 -21.3138 -1.6607 -7.5397 28.4544 11.0891 -8.2630
# 5 -3.8265 -11.3142 -8.7183 11.0891 33.6433 5.3577
# 6 27.1655 27.8982 4.7238 -8.2630 5.3577 36.4236
#
#
#
# Elastic Compliance Matrix: (Units=1/GPa)
#
#
# Indices 1 2 3 4 5 6 
#
# 1 0.015987 -0.006925 -0.012648 0.010489 -0.006996 -0.001570
# 2 -0.006925 0.019376 0.005936 -0.012266 0.013738 -0.015250
# 3 -0.012648 0.005936 0.028328 -0.006062 0.010161 -0.001657
# 4 0.010489 -0.012266 -0.006062 0.056365 -0.026105 0.018985
# 5 -0.006996 0.013738 0.010161 -0.026105 0.047905 -0.019592
# 6 -0.001570 -0.015250 -0.001657 0.018985 -0.019592 0.047710
#
#
# Mechanical properties :
#
#
# Convention : Reuss Voigt Hill
#
# Bulk Modulus (GPa) = 27.45947 54.11895 40.78921
# Shear Modulus (GPa) = 19.60130 32.37622 25.98876
#
# Velocity S-wave (km/s) = 2.91454 3.74577 3.35599
# Velocity P-wave (km/s) = 4.81934 6.49315 5.71783
#
# Compressibility (1/GPa) = 0.03641731
#
# Stress axis : x y z
#
# Youngs Moduli (GPa) = 62.55254 51.60908 35.30019
#
# Poissons Ratio (x) = 0.35738 0.44649
# Poissons Ratio (y) = 0.43316 -0.20954
# Poissons Ratio (z) = 0.79118 -0.30635
#
# Static dielectric constant tensor:
#      x y z
#    x 1.852640 -0.021110 -0.016010 
#    y -0.021110 1.972890 0.043610 
#    z -0.016010 0.043610 1.897640 
# 
# From -- ./inp_files/371151.got.cif
#   From: 2010.05.17/outbox.cif.g08.bks.cpg/sg2_186_cif.got.tgz:371151.got - 2010.06.03 11:33:40.
