data_PCOD9005391
_publ_section_title
;
Structure prediction by ZEFSAII (Michael W. Deem and Ramdas Pophale) SiO2 
 PCOD9005391
Probable space group: P -1
;
_chemical_formula_sum "Si O2"
_cell_formula_units_Z 14
_cell_length_a 16.337188
_cell_length_b 18.927008
_cell_length_c 5.024409
_cell_angle_alpha 70.479121
_cell_angle_beta 110.500757
_cell_angle_gamma 151.633070
_cell_volume 690.221101
_symmetry_space_group_name_H-M "P -1"
_symmetry_group_IT_number 2
_symmetry_cell_setting 'triclinic'
loop_
_space_group_symop_operation_xyz
x,y,z
-x,-y,-z
loop_
_atom_site_type_symbol
_atom_site_label
_atom_site_fract_x
_atom_site_fract_y
_atom_site_fract_z
Si Si1 0.886503 0.339913 0.609629
Si Si2 0.348884 0.442289 0.780121
Si Si3 0.775998 0.494657 0.200348
Si Si4 0.182267 0.175062 0.012277
Si Si5 0.612480 0.716504 0.388140
Si Si6 0.355783 0.834543 0.947907
Si Si7 0.409306 0.705442 0.264568
O O1 0.731420 0.219231 0.371571
O O2 0.000000 0.500000 0.500000
O O3 0.021745 0.371817 0.694698
O O4 0.802900 0.279882 0.880445
O O5 0.189284 0.266393 0.807901
O O6 0.437859 0.540694 0.489545
O O7 0.500000 0.500000 0.000000
O O8 0.754261 0.787280 0.660318
O O9 0.711499 0.530068 0.157497
O O10 0.670987 0.363115 0.448926
O O11 0.724602 0.430802 0.927174
O O12 0.321995 0.240138 0.891391
O O13 0.000000 0.000000 0.000000
O O14 0.575254 0.774705 0.345898
O O15 0.435020 0.809998 0.087014
O O16 0.500000 0.000000 0.000000
#
# Coordination Sequence:
#
# PCOD9005391 Si02
#       7
#     2   2   2   2   2   2   2
#     4  12  22  42  67  89 126 161 209 259 308 365
#     4   9  20  39  62  88 116 156 204 245 291 357
#     4  11  22  36  65  95 115 157 211 259 294 353
#     4  11  22  39  58  86 124 155 193 248 314 359
#     4  10  21  38  62  84 112 162 202 245 292 364
#     4  12  25  42  62  93 127 166 202 254 318 374
#     4  11  20  39  62  90 119 156 210 247 300 365
#
# _framework density 20.283356000000001
#
# number of rings (size 3 to 8) (size 9 to 14) (size 15 to 20)
#    0.000    1.143    2.857    5.143    0.000    3.429 
#    5.143    0.000    0.000    0.000    0.000    0.000 
#    0.000    0.000    0.000    0.000    0.000    0.000 
#
# Total GULP energy -78183.325012 kJ/mol
# GULP energy per Si atom -5584.523215 kJ/mol
# Density = 2.023719 g / cm^3
# Si number density = 20.283356 Si / 1000 Ang^3
#
#
#
# Elastic Constant Matrix: (Units=GPa)
#
#
# Indices 1 2 3 4 5 6 
#
# 1 120.6927 28.5850 3.0473 -9.7311 16.6158 -8.6077
# 2 28.5850 99.9996 -2.5474 -0.7240 11.1670 -22.9853
# 3 3.0473 -2.5474 57.3979 5.3450 1.4168 0.4900
# 4 -9.7311 -0.7240 5.3450 25.7469 3.8858 -4.6905
# 5 16.6158 11.1670 1.4168 3.8858 30.6120 -5.3741
# 6 -8.6077 -22.9853 0.4900 -4.6905 -5.3741 23.2690
#
#
#
# Elastic Compliance Matrix: (Units=1/GPa)
#
#
# Indices 1 2 3 4 5 6 
#
# 1 0.009970 -0.001891 -0.000968 0.004980 -0.005013 0.001686
# 2 -0.001891 0.013750 0.000444 0.002229 -0.002037 0.012852
# 3 -0.000968 0.000444 0.017904 -0.004266 -0.000132 -0.001187
# 4 0.004980 0.002229 -0.004266 0.044829 -0.006980 0.011558
# 5 -0.005013 -0.002037 -0.000132 -0.006980 0.037623 0.003419
# 6 0.001686 0.012852 -0.001187 0.011558 0.003419 0.059439
#
#
# Mechanical properties :
#
#
# Convention : Reuss Voigt Hill
#
# Bulk Modulus (GPa) = 27.17886 37.36220 32.27053
# Shear Modulus (GPa) = 24.92412 32.52592 28.72502
#
# Velocity S-wave (km/s) = 3.50922 4.00881 3.76731
# Velocity P-wave (km/s) = 5.46335 6.31566 5.90490
#
# Compressibility (1/GPa) = 0.03679330
#
# Stress axis : x y z
#
# Youngs Moduli (GPa) = 100.30414 72.72983 55.85347
#
# Poissons Ratio (x) = 0.13753 0.05404
# Poissons Ratio (y) = 0.18968 -0.02478
# Poissons Ratio (z) = 0.09705 -0.03227
#
# Static dielectric constant tensor:
#      x y z
#    x 1.748060 -0.005040 0.018410 
#    y -0.005040 1.730390 0.017940 
#    z 0.018410 0.017940 1.725370 
# 
# From -- ./inp_files/112410.got.cif
#   From: 2010.05.17/outbox.cif.g08.bks.cpg/sg2_57_cif.got.tgz:112410.got - 2010.06.03 11:33:40.
