data_PCOD9005329
_publ_section_title
;
Structure prediction by ZEFSAII (Michael W. Deem and Ramdas Pophale) SiO2 
 PCOD9005329
Probable space group: P -1
;
_chemical_formula_sum "Si O2"
_cell_formula_units_Z 14
_cell_length_a 8.737466
_cell_length_b 8.195591
_cell_length_c 19.007162
_cell_angle_alpha 148.795025
_cell_angle_beta 67.428346
_cell_angle_gamma 112.312512
_cell_volume 647.397713
_symmetry_space_group_name_H-M "P -1"
_symmetry_group_IT_number 2
_symmetry_cell_setting 'triclinic'
loop_
_space_group_symop_operation_xyz
x,y,z
-x,-y,-z
loop_
_atom_site_type_symbol
_atom_site_label
_atom_site_fract_x
_atom_site_fract_y
_atom_site_fract_z
Si Si1 0.253879 0.338134 0.078771
Si Si2 0.394252 0.513656 0.678117
Si Si3 0.068427 0.735267 0.818542
Si Si4 0.672119 0.061461 0.782281
Si Si5 0.121613 0.815099 0.080743
Si Si6 0.415900 0.493314 0.834748
Si Si7 0.465319 0.146021 0.405081
O O1 0.325783 0.557573 0.082457
O O2 0.400586 0.356007 0.116646
O O3 0.079396 0.447887 0.177885
O O4 0.186635 0.986726 0.937195
O O5 0.205630 0.527887 0.689205
O O6 0.401801 0.486560 0.750676
O O7 0.448977 0.213443 0.515239
O O8 0.511187 0.835811 0.754313
O O9 0.973825 0.942679 0.857883
O O10 0.815561 0.018378 0.796373
O O11 0.685113 0.982914 0.668141
O O12 0.279431 0.690340 0.966942
O O13 0.000000 0.500000 0.000000
O O14 0.409594 0.125067 0.725671
O O15 0.500000 0.500000 0.500000
#
# Coordination Sequence:
#
# PCOD9005329 Si02
#       7
#     2   2   2   2   2   2   2
#     4  10  21  38  61  92 129 164 204 260 314 377
#     4  11  23  41  68  92 128 169 210 256 304 378
#     4  11  23  38  60  96 132 161 206 257 320 363
#     4  10  22  41  63  93 126 166 212 251 314 373
#     4  12  25  38  64  96 128 162 206 265 318 370
#     4  11  23  41  66  92 126 168 212 255 317 374
#     4   9  22  41  68  92 122 167 217 254 302 375
#
# _framework density 21.625038
#
# number of rings (size 3 to 8) (size 9 to 14) (size 15 to 20)
#    0.000    1.429    1.429    3.857    6.000    4.571 
#    0.000    3.571    3.143    0.000    0.000    0.000 
#    0.000    0.000    0.000    0.000    0.000    0.000 
#
# Total GULP energy -78037.279386 kJ/mol
# GULP energy per Si atom -5574.091385 kJ/mol
# Density = 2.157582 g / cm^3
# Si number density = 21.625038 Si / 1000 Ang^3
#
#
#
# Elastic Constant Matrix: (Units=GPa)
#
#
# Indices 1 2 3 4 5 6 
#
# 1 129.6435 32.0219 38.8322 -3.6563 9.2312 -11.8106
# 2 32.0219 78.1088 16.9546 13.4673 11.3107 -11.5230
# 3 38.8322 16.9546 41.9933 9.2709 8.6706 -9.6557
# 4 -3.6563 13.4673 9.2709 29.9424 -14.0751 8.3423
# 5 9.2312 11.3107 8.6706 -14.0751 31.4230 -2.7370
# 6 -11.8106 -11.5230 -9.6557 8.3423 -2.7370 49.6512
#
#
#
# Elastic Compliance Matrix: (Units=1/GPa)
#
#
# Indices 1 2 3 4 5 6 
#
# 1 0.013435 -0.006350 -0.015589 0.014356 0.008789 -0.003237
# 2 -0.006350 0.021525 0.007925 -0.023566 -0.017928 0.007997
# 3 -0.015589 0.007925 0.052849 -0.039344 -0.029312 0.013403
# 4 0.014356 -0.023566 -0.039344 0.088927 0.053062 -0.021722
# 5 0.008789 -0.017928 -0.029312 0.053062 0.066417 -0.013025
# 6 -0.003237 0.007997 0.013403 -0.021722 -0.013025 0.026765
#
#
# Mechanical properties :
#
#
# Convention : Reuss Voigt Hill
#
# Bulk Modulus (GPa) = 16.72757 47.26257 31.99507
# Shear Modulus (GPa) = 15.72956 32.99909 24.36433
#
# Velocity S-wave (km/s) = 2.69992 3.91060 3.36024
# Velocity P-wave (km/s) = 4.17989 6.50333 5.46648
#
# Compressibility (1/GPa) = 0.05978155
#
# Stress axis : x y z
#
# Youngs Moduli (GPa) = 74.43033 46.45787 18.92175
#
# Poissons Ratio (x) = 0.29500 0.29497
# Poissons Ratio (y) = 0.47262 -0.14995
# Poissons Ratio (z) = 1.16028 -0.36816
#
# Static dielectric constant tensor:
#      x y z
#    x 1.793740 -0.002550 -0.024640 
#    y -0.002550 1.879670 -0.028650 
#    z -0.024640 -0.028650 1.884160 
# 
# From -- ./inp_files/200559.got.cif
#   From: 2010.05.17/outbox.cif.g08.bks.cpg/sg2_101_cif.got.tgz:200559.got - 2010.06.03 11:33:40.
