data_PCOD9005360
_publ_section_title
;
Structure prediction by ZEFSAII (Michael W. Deem and Ramdas Pophale) SiO2 
 PCOD9005360
Probable space group: P -1
;
_chemical_formula_sum "Si O2"
_cell_formula_units_Z 14
_cell_length_a 11.991962
_cell_length_b 18.518965
_cell_length_c 15.631124
_cell_angle_alpha 20.613594
_cell_angle_beta 38.224501
_cell_angle_gamma 27.695664
_cell_volume 547.913282
_symmetry_space_group_name_H-M "P -1"
_symmetry_group_IT_number 2
_symmetry_cell_setting 'triclinic'
loop_
_space_group_symop_operation_xyz
x,y,z
-x,-y,-z
loop_
_atom_site_type_symbol
_atom_site_label
_atom_site_fract_x
_atom_site_fract_y
_atom_site_fract_z
Si Si1 0.178704 0.376615 0.611200
Si Si2 0.490285 0.438764 0.938465
Si Si3 0.330508 0.720726 0.171182
Si Si4 0.977017 0.168390 0.037489
Si Si5 0.736752 0.378739 0.435664
Si Si6 0.700215 0.975237 0.665660
Si Si7 0.070169 0.489178 0.104935
O O1 0.228678 0.569403 0.394183
O O2 0.000000 0.500000 0.500000
O O3 0.450129 0.088826 0.735742
O O4 0.054325 0.344074 0.797659
O O5 0.642571 0.225836 0.001435
O O6 0.368590 0.744778 0.636930
O O7 0.278097 0.442861 0.085942
O O8 0.696139 0.336906 0.996485
O O9 0.611361 0.499468 0.285111
O O10 0.143145 0.974306 0.068623
O O11 0.073147 0.955347 0.293373
O O12 0.500000 0.500000 0.500000
O O13 0.869208 0.484257 0.267139
O O14 0.784540 0.768943 0.764638
O O15 0.916052 0.780336 0.821770
#
# Coordination Sequence:
#
# PCOD9005360 Si02
#       7
#     2   2   2   2   2   2   2
#     4  11  21  37  66  97 124 153 205 265 302 355
#     4  11  22  36  65  95 121 158 208 261 304 357
#     4  10  21  38  65  93 123 167 204 250 312 357
#     4  11  22  39  61  94 133 158 207 252 304 369
#     4  10  23  43  61  88 124 169 208 248 305 380
#     4  10  21  38  61  96 123 154 212 259 302 358
#     4  11  22  39  63  85 128 166 203 253 310 365
#
# _framework density 25.551489
#
# number of rings (size 3 to 8) (size 9 to 14) (size 15 to 20)
#    0.000    1.429    2.857    5.143    2.000    2.286 
#    0.000    5.000    0.000    0.000    0.000    0.000 
#    0.000    0.000    0.000    0.000    0.000    0.000 
#
# Total GULP energy -78417.253219 kJ/mol
# GULP energy per Si atom -5601.232373 kJ/mol
# Density = 2.549333 g / cm^3
# Si number density = 25.551489 Si / 1000 Ang^3
#
#
#
# Elastic Constant Matrix: (Units=GPa)
#
#
# Indices 1 2 3 4 5 6 
#
# 1 114.6232 53.6932 24.9701 8.5832 -14.0847 -40.7249
# 2 53.6932 167.3811 32.9143 21.0598 -8.7471 -28.2134
# 3 24.9701 32.9143 84.5174 12.0844 -3.2068 -30.1981
# 4 8.5832 21.0598 12.0844 40.3875 -9.1286 -17.0463
# 5 -14.0847 -8.7471 -3.2068 -9.1286 28.8638 4.5712
# 6 -40.7249 -28.2134 -30.1981 -17.0463 4.5712 59.1746
#
#
#
# Elastic Compliance Matrix: (Units=1/GPa)
#
#
# Indices 1 2 3 4 5 6 
#
# 1 0.013592 -0.003078 -0.000103 0.003543 0.005473 0.008432
# 2 -0.003078 0.007624 -0.001715 -0.002952 -0.000286 -0.000187
# 3 -0.000103 -0.001715 0.014976 -0.000859 -0.000211 0.006522
# 4 0.003543 -0.002952 -0.000859 0.031717 0.009344 0.009008
# 5 0.005473 -0.000286 -0.000211 0.009344 0.039662 0.003150
# 6 0.008432 -0.000187 0.006522 0.009008 0.003150 0.028293
#
#
# Mechanical properties :
#
#
# Convention : Reuss Voigt Hill
#
# Bulk Modulus (GPa) = 37.88172 65.51964 51.70068
# Shear Modulus (GPa) = 32.37170 42.68145 37.52657
#
# Velocity S-wave (km/s) = 3.56324 4.09150 3.83647
# Velocity P-wave (km/s) = 5.63798 6.92953 6.31685
#
# Compressibility (1/GPa) = 0.02639796
#
# Stress axis : x y z
#
# Youngs Moduli (GPa) = 73.57512 131.16388 66.77496
#
# Poissons Ratio (x) = 0.40376 0.00688
# Poissons Ratio (y) = 0.22648 0.11454
# Poissons Ratio (z) = 0.00759 0.22498
#
# Static dielectric constant tensor:
#      x y z
#    x 2.019820 0.059780 -0.022230 
#    y 0.059780 2.060570 -0.003010 
#    z -0.022230 -0.003010 2.058160 
# 
# From -- ./inp_files/431143.got.cif
#   From: 2010.05.17/outbox.cif.g08.bks.cpg/sg2_216_cif.got.tgz:431143.got - 2010.06.03 11:33:40.
