data_PCOD9005123
_publ_section_title
;
Structure prediction by ZEFSAII (Michael W. Deem and Ramdas Pophale) SiO2 
 PCOD9005123
Probable space group: P -1
;
_chemical_formula_sum "Si O2"
_cell_formula_units_Z 16
_cell_length_a 13.452338
_cell_length_b 14.841085
_cell_length_c 14.731543
_cell_angle_alpha 29.168557
_cell_angle_beta 139.177418
_cell_angle_gamma 151.250141
_cell_volume 688.978646
_symmetry_space_group_name_H-M "P -1"
_symmetry_group_IT_number 2
_symmetry_cell_setting 'triclinic'
loop_
_space_group_symop_operation_xyz
x,y,z
-x,-y,-z
loop_
_atom_site_type_symbol
_atom_site_label
_atom_site_fract_x
_atom_site_fract_y
_atom_site_fract_z
Si Si1 0.071756 0.319004 0.603590
Si Si2 0.653046 0.175523 0.226323
Si Si3 0.802669 0.914203 0.642628
Si Si4 0.062937 0.236178 0.280051
Si Si5 0.694811 0.210149 0.011555
Si Si6 0.609455 0.470401 0.214770
Si Si7 0.916939 0.571882 0.199914
Si Si8 0.764080 0.005548 0.835432
O O1 0.041166 0.491280 0.384585
O O2 0.290398 0.476490 0.663675
O O3 0.014675 0.126238 0.656017
O O4 0.907391 0.177403 0.698312
O O5 0.631493 0.175560 0.104032
O O6 0.818372 0.457202 0.135000
O O7 0.432127 0.027558 0.251220
O O8 0.741663 0.048216 0.426900
O O9 0.808585 0.746013 0.729055
O O10 0.631312 0.751668 0.744788
O O11 0.865262 0.186937 0.149702
O O12 0.194558 0.502849 0.188597
O O13 0.000000 0.000000 0.500000
O O14 0.500000 0.000000 0.000000
O O15 0.720797 0.428323 0.258043
O O16 0.671617 0.727039 0.004067
O O17 0.077708 0.862849 0.084595
#
# Coordination Sequence:
#
# PCOD9005123 Si02
#       8
#     2   2   2   2   2   2   2   2
#     4  10  21  38  60  92 128 173 218 265 325 394
#     4  11  23  42  65  94 127 173 224 272 337 402
#     4  11  23  41  67  92 128 176 221 272 333 406
#     4  11  25  50  74 102 139 177 229 290 353 414
#     4  11  27  49  75 106 137 176 230 293 352 415
#     4  11  22  36  57  95 132 172 218 267 327 394
#     4  10  21  38  62  87 131 176 215 270 321 396
#     4  11  22  35  59  93 134 169 215 271 324 394
#
# _framework density 23.222781999999999
#
# number of rings (size 3 to 8) (size 9 to 14) (size 15 to 20)
#    0.000    1.250    1.250    6.000    0.000   11.500 
#    2.250    0.000    0.000    0.000    0.000    0.000 
#    0.000    0.000    0.000    0.000    0.000    0.000 
#
# Total GULP energy -89555.827888 kJ/mol
# GULP energy per Si atom -5597.239243 kJ/mol
# Density = 2.316993 g / cm^3
# Si number density = 23.222782 Si / 1000 Ang^3
#
#
#
# Elastic Constant Matrix: (Units=GPa)
#
#
# Indices 1 2 3 4 5 6 
#
# 1 37.2559 26.0001 4.9796 9.5696 16.3022 -5.6872
# 2 26.0001 163.0901 38.2072 8.7219 0.0112 -21.4785
# 3 4.9796 38.2072 109.0560 -4.8141 1.1490 -9.0790
# 4 9.5696 8.7219 -4.8141 29.8490 1.0620 -3.4985
# 5 16.3022 0.0112 1.1490 1.0620 33.7824 4.9900
# 6 -5.6872 -21.4785 -9.0790 -3.4985 4.9900 29.3203
#
#
#
# Elastic Compliance Matrix: (Units=1/GPa)
#
#
# Indices 1 2 3 4 5 6 
#
# 1 0.044233 -0.005611 0.000281 -0.010891 -0.022046 0.007009
# 2 -0.005611 0.008083 -0.002321 -0.000589 0.002262 0.003659
# 3 0.000281 -0.002321 0.010254 0.002503 -0.000854 0.001973
# 4 -0.010891 -0.000589 0.002503 0.037685 0.003675 0.002102
# 5 -0.022046 0.002262 -0.000854 0.003675 0.041559 -0.009518
# 6 0.007009 0.003659 0.001973 0.002102 -0.009518 0.040628
#
#
# Mechanical properties :
#
#
# Convention : Reuss Voigt Hill
#
# Bulk Modulus (GPa) = 21.15544 49.75286 35.45415
# Shear Modulus (GPa) = 23.41936 34.60468 29.01202
#
# Velocity S-wave (km/s) = 3.17908 3.86439 3.53837
# Velocity P-wave (km/s) = 4.75447 6.43289 5.65628
#
# Compressibility (1/GPa) = 0.04726916
#
# Stress axis : x y z
#
# Youngs Moduli (GPa) = 22.60736 123.71719 97.52616
#
# Poissons Ratio (x) = 0.69412 -0.02740
# Poissons Ratio (y) = 0.12684 0.22634
# Poissons Ratio (z) = -0.00635 0.28713
#
# Static dielectric constant tensor:
#      x y z
#    x 1.861720 -0.017120 -0.015020 
#    y -0.017120 1.871780 -0.008060 
#    z -0.015020 -0.008060 1.911520 
# 
# From -- ./inp_files/534147.got.cif
#   From: 2010.05.17/outbox.cif.g08.bks.cpg/sg2_268_cif.got.tgz:534147.got - 2010.06.03 11:33:40.
