data_PCOD9005347
_publ_section_title
;
Structure prediction by ZEFSAII (Michael W. Deem and Ramdas Pophale) SiO2 
 PCOD9005347
Probable space group: P -1
;
_chemical_formula_sum "Si O2"
_cell_formula_units_Z 14
_cell_length_a 20.884454
_cell_length_b 12.640284
_cell_length_c 18.370735
_cell_angle_alpha 154.629156
_cell_angle_beta 19.107214
_cell_angle_gamma 152.497312
_cell_volume 660.837517
_symmetry_space_group_name_H-M "P -1"
_symmetry_group_IT_number 2
_symmetry_cell_setting 'triclinic'
loop_
_space_group_symop_operation_xyz
x,y,z
-x,-y,-z
loop_
_atom_site_type_symbol
_atom_site_label
_atom_site_fract_x
_atom_site_fract_y
_atom_site_fract_z
Si Si1 0.149825 0.664381 0.118592
Si Si2 0.484280 0.428754 0.674958
Si Si3 0.820633 0.181780 0.149687
Si Si4 0.755685 0.098547 0.340921
Si Si5 0.904475 0.664762 0.760531
Si Si6 0.529840 0.499295 0.881720
Si Si7 0.809861 0.796433 0.657529
O O1 0.012059 0.412057 0.073981
O O2 0.020487 0.728418 0.367061
O O3 0.173875 0.911627 0.196578
O O4 0.358189 0.596712 0.872827
O O5 0.628398 0.273228 0.382370
O O6 0.641379 0.619705 0.676401
O O7 0.322107 0.199402 0.744894
O O8 0.794765 0.157269 0.250736
O O9 0.859712 0.910321 0.919956
O O10 0.583294 0.238174 0.637209
O O11 0.944666 0.224384 0.266884
O O12 0.000000 0.500000 0.500000
O O13 0.688103 0.496769 0.913810
O O14 0.716770 0.712684 0.783963
O O15 0.500000 0.500000 0.000000
#
# Coordination Sequence:
#
# PCOD9005347 Si02
#       7
#     2   2   2   2   2   2   2
#     4  10  21  38  61  94 129 160 210 255 317 368
#     4  11  20  35  64  92 127 160 205 264 316 365
#     4  11  22  36  62  97 125 160 210 263 314 366
#     4  12  22  38  61  94 124 164 204 269 312 371
#     4  12  25  38  61  91 128 167 205 257 324 375
#     4  12  24  41  61  92 129 163 209 261 316 371
#     4  10  23  39  60  95 128 164 206 265 305 375
#
# _framework density 21.185237999999998
#
# number of rings (size 3 to 8) (size 9 to 14) (size 15 to 20)
#    0.000    0.857    7.143    2.143    2.000    0.000 
#    0.000    0.000    0.000    4.286    0.000    0.000 
#    0.000    0.000    0.000    0.000    0.000    0.000 
#
# Total GULP energy -78225.734817 kJ/mol
# GULP energy per Si atom -5587.552487 kJ/mol
# Density = 2.113702 g / cm^3
# Si number density = 21.185238 Si / 1000 Ang^3
#
#
#
# Elastic Constant Matrix: (Units=GPa)
#
#
# Indices 1 2 3 4 5 6 
#
# 1 55.3615 15.6956 37.9243 -3.1818 -6.7650 9.5250
# 2 15.6956 107.8798 27.4573 18.7102 12.6079 -7.3448
# 3 37.9243 27.4573 156.6147 19.1728 -12.8717 -4.2815
# 4 -3.1818 18.7102 19.1728 40.7048 -0.3914 -8.2617
# 5 -6.7650 12.6079 -12.8717 -0.3914 39.8459 -4.2733
# 6 9.5250 -7.3448 -4.2815 -8.2617 -4.2733 27.9385
#
#
#
# Elastic Compliance Matrix: (Units=1/GPa)
#
#
# Indices 1 2 3 4 5 6 
#
# 1 0.025478 -0.003919 -0.006102 0.004910 0.002701 -0.008787
# 2 -0.003919 0.011538 -0.000782 -0.004848 -0.004387 0.002145
# 3 -0.006102 -0.000782 0.008705 -0.003697 0.002251 0.002460
# 4 0.004910 -0.004848 -0.003697 0.030098 0.002081 0.005704
# 5 0.002701 -0.004387 0.002251 0.002081 0.028031 0.003174
# 6 -0.008787 0.002145 0.002460 0.005704 0.003174 0.041901
#
#
# Mechanical properties :
#
#
# Convention : Reuss Voigt Hill
#
# Bulk Modulus (GPa) = 41.46827 53.55669 47.51248
# Shear Modulus (GPa) = 28.50690 37.61645 33.06167
#
# Velocity S-wave (km/s) = 3.67222 4.21835 3.95473
# Velocity P-wave (km/s) = 6.13163 7.00436 6.58248
#
# Compressibility (1/GPa) = 0.02411482
#
# Stress axis : x y z
#
# Youngs Moduli (GPa) = 39.24962 86.66668 114.88272
#
# Poissons Ratio (x) = 0.33966 0.70098
# Poissons Ratio (y) = 0.15383 0.08986
# Poissons Ratio (z) = 0.23949 0.06779
#
# Static dielectric constant tensor:
#      x y z
#    x 1.799640 0.021640 -0.021000 
#    y 0.021640 1.788610 -0.014120 
#    z -0.021000 -0.014120 1.826710 
# 
# From -- ./inp_files/517531.got.cif
#   From: 2010.05.17/outbox.cif.g08.bks.cpg/sg2_259_cif.got.tgz:517531.got - 2010.06.03 11:33:40.
