data_PCOD9005885
_publ_section_title
;
Structure prediction by ZEFSAII (Michael W. Deem and Ramdas Pophale) SiO2 
 PCOD9005885
Probable space group: P -1
;
_chemical_formula_sum "Si O2"
_cell_formula_units_Z 16
_cell_length_a 20.069574
_cell_length_b 11.950156
_cell_length_c 13.157539
_cell_angle_alpha 132.504265
_cell_angle_beta 149.818315
_cell_angle_gamma 27.162415
_cell_volume 661.483168
_symmetry_space_group_name_H-M "P -1"
_symmetry_group_IT_number 2
_symmetry_cell_setting 'triclinic'
loop_
_space_group_symop_operation_xyz
x,y,z
-x,-y,-z
loop_
_atom_site_type_symbol
_atom_site_label
_atom_site_fract_x
_atom_site_fract_y
_atom_site_fract_z
Si Si1 0.817521 0.197492 0.696338
Si Si2 0.493386 0.761740 0.610242
Si Si3 0.230948 0.642266 0.844172
Si Si4 0.371999 0.684544 0.704312
Si Si5 0.727653 0.799890 0.839197
Si Si6 0.127068 0.206994 0.763957
Si Si7 0.397421 0.364168 0.678951
Si Si8 0.166758 0.229844 0.613208
O O1 0.723893 0.451628 0.758042
O O2 0.713818 0.171916 0.624611
O O3 0.679845 0.295527 0.468676
O O4 0.091571 0.929358 0.863895
O O5 0.570688 0.794920 0.638674
O O6 0.391540 0.972310 0.688382
O O7 0.372673 0.472200 0.823534
O O8 0.004365 0.753343 0.601029
O O9 0.389989 0.453921 0.035159
O O10 0.400041 0.499627 0.686201
O O11 0.173650 0.982848 0.670796
O O12 0.602467 0.045667 0.756293
O O13 0.739289 0.867101 0.006475
O O14 0.000000 0.500000 0.000000
O O15 0.213384 0.214217 0.782477
O O16 0.847604 0.491347 0.575325
O O17 0.000000 0.500000 0.500000
#
# Coordination Sequence:
#
# PCOD9005885 Si02
#       8
#     2   2   2   2   2   2   2   2
#     4  10  23  43  67  99 130 179 216 284 341 390
#     4  10  22  45  68  91 141 174 218 277 341 391
#     4  10  21  38  64 100 128 166 230 271 334 386
#     4  12  22  38  71  98 130 173 231 275 327 406
#     4  12  29  45  67 100 141 183 223 278 338 408
#     4  11  24  43  70 102 127 182 230 272 351 389
#     4  11  24  41  65  99 137 177 225 281 330 399
#     4  10  21  43  69  97 135 177 222 283 333 402
#
# _framework density 24.18807
#
# number of rings (size 3 to 8) (size 9 to 14) (size 15 to 20)
#    0.000    1.250    5.000    2.250    3.500    2.000 
#    2.250    5.625    0.000    0.000    0.000    0.000 
#    0.000    0.000    0.000    0.000    0.000    0.000 
#
# Total GULP energy -89277.108940 kJ/mol
# GULP energy per Si atom -5579.819309 kJ/mol
# Density = 2.413302 g / cm^3
# Si number density = 24.188070 Si / 1000 Ang^3
#
#
#
# Elastic Constant Matrix: (Units=GPa)
#
#
# Indices 1 2 3 4 5 6 
#
# 1 80.2985 47.6099 13.9953 -0.5607 4.5618 24.3704
# 2 47.6099 160.1919 19.1060 -23.6242 3.0879 21.3670
# 3 13.9953 19.1060 68.2473 -16.1490 -8.6358 2.9255
# 4 -0.5607 -23.6242 -16.1490 28.3358 6.5999 -2.9659
# 5 4.5618 3.0879 -8.6358 6.5999 33.2951 0.8388
# 6 24.3704 21.3670 2.9255 -2.9659 0.8388 38.6420
#
#
#
# Elastic Compliance Matrix: (Units=1/GPa)
#
#
# Indices 1 2 3 4 5 6 
#
# 1 0.018885 -0.004817 -0.003851 -0.006444 -0.001625 -0.009415
# 2 -0.004817 0.009006 0.000147 0.007740 -0.001638 -0.001324
# 3 -0.003851 0.000147 0.018046 0.009755 0.003219 0.001660
# 4 -0.006444 0.007740 0.009755 0.049146 -0.007122 0.002972
# 5 -0.001625 -0.001638 0.003219 -0.007122 0.032645 0.000432
# 6 -0.009415 -0.001324 0.001660 0.002972 0.000432 0.032641
#
#
# Mechanical properties :
#
#
# Convention : Reuss Voigt Hill
#
# Bulk Modulus (GPa) = 34.60658 52.24001 43.42330
# Shear Modulus (GPa) = 26.73196 35.25635 30.99416
#
# Velocity S-wave (km/s) = 3.32802 3.82199 3.58352
# Velocity P-wave (km/s) = 5.39499 6.41257 5.92567
#
# Compressibility (1/GPa) = 0.02889624
#
# Stress axis : x y z
#
# Youngs Moduli (GPa) = 52.95117 111.03577 55.41542
#
# Poissons Ratio (x) = 0.53483 0.21341
# Poissons Ratio (y) = 0.25505 -0.00817
# Poissons Ratio (z) = 0.20392 -0.01638
#
# Static dielectric constant tensor:
#      x y z
#    x 1.978770 -0.074280 0.007860 
#    y -0.074280 2.608940 0.198650 
#    z 0.007860 0.198650 2.003820 
# 
# From -- ./inp_files/541118.got.cif
#   From: 2010.05.17/outbox.cif.g08.bks.cpg/sg2_271_cif.got.tgz:541118.got - 2010.06.03 11:33:40.
