data_PCOD9005726
_publ_section_title
;
Structure prediction by ZEFSAII (Michael W. Deem and Ramdas Pophale) SiO2 
 PCOD9005726
Probable space group: P -1
;
_chemical_formula_sum "Si O2"
_cell_formula_units_Z 14
_cell_length_a 21.198984
_cell_length_b 7.078036
_cell_length_c 27.996398
_cell_angle_alpha 49.386076
_cell_angle_beta 169.172990
_cell_angle_gamma 129.944673
_cell_volume 598.905227
_symmetry_space_group_name_H-M "P -1"
_symmetry_group_IT_number 2
_symmetry_cell_setting 'triclinic'
loop_
_space_group_symop_operation_xyz
x,y,z
-x,-y,-z
loop_
_atom_site_type_symbol
_atom_site_label
_atom_site_fract_x
_atom_site_fract_y
_atom_site_fract_z
Si Si1 0.508972 0.381991 0.645609
Si Si2 0.892426 0.475365 0.288581
Si Si3 0.245134 0.114307 0.088594
Si Si4 0.794824 0.187295 0.167659
Si Si5 0.290179 0.487371 0.678341
Si Si6 0.497393 0.771841 0.498534
Si Si7 0.644854 0.156796 0.473246
O O1 0.778316 0.177539 0.894518
O O2 0.603646 0.518897 0.644025
O O3 0.449027 0.613123 0.599044
O O4 0.166902 0.210043 0.415847
O O5 0.919288 0.294972 0.293652
O O6 0.105431 0.401911 0.505772
O O7 0.028573 0.743211 0.328079
O O8 0.500000 0.500000 0.000000
O O9 0.522937 0.254135 0.239347
O O10 0.359224 0.128397 0.225922
O O11 0.896725 0.252081 0.802350
O O12 0.575733 0.330245 0.941833
O O13 0.500000 0.000000 0.000000
O O14 0.000000 0.500000 0.500000
O O15 0.500000 0.000000 0.500000
O O16 0.691424 0.899664 0.577938
#
# Coordination Sequence:
#
# PCOD9005726 Si02
#       7
#     2   2   2   2   2   2   2
#     4  10  22  41  63  92 123 166 212 256 320 375
#     4  10  21  38  63  91 126 164 210 259 317 381
#     4  11  22  41  66  88 127 168 207 260 319 378
#     4  11  22  39  62  92 130 164 213 266 313 383
#     4  11  21  37  65  92 124 173 210 258 326 373
#     4  10  21  40  65  91 126 163 208 263 314 376
#     4   9  22  39  62  92 125 162 208 262 309 372
#
# _framework density 23.375986999999999
#
# number of rings (size 3 to 8) (size 9 to 14) (size 15 to 20)
#    0.000    1.714    2.857    1.286    2.000    3.429 
#    0.000    4.286    0.000    0.000    0.000    0.000 
#    0.000    0.000    0.000    0.000    0.000    0.000 
#
# Total GULP energy -78028.578742 kJ/mol
# GULP energy per Si atom -5573.469910 kJ/mol
# Density = 2.332278 g / cm^3
# Si number density = 23.375987 Si / 1000 Ang^3
#
#
#
# Elastic Constant Matrix: (Units=GPa)
#
#
# Indices 1 2 3 4 5 6 
#
# 1 88.6849 47.7483 29.4904 9.0783 -25.1235 25.3285
# 2 47.7483 132.5443 25.0141 4.2489 -15.7556 33.7986
# 3 29.4904 25.0141 95.5247 4.1148 -14.1328 14.7937
# 4 9.0783 4.2489 4.1148 41.8240 8.2467 -1.3284
# 5 -25.1235 -15.7556 -14.1328 8.2467 37.7682 2.8864
# 6 25.3285 33.7986 14.7937 -1.3284 2.8864 49.3871
#
#
#
# Elastic Compliance Matrix: (Units=1/GPa)
#
#
# Indices 1 2 3 4 5 6 
#
# 1 0.020824 -0.002898 -0.001840 -0.007138 0.014214 -0.009168
# 2 -0.002898 0.010550 -0.000477 -0.001170 0.002993 -0.005797
# 3 -0.001840 -0.000477 0.012181 -0.001559 0.003677 -0.002636
# 4 -0.007138 -0.001170 -0.001559 0.028403 -0.012513 0.006424
# 5 0.014214 0.002993 0.003677 -0.012513 0.042302 -0.013249
# 6 -0.009168 -0.005797 -0.002636 0.006424 -0.013249 0.030654
#
#
# Mechanical properties :
#
#
# Convention : Reuss Voigt Hill
#
# Bulk Modulus (GPa) = 30.18815 57.91771 44.05293
# Shear Modulus (GPa) = 30.05082 40.09594 35.07338
#
# Velocity S-wave (km/s) = 3.58934 4.14607 3.87770
# Velocity P-wave (km/s) = 5.48817 6.91015 6.23980
#
# Compressibility (1/GPa) = 0.03312558
#
# Stress axis : x y z
#
# Youngs Moduli (GPa) = 48.02216 94.78306 82.09706
#
# Poissons Ratio (x) = 0.27470 0.15102
# Poissons Ratio (y) = 0.13918 0.03915
# Poissons Ratio (z) = 0.08834 0.04520
#
# Static dielectric constant tensor:
#      x y z
#    x 1.749090 0.009580 0.063700 
#    y 0.009580 1.922490 0.022160 
#    z 0.063700 0.022160 1.876910 
# 
# From -- ./inp_files/227413.got.cif
#   From: 2010.05.17/outbox.cif.g08.bks.cpg/sg2_114_cif.got.tgz:227413.got - 2010.06.03 11:33:40.
