data_PCOD9005879
_publ_section_title
;
Structure prediction by ZEFSAII (Michael W. Deem and Ramdas Pophale) SiO2 
 PCOD9005879
Probable space group: P -1
;
_chemical_formula_sum "Si O2"
_cell_formula_units_Z 16
_cell_length_a 15.542393
_cell_length_b 9.008156
_cell_length_c 15.896703
_cell_angle_alpha 133.816686
_cell_angle_beta 143.322033
_cell_angle_gamma 74.278775
_cell_volume 720.944475
_symmetry_space_group_name_H-M "P -1"
_symmetry_group_IT_number 2
_symmetry_cell_setting 'triclinic'
loop_
_space_group_symop_operation_xyz
x,y,z
-x,-y,-z
loop_
_atom_site_type_symbol
_atom_site_label
_atom_site_fract_x
_atom_site_fract_y
_atom_site_fract_z
Si Si1 0.927470 0.619072 0.849882
Si Si2 0.831076 0.978480 0.319447
Si Si3 0.282142 0.037864 0.958605
Si Si4 0.382505 0.923822 0.696255
Si Si5 0.980398 0.122943 0.154603
Si Si6 0.689196 0.129805 0.755173
Si Si7 0.452461 0.665562 0.156577
Si Si8 0.617953 0.659935 0.441852
O O1 0.724021 0.326918 0.552989
O O2 0.022797 0.757190 0.887680
O O3 0.916176 0.825070 0.970219
O O4 0.099734 0.641689 0.031660
O O5 0.779252 0.127036 0.392634
O O6 0.839145 0.066687 0.263980
O O7 0.656966 0.652106 0.058311
O O8 0.000000 0.000000 0.500000
O O9 0.445901 0.018498 0.093513
O O10 0.415505 0.367104 0.187728
O O11 0.143907 0.907294 0.879154
O O12 0.471700 0.189588 0.815408
O O13 0.208824 0.333511 0.432068
O O14 0.671339 0.265159 0.873083
O O15 0.500000 0.000000 0.500000
O O16 0.664387 0.858785 0.631909
O O17 0.614084 0.778596 0.397692
#
# Coordination Sequence:
#
# PCOD9005879 Si02
#       8
#     2   2   2   2   2   2   2   2
#     4  10  21  38  63  99 139 167 213 273 318 405
#     4  11  26  47  67  91 130 176 229 281 325 392
#     4  11  24  42  71  97 130 175 219 277 336 390
#     4  12  24  42  67  98 132 173 225 273 332 389
#     4  10  21  40  65  98 135 171 214 260 339 387
#     4   9  18  37  59  91 132 171 210 263 325 384
#     4  10  22  40  65  90 132 175 217 273 334 384
#     4   9  20  40  62  95 138 168 213 272 319 407
#
# _framework density 22.193110000000001
#
# number of rings (size 3 to 8) (size 9 to 14) (size 15 to 20)
#    0.000    1.750    1.250    2.250    3.500    0.500 
#    0.000    3.125    0.000    0.000    0.000    0.000 
#    0.000    0.000    0.000    0.000    0.000    0.000 
#
# Total GULP energy -89172.287019 kJ/mol
# GULP energy per Si atom -5573.267939 kJ/mol
# Density = 2.214260 g / cm^3
# Si number density = 22.193110 Si / 1000 Ang^3
#
#
#
# Elastic Constant Matrix: (Units=GPa)
#
#
# Indices 1 2 3 4 5 6 
#
# 1 69.6732 5.0960 -3.9501 -5.8250 4.9488 -8.2898
# 2 5.0960 50.5163 0.0343 -17.7565 2.4939 8.4563
# 3 -3.9501 0.0343 51.9547 -17.6109 1.8834 -1.1025
# 4 -5.8250 -17.7565 -17.6109 36.2710 -8.6858 6.0080
# 5 4.9488 2.4939 1.8834 -8.6858 26.2838 -2.9121
# 6 -8.2898 8.4563 -1.1025 6.0080 -2.9121 31.7324
#
#
#
# Elastic Compliance Matrix: (Units=1/GPa)
#
#
# Indices 1 2 3 4 5 6 
#
# 1 0.015312 -0.001642 0.001792 0.001387 -0.001948 0.004058
# 2 -0.001642 0.028347 0.005936 0.018868 0.002194 -0.011148
# 3 0.001792 0.005936 0.024751 0.016295 0.002365 -0.003122
# 4 0.001387 0.018868 0.016295 0.049847 0.011874 -0.012447
# 5 -0.001948 0.002194 0.002365 0.011874 0.042026 0.000597
# 6 0.004058 -0.011148 -0.003122 -0.012447 0.000597 0.037847
#
#
# Mechanical properties :
#
#
# Convention : Reuss Voigt Hill
#
# Bulk Modulus (GPa) = 12.40969 19.38940 15.89954
# Shear Modulus (GPa) = 23.49432 30.25504 26.87468
#
# Velocity S-wave (km/s) = 3.25719 3.69624 3.48364
# Velocity P-wave (km/s) = 4.44405 5.19345 4.83330
#
# Compressibility (1/GPa) = 0.08058221
#
# Stress axis : x y z
#
# Youngs Moduli (GPa) = 65.31019 35.27726 40.40201
#
# Poissons Ratio (x) = 0.05791 -0.07240
# Poissons Ratio (y) = 0.10721 -0.23982
# Poissons Ratio (z) = -0.11704 -0.20940
#
# Static dielectric constant tensor:
#      x y z
#    x 1.841190 -0.000370 -0.017650 
#    y -0.000370 1.960310 -0.117650 
#    z -0.017650 -0.117650 1.930030 
# 
# From -- ./inp_files/530172.got.cif
#   From: 2010.05.17/outbox.cif.g08.bks.cpg/sg2_266_cif.got.tgz:530172.got - 2010.06.03 11:33:40.
