data_PCOD9005909
_publ_section_title
;
Structure prediction by ZEFSAII (Michael W. Deem and Ramdas Pophale) SiO2 
 PCOD9005909
Probable space group: P -1
;
_chemical_formula_sum "Si O2"
_cell_formula_units_Z 16
_cell_length_a 13.572811
_cell_length_b 13.242137
_cell_length_c 7.297285
_cell_angle_alpha 50.553192
_cell_angle_beta 111.657468
_cell_angle_gamma 139.628342
_cell_volume 638.466027
_symmetry_space_group_name_H-M "P -1"
_symmetry_group_IT_number 2
_symmetry_cell_setting 'triclinic'
loop_
_space_group_symop_operation_xyz
x,y,z
-x,-y,-z
loop_
_atom_site_type_symbol
_atom_site_label
_atom_site_fract_x
_atom_site_fract_y
_atom_site_fract_z
Si Si1 0.307150 0.946715 0.406370
Si Si2 0.153693 0.174240 0.787615
Si Si3 0.443560 0.857192 0.333304
Si Si4 0.983799 0.684805 0.628857
Si Si5 0.454436 0.348316 0.909751
Si Si6 0.288508 0.511028 0.866907
Si Si7 0.347387 0.669917 0.111020
Si Si8 0.034441 0.894411 0.753690
O O1 0.365302 0.910213 0.320474
O O2 0.121981 0.761787 0.509870
O O3 0.395607 0.004896 0.595562
O O4 0.351141 0.135087 0.166998
O O5 0.324118 0.338194 0.800884
O O6 0.104157 0.264235 0.559086
O O7 0.167318 0.063624 0.785499
O O8 0.000000 0.000000 0.000000
O O9 0.439055 0.833998 0.137607
O O10 0.338740 0.636167 0.580788
O O11 0.064924 0.809124 0.727716
O O12 0.833091 0.460621 0.812383
O O13 0.595691 0.497841 0.975096
O O14 0.554096 0.379390 0.770018
O O15 0.324865 0.651418 0.893968
O O16 0.115838 0.296603 0.017537
O O17 0.000000 0.000000 0.500000
#
# Coordination Sequence:
#
# PCOD9005909 Si02
#       8
#     2   2   2   2   2   2   2   2
#     4  10  21  39  59  87 117 153 198 246 284 351
#     4  11  21  35  59  87 111 155 194 232 294 353
#     4  10  21  38  64  85 116 156 200 238 298 339
#     4  10  21  39  57  83 122 149 195 243 289 345
#     4   9  20  39  57  84 120 151 191 244 287 348
#     4   8  19  40  57  85 121 148 195 241 286 347
#     4   9  21  39  59  85 120 153 191 247 286 349
#     4   9  20  38  58  82 120 153 191 242 288 346
#
# _framework density 25.060065000000002
#
# number of rings (size 3 to 8) (size 9 to 14) (size 15 to 20)
#    0.750    1.750    1.250    0.000    3.500    1.500 
#    0.000    3.125    0.000    0.000    0.000    0.000 
#    0.000    0.000    0.000    0.000    0.000    0.000 
#
# Total GULP energy -89086.045967 kJ/mol
# GULP energy per Si atom -5567.877873 kJ/mol
# Density = 2.500303 g / cm^3
# Si number density = 25.060065 Si / 1000 Ang^3
#
#
#
# Elastic Constant Matrix: (Units=GPa)
#
#
# Indices 1 2 3 4 5 6 
#
# 1 104.8361 42.1917 0.6417 6.7482 -23.4251 10.2150
# 2 42.1917 122.5895 26.8513 22.2860 -9.7975 -24.5874
# 3 0.6417 26.8513 -16.8179 -19.1850 -12.4226 -4.3391
# 4 6.7482 22.2860 -19.1850 27.8737 -1.0954 -8.7523
# 5 -23.4251 -9.7975 -12.4226 -1.0954 27.5267 -11.0329
# 6 10.2150 -24.5874 -4.3391 -8.7523 -11.0329 42.1263
#
#
#
# Elastic Compliance Matrix: (Units=1/GPa)
#
#
# Indices 1 2 3 4 5 6 
#
# 1 0.013051 -0.003414 -0.003578 -0.004145 0.006203 -0.004763
# 2 -0.003414 0.010233 0.006983 0.000817 0.007824 0.009738
# 3 -0.003578 0.006983 -0.018062 -0.018731 -0.010927 -0.003670
# 4 -0.004145 0.000817 -0.018731 0.023509 -0.010028 0.001810
# 5 0.006203 0.007824 -0.010927 -0.010028 0.043577 0.011266
# 6 -0.004763 0.009738 -0.003670 0.001810 0.011266 0.033526
#
#
# Mechanical properties :
#
#
# Convention : Reuss Voigt Hill
#
# Bulk Modulus (GPa) = 192.15232 38.88634 115.51933
# Shear Modulus (GPa) = 46.47430 28.90021 37.68726
#
# Velocity S-wave (km/s) = 4.31108 3.39962 3.88219
# Velocity P-wave (km/s) = 10.08086 5.56424 8.14201
#
# Compressibility (1/GPa) = 0.00520420
#
# Stress axis : x y z
#
# Youngs Moduli (GPa) = 76.61955 97.72547 -55.36511
#
# Poissons Ratio (x) = 0.33366 -0.19811
# Poissons Ratio (y) = 0.26160 0.38664
# Poissons Ratio (z) = 0.27417 -0.68246
#
# Static dielectric constant tensor:
#      x y z
#    x 1.970490 -0.069790 0.059410 
#    y -0.069790 1.970500 0.063860 
#    z 0.059410 0.063860 2.058250 
# 
# From -- ./inp_files/312554.got.cif
#   From: 2010.05.17/outbox.cif.g08.bks.cpg/sg2_157_cif.got.tgz:312554.got - 2010.06.03 11:33:40.
