data_PCOD9005081
_publ_section_title
;
Structure prediction by ZEFSAII (Michael W. Deem and Ramdas Pophale) SiO2 
 PCOD9005081
Probable space group: P -1
;
_chemical_formula_sum "Si O2"
_cell_formula_units_Z 14
_cell_length_a 9.883664
_cell_length_b 9.351752
_cell_length_c 20.277394
_cell_angle_alpha 136.061554
_cell_angle_beta 45.785840
_cell_angle_gamma 149.214046
_cell_volume 649.078286
_symmetry_space_group_name_H-M "P -1"
_symmetry_group_IT_number 2
_symmetry_cell_setting 'triclinic'
loop_
_space_group_symop_operation_xyz
x,y,z
-x,-y,-z
loop_
_atom_site_type_symbol
_atom_site_label
_atom_site_fract_x
_atom_site_fract_y
_atom_site_fract_z
Si Si1 0.825554 0.806116 0.228774
Si Si2 0.238244 0.212307 0.905421
Si Si3 0.217845 0.791725 0.565437
Si Si4 0.361225 0.116173 0.961476
Si Si5 0.610909 0.876235 0.811419
Si Si6 0.677899 0.867412 0.632832
Si Si7 0.851997 0.570881 0.414256
O O1 0.742931 0.815971 0.187324
O O2 0.591965 0.469763 0.220175
O O3 0.849236 0.022578 0.339216
O O4 0.119106 0.926976 0.170785
O O5 0.336831 0.111769 0.888491
O O6 0.416814 0.549284 0.976959
O O7 0.928020 0.029655 0.964203
O O8 0.205319 0.666262 0.598074
O O9 0.000000 0.500000 0.500000
O O10 0.500000 0.000000 0.500000
O O11 0.446546 0.958534 0.903423
O O12 0.701986 0.934593 0.723656
O O13 0.796998 0.735001 0.530192
O O14 0.367203 0.611894 0.630455
O O15 0.850947 0.166502 0.630434
#
# Coordination Sequence:
#
# PCOD9005081 Si02
#       7
#     2   2   2   2   2   2   2
#     4  12  26  42  67 100 135 174 223 272 328 400
#     4  10  23  45  67  99 131 170 224 267 331 405
#     4  12  25  43  65  93 135 180 219 267 332 385
#     4  10  23  44  70  95 133 174 213 279 331 389
#     4  12  25  42  66 100 133 176 213 282 327 393
#     4  10  21  38  60  90 124 158 222 263 318 379
#     4  10  21  38  61  87 119 174 211 269 312 379
#
# _framework density 21.569047999999999
#
# number of rings (size 3 to 8) (size 9 to 14) (size 15 to 20)
#    0.000    1.143    0.000    6.000    2.000    5.714 
#    5.143    0.000    0.000    0.000    0.000    0.000 
#    0.000    0.000    0.000    0.000    0.000    0.000 
#
# Total GULP energy -78346.091202 kJ/mol
# GULP energy per Si atom -5596.149372 kJ/mol
# Density = 2.151996 g / cm^3
# Si number density = 21.569048 Si / 1000 Ang^3
#
#
#
# Elastic Constant Matrix: (Units=GPa)
#
#
# Indices 1 2 3 4 5 6 
#
# 1 69.0289 21.4168 20.8514 0.7133 2.8451 1.4354
# 2 21.4168 158.5695 27.9334 -3.3726 -2.4312 11.9861
# 3 20.8514 27.9334 51.5932 4.0489 4.6620 7.8695
# 4 0.7133 -3.3726 4.0489 11.0830 4.8801 1.8330
# 5 2.8451 -2.4312 4.6620 4.8801 29.9942 5.6254
# 6 1.4354 11.9861 7.8695 1.8330 5.6254 45.2766
#
#
#
# Elastic Compliance Matrix: (Units=1/GPa)
#
#
# Indices 1 2 3 4 5 6 
#
# 1 0.016769 -0.001229 -0.006252 0.001149 -0.001087 0.000969
# 2 -0.001229 0.007308 -0.003585 0.003428 0.000996 -0.001535
# 3 -0.006252 -0.003585 0.025088 -0.008671 -0.001689 -0.002652
# 4 0.001149 0.003428 -0.008671 0.101081 -0.014608 -0.001714
# 5 -0.001087 0.000996 -0.001689 -0.014608 0.036900 -0.003929
# 6 0.000969 -0.001535 -0.002652 -0.001714 -0.003929 0.023481
#
#
# Mechanical properties :
#
#
# Convention : Reuss Voigt Hill
#
# Bulk Modulus (GPa) = 36.99063 46.62162 41.80613
# Shear Modulus (GPa) = 20.68094 31.20343 25.94218
#
# Velocity S-wave (km/s) = 3.09985 3.80765 3.47183
# Velocity P-wave (km/s) = 5.47715 6.40257 5.95785
#
# Compressibility (1/GPa) = 0.02703387
#
# Stress axis : x y z
#
# Youngs Moduli (GPa) = 59.63313 136.83413 39.86048
#
# Poissons Ratio (x) = 0.16818 0.24919
# Poissons Ratio (y) = 0.07330 0.14289
# Poissons Ratio (z) = 0.37280 0.49053
#
# Static dielectric constant tensor:
#      x y z
#    x 1.824230 -0.016960 0.031870 
#    y -0.016960 1.731060 -0.017340 
#    z 0.031870 -0.017340 1.789520 
# 
# From -- ./inp_files/328267.got.cif
#   From: 2010.05.17/outbox.cif.g08.bks.cpg/sg2_165_cif.got.tgz:328267.got - 2010.06.03 11:33:40.
