data_PCOD9005188
_publ_section_title
;
Structure prediction by ZEFSAII (Michael W. Deem and Ramdas Pophale) SiO2 
 PCOD9005188
Probable space group: P -1
;
_chemical_formula_sum "Si O2"
_cell_formula_units_Z 15
_cell_length_a 5.889206
_cell_length_b 7.404240
_cell_length_c 21.686850
_cell_angle_alpha 131.779190
_cell_angle_beta 67.549173
_cell_angle_gamma 118.978901
_cell_volume 614.365682
_symmetry_space_group_name_H-M "P -1"
_symmetry_group_IT_number 2
_symmetry_cell_setting 'triclinic'
loop_
_space_group_symop_operation_xyz
x,y,z
-x,-y,-z
loop_
_atom_site_type_symbol
_atom_site_label
_atom_site_fract_x
_atom_site_fract_y
_atom_site_fract_z
Si Si1 0.488080 0.606240 0.892000
Si Si2 0.903118 0.646621 0.469601
Si Si3 0.536764 0.909355 0.075816
Si Si4 0.108762 0.202727 0.365295
Si Si5 0.971836 0.134627 0.808862
Si Si6 0.359092 0.418649 0.650290
Si Si7 0.975667 0.265593 0.190433
Si Si8 0.500000 0.000000 0.500000
O O1 0.751764 0.573154 0.831886
O O2 0.224810 0.373947 0.854069
O O3 0.481233 0.853432 0.909917
O O4 0.516575 0.684284 0.978527
O O5 0.800330 0.763835 0.565410
O O6 0.746466 0.643721 0.423439
O O7 0.905083 0.359662 0.417833
O O8 0.203882 0.817718 0.472661
O O9 0.294488 0.833318 0.130992
O O10 0.810170 0.032587 0.110203
O O11 0.360634 0.367662 0.337450
O O12 0.029583 0.933108 0.278224
O O13 0.990851 0.883197 0.785495
O O14 0.388387 0.147195 0.601084
O O15 0.187721 0.550523 0.735037
#
# Coordination Sequence:
#
# PCOD9005188 Si02
#       8
#     2   2   2   2   2   2   2   1
#     4  10  24  41  67  98 131 171 218 263 329 396
#     4  10  21  39  60  87 120 163 208 267 316 384
#     4  10  22  44  64  95 137 172 207 273 328 380
#     4  10  21  38  61  86 122 163 214 260 322 377
#     4  11  22  41  65  98 128 174 218 268 320 390
#     4  11  21  41  61  86 126 170 211 268 326 377
#     4  11  23  40  67  94 133 170 216 273 322 388
#     4  10  24  38  60  88 120 164 212 270 324 382
#
# _framework density 24.415424999999999
#
# number of rings (size 3 to 8) (size 9 to 14) (size 15 to 20)
#    0.000    1.600    2.667    1.600    0.000    3.733 
#    2.400    0.000    0.000    0.000    0.000    0.000 
#    0.000    0.000    0.000    0.000    0.000    0.000 
#
# Total GULP energy -83690.381562 kJ/mol
# GULP energy per Si atom -5579.358771 kJ/mol
# Density = 2.435985 g / cm^3
# Si number density = 24.415425 Si / 1000 Ang^3
#
#
#
# Elastic Constant Matrix: (Units=GPa)
#
#
# Indices 1 2 3 4 5 6 
#
# 1 31.7376 31.8029 9.5563 -4.7706 8.7060 11.8264
# 2 31.8029 89.1062 40.9258 7.3307 4.7480 16.5578
# 3 9.5563 40.9258 136.0912 -0.3927 14.9392 5.1888
# 4 -4.7706 7.3307 -0.3927 27.1786 4.4023 -4.3605
# 5 8.7060 4.7480 14.9392 4.4023 47.2807 5.2558
# 6 11.8264 16.5578 5.1888 -4.3605 5.2558 24.8043
#
#
#
# Elastic Compliance Matrix: (Units=1/GPa)
#
#
# Indices 1 2 3 4 5 6 
#
# 1 0.063260 -0.023600 0.004310 0.017772 -0.011204 -0.009811
# 2 -0.023600 0.024599 -0.006137 -0.013002 0.005849 -0.007410
# 3 0.004310 -0.006137 0.009237 0.003357 -0.003570 0.001456
# 4 0.017772 -0.013002 0.003357 0.046340 -0.008390 0.009428
# 5 -0.011204 0.005849 -0.003570 -0.008390 0.025046 -0.004597
# 6 -0.009811 -0.007410 0.001456 0.009428 -0.004597 0.052267
#
#
# Mechanical properties :
#
#
# Convention : Reuss Voigt Hill
#
# Bulk Modulus (GPa) = 21.62522 46.83386 34.22954
# Shear Modulus (GPa) = 17.42053 31.49606 24.45829
#
# Velocity S-wave (km/s) = 2.67405 3.59556 3.16849
# Velocity P-wave (km/s) = 4.29074 6.03831 5.23792
#
# Compressibility (1/GPa) = 0.04624231
#
# Stress axis : x y z
#
# Youngs Moduli (GPa) = 15.80788 40.65139 108.25858
#
# Poissons Ratio (x) = 0.95936 -0.46661
# Poissons Ratio (y) = 0.37306 0.66444
# Poissons Ratio (z) = -0.06813 0.24950
#
# Static dielectric constant tensor:
#      x y z
#    x 2.027580 -0.130030 -0.041210 
#    y -0.130030 2.053630 0.023860 
#    z -0.041210 0.023860 1.953370 
# 
# From -- ./inp_files/122687.got.cif
#   From: 2010.05.17/outbox.cif.g08.bks.cpg/sg2_62_cif.got.tgz:122687.got - 2010.06.03 11:33:40.
