data_PCOD9005597
_publ_section_title
;
Structure prediction by ZEFSAII (Michael W. Deem and Ramdas Pophale) SiO2 
 PCOD9005597
Probable space group: P -1
;
_chemical_formula_sum "Si O2"
_cell_formula_units_Z 14
_cell_length_a 8.851546
_cell_length_b 5.058928
_cell_length_c 16.343960
_cell_angle_alpha 65.080583
_cell_angle_beta 112.652863
_cell_angle_gamma 89.386376
_cell_volume 599.304655
_symmetry_space_group_name_H-M "P -1"
_symmetry_group_IT_number 2
_symmetry_cell_setting 'triclinic'
loop_
_space_group_symop_operation_xyz
x,y,z
-x,-y,-z
loop_
_atom_site_type_symbol
_atom_site_label
_atom_site_fract_x
_atom_site_fract_y
_atom_site_fract_z
Si Si1 0.648792 0.784225 0.607107
Si Si2 0.195137 0.980579 0.884910
Si Si3 0.781130 0.895854 0.304320
Si Si4 0.262056 0.894465 0.085759
Si Si5 0.434292 0.855003 0.298125
Si Si6 0.012122 0.443957 0.898925
Si Si7 0.993638 0.254390 0.397003
O O1 0.599247 0.465777 0.644093
O O2 0.824081 0.760689 0.600780
O O3 0.500000 0.000000 0.500000
O O4 0.656755 0.919331 0.681856
O O5 0.072288 0.749697 0.878820
O O6 0.279545 0.023296 0.811759
O O7 0.075873 0.291623 0.845599
O O8 0.313271 0.880703 0.002018
O O9 0.629392 0.866477 0.335414
O O10 0.913537 0.582899 0.370157
O O11 0.868953 0.156767 0.318128
O O12 0.375616 0.910384 0.184868
O O13 0.170765 0.618770 0.117239
O O14 0.123900 0.204508 0.015496
O O15 0.000000 0.000000 0.500000
#
# Coordination Sequence:
#
# PCOD9005597 Si02
#       7
#     2   2   2   2   2   2   2
#     4  12  28  49  75 103 138 177 233 293 352 414
#     4  10  21  38  62  95 140 182 229 276 334 410
#     4  12  26  45  70 106 145 185 231 281 355 416
#     4   9  23  36  65  96 142 179 233 279 345 393
#     4  12  27  44  72 106 145 182 230 291 347 415
#     4   9  20  35  61  92 140 175 233 282 333 401
#     4  12  27  49  77 101 136 183 233 288 351 423
#
# _framework density 23.360405
#
# number of rings (size 3 to 8) (size 9 to 14) (size 15 to 20)
#    0.857    0.286    0.000    5.571    8.000    0.571 
#    0.000    0.714    0.000    0.000    0.000    0.000 
#    0.000    0.000    0.000    0.000    0.000    0.000 
#
# Total GULP energy -78293.887965 kJ/mol
# GULP energy per Si atom -5592.420569 kJ/mol
# Density = 2.330724 g / cm^3
# Si number density = 23.360405 Si / 1000 Ang^3
#
#
#
# Elastic Constant Matrix: (Units=GPa)
#
#
# Indices 1 2 3 4 5 6 
#
# 1 135.5570 16.4068 23.7890 -11.3509 -16.3642 14.6530
# 2 16.4068 116.1429 7.9114 -9.5662 -8.6529 17.2798
# 3 23.7890 7.9114 93.3817 1.5993 -13.7382 6.5921
# 4 -11.3509 -9.5662 1.5993 31.2360 3.1860 -4.7592
# 5 -16.3642 -8.6529 -13.7382 3.1860 36.2184 3.2472
# 6 14.6530 17.2798 6.5921 -4.7592 3.2472 28.1614
#
#
#
# Elastic Compliance Matrix: (Units=1/GPa)
#
#
# Indices 1 2 3 4 5 6 
#
# 1 0.008703 -0.000061 -0.001431 0.002216 0.003556 -0.004192
# 2 -0.000061 0.009867 -0.000029 0.001808 0.002699 -0.006021
# 3 -0.001431 -0.000029 0.011948 -0.002018 0.004314 -0.002873
# 4 0.002216 0.001808 -0.002018 0.034419 -0.002750 0.004344
# 5 0.003556 0.002699 0.004314 -0.002750 0.032523 -0.008731
# 6 -0.004192 -0.006021 -0.002873 0.004344 -0.008731 0.043798
#
#
# Mechanical properties :
#
#
# Convention : Reuss Voigt Hill
#
# Bulk Modulus (GPa) = 36.39586 49.03287 42.71436
# Shear Modulus (GPa) = 32.58214 38.92149 35.75181
#
# Velocity S-wave (km/s) = 3.73870 4.08625 3.91633
# Velocity P-wave (km/s) = 5.85245 6.58017 6.22695
#
# Compressibility (1/GPa) = 0.02747565
#
# Stress axis : x y z
#
# Youngs Moduli (GPa) = 114.89787 101.35231 83.69810
#
# Poissons Ratio (x) = 0.00617 0.11977
# Poissons Ratio (y) = 0.00700 0.00244
# Poissons Ratio (z) = 0.16441 0.00296
#
# Static dielectric constant tensor:
#      x y z
#    x 1.839160 -0.044350 -0.002030 
#    y -0.044350 1.866430 0.065140 
#    z -0.002030 0.065140 1.991270 
# 
# From -- ./inp_files/551902.got.cif
#   From: 2010.05.17/outbox.cif.g08.bks.cpg/sg2_276_cif.got.tgz:551902.got - 2010.06.03 11:33:40.
