data_PCOD9005411
_publ_section_title
;
Structure prediction by ZEFSAII (Michael W. Deem and Ramdas Pophale) SiO2 
 PCOD9005411
Probable space group: P -1
;
_chemical_formula_sum "Si O2"
_cell_formula_units_Z 16
_cell_length_a 15.423641
_cell_length_b 6.836236
_cell_length_c 8.512549
_cell_angle_alpha 90.947029
_cell_angle_beta 70.482175
_cell_angle_gamma 92.441479
_cell_volume 845.213769
_symmetry_space_group_name_H-M "P -1"
_symmetry_group_IT_number 2
_symmetry_cell_setting 'triclinic'
loop_
_space_group_symop_operation_xyz
x,y,z
-x,-y,-z
loop_
_atom_site_type_symbol
_atom_site_label
_atom_site_fract_x
_atom_site_fract_y
_atom_site_fract_z
Si Si1 0.989341 0.217921 0.455623
Si Si2 0.332994 0.706282 0.928119
Si Si3 0.148605 0.486095 0.498524
Si Si4 0.424047 0.108566 0.939176
Si Si5 0.669130 0.564964 0.788026
Si Si6 0.981207 0.786673 0.934997
Si Si7 0.153902 0.523946 0.862870
Si Si8 0.504020 0.541086 0.313602
O O1 0.887554 0.303105 0.530895
O O2 0.058285 0.348004 0.523739
O O3 0.016496 0.226270 0.255565
O O4 0.000000 0.000000 0.500000
O O5 0.241633 0.622279 0.896637
O O6 0.419880 0.600794 0.801218
O O7 0.355321 0.937210 0.913405
O O8 0.328048 0.626913 0.107331
O O9 0.230825 0.405247 0.346685
O O10 0.173551 0.499700 0.666150
O O11 0.468694 0.243616 0.773620
O O12 0.367962 0.258012 0.082843
O O13 0.500000 0.000000 0.000000
O O14 0.594264 0.521632 0.699399
O O15 0.067645 0.662809 0.936253
O O16 0.885467 0.683243 0.048703
O O17 0.000000 0.000000 0.000000
O O18 0.500000 0.500000 0.500000
#
# Coordination Sequence:
#
# PCOD9005411 Si02
#       8
#     2   2   2   2   2   2   2   2
#     4  10  21  39  60  87 120 162 201 248 308 364
#     4  11  22  40  63  87 123 162 207 256 311 378
#     4  10  22  39  59  87 123 156 203 254 303 369
#     4  11  21  43  64  89 123 166 210 256 312 379
#     4  11  22  39  63  89 120 162 206 253 315 373
#     4  10  21  38  62  86 122 160 202 252 305 368
#     4  10  22  39  59  89 121 159 201 256 308 357
#     4  11  23  40  64  91 124 160 202 263 318 365
#
# _framework density 18.930122000000001
#
# number of rings (size 3 to 8) (size 9 to 14) (size 15 to 20)
#    0.000    1.500    2.500    3.000    0.000    7.500 
#    0.000    2.500    0.000    0.000    0.000    0.000 
#    0.000    0.000    0.000    0.000    0.000    0.000 
#
# Total GULP energy -89298.647919 kJ/mol
# GULP energy per Si atom -5581.165495 kJ/mol
# Density = 1.888704 g / cm^3
# Si number density = 18.930122 Si / 1000 Ang^3
#
#
#
# Elastic Constant Matrix: (Units=GPa)
#
#
# Indices 1 2 3 4 5 6 
#
# 1 102.5700 28.2021 40.9699 -8.1627 14.7461 8.8353
# 2 28.2021 119.8672 23.4918 -2.9344 8.1149 1.4656
# 3 40.9699 23.4918 75.6873 -4.7032 6.1645 -4.0746
# 4 -8.1627 -2.9344 -4.7032 21.2833 0.9620 4.3539
# 5 14.7461 8.1149 6.1645 0.9620 37.1958 7.1713
# 6 8.8353 1.4656 -4.0746 4.3539 7.1713 27.4777
#
#
#
# Elastic Compliance Matrix: (Units=1/GPa)
#
#
# Indices 1 2 3 4 5 6 
#
# 1 0.014309 -0.001591 -0.006973 0.004999 -0.003240 -0.005497
# 2 -0.001591 0.009165 -0.001880 0.000291 -0.001060 -0.000026
# 3 -0.006973 -0.001880 0.017916 -0.000004 -0.000798 0.005208
# 4 0.004999 0.000291 -0.000004 0.050911 -0.001572 -0.009280
# 5 -0.003240 -0.001060 -0.000798 -0.001572 0.029838 -0.006558
# 6 -0.005497 -0.000026 0.005208 -0.009280 -0.006558 0.042117
#
#
# Mechanical properties :
#
#
# Convention : Reuss Voigt Hill
#
# Bulk Modulus (GPa) = 48.77980 53.71690 51.24835
# Shear Modulus (GPa) = 26.04471 30.88873 28.46672
#
# Velocity S-wave (km/s) = 3.71325 4.04384 3.88207
# Velocity P-wave (km/s) = 6.64895 7.08813 6.87205
#
# Compressibility (1/GPa) = 0.02050029
#
# Stress axis : x y z
#
# Youngs Moduli (GPa) = 69.88434 109.11580 55.81694
#
# Poissons Ratio (x) = 0.17362 0.38923
# Poissons Ratio (y) = 0.11119 0.10495
# Poissons Ratio (z) = 0.48733 0.20516
#
# Static dielectric constant tensor:
#      x y z
#    x 1.684300 -0.021060 0.050190 
#    y -0.021060 1.686220 -0.025790 
#    z 0.050190 -0.025790 1.736490 
# 
# From -- ./inp_files/39342.got.cif
#   From: 2010.05.17/outbox.cif.g08.bks.cpg/sg2_20_cif.got.tgz:39342.got - 2010.06.03 11:33:40.
