data_PCOD9005994
_publ_section_title
;
Structure prediction by ZEFSAII (Michael W. Deem and Ramdas Pophale) SiO2 
 PCOD9005994
Probable space group: P -1
;
_chemical_formula_sum "Si O2"
_cell_formula_units_Z 12
_cell_length_a 6.765007
_cell_length_b 17.515286
_cell_length_c 9.608989
_cell_angle_alpha 127.411639
_cell_angle_beta 132.287583
_cell_angle_gamma 82.855231
_cell_volume 585.438972
_symmetry_space_group_name_H-M "P -1"
_symmetry_group_IT_number 2
_symmetry_cell_setting 'triclinic'
loop_
_space_group_symop_operation_xyz
x,y,z
-x,-y,-z
loop_
_atom_site_type_symbol
_atom_site_label
_atom_site_fract_x
_atom_site_fract_y
_atom_site_fract_z
Si Si1 0.544183 0.099779 0.732384
Si Si2 0.756443 0.837417 0.119591
Si Si3 0.694430 0.421266 0.353580
Si Si4 0.166535 0.472322 0.167676
Si Si5 0.709327 0.223926 0.691426
Si Si6 0.148973 0.114227 0.106490
O O1 0.526486 0.179218 0.697809
O O2 0.500000 0.000000 0.500000
O O3 0.310496 0.085623 0.725257
O O4 0.878327 0.145933 0.010045
O O5 0.479663 0.712214 0.880651
O O6 0.775152 0.880183 0.016727
O O7 0.064217 0.828162 0.281756
O O8 0.458362 0.463880 0.245093
O O9 0.751530 0.448571 0.574774
O O10 0.000000 0.500000 0.500000
O O11 0.000000 0.500000 0.000000
O O12 0.929664 0.349909 0.964155
O O13 0.464852 0.193977 0.420693
O O14 0.000000 0.000000 0.000000
#
# Coordination Sequence:
#
# PCOD9005994 Si02
#       6
#     2   2   2   2   2   2
#     4  11  23  43  62  89 122 167 211 257 307 365
#     4  10  24  40  64  91 128 165 207 257 309 370
#     4  10  21  40  63  94 125 163 206 249 312 370
#     4  10  21  38  64  91 127 163 200 257 306 368
#     4  10  22  41  61  92 127 162 210 254 307 368
#     4  11  23  42  62  92 123 163 212 255 308 367
#
# _framework density 20.497440000000001
#
# number of rings (size 3 to 8) (size 9 to 14) (size 15 to 20)
#    0.000    1.667    1.667    2.000    0.000    9.333 
#    0.000    0.000    0.000    0.000    0.000    0.000 
#    0.000    0.000    0.000    0.000    0.000    0.000 
#
# Total GULP energy -66885.240022 kJ/mol
# GULP energy per Si atom -5573.770002 kJ/mol
# Density = 2.045079 g / cm^3
# Si number density = 20.497440 Si / 1000 Ang^3
#
#
#
# Elastic Constant Matrix: (Units=GPa)
#
#
# Indices 1 2 3 4 5 6 
#
# 1 115.0099 44.7435 42.6085 2.0203 -1.0091 21.4412
# 2 44.7435 66.0170 18.9337 -14.2134 -3.5369 10.7031
# 3 42.6085 18.9337 108.3568 -13.1967 11.9491 -9.5849
# 4 2.0203 -14.2134 -13.1967 51.0650 3.4701 3.3885
# 5 -1.0091 -3.5369 11.9491 3.4701 24.4200 11.9217
# 6 21.4412 10.7031 -9.5849 3.3885 11.9217 23.6184
#
#
#
# Elastic Compliance Matrix: (Units=1/GPa)
#
#
# Indices 1 2 3 4 5 6 
#
# 1 0.024492 -0.005259 -0.016092 -0.005877 0.028434 -0.039891
# 2 -0.005259 0.024060 -0.003904 0.006077 0.011287 -0.014283
# 3 -0.016092 -0.003904 0.024620 0.005428 -0.035221 0.043369
# 4 -0.005877 0.006077 0.005428 0.023087 -0.007986 0.005503
# 5 0.028434 0.011287 -0.035221 -0.007986 0.110999 -0.100104
# 6 -0.039891 -0.014283 0.043369 0.005503 -0.100104 0.152365
#
#
# Mechanical properties :
#
#
# Convention : Reuss Voigt Hill
#
# Bulk Modulus (GPa) = 44.12619 55.77279 49.94949
# Shear Modulus (GPa) = 11.97066 32.02720 21.99893
#
# Velocity S-wave (km/s) = 2.41925 3.95713 3.27961
# Velocity P-wave (km/s) = 5.42015 6.93882 6.22597
#
# Compressibility (1/GPa) = 0.02266228
#
# Stress axis : x y z
#
# Youngs Moduli (GPa) = 40.82958 41.56220 40.61726
#
# Poissons Ratio (x) = 0.21858 0.65361
# Poissons Ratio (y) = 0.21472 0.15858
# Poissons Ratio (z) = 0.65702 0.16227
#
# Static dielectric constant tensor:
#      x y z
#    x 1.739880 -0.000210 -0.000950 
#    y -0.000210 1.735000 0.039450 
#    z -0.000950 0.039450 1.766060 
# 
# From -- ./inp_files/4578.got.cif
#   From: 2010.05.17/outbox.cif.g08.bks.cpg/sg2_3_cif.got.tgz:4578.got - 2010.06.03 11:33:40.
