data_PCOD9005100
_publ_section_title
;
Structure prediction by ZEFSAII (Michael W. Deem and Ramdas Pophale) SiO2 
 PCOD9005100
Probable space group: P -1
;
_chemical_formula_sum "Si O2"
_cell_formula_units_Z 16
_cell_length_a 25.680889
_cell_length_b 10.627703
_cell_length_c 12.624840
_cell_angle_alpha 143.491935
_cell_angle_beta 157.494427
_cell_angle_gamma 32.345110
_cell_volume 701.071551
_symmetry_space_group_name_H-M "P -1"
_symmetry_group_IT_number 2
_symmetry_cell_setting 'triclinic'
loop_
_space_group_symop_operation_xyz
x,y,z
-x,-y,-z
loop_
_atom_site_type_symbol
_atom_site_label
_atom_site_fract_x
_atom_site_fract_y
_atom_site_fract_z
Si Si1 0.403832 0.615425 0.564013
Si Si2 0.734108 0.399803 0.072958
Si Si3 0.821007 0.079490 0.219835
Si Si4 0.048880 0.261711 0.502224
Si Si5 0.640251 0.401731 0.276183
Si Si6 0.773036 0.876581 0.450657
Si Si7 0.151660 0.395264 0.147114
Si Si8 0.902374 0.403971 0.036752
O O1 0.398015 0.610563 0.680040
O O2 0.260691 0.579314 0.225522
O O3 0.366507 0.872095 0.619343
O O4 0.579200 0.432588 0.747919
O O5 0.745971 0.297326 0.143663
O O6 0.897009 0.230882 0.210193
O O7 0.734070 0.657619 0.247142
O O8 0.759453 0.162020 0.278707
O O9 0.000000 0.000000 0.500000
O O10 0.910131 0.643557 0.250252
O O11 0.000000 0.500000 0.500000
O O12 0.184653 0.089563 0.568432
O O13 0.711288 0.586354 0.524990
O O14 0.500000 0.500000 0.000000
O O15 0.935754 0.807231 0.767173
O O16 0.201398 0.135894 0.018573
O O17 0.000000 0.500000 0.000000
O O18 0.892268 0.413933 0.899847
#
# Coordination Sequence:
#
# PCOD9005100 Si02
#       8
#     2   2   2   2   2   2   2   2
#     4  11  22  38  62  93 129 162 212 267 326 375
#     4  10  21  38  60  91 125 163 210 260 317 387
#     4  12  23  41  71  91 132 177 213 271 331 378
#     4   8  18  37  60  82 115 163 212 248 306 381
#     4  11  25  44  63  98 136 168 219 275 328 386
#     4  10  21  39  66  89 120 173 216 254 318 388
#     4  11  24  40  66 102 126 170 229 262 322 401
#     4   9  20  38  58  89 128 155 211 269 311 378
#
# _framework density 22.822206999999999
#
# number of rings (size 3 to 8) (size 9 to 14) (size 15 to 20)
#    0.000    2.000    2.500    2.250    3.500    0.500 
#    0.000    6.875    0.000    0.000    0.000    0.000 
#    0.000    0.000    0.000    0.000    0.000    0.000 
#
# Total GULP energy -89191.315100 kJ/mol
# GULP energy per Si atom -5574.457194 kJ/mol
# Density = 2.277026 g / cm^3
# Si number density = 22.822207 Si / 1000 Ang^3
#
#
#
# Elastic Constant Matrix: (Units=GPa)
#
#
# Indices 1 2 3 4 5 6 
#
# 1 53.7639 7.3456 3.1262 7.3125 2.3821 -0.5633
# 2 7.3456 71.4771 31.3575 7.9666 2.8391 -3.9165
# 3 3.1262 31.3575 149.5994 2.9978 -14.6974 -5.4779
# 4 7.3125 7.9666 2.9978 30.7835 -0.8106 -3.7266
# 5 2.3821 2.8391 -14.6974 -0.8106 19.2271 1.2813
# 6 -0.5633 -3.9165 -5.4779 -3.7266 1.2813 29.5644
#
#
#
# Elastic Compliance Matrix: (Units=1/GPa)
#
#
# Indices 1 2 3 4 5 6 
#
# 1 0.019503 -0.001288 -0.000320 -0.004373 -0.002635 -0.000295
# 2 -0.001288 0.016495 -0.003849 -0.003582 -0.005452 0.001232
# 3 -0.000320 -0.003849 0.008187 0.000549 0.006838 0.000774
# 4 -0.004373 -0.003582 0.000549 0.034932 0.002708 0.003830
# 5 -0.002635 -0.005452 0.006838 0.002708 0.058596 -0.001704
# 6 -0.000295 0.001232 0.000774 0.003830 -0.001704 0.034682
#
#
# Mechanical properties :
#
#
# Convention : Reuss Voigt Hill
#
# Bulk Modulus (GPa) = 30.05624 39.83322 34.94473
# Shear Modulus (GPa) = 25.72019 31.44906 28.58462
#
# Velocity S-wave (km/s) = 3.36070 3.71617 3.54290
# Velocity P-wave (km/s) = 5.31576 5.99207 5.66402
#
# Compressibility (1/GPa) = 0.03327096
#
# Stress axis : x y z
#
# Youngs Moduli (GPa) = 51.27441 60.62479 122.14229
#
# Poissons Ratio (x) = 0.07809 0.03904
# Poissons Ratio (y) = 0.06605 0.47016
# Poissons Ratio (z) = 0.01639 0.23336
#
# Static dielectric constant tensor:
#      x y z
#    x 2.070090 -0.068090 -0.063150 
#    y -0.068090 1.910180 0.011260 
#    z -0.063150 0.011260 1.958000 
# 
# From -- ./inp_files/543849.got.cif
#   From: 2010.05.17/outbox.cif.g08.bks.cpg/sg2_272_cif.got.tgz:543849.got - 2010.06.03 11:33:40.
