data_PCOD9005454
_publ_section_title
;
Structure prediction by ZEFSAII (Michael W. Deem and Ramdas Pophale) SiO2 
 PCOD9005454
Probable space group: P -1
;
_chemical_formula_sum "Si O2"
_cell_formula_units_Z 14
_cell_length_a 24.604792
_cell_length_b 9.245443
_cell_length_c 5.392413
_cell_angle_alpha 68.682407
_cell_angle_beta 99.522473
_cell_angle_gamma 145.273131
_cell_volume 630.097422
_symmetry_space_group_name_H-M "P -1"
_symmetry_group_IT_number 2
_symmetry_cell_setting 'triclinic'
loop_
_space_group_symop_operation_xyz
x,y,z
-x,-y,-z
loop_
_atom_site_type_symbol
_atom_site_label
_atom_site_fract_x
_atom_site_fract_y
_atom_site_fract_z
Si Si1 0.749052 0.796660 0.758377
Si Si2 0.190746 0.880384 0.898492
Si Si3 0.480772 0.319190 0.296679
Si Si4 0.097844 0.091544 0.272743
Si Si5 0.517264 0.204292 0.004352
Si Si6 0.632066 0.885656 0.257248
Si Si7 0.018875 0.249631 0.102378
O O1 0.631182 0.515365 0.861057
O O2 0.785033 0.971291 0.430194
O O3 0.795412 0.733014 0.804329
O O4 0.789247 0.973056 0.930289
O O5 0.267807 0.916348 0.924040
O O6 0.083974 0.553820 0.005822
O O7 0.569017 0.578257 0.381282
O O8 0.372635 0.090234 0.469176
O O9 0.500000 0.500000 0.000000
O O10 0.498946 0.191394 0.290245
O O11 0.056557 0.943497 0.603312
O O12 0.085649 0.248824 0.157746
O O13 0.032329 0.872555 0.130200
O O14 0.432279 0.120785 0.886274
O O15 0.500000 0.000000 0.000000
#
# Coordination Sequence:
#
# PCOD9005454 Si02
#       7
#     2   2   2   2   2   2   2
#     4  12  26  43  67 102 133 172 224 282 327 386
#     4  12  25  41  71 101 131 176 227 266 332 395
#     4   9  17  37  60  79 122 166 212 261 315 372
#     4  10  23  46  68  98 139 167 216 275 335 397
#     4  11  25  41  61  94 132 177 219 274 336 388
#     4  10  21  38  62  89 126 172 218 267 316 397
#     4  10  23  45  71  98 130 180 213 268 338 403
#
# _framework density 22.218789000000001
#
# number of rings (size 3 to 8) (size 9 to 14) (size 15 to 20)
#    0.000    1.429    1.429    4.286    4.000    4.000 
#    0.000    1.429    0.000    0.000    0.000    0.000 
#    0.000    0.000    0.000    0.000    0.000    0.000 
#
# Total GULP energy -78055.504264 kJ/mol
# GULP energy per Si atom -5575.393162 kJ/mol
# Density = 2.216822 g / cm^3
# Si number density = 22.218789 Si / 1000 Ang^3
#
#
#
# Elastic Constant Matrix: (Units=GPa)
#
#
# Indices 1 2 3 4 5 6 
#
# 1 139.6036 15.2315 11.7925 13.3846 -30.2413 -9.6296
# 2 15.2315 77.3417 21.1458 14.4265 -6.6110 -30.5315
# 3 11.7925 21.1458 68.9240 27.9562 -19.5325 -12.2626
# 4 13.3846 14.4265 27.9562 24.6608 -2.4162 -6.2982
# 5 -30.2413 -6.6110 -19.5325 -2.4162 24.5339 5.8795
# 6 -9.6296 -30.5315 -12.2626 -6.2982 5.8795 36.1508
#
#
#
# Elastic Compliance Matrix: (Units=1/GPa)
#
#
# Indices 1 2 3 4 5 6 
#
# 1 0.013075 -0.000356 0.011958 -0.018061 0.023705 0.000237
# 2 -0.000356 0.020850 -0.000370 -0.007458 0.000307 0.016040
# 3 0.011958 -0.000370 0.050061 -0.057797 0.048343 0.001922
# 4 -0.018061 -0.007458 -0.057797 0.114156 -0.058739 -0.001273
# 5 0.023705 0.000307 0.048343 -0.058739 0.103757 -0.004137
# 6 0.000237 0.016040 0.001922 -0.001273 -0.004137 0.042374
#
#
# Mechanical properties :
#
#
# Convention : Reuss Voigt Hill
#
# Bulk Modulus (GPa) = 9.39409 42.46764 25.93086
# Shear Modulus (GPa) = 13.99412 32.91576 23.45494
#
# Velocity S-wave (km/s) = 2.51237 3.85312 3.25258
# Velocity P-wave (km/s) = 3.55713 6.24102 5.07954
#
# Compressibility (1/GPa) = 0.10644990
#
# Stress axis : x y z
#
# Youngs Moduli (GPa) = 76.48220 47.96154 19.97544
#
# Poissons Ratio (x) = 0.01706 -0.23886
# Poissons Ratio (y) = 0.02721 0.00740
# Poissons Ratio (z) = -0.91456 0.01776
#
# Static dielectric constant tensor:
#      x y z
#    x 1.880090 -0.002700 -0.062280 
#    y -0.002700 1.955610 0.287070 
#    z -0.062280 0.287070 2.347700 
# 
# From -- ./inp_files/54205.got.cif
#   From: 2010.05.17/outbox.cif.g08.bks.cpg/sg2_28_cif.got.tgz:54205.got - 2010.06.03 11:33:40.
