data_PCOD9005350
_publ_section_title
;
Structure prediction by ZEFSAII (Michael W. Deem and Ramdas Pophale) SiO2 
 PCOD9005350
Probable space group: P -1
;
_chemical_formula_sum "Si O2"
_cell_formula_units_Z 16
_cell_length_a 11.013148
_cell_length_b 13.717677
_cell_length_c 14.217772
_cell_angle_alpha 34.819443
_cell_angle_beta 37.404500
_cell_angle_gamma 60.708857
_cell_volume 657.727324
_symmetry_space_group_name_H-M "P -1"
_symmetry_group_IT_number 2
_symmetry_cell_setting 'triclinic'
loop_
_space_group_symop_operation_xyz
x,y,z
-x,-y,-z
loop_
_atom_site_type_symbol
_atom_site_label
_atom_site_fract_x
_atom_site_fract_y
_atom_site_fract_z
Si Si1 0.607199 0.894668 0.582746
Si Si2 0.721471 0.892512 0.177859
Si Si3 0.374104 0.761520 0.025429
Si Si4 0.630396 0.638796 0.616059
Si Si5 0.680098 0.486332 0.332292
Si Si6 0.901121 0.878878 0.875486
Si Si7 0.088506 0.490915 0.057749
Si Si8 0.171168 0.948307 0.380809
O O1 0.445669 0.775108 0.861283
O O2 0.686075 0.762787 0.578891
O O3 0.500000 0.000000 0.500000
O O4 0.838246 0.058004 0.355788
O O5 0.747365 0.789154 0.338516
O O6 0.456182 0.732921 0.445757
O O7 0.763659 0.112595 0.988128
O O8 0.854176 0.881354 0.013052
O O9 0.586047 0.906834 0.842771
O O10 0.315271 0.542857 0.268142
O O11 0.356065 0.571298 0.834541
O O12 0.500000 0.500000 0.500000
O O13 0.934456 0.563562 0.155402
O O14 0.739408 0.675753 0.082856
O O15 0.834373 0.024823 0.748609
O O16 0.954648 0.275428 0.345000
O O17 0.000000 0.500000 0.000000
O O18 0.000000 0.000000 0.500000
#
# Coordination Sequence:
#
# PCOD9005350 Si02
#       8
#     2   2   2   2   2   2   2   2
#     4  12  25  45  71  97 133 184 235 279 327 396
#     4  11  24  45  67 101 144 175 216 280 347 408
#     4  12  24  44  70 104 135 171 232 281 334 404
#     4  12  24  42  72  98 133 186 226 278 331 396
#     4  10  21  38  61  94 133 171 212 271 338 399
#     4  11  25  44  66 100 138 178 224 274 342 407
#     4  12  21  37  67  96 130 169 224 276 334 398
#     4  12  21  39  69  99 131 168 217 289 339 389
#
# _framework density 24.32619
#
# number of rings (size 3 to 8) (size 9 to 14) (size 15 to 20)
#    0.000    0.500    6.250    2.625    0.000    1.000 
#    4.500    0.625    0.000    0.000    0.000    0.000 
#    0.000    0.000    0.000    0.000    0.000    0.000 
#
# Total GULP energy -89087.348640 kJ/mol
# GULP energy per Si atom -5567.959290 kJ/mol
# Density = 2.427082 g / cm^3
# Si number density = 24.326190 Si / 1000 Ang^3
#
#
#
# Elastic Constant Matrix: (Units=GPa)
#
#
# Indices 1 2 3 4 5 6 
#
# 1 80.6502 12.1741 29.2076 3.0218 13.3577 -6.0557
# 2 12.1741 127.0695 38.3307 -16.8514 21.8432 -4.1409
# 3 29.2076 38.3307 75.0828 -22.2225 19.3844 -12.8074
# 4 3.0218 -16.8514 -22.2225 42.6116 -3.4976 6.5958
# 5 13.3577 21.8432 19.3844 -3.4976 47.7751 3.1726
# 6 -6.0557 -4.1409 -12.8074 6.5958 3.1726 34.1379
#
#
#
# Elastic Compliance Matrix: (Units=1/GPa)
#
#
# Indices 1 2 3 4 5 6 
#
# 1 0.015478 0.000350 -0.006871 -0.004930 -0.002151 0.001363
# 2 0.000350 0.009709 -0.003956 0.001567 -0.002798 -0.000287
# 3 -0.006871 -0.003956 0.023236 0.009728 -0.005360 0.005637
# 4 -0.004930 0.001567 0.009728 0.029856 -0.000919 -0.002718
# 5 -0.002151 -0.002798 -0.005360 -0.000919 0.025245 -0.004901
# 6 0.001363 -0.000287 0.005637 -0.002718 -0.004901 0.032595
#
#
# Mechanical properties :
#
#
# Convention : Reuss Voigt Hill
#
# Bulk Modulus (GPa) = 36.40408 49.13635 42.77022
# Shear Modulus (GPa) = 30.07916 38.44425 34.26170
#
# Velocity S-wave (km/s) = 3.52019 3.97969 3.75698
# Velocity P-wave (km/s) = 5.61425 6.43118 6.03655
#
# Compressibility (1/GPa) = 0.02746945
#
# Stress axis : x y z
#
# Youngs Moduli (GPa) = 64.60740 102.99979 43.03746
#
# Poissons Ratio (x) = -0.03607 0.29572
# Poissons Ratio (y) = -0.02263 0.17024
# Poissons Ratio (z) = 0.44393 0.40742
#
# Static dielectric constant tensor:
#      x y z
#    x 1.270050 1.018870 -0.731570 
#    y 1.018870 0.646480 1.074300 
#    z -0.731570 1.074300 1.222610 
# 
# From -- ./inp_files/522117.got.cif
#   From: 2010.05.17/outbox.cif.g08.bks.cpg/sg2_262_cif.got.tgz:522117.got - 2010.06.03 11:33:40.
