data_PCOD9005133
_publ_section_title
;
Structure prediction by ZEFSAII (Michael W. Deem and Ramdas Pophale) SiO2 
 PCOD9005133
Probable space group: P -1
;
_chemical_formula_sum "Si O2"
_cell_formula_units_Z 14
_cell_length_a 9.873447
_cell_length_b 11.369919
_cell_length_c 6.786674
_cell_angle_alpha 73.741756
_cell_angle_beta 71.881876
_cell_angle_gamma 110.329789
_cell_volume 611.264711
_symmetry_space_group_name_H-M "P -1"
_symmetry_group_IT_number 2
_symmetry_cell_setting 'triclinic'
loop_
_space_group_symop_operation_xyz
x,y,z
-x,-y,-z
loop_
_atom_site_type_symbol
_atom_site_label
_atom_site_fract_x
_atom_site_fract_y
_atom_site_fract_z
Si Si1 0.171098 0.731950 0.936019
Si Si2 0.185530 0.338962 0.876943
Si Si3 0.921592 0.887122 0.270586
Si Si4 0.729329 0.810527 0.771870
Si Si5 0.416231 0.635489 0.773010
Si Si6 0.266305 0.941330 0.141071
Si Si7 0.402014 0.868307 0.465018
O O1 0.271832 0.647364 0.953807
O O2 0.218366 0.788940 0.667440
O O3 0.979574 0.651147 0.083297
O O4 0.251267 0.870536 0.969843
O O5 0.169777 0.244291 0.118860
O O6 0.194186 0.255292 0.722751
O O7 0.337562 0.487295 0.775969
O O8 0.825415 0.902030 0.493703
O O9 0.073485 0.877268 0.300068
O O10 0.000000 0.000000 0.000000
O O11 0.569072 0.680337 0.821783
O O12 0.680103 0.899460 0.901058
O O13 0.465331 0.758645 0.531146
O O14 0.379728 0.902736 0.240099
O O15 0.500000 0.000000 0.500000
#
# Coordination Sequence:
#
# PCOD9005133 Si02
#       7
#     2   2   2   2   2   2   2
#     4   9  23  41  65  94 125 171 216 260 316 381
#     4  11  23  45  65  93 133 175 216 260 320 390
#     4  11  25  40  66  99 122 171 218 268 321 380
#     4  12  24  40  67  97 134 163 216 273 324 379
#     4  10  24  43  64  95 136 174 207 268 322 383
#     4  11  21  39  66  97 121 166 216 266 318 373
#     4  10  21  38  60  93 129 164 209 263 315 371
#
# _framework density 22.903334999999998
#
# number of rings (size 3 to 8) (size 9 to 14) (size 15 to 20)
#    0.857    0.571    2.857    2.143    4.000    2.857 
#    5.143    1.429    0.000    0.000    0.000    0.000 
#    0.000    0.000    0.000    0.000    0.000    0.000 
#
# Total GULP energy -78023.931220 kJ/mol
# GULP energy per Si atom -5573.137944 kJ/mol
# Density = 2.285121 g / cm^3
# Si number density = 22.903335 Si / 1000 Ang^3
#
#
#
# Elastic Constant Matrix: (Units=GPa)
#
#
# Indices 1 2 3 4 5 6 
#
# 1 82.9002 1.4940 15.5623 13.8265 14.5785 15.2500
# 2 1.4940 129.3298 14.3303 20.2423 2.9648 23.8916
# 3 15.5623 14.3303 54.3046 7.2448 12.2019 3.2479
# 4 13.8265 20.2423 7.2448 24.7356 -0.4850 7.5555
# 5 14.5785 2.9648 12.2019 -0.4850 23.7901 6.6129
# 6 15.2500 23.8916 3.2479 7.5555 6.6129 34.7315
#
#
#
# Elastic Compliance Matrix: (Units=1/GPa)
#
#
# Indices 1 2 3 4 5 6 
#
# 1 0.016310 0.002635 -0.002023 -0.009234 -0.008015 -0.005250
# 2 0.002635 0.010261 -0.002056 -0.007319 -0.000211 -0.006390
# 3 -0.002023 -0.002056 0.022497 -0.005034 -0.011092 0.003406
# 4 -0.009234 -0.007319 -0.005034 0.054661 0.011525 -0.004525
# 5 -0.008015 -0.000211 -0.011092 0.011525 0.055208 -0.008317
# 6 -0.005250 -0.006390 0.003406 -0.004525 -0.008317 0.037743
#
#
# Mechanical properties :
#
#
# Convention : Reuss Voigt Hill
#
# Bulk Modulus (GPa) = 21.65489 36.58977 29.12233
# Shear Modulus (GPa) = 23.25995 32.32798 27.79397
#
# Velocity S-wave (km/s) = 3.19026 3.76107 3.48736
# Velocity P-wave (km/s) = 4.80060 5.90519 5.38131
#
# Compressibility (1/GPa) = 0.04617895
#
# Stress axis : x y z
#
# Youngs Moduli (GPa) = 61.31137 97.46105 44.45010
#
# Poissons Ratio (x) = -0.25677 0.08990
# Poissons Ratio (y) = -0.16153 0.09141
# Poissons Ratio (z) = 0.12400 0.20042
#
# Static dielectric constant tensor:
#      x y z
#    x 1.853620 -0.014670 -0.021430 
#    y -0.014670 1.844940 -0.038750 
#    z -0.021430 -0.038750 1.911170 
# 
# From -- ./inp_files/66776.got.cif
#   From: 2010.05.17/outbox.cif.g08.bks.cpg/sg2_34_cif.got.tgz:66776.got - 2010.06.03 11:33:40.
