data_PCOD9005887
_publ_section_title
;
Structure prediction by ZEFSAII (Michael W. Deem and Ramdas Pophale) SiO2 
 PCOD9005887
Probable space group: P -1
;
_chemical_formula_sum "Si O2"
_cell_formula_units_Z 16
_cell_length_a 19.571796
_cell_length_b 11.489587
_cell_length_c 5.698150
_cell_angle_alpha 92.430070
_cell_angle_beta 92.045957
_cell_angle_gamma 35.159185
_cell_volume 737.202783
_symmetry_space_group_name_H-M "P -1"
_symmetry_group_IT_number 2
_symmetry_cell_setting 'triclinic'
loop_
_space_group_symop_operation_xyz
x,y,z
-x,-y,-z
loop_
_atom_site_type_symbol
_atom_site_label
_atom_site_fract_x
_atom_site_fract_y
_atom_site_fract_z
Si Si1 0.767436 0.085590 0.863517
Si Si2 0.698529 0.570622 0.351117
Si Si3 0.224083 0.103975 0.536342
Si Si4 0.195408 0.393421 0.369140
Si Si5 0.413759 0.815812 0.889965
Si Si6 0.974674 0.667843 0.092460
Si Si7 0.451267 0.987443 0.199716
Si Si8 0.689162 0.449041 0.835385
O O1 0.764784 0.226502 0.852290
O O2 0.734641 0.063770 0.621092
O O3 0.666905 0.181387 0.043929
O O4 0.895877 0.852580 0.919942
O O5 0.795419 0.538600 0.394070
O O6 0.564156 0.809345 0.363778
O O7 0.714213 0.472842 0.585318
O O8 0.705625 0.499448 0.087337
O O9 0.179757 0.279095 0.410940
O O10 0.114743 0.218821 0.691380
O O11 0.338029 0.982973 0.691285
O O12 0.093585 0.564306 0.187048
O O13 0.327240 0.217261 0.269640
O O14 0.549728 0.605644 0.824516
O O15 0.417256 0.905067 0.104962
O O16 0.000000 0.500000 0.000000
O O17 0.500000 0.000000 0.000000
#
# Coordination Sequence:
#
# PCOD9005887 Si02
#       8
#     2   2   2   2   2   2   2   2
#     4  11  24  43  65  96 135 175 226 286 335 403
#     4  11  26  44  67 101 136 183 225 274 340 409
#     4  11  22  39  67 102 130 170 225 284 351 397
#     4  12  21  41  68  97 134 174 224 280 347 406
#     4  10  21  38  64 100 131 175 224 273 348 405
#     4  11  24  42  65 104 132 170 226 286 350 397
#     4  11  21  41  67 104 142 173 218 284 344 411
#     4  11  26  45  67  96 141 183 230 274 334 410
#
# _framework density 21.703662000000001
#
# number of rings (size 3 to 8) (size 9 to 14) (size 15 to 20)
#    0.000    1.000    2.500    4.875    5.250    1.500 
#    0.000    1.250    0.000    0.000    0.000    0.000 
#    0.000    0.000    0.000    0.000    0.000    0.000 
#
# Total GULP energy -89308.294438 kJ/mol
# GULP energy per Si atom -5581.768402 kJ/mol
# Density = 2.165426 g / cm^3
# Si number density = 21.703662 Si / 1000 Ang^3
#
#
#
# Elastic Constant Matrix: (Units=GPa)
#
#
# Indices 1 2 3 4 5 6 
#
# 1 64.5429 33.2767 31.0768 -9.5304 22.7523 3.1771
# 2 33.2767 91.4312 25.7616 -14.9769 13.8494 7.3009
# 3 31.0768 25.7616 80.4374 -5.2326 6.4912 -6.4799
# 4 -9.5304 -14.9769 -5.2326 29.8811 -7.6371 4.4021
# 5 22.7523 13.8494 6.4912 -7.6371 35.2838 -16.2545
# 6 3.1771 7.3009 -6.4799 4.4021 -16.2545 30.3102
#
#
#
# Elastic Compliance Matrix: (Units=1/GPa)
#
#
# Indices 1 2 3 4 5 6 
#
# 1 0.033240 -0.002715 -0.011207 0.003381 -0.026840 -0.020111
# 2 -0.002715 0.015587 -0.003733 0.005932 -0.006321 -0.008519
# 3 -0.011207 -0.003733 0.017968 -0.001344 0.010506 0.011745
# 4 0.003381 0.005932 -0.001344 0.038541 0.000728 -0.007278
# 5 -0.026840 -0.006321 0.010506 0.000728 0.065526 0.041616
# 6 -0.020111 -0.008519 0.011745 -0.007278 0.041616 0.063038
#
#
# Mechanical properties :
#
#
# Convention : Reuss Voigt Hill
#
# Bulk Modulus (GPa) = 31.76142 46.29351 39.02746
# Shear Modulus (GPa) = 17.87601 28.84813 23.36207
#
# Velocity S-wave (km/s) = 2.87303 3.64975 3.28443
# Velocity P-wave (km/s) = 5.06672 6.25596 5.69248
#
# Compressibility (1/GPa) = 0.03148474
#
# Stress axis : x y z
#
# Youngs Moduli (GPa) = 30.08441 64.15732 55.65368
#
# Poissons Ratio (x) = 0.17418 0.62370
# Poissons Ratio (y) = 0.08168 0.20777
# Poissons Ratio (z) = 0.33715 0.23952
#
# Static dielectric constant tensor:
#      x y z
#    x 1.815500 0.003380 -0.019450 
#    y 0.003380 1.776660 0.011700 
#    z -0.019450 0.011700 1.865410 
# 
# From -- ./inp_files/83234.got.cif
#   From: 2010.05.17/outbox.cif.g08.bks.cpg/sg2_42_cif.got.tgz:83234.got - 2010.06.03 11:33:40.
