data_PCOD9005239
_publ_section_title
;
Structure prediction by ZEFSAII (Michael W. Deem and Ramdas Pophale) SiO2 
 PCOD9005239
Probable space group: P -1
;
_chemical_formula_sum "Si O2"
_cell_formula_units_Z 16
_cell_length_a 6.766196
_cell_length_b 19.755008
_cell_length_c 20.459851
_cell_angle_alpha 157.398994
_cell_angle_beta 63.901577
_cell_angle_gamma 102.937867
_cell_volume 801.544056
_symmetry_space_group_name_H-M "P -1"
_symmetry_group_IT_number 2
_symmetry_cell_setting 'triclinic'
loop_
_space_group_symop_operation_xyz
x,y,z
-x,-y,-z
loop_
_atom_site_type_symbol
_atom_site_label
_atom_site_fract_x
_atom_site_fract_y
_atom_site_fract_z
Si Si1 0.339349 0.703010 0.494648
Si Si2 0.497326 0.094086 0.244907
Si Si3 0.193829 0.407055 0.950611
Si Si4 0.926526 0.948223 0.666601
Si Si5 0.352722 0.383213 0.401128
Si Si6 0.261797 0.596977 0.928571
Si Si7 0.245190 0.352732 0.247717
Si Si8 0.338852 0.676431 0.258387
O O1 0.361542 0.810803 0.651687
O O2 0.606270 0.573336 0.299453
O O3 0.264326 0.534160 0.372000
O O4 0.128624 0.878693 0.634499
O O5 0.254390 0.138047 0.363907
O O6 0.418935 0.206010 0.286194
O O7 0.659385 0.849215 0.989726
O O8 0.485401 0.255103 0.745345
O O9 0.231033 0.573918 0.133412
O O10 0.000000 0.500000 0.000000
O O11 0.033537 0.339711 0.958506
O O12 0.098722 0.849236 0.488667
O O13 0.754277 0.193743 0.902410
O O14 0.500000 0.500000 0.500000
O O15 0.404156 0.300350 0.245717
O O16 0.050112 0.553133 0.605098
O O17 0.453860 0.492775 0.870332
#
# Coordination Sequence:
#
# PCOD9005239 Si02
#       8
#     2   2   2   2   2   2   2   2
#     4  11  23  41  61  92 125 161 211 256 304 373
#     4  12  24  40  66  91 123 167 206 253 320 367
#     4   9  18  38  62  88 123 166 201 259 302 352
#     4  11  23  39  61  92 125 165 208 256 306 369
#     4  11  24  44  66  90 124 162 203 263 313 366
#     4  10  21  38  61  88 125 162 206 254 307 359
#     4  11  24  43  64  91 124 158 210 256 308 378
#     4   9  20  38  61  87 126 162 207 252 303 362
#
# _framework density 19.961473000000002
#
# number of rings (size 3 to 8) (size 9 to 14) (size 15 to 20)
#    0.000    1.500    3.750    1.125    0.000    4.000 
#    0.000    5.625    0.000    0.000    0.000    0.000 
#    0.000    0.000    0.000    0.000    0.000    0.000 
#
# Total GULP energy -89271.391369 kJ/mol
# GULP energy per Si atom -5579.461961 kJ/mol
# Density = 1.991604 g / cm^3
# Si number density = 19.961473 Si / 1000 Ang^3
#
#
#
# Elastic Constant Matrix: (Units=GPa)
#
#
# Indices 1 2 3 4 5 6 
#
# 1 34.5772 38.1494 24.9440 13.7987 7.7358 -8.9655
# 2 38.1494 45.5760 22.7916 -12.5082 9.5240 18.2356
# 3 24.9440 22.7916 85.8040 0.4524 8.7592 -12.9379
# 4 13.7987 -12.5082 0.4524 21.9493 5.9243 10.7058
# 5 7.7358 9.5240 8.7592 5.9243 20.3037 -11.0963
# 6 -8.9655 18.2356 -12.9379 10.7058 -11.0963 32.2473
#
#
#
# Elastic Compliance Matrix: (Units=1/GPa)
#
#
# Indices 1 2 3 4 5 6 
#
# 1 0.011628 0.013908 -0.008020 0.018806 -0.025475 -0.022859
# 2 0.013908 -0.002533 -0.002120 -0.020415 0.010956 0.014996
# 3 -0.008020 -0.002120 0.015261 0.001546 -0.000594 0.004374
# 4 0.018806 -0.020415 0.001546 0.012904 0.006335 0.015289
# 5 -0.025475 0.010956 -0.000594 0.006335 0.053810 0.002896
# 6 -0.022859 0.014996 0.004374 0.015289 0.002896 0.013850
#
#
# Mechanical properties :
#
#
# Convention : Reuss Voigt Hill
#
# Bulk Modulus (GPa) = 31.35512 37.52524 34.44018
# Shear Modulus (GPa) = 46.28976 20.23820 33.26398
#
# Velocity S-wave (km/s) = 4.82078 3.18758 4.08660
# Velocity P-wave (km/s) = 6.83582 5.69097 6.28950
#
# Compressibility (1/GPa) = 0.03189272
#
# Stress axis : x y z
#
# Youngs Moduli (GPa) = 85.99604 -394.78607 65.52538
#
# Poissons Ratio (x) = 5.49084 0.52553
# Poissons Ratio (y) = -1.19607 0.13892
# Poissons Ratio (z) = 0.68971 -0.83698
#
# Static dielectric constant tensor:
#      x y z
#    x 1.693820 0.008110 -0.013130 
#    y 0.008110 1.740750 -0.032130 
#    z -0.013130 -0.032130 1.679910 
# 
# From -- ./inp_files/13120.got.cif
#   From: 2010.05.17/outbox.cif.g08.bks.cpg/sg2_7_cif.got.tgz:13120.got - 2010.06.03 11:33:40.
