data_PCOD9005947
_publ_section_title
;
Structure prediction by ZEFSAII (Michael W. Deem and Ramdas Pophale) SiO2 
 PCOD9005947
Probable space group: P -1
;
_chemical_formula_sum "Si O2"
_cell_formula_units_Z 14
_cell_length_a 11.284224
_cell_length_b 17.633798
_cell_length_c 8.169199
_cell_angle_alpha 42.719984
_cell_angle_beta 59.412846
_cell_angle_gamma 31.519723
_cell_volume 544.009113
_symmetry_space_group_name_H-M "P -1"
_symmetry_group_IT_number 2
_symmetry_cell_setting 'triclinic'
loop_
_space_group_symop_operation_xyz
x,y,z
-x,-y,-z
loop_
_atom_site_type_symbol
_atom_site_label
_atom_site_fract_x
_atom_site_fract_y
_atom_site_fract_z
Si Si1 0.326542 0.733262 0.859435
Si Si2 0.333830 0.305049 0.395840
Si Si3 0.112621 0.800012 0.221249
Si Si4 0.642896 0.903847 0.726777
Si Si5 0.000446 0.349877 0.378477
Si Si6 0.584046 0.721719 0.259268
Si Si7 0.808720 0.188906 0.516386
O O1 0.561581 0.653682 0.826862
O O2 0.297778 0.696038 0.760986
O O3 0.274317 0.693166 0.116804
O O4 0.090758 0.973469 0.642450
O O5 0.136432 0.364240 0.344845
O O6 0.273243 0.371171 0.521508
O O7 0.563197 0.068300 0.612556
O O8 0.230900 0.708326 0.461455
O O9 0.936663 0.810737 0.325621
O O10 0.000000 0.000000 0.000000
O O11 0.912193 0.715350 0.766397
O O12 0.500000 0.000000 0.500000
O O13 0.580435 0.844320 0.983853
O O14 0.724184 0.554004 0.293413
O O15 0.333154 0.831568 0.309299
#
# Coordination Sequence:
#
# PCOD9005947 Si02
#       7
#     2   2   2   2   2   2   2
#     4   9  19  38  64  91 124 164 218 274 307 381
#     4  10  22  41  67  95 126 171 222 263 323 394
#     4  10  21  38  64  89 126 174 214 266 312 384
#     4  10  22  37  64  93 124 168 220 262 316 386
#     4  11  24  41  64  97 134 170 214 263 341 384
#     4  11  23  41  64  98 135 166 208 283 327 386
#     4   9  20  36  63  89 127 163 219 256 329 376
#
# _framework density 25.734864000000002
#
# number of rings (size 3 to 8) (size 9 to 14) (size 15 to 20)
#    0.000    2.000    0.000    3.000   12.000    0.571 
#    5.143    2.857    0.000    0.000    0.000    0.000 
#    0.000    0.000    0.000    0.000    0.000    0.000 
#
# Total GULP energy -78271.393004 kJ/mol
# GULP energy per Si atom -5590.813786 kJ/mol
# Density = 2.567629 g / cm^3
# Si number density = 25.734864 Si / 1000 Ang^3
#
#
#
# Elastic Constant Matrix: (Units=GPa)
#
#
# Indices 1 2 3 4 5 6 
#
# 1 70.7238 22.6048 39.7030 20.0031 -12.5683 -3.2067
# 2 22.6048 113.5378 33.9641 29.9598 -2.5274 6.3934
# 3 39.7030 33.9641 118.2303 38.2555 -18.8555 -13.0685
# 4 20.0031 29.9598 38.2555 55.1497 0.8900 0.3823
# 5 -12.5683 -2.5274 -18.8555 0.8900 44.6103 11.0565
# 6 -3.2067 6.3934 -13.0685 0.3823 11.0565 46.7346
#
#
#
# Elastic Compliance Matrix: (Units=1/GPa)
#
#
# Indices 1 2 3 4 5 6 
#
# 1 0.018473 -0.001501 -0.004326 -0.002936 0.003483 -0.000537
# 2 -0.001501 0.010780 -0.001375 -0.004347 0.000182 -0.001970
# 3 -0.004326 -0.001375 0.013556 -0.007169 0.003876 0.002823
# 4 -0.002936 -0.004347 -0.007169 0.026609 -0.004442 -0.000778
# 5 0.003483 0.000182 0.003876 -0.004442 0.026349 -0.004899
# 6 -0.000537 -0.001970 0.002823 -0.000778 -0.004899 0.023585
#
#
# Mechanical properties :
#
#
# Convention : Reuss Voigt Hill
#
# Bulk Modulus (GPa) = 35.20527 55.00398 45.10463
# Shear Modulus (GPa) = 34.91035 43.04691 38.97863
#
# Velocity S-wave (km/s) = 3.68712 4.09431 3.89604
# Velocity P-wave (km/s) = 5.64235 6.61596 6.14846
#
# Compressibility (1/GPa) = 0.02840484
#
# Stress axis : x y z
#
# Youngs Moduli (GPa) = 54.13332 92.76567 73.76945
#
# Poissons Ratio (x) = 0.13926 0.31912
# Poissons Ratio (y) = 0.08126 0.10141
# Poissons Ratio (z) = 0.23418 0.12753
#
# Static dielectric constant tensor:
#      x y z
#    x 2.058680 -0.062550 0.034440 
#    y -0.062550 2.100860 -0.055050 
#    z 0.034440 -0.055050 2.048550 
# 
# From -- ./inp_files/154755.got.cif
#   From: 2010.05.17/outbox.cif.g08.bks.cpg/sg2_78_cif.got.tgz:154755.got - 2010.06.03 11:33:40.
