data_PCOD9005593
_publ_section_title
;
Structure prediction by ZEFSAII (Michael W. Deem and Ramdas Pophale) SiO2 
 PCOD9005593
Probable space group: P -1
;
_chemical_formula_sum "Si O2"
_cell_formula_units_Z 10
_cell_length_a 9.334539
_cell_length_b 16.900148
_cell_length_c 13.400630
_cell_angle_alpha 23.243402
_cell_angle_beta 152.023848
_cell_angle_gamma 151.204512
_cell_volume 366.538359
_symmetry_space_group_name_H-M "P -1"
_symmetry_group_IT_number 2
_symmetry_cell_setting 'triclinic'
loop_
_space_group_symop_operation_xyz
x,y,z
-x,-y,-z
loop_
_atom_site_type_symbol
_atom_site_label
_atom_site_fract_x
_atom_site_fract_y
_atom_site_fract_z
Si Si1 0.072037 0.119487 0.800828
Si Si2 0.241265 0.801363 0.796927
Si Si3 0.797954 0.181302 0.918173
Si Si4 0.769342 0.411411 0.176302
Si Si5 0.576512 0.706233 0.615710
O O1 0.847049 0.258360 0.481951
O O2 0.464752 0.240559 0.912705
O O3 0.010554 0.950979 0.867844
O O4 0.000000 0.000000 0.000000
O O5 0.209601 0.707308 0.776092
O O6 0.895197 0.710640 0.743708
O O7 0.329827 0.058130 0.552368
O O8 0.972004 0.357508 0.901859
O O9 0.681211 0.298318 0.621813
O O10 0.500000 0.000000 0.000000
O O11 0.478626 0.503106 0.865339
#
# Coordination Sequence:
#
# PCOD9005593 Si02
#       5
#     2   2   2   2   2
#     4  11  26  45  63  91 132 172 211 259 316 376
#     4  10  22  40  62  93 129 165 210 261 315 376
#     4  11  24  43  67  97 130 163 208 264 318 376
#     4  12  22  39  67  93 125 169 213 260 315 372
#     4  10  21  38  62  95 128 161 210 263 315 375
#
# _framework density 27.282274999999998
#
# number of rings (size 3 to 8) (size 9 to 14) (size 15 to 20)
#    0.000    1.200    0.000    7.800    0.000    7.200 
#    0.000    5.000    0.000    0.000    0.000    0.000 
#    0.000    0.000    0.000    0.000    0.000    0.000 
#
# Total GULP energy -56004.148120 kJ/mol
# GULP energy per Si atom -5600.414812 kJ/mol
# Density = 2.722018 g / cm^3
# Si number density = 27.282275 Si / 1000 Ang^3
#
#
#
# Elastic Constant Matrix: (Units=GPa)
#
#
# Indices 1 2 3 4 5 6 
#
# 1 96.9561 40.3781 46.7119 -5.6739 13.5476 -15.4193
# 2 40.3781 147.3194 21.9631 4.7734 -2.2362 -39.1693
# 3 46.7119 21.9631 256.8575 11.9510 -4.3086 -13.3888
# 4 -5.6739 4.7734 11.9510 37.3651 -4.6026 5.3976
# 5 13.5476 -2.2362 -4.3086 -4.6026 39.3593 4.6826
# 6 -15.4193 -39.1693 -13.3888 5.3976 4.6826 51.5334
#
#
#
# Elastic Compliance Matrix: (Units=1/GPa)
#
#
# Indices 1 2 3 4 5 6 
#
# 1 0.013878 -0.003275 -0.002379 0.002481 -0.005082 0.001247
# 2 -0.003275 0.009473 0.000259 -0.002656 0.000609 0.006511
# 3 -0.002379 0.000259 0.004443 -0.001795 0.001023 0.000734
# 4 0.002481 -0.002656 -0.001795 0.029128 0.002805 -0.005049
# 5 -0.005082 0.000609 0.001023 0.002805 0.028063 -0.003636
# 6 0.001247 0.006511 0.000734 -0.005049 -0.003636 0.025776
#
#
# Mechanical properties :
#
#
# Convention : Reuss Voigt Hill
#
# Bulk Modulus (GPa) = 58.81498 79.91548 69.36523
# Shear Modulus (GPa) = 39.30191 51.79022 45.54606
#
# Velocity S-wave (km/s) = 3.79960 4.36169 4.09031
# Velocity P-wave (km/s) = 6.39171 7.39739 6.91287
#
# Compressibility (1/GPa) = 0.01700247
#
# Stress axis : x y z
#
# Youngs Moduli (GPa) = 72.05816 105.55923 225.08497
#
# Poissons Ratio (x) = 0.34570 0.53557
# Poissons Ratio (y) = 0.23599 -0.05823
# Poissons Ratio (z) = 0.17146 -0.02731
#
# Static dielectric constant tensor:
#      x y z
#    x 2.190930 0.069430 -0.026580 
#    y 0.069430 2.137090 0.013320 
#    z -0.026580 0.013320 2.163990 
# 
# From -- ./inp_files/393545.got.cif
#   From: 2010.05.17/outbox.cif.g08.bks.cpg/sg2_197_cif.got.tgz:393545.got - 2010.06.03 11:33:40.
