data_PCOD9005865
_publ_section_title
;
Structure prediction by ZEFSAII (Michael W. Deem and Ramdas Pophale) SiO2 
 PCOD9005865
Probable space group: P -1
;
_chemical_formula_sum "Si O2"
_cell_formula_units_Z 16
_cell_length_a 12.402628
_cell_length_b 17.404486
_cell_length_c 11.120187
_cell_angle_alpha 133.005354
_cell_angle_beta 153.677578
_cell_angle_gamma 38.985333
_cell_volume 668.712655
_symmetry_space_group_name_H-M "P -1"
_symmetry_group_IT_number 2
_symmetry_cell_setting 'triclinic'
loop_
_space_group_symop_operation_xyz
x,y,z
-x,-y,-z
loop_
_atom_site_type_symbol
_atom_site_label
_atom_site_fract_x
_atom_site_fract_y
_atom_site_fract_z
Si Si1 0.588054 0.641630 0.669701
Si Si2 0.196489 0.553672 0.105965
Si Si3 0.673160 0.534364 0.119279
Si Si4 0.511480 0.906171 0.676254
Si Si5 0.211030 0.283160 0.463934
Si Si6 0.606988 0.212226 0.140967
Si Si7 0.869569 0.805695 0.467388
Si Si8 0.967396 0.946120 0.282810
O O1 0.335007 0.637558 0.346048
O O2 0.711612 0.531338 0.774481
O O3 0.456131 0.756085 0.748615
O O4 0.855369 0.620513 0.836534
O O5 0.342898 0.474821 0.049546
O O6 0.602488 0.669308 0.231383
O O7 0.982913 0.413679 0.320023
O O8 0.500000 0.500000 0.000000
O O9 0.654025 0.817889 0.611364
O O10 0.283110 0.875133 0.469297
O O11 0.320811 0.048314 0.592899
O O12 0.754471 0.893676 0.999873
O O13 0.098520 0.230988 0.400293
O O14 0.829202 0.248134 0.352993
O O15 0.792004 0.066656 0.154111
O O16 0.303324 0.252809 0.825358
O O17 0.000000 0.000000 0.500000
#
# Coordination Sequence:
#
# PCOD9005865 Si02
#       8
#     2   2   2   2   2   2   2   2
#     4  10  21  38  65  92 118 169 209 276 321 375
#     4  10  23  40  61  89 127 159 224 269 320 381
#     4  11  28  45  64  95 134 182 224 270 339 401
#     4  10  23  42  67 100 128 168 223 269 323 396
#     4  11  26  43  67  93 130 180 219 274 331 387
#     4  10  21  38  63  97 130 166 218 265 334 390
#     4  10  22  40  68  98 132 169 217 275 325 396
#     4  10  22  40  64  96 134 169 205 266 334 399
#
# _framework density 23.926569000000001
#
# number of rings (size 3 to 8) (size 9 to 14) (size 15 to 20)
#    0.000    1.750    0.000    2.250    8.750    3.000 
#    0.000    3.750    0.000    0.000    0.000    0.000 
#    0.000    0.000    0.000    0.000    0.000    0.000 
#
# Total GULP energy -89278.085666 kJ/mol
# GULP energy per Si atom -5579.880354 kJ/mol
# Density = 2.387211 g / cm^3
# Si number density = 23.926569 Si / 1000 Ang^3
#
#
#
# Elastic Constant Matrix: (Units=GPa)
#
#
# Indices 1 2 3 4 5 6 
#
# 1 132.6263 22.6812 63.7828 8.9581 19.9471 -19.9438
# 2 22.6812 81.4837 43.4265 1.6694 3.5463 -3.7994
# 3 63.7828 43.4265 150.4044 2.6840 24.2242 -16.1170
# 4 8.9581 1.6694 2.6840 33.0925 -3.7584 -1.4789
# 5 19.9471 3.5463 24.2242 -3.7584 35.2062 4.5165
# 6 -19.9438 -3.7994 -16.1170 -1.4789 4.5165 46.7581
#
#
#
# Elastic Compliance Matrix: (Units=1/GPa)
#
#
# Indices 1 2 3 4 5 6 
#
# 1 0.010617 -0.000897 -0.003043 -0.002939 -0.004628 0.003761
# 2 -0.000897 0.014675 -0.004289 0.000050 0.002098 -0.000869
# 3 -0.003043 -0.004289 0.010287 -0.000285 -0.005260 0.002398
# 4 -0.002939 0.000050 -0.000285 0.031602 0.005341 -0.000864
# 5 -0.004628 0.002098 -0.005260 0.005341 0.035891 -0.006914
# 6 0.003761 -0.000869 0.002398 -0.000864 -0.006914 0.024387
#
#
# Mechanical properties :
#
#
# Convention : Reuss Voigt Hill
#
# Bulk Modulus (GPa) = 52.29551 69.36617 60.83084
# Shear Modulus (GPa) = 33.26928 38.65297 35.96112
#
# Velocity S-wave (km/s) = 3.73295 4.02367 3.88103
# Velocity P-wave (km/s) = 6.36271 7.11623 6.74999
#
# Compressibility (1/GPa) = 0.01912210
#
# Stress axis : x y z
#
# Youngs Moduli (GPa) = 94.19186 68.14411 97.21389
#
# Poissons Ratio (x) = 0.06110 0.29578
# Poissons Ratio (y) = 0.08446 0.41692
# Poissons Ratio (z) = 0.28659 0.29225
#
# Static dielectric constant tensor:
#      x y z
#    x 1.998900 0.096830 -0.071960 
#    y 0.096830 1.962770 -0.041750 
#    z -0.071960 -0.041750 2.075610 
# 
# From -- ./inp_files/127147.got.cif
#   From: 2010.05.17/outbox.cif.g08.bks.cpg/sg2_64_cif.got.tgz:127147.got - 2010.06.03 11:33:40.
