data_PCOD9005334
_publ_section_title
;
Structure prediction by ZEFSAII (Michael W. Deem and Ramdas Pophale) SiO2 
 PCOD9005334
Probable space group: P -1
;
_chemical_formula_sum "Si O2"
_cell_formula_units_Z 16
_cell_length_a 13.778615
_cell_length_b 6.879061
_cell_length_c 22.367839
_cell_angle_alpha 82.977852
_cell_angle_beta 156.916949
_cell_angle_gamma 102.314027
_cell_volume 796.823733
_symmetry_space_group_name_H-M "P -1"
_symmetry_group_IT_number 2
_symmetry_cell_setting 'triclinic'
loop_
_space_group_symop_operation_xyz
x,y,z
-x,-y,-z
loop_
_atom_site_type_symbol
_atom_site_label
_atom_site_fract_x
_atom_site_fract_y
_atom_site_fract_z
Si Si1 0.270911 0.509438 0.914299
Si Si2 0.304725 0.574447 0.167322
Si Si3 0.403377 0.000458 0.732607
Si Si4 0.531218 0.579274 0.609679
Si Si5 0.858780 0.165711 0.628171
Si Si6 0.487522 0.595222 0.824757
Si Si7 0.127096 0.270422 0.309389
Si Si8 0.943492 0.782066 0.394833
O O1 0.032334 0.329792 0.764586
O O2 0.157412 0.706019 0.840058
O O3 0.500000 0.500000 0.000000
O O4 0.363450 0.476608 0.034004
O O5 0.405816 0.813893 0.200612
O O6 0.416916 0.512852 0.294758
O O7 0.405813 0.459980 0.175252
O O8 0.000000 0.500000 0.000000
O O9 0.253624 0.103011 0.692134
O O10 0.518552 0.834463 0.836127
O O11 0.199944 0.867290 0.575300
O O12 0.401299 0.766827 0.534104
O O13 0.324249 0.409482 0.462339
O O14 0.783086 0.646278 0.708832
O O15 0.998336 0.170924 0.643212
O O16 0.833530 0.950383 0.651505
O O17 0.193586 0.457647 0.668336
#
# Coordination Sequence:
#
# PCOD9005334 Si02
#       8
#     2   2   2   2   2   2   2   2
#     4  11  24  40  58  94 129 163 204 258 314 370
#     4  11  24  42  65  92 128 165 211 264 316 369
#     4  10  23  39  62  92 122 166 209 253 316 384
#     4  10  22  42  63  93 125 163 214 260 305 370
#     4  11  22  38  68  91 122 169 208 254 316 375
#     4  11  23  41  61  90 131 162 207 259 313 375
#     4  10  23  41  65  90 128 166 210 260 309 374
#     4  10  21  38  61  93 123 160 207 261 311 370
#
# _framework density 20.079723999999999
#
# number of rings (size 3 to 8) (size 9 to 14) (size 15 to 20)
#    0.000    1.500    1.250    3.000    1.750    6.000 
#    0.000    1.250    0.000    0.000    0.000    0.000 
#    0.000    0.000    0.000    0.000    0.000    0.000 
#
# Total GULP energy -89395.027799 kJ/mol
# GULP energy per Si atom -5587.189237 kJ/mol
# Density = 2.003402 g / cm^3
# Si number density = 20.079724 Si / 1000 Ang^3
#
#
#
# Elastic Constant Matrix: (Units=GPa)
#
#
# Indices 1 2 3 4 5 6 
#
# 1 96.2977 1.5843 24.0984 8.7264 -14.4547 6.5941
# 2 1.5843 96.7207 25.1624 -12.6889 2.7972 4.0720
# 3 24.0984 25.1624 71.0746 -4.4986 3.9295 5.8020
# 4 8.7264 -12.6889 -4.4986 18.6264 2.9062 -2.6687
# 5 -14.4547 2.7972 3.9295 2.9062 34.7753 3.0881
# 6 6.5941 4.0720 5.8020 -2.6687 3.0881 17.1881
#
#
#
# Elastic Compliance Matrix: (Units=1/GPa)
#
#
# Indices 1 2 3 4 5 6 
#
# 1 0.014326 -0.000145 -0.005356 -0.010316 0.008028 -0.006698
# 2 -0.000145 0.012382 -0.003759 0.007767 -0.001265 -0.000176
# 3 -0.005356 -0.003759 0.017876 0.004690 -0.004193 -0.001607
# 4 -0.010316 0.007767 0.004690 0.068803 -0.012386 0.013442
# 5 0.008028 -0.001265 -0.004193 -0.012386 0.034547 -0.009495
# 6 -0.006698 -0.000176 -0.001607 0.013442 -0.009495 0.065127
#
#
# Mechanical properties :
#
#
# Convention : Reuss Voigt Hill
#
# Bulk Modulus (GPa) = 38.36517 40.64258 39.50387
# Shear Modulus (GPa) = 20.81003 28.33446 24.57224
#
# Velocity S-wave (km/s) = 3.22276 3.76053 3.50199
# Velocity P-wave (km/s) = 5.74423 6.25620 6.00567
#
# Compressibility (1/GPa) = 0.02606531
#
# Stress axis : x y z
#
# Youngs Moduli (GPa) = 69.80428 80.76065 55.93996
#
# Poissons Ratio (x) = 0.01170 0.29962
# Poissons Ratio (y) = 0.01011 0.21026
# Poissons Ratio (z) = 0.37387 0.30355
#
# Static dielectric constant tensor:
#      x y z
#    x 1.699760 0.043600 0.003000 
#    y 0.043600 2.133240 -0.198300 
#    z 0.003000 -0.198300 1.799070 
# 
# From -- ./inp_files/123574.got.cif
#   From: 2010.05.17/outbox.cif.g08.bks.cpg/sg2_62_cif.got.tgz:123574.got - 2010.06.03 11:33:40.
