data_PCOD9005247
_publ_section_title
;
Structure prediction by ZEFSAII (Michael W. Deem and Ramdas Pophale) SiO2 
 PCOD9005247
Probable space group: P -1
;
_chemical_formula_sum "Si O2"
_cell_formula_units_Z 16
_cell_length_a 8.102552
_cell_length_b 21.277128
_cell_length_c 23.580503
_cell_angle_alpha 168.871046
_cell_angle_beta 78.225351
_cell_angle_gamma 102.701355
_cell_volume 763.993569
_symmetry_space_group_name_H-M "P -1"
_symmetry_group_IT_number 2
_symmetry_cell_setting 'triclinic'
loop_
_space_group_symop_operation_xyz
x,y,z
-x,-y,-z
loop_
_atom_site_type_symbol
_atom_site_label
_atom_site_fract_x
_atom_site_fract_y
_atom_site_fract_z
Si Si1 0.863958 0.641419 0.057199
Si Si2 0.983238 0.563428 0.350033
Si Si3 0.669208 0.566781 0.511393
Si Si4 0.215367 0.880187 0.300972
Si Si5 0.391134 0.582081 0.928074
Si Si6 0.244414 0.925389 0.138638
Si Si7 0.246108 0.680592 0.336106
Si Si8 0.103834 0.941807 0.997304
O O1 0.816532 0.340803 0.836817
O O2 0.853896 0.501487 0.870694
O O3 0.048774 0.811140 0.212336
O O4 0.743416 0.929405 0.329200
O O5 0.143421 0.622600 0.350475
O O6 0.002341 0.306502 0.171787
O O7 0.918676 0.891281 0.669790
O O8 0.827103 0.396124 0.175358
O O9 0.500000 0.500000 0.500000
O O10 0.732394 0.241236 0.192707
O O11 0.651696 0.823930 0.689486
O O12 0.823470 0.733831 0.687200
O O13 0.257483 0.257552 0.647482
O O14 0.365851 0.758401 0.145322
O O15 0.574436 0.461379 0.800916
O O16 0.347560 0.823799 0.095173
O O17 0.000000 0.000000 0.000000
#
# Coordination Sequence:
#
# PCOD9005247 Si02
#       8
#     2   2   2   2   2   2   2   2
#     4  11  24  42  63  85 114 156 198 235 287 357
#     4  10  21  39  61  83 116 160 198 232 282 351
#     4  10  21  38  61  89 119 155 195 239 290 342
#     4  11  24  42  63  85 114 156 198 235 287 357
#     4  12  24  38  60  90 119 150 192 247 298 335
#     4  10  21  39  61  83 116 160 198 232 282 351
#     4  12  24  38  60  90 119 150 192 247 298 335
#     4  10  21  38  61  89 119 155 195 239 290 342
#
# _framework density 20.942584
#
# number of rings (size 3 to 8) (size 9 to 14) (size 15 to 20)
#    0.000    1.250    0.000    6.750    0.000    6.000 
#    0.000    2.500    0.000    0.000    0.000    0.000 
#    0.000    0.000    0.000    0.000    0.000    0.000 
#
# Total GULP energy -89548.989145 kJ/mol
# GULP energy per Si atom -5596.811822 kJ/mol
# Density = 2.089492 g / cm^3
# Si number density = 20.942584 Si / 1000 Ang^3
#
#
#
# Elastic Constant Matrix: (Units=GPa)
#
#
# Indices 1 2 3 4 5 6 
#
# 1 60.4612 24.1937 1.0982 19.7992 -10.2806 -6.4286
# 2 24.1937 82.9572 0.0795 10.9889 0.3654 -13.2188
# 3 1.0982 0.0795 58.0142 -5.2544 1.6408 -12.2637
# 4 19.7992 10.9889 -5.2544 35.0733 -1.1307 -0.8189
# 5 -10.2806 0.3654 1.6408 -1.1307 22.9096 -6.9074
# 6 -6.4286 -13.2188 -12.2637 -0.8189 -6.9074 24.2456
#
#
#
# Elastic Compliance Matrix: (Units=1/GPa)
#
#
# Indices 1 2 3 4 5 6 
#
# 1 0.025491 -0.004685 -0.000424 -0.012391 0.013138 0.007315
# 2 -0.004685 0.014824 0.001510 -0.001608 -0.000274 0.007471
# 3 -0.000424 0.001510 0.019882 0.003075 0.001960 0.011430
# 4 -0.012391 -0.001608 0.003075 0.036253 -0.004795 -0.002749
# 5 0.013138 -0.000274 0.001960 -0.004795 0.055167 0.019880
# 6 0.007315 0.007471 0.011430 -0.002749 0.019880 0.058610
#
#
# Mechanical properties :
#
#
# Convention : Reuss Voigt Hill
#
# Bulk Modulus (GPa) = 18.86779 28.01951 23.44365
# Shear Modulus (GPa) = 21.26836 28.18310 24.72573
#
# Velocity S-wave (km/s) = 3.19024 3.67240 3.43978
# Velocity P-wave (km/s) = 4.75384 5.60270 5.19564
#
# Compressibility (1/GPa) = 0.05300038
#
# Stress axis : x y z
#
# Youngs Moduli (GPa) = 39.22893 67.45826 50.29599
#
# Poissons Ratio (x) = 0.31603 0.02131
# Poissons Ratio (y) = 0.18378 -0.07594
# Poissons Ratio (z) = 0.01662 -0.10185
#
# Static dielectric constant tensor:
#      x y z
#    x 1.734160 0.003870 0.004530 
#    y 0.003870 1.736380 0.005940 
#    z 0.004530 0.005940 1.728960 
# 
# From -- ./inp_files/351983.got.cif
#   From: 2010.05.17/outbox.cif.g08.bks.cpg/sg2_176_cif.got.tgz:351983.got - 2010.06.03 11:33:40.
