data_PCOD9005482
_publ_section_title
;
Structure prediction by ZEFSAII (Michael W. Deem and Ramdas Pophale) SiO2 
 PCOD9005482
Probable space group: P -1
;
_chemical_formula_sum "Si O2"
_cell_formula_units_Z 16
_cell_length_a 13.136623
_cell_length_b 12.882884
_cell_length_c 14.190212
_cell_angle_alpha 41.655873
_cell_angle_beta 148.829056
_cell_angle_gamma 114.430753
_cell_volume 623.539675
_symmetry_space_group_name_H-M "P -1"
_symmetry_group_IT_number 2
_symmetry_cell_setting 'triclinic'
loop_
_space_group_symop_operation_xyz
x,y,z
-x,-y,-z
loop_
_atom_site_type_symbol
_atom_site_label
_atom_site_fract_x
_atom_site_fract_y
_atom_site_fract_z
Si Si1 0.862467 0.292631 0.179500
Si Si2 0.446855 0.272379 0.125571
Si Si3 0.751223 0.691969 0.609982
Si Si4 0.858602 0.826974 0.923678
Si Si5 0.438495 0.229452 0.402509
Si Si6 0.380671 0.410277 0.618422
Si Si7 0.110561 0.768323 0.542661
Si Si8 0.225218 0.294141 0.755647
O O1 0.697789 0.540417 0.894674
O O2 0.674519 0.300715 0.952616
O O3 0.903992 0.196304 0.380572
O O4 0.135000 0.207665 0.410753
O O5 0.282099 0.231785 0.081129
O O6 0.744311 0.173539 0.439774
O O7 0.285602 0.518269 0.841633
O O8 0.452033 0.204909 0.069282
O O9 0.534143 0.796233 0.447153
O O10 0.666383 0.635229 0.491073
O O11 0.000000 0.500000 0.000000
O O12 0.756625 0.811278 0.754451
O O13 0.708850 0.058129 0.680539
O O14 0.167610 0.660761 0.288379
O O15 0.284364 0.344264 0.669271
O O16 0.848469 0.843549 0.235808
O O17 0.000000 0.500000 0.500000
#
# Coordination Sequence:
#
# PCOD9005482 Si02
#       8
#     2   2   2   2   2   2   2   2
#     4  11  20  34  59  84 108 143 188 227 269 324
#     4  10  18  29  52  81 112 136 176 225 280 321
#     4  10  20  39  55  79 109 149 187 231 266 314
#     4  11  20  37  56  83 115 147 179 221 279 336
#     4  10  22  38  57  75 117 155 176 221 278 327
#     4  12  20  33  60  86 110 138 189 233 271 322
#     4  10  17  29  51  83 108 136 173 233 275 311
#     4  10  17  28  49  85 109 134 171 234 275 311
#
# _framework density 25.659953999999999
#
# number of rings (size 3 to 8) (size 9 to 14) (size 15 to 20)
#    0.000    1.500    8.750    0.000    0.000    2.500 
#    0.000    0.000    0.000    1.500    0.000    0.000 
#    0.000    0.000    0.000    0.000    0.000    0.000 
#
# Total GULP energy -89361.392761 kJ/mol
# GULP energy per Si atom -5585.087048 kJ/mol
# Density = 2.560155 g / cm^3
# Si number density = 25.659954 Si / 1000 Ang^3
#
#
#
# Elastic Constant Matrix: (Units=GPa)
#
#
# Indices 1 2 3 4 5 6 
#
# 1 148.0216 56.5678 13.5981 11.7841 -13.0634 -28.4544
# 2 56.5678 94.0172 44.3758 26.4442 -1.6856 -27.4362
# 3 13.5981 44.3758 56.4409 -2.8269 1.2748 -12.0008
# 4 11.7841 26.4442 -2.8269 48.4699 -2.9518 -6.0550
# 5 -13.0634 -1.6856 1.2748 -2.9518 24.3446 9.7258
# 6 -28.4544 -27.4362 -12.0008 -6.0550 9.7258 46.0213
#
#
#
# Elastic Compliance Matrix: (Units=1/GPa)
#
#
# Indices 1 2 3 4 5 6 
#
# 1 0.010057 -0.008456 0.004683 0.002933 0.004161 0.001905
# 2 -0.008456 0.033946 -0.023704 -0.017241 -0.006179 0.007865
# 3 0.004683 -0.023704 0.035859 0.013905 0.000767 -0.000218
# 4 0.002933 -0.017241 0.013905 0.030165 0.003994 -0.001714
# 5 0.004161 -0.006179 0.000767 0.003994 0.047489 -0.010422
# 6 0.001905 0.007865 -0.000218 -0.001714 -0.010422 0.029516
#
#
# Mechanical properties :
#
#
# Convention : Reuss Voigt Hill
#
# Bulk Modulus (GPa) = 40.14632 58.61814 49.38223
# Shear Modulus (GPa) = 19.97701 36.02967 28.00334
#
# Velocity S-wave (km/s) = 2.79324 3.75122 3.30710
# Velocity P-wave (km/s) = 5.10709 6.45415 5.81973
#
# Compressibility (1/GPa) = 0.02490888
#
# Stress axis : x y z
#
# Youngs Moduli (GPa) = 99.43401 29.45851 27.88703
#
# Poissons Ratio (x) = 0.24910 -0.13060
# Poissons Ratio (y) = 0.84081 0.66103
# Poissons Ratio (z) = -0.46568 0.69828
#
# Static dielectric constant tensor:
#      x y z
#    x 2.032480 -0.006370 -0.032100 
#    y -0.006370 2.064480 -0.020190 
#    z -0.032100 -0.020190 2.182030 
# 
# From -- ./inp_files/532433.got.cif
#   From: 2010.05.17/outbox.cif.g08.bks.cpg/sg2_267_cif.got.tgz:532433.got - 2010.06.03 11:33:40.
