data_PCOD9005231
_publ_section_title
;
Structure prediction by ZEFSAII (Michael W. Deem and Ramdas Pophale) SiO2 
 PCOD9005231
Probable space group: P -1
;
_chemical_formula_sum "Si O2"
_cell_formula_units_Z 16
_cell_length_a 25.318288
_cell_length_b 12.647817
_cell_length_c 11.024647
_cell_angle_alpha 142.339331
_cell_angle_beta 141.283057
_cell_angle_gamma 21.176508
_cell_volume 764.909916
_symmetry_space_group_name_H-M "P -1"
_symmetry_group_IT_number 2
_symmetry_cell_setting 'triclinic'
loop_
_space_group_symop_operation_xyz
x,y,z
-x,-y,-z
loop_
_atom_site_type_symbol
_atom_site_label
_atom_site_fract_x
_atom_site_fract_y
_atom_site_fract_z
Si Si1 0.414681 0.911745 0.279437
Si Si2 0.316479 0.714266 0.960639
Si Si3 0.185702 0.706152 0.922024
Si Si4 0.037997 0.615510 0.502715
Si Si5 0.891876 0.036958 0.395052
Si Si6 0.019184 0.664380 0.788459
Si Si7 0.647441 0.707583 0.660230
Si Si8 0.667207 0.720866 0.991888
O O1 0.544368 0.608804 0.152923
O O2 0.487955 0.915809 0.511827
O O3 0.312618 0.193625 0.261161
O O4 0.343996 0.867425 0.177413
O O5 0.286284 0.650955 0.965739
O O6 0.179823 0.938109 0.825120
O O7 0.163788 0.553313 0.684577
O O8 0.254816 0.561697 0.046794
O O9 0.033835 0.072609 0.999036
O O10 0.964870 0.763944 0.641373
O O11 0.052871 0.382484 0.320791
O O12 0.959493 0.801400 0.405991
O O13 0.760418 0.364313 0.521717
O O14 0.000000 0.000000 0.500000
O O15 0.200927 0.354390 0.827890
O O16 0.647175 0.739115 0.829694
O O17 0.500000 0.000000 0.000000
#
# Coordination Sequence:
#
# PCOD9005231 Si02
#       8
#     2   2   2   2   2   2   2   2
#     4   9  21  41  59  85 124 163 200 249 312 376
#     4  10  21  38  61  88 123 161 200 253 312 365
#     4  11  21  42  66  89 128 164 207 257 314 371
#     4  10  21  41  60  91 124 157 208 254 310 367
#     4  11  21  36  62  92 120 157 200 256 304 364
#     4  10  23  41  67  89 121 171 204 256 317 370
#     4  10  21  40  62  85 121 161 204 251 309 370
#     4  11  23  40  66  93 124 162 206 261 311 365
#
# _framework density 20.917496
#
# number of rings (size 3 to 8) (size 9 to 14) (size 15 to 20)
#    0.000    1.750    1.250    3.750    1.750    1.000 
#   11.250    1.875    0.000    0.000    0.000    0.000 
#    0.000    0.000    0.000    0.000    0.000    0.000 
#
# Total GULP energy -89159.004525 kJ/mol
# GULP energy per Si atom -5572.437783 kJ/mol
# Density = 2.086989 g / cm^3
# Si number density = 20.917496 Si / 1000 Ang^3
#
#
#
# Elastic Constant Matrix: (Units=GPa)
#
#
# Indices 1 2 3 4 5 6 
#
# 1 149.5658 23.2388 36.2298 -3.6581 22.7837 32.4298
# 2 23.2388 45.0195 12.6810 -3.1185 5.2454 7.2899
# 3 36.2298 12.6810 68.9545 -3.9301 17.9448 12.2872
# 4 -3.6581 -3.1185 -3.9301 12.0954 7.9219 -3.6942
# 5 22.7837 5.2454 17.9448 7.9219 39.8351 -3.5572
# 6 32.4298 7.2899 12.2872 -3.6942 -3.5572 43.1901
#
#
#
# Elastic Compliance Matrix: (Units=1/GPa)
#
#
# Indices 1 2 3 4 5 6 
#
# 1 0.009963 -0.002619 -0.001848 0.003503 -0.005816 -0.006693
# 2 -0.002619 0.025036 -0.002083 0.006002 -0.002173 -0.001332
# 3 -0.001848 -0.002083 0.019758 0.010745 -0.010045 -0.003790
# 4 0.003503 0.006002 0.010745 0.107854 -0.029071 0.000131
# 5 -0.005816 -0.002173 -0.010045 -0.029071 0.039770 0.008380
# 6 -0.006693 -0.001332 -0.003790 0.000131 0.008380 0.030183
#
#
# Mechanical properties :
#
#
# Convention : Reuss Voigt Hill
#
# Bulk Modulus (GPa) = 24.00478 45.31543 34.66010
# Shear Modulus (GPa) = 19.26409 31.78345 25.52377
#
# Velocity S-wave (km/s) = 3.03802 3.90226 3.49694
# Velocity P-wave (km/s) = 4.87923 6.48186 5.73678
#
# Compressibility (1/GPa) = 0.04165838
#
# Stress axis : x y z
#
# Youngs Moduli (GPa) = 100.36996 39.94270 50.61209
#
# Poissons Ratio (x) = 0.10459 0.09351
# Poissons Ratio (y) = 0.26282 0.10544
# Poissons Ratio (z) = 0.18544 0.08321
#
# Static dielectric constant tensor:
#      x y z
#    x 1.753620 -0.029510 0.033720 
#    y -0.029510 1.790960 -0.008940 
#    z 0.033720 -0.008940 1.787070 
# 
# From -- ./inp_files/336180.got.cif
#   From: 2010.05.17/outbox.cif.g08.bks.cpg/sg2_169_cif.got.tgz:336180.got - 2010.06.03 11:33:40.
