data_PCOD9005111
_publ_section_title
;
Structure prediction by ZEFSAII (Michael W. Deem and Ramdas Pophale) SiO2 
 PCOD9005111
Probable space group: P -1
;
_chemical_formula_sum "Si O2"
_cell_formula_units_Z 14
_cell_length_a 24.483814
_cell_length_b 9.361551
_cell_length_c 5.228781
_cell_angle_alpha 94.483220
_cell_angle_beta 111.331721
_cell_angle_gamma 38.089596
_cell_volume 641.914001
_symmetry_space_group_name_H-M "P -1"
_symmetry_group_IT_number 2
_symmetry_cell_setting 'triclinic'
loop_
_space_group_symop_operation_xyz
x,y,z
-x,-y,-z
loop_
_atom_site_type_symbol
_atom_site_label
_atom_site_fract_x
_atom_site_fract_y
_atom_site_fract_z
Si Si1 0.071212 0.441805 0.806842
Si Si2 0.374525 0.124395 0.825210
Si Si3 0.136158 0.096922 0.255146
Si Si4 0.575375 0.417439 0.906600
Si Si5 0.503950 0.797301 0.508098
Si Si6 0.245639 0.130704 0.765963
Si Si7 0.684073 0.460530 0.408987
O O1 0.156130 0.374056 0.822175
O O2 0.000000 0.500000 0.500000
O O3 0.984441 0.686443 0.868427
O O4 0.134900 0.184009 0.000365
O O5 0.296065 0.148792 0.673715
O O6 0.319369 0.386214 0.735429
O O7 0.456358 0.955491 0.709804
O O8 0.430102 0.983155 0.171280
O O9 0.188613 0.116360 0.519640
O O10 0.205995 0.819223 0.364162
O O11 0.522534 0.596065 0.597738
O O12 0.500000 0.500000 0.000000
O O13 0.629851 0.442626 0.150303
O O14 0.662927 0.127341 0.961759
O O15 0.614321 0.621813 0.564952
#
# Coordination Sequence:
#
# PCOD9005111 Si02
#       7
#     2   2   2   2   2   2   2
#     4   9  18  37  64  92 119 153 200 259 316 367
#     4  12  27  40  62  90 130 170 209 248 307 373
#     4   9  20  39  65  90 119 154 208 258 310 366
#     4  11  22  39  60  93 124 161 213 258 299 361
#     4  12  24  43  60  88 128 172 208 252 302 364
#     4  10  21  38  60  92 121 161 203 256 313 357
#     4  11  24  40  62  89 125 169 211 252 307 367
#
# _framework density 21.809775999999999
#
# number of rings (size 3 to 8) (size 9 to 14) (size 15 to 20)
#    0.000    1.429    2.857    1.714    4.000    2.286 
#    0.000    0.714    0.000    7.714    0.000    0.000 
#    0.000    0.000    0.000    0.000    0.000    0.000 
#
# Total GULP energy -78103.987800 kJ/mol
# GULP energy per Si atom -5578.856271 kJ/mol
# Density = 2.176014 g / cm^3
# Si number density = 21.809776 Si / 1000 Ang^3
#
#
#
# Elastic Constant Matrix: (Units=GPa)
#
#
# Indices 1 2 3 4 5 6 
#
# 1 109.6403 66.4577 33.7751 -25.7221 -20.6353 -6.3452
# 2 66.4577 97.4056 38.5444 -31.3852 -14.3062 0.0519
# 3 33.7751 38.5444 131.0599 -24.1581 -28.9069 -0.5049
# 4 -25.7221 -31.3852 -24.1581 42.3818 4.1320 -10.2153
# 5 -20.6353 -14.3062 -28.9069 4.1320 29.6892 -5.2776
# 6 -6.3452 0.0519 -0.5049 -10.2153 -5.2776 36.9717
#
#
#
# Elastic Compliance Matrix: (Units=1/GPa)
#
#
# Indices 1 2 3 4 5 6 
#
# 1 0.017864 -0.009775 0.001211 0.004775 0.009240 0.005734
# 2 -0.009775 0.020338 -0.001943 0.008141 0.000075 0.000527
# 3 0.001211 -0.001943 0.011285 0.005506 0.010735 0.003419
# 4 0.004775 0.008141 0.005506 0.037784 0.009601 0.012693
# 5 0.009240 0.000075 0.010735 0.009601 0.051339 0.011713
# 6 0.005734 0.000527 0.003419 0.012693 0.011713 0.033257
#
#
# Mechanical properties :
#
#
# Convention : Reuss Voigt Hill
#
# Bulk Modulus (GPa) = 35.11954 68.40669 51.76311
# Shear Modulus (GPa) = 24.70709 35.09712 29.90210
#
# Velocity S-wave (km/s) = 3.36943 4.01588 3.70677
# Velocity P-wave (km/s) = 5.59241 7.27574 6.48889
#
# Compressibility (1/GPa) = 0.02847418
#
# Stress axis : x y z
#
# Youngs Moduli (GPa) = 55.97977 49.16860 88.61131
#
# Poissons Ratio (x) = 0.48061 -0.10735
# Poissons Ratio (y) = 0.54718 0.17219
# Poissons Ratio (z) = -0.06782 0.09554
#
# Static dielectric constant tensor:
#      x y z
#    x 1.854890 -0.002850 0.033930 
#    y -0.002850 1.894380 0.065490 
#    z 0.033930 0.065490 1.879970 
# 
# From -- ./inp_files/122520.got.cif
#   From: 2010.05.17/outbox.cif.g08.bks.cpg/sg2_62_cif.got.tgz:122520.got - 2010.06.03 11:33:40.
