data_PCOD9005444
_publ_section_title
;
Structure prediction by ZEFSAII (Michael W. Deem and Ramdas Pophale) SiO2 
 PCOD9005444
Probable space group: P -1
;
_chemical_formula_sum "Si O2"
_cell_formula_units_Z 16
_cell_length_a 15.822276
_cell_length_b 10.557619
_cell_length_c 7.911288
_cell_angle_alpha 53.761464
_cell_angle_beta 74.745241
_cell_angle_gamma 44.322946
_cell_volume 714.182531
_symmetry_space_group_name_H-M "P -1"
_symmetry_group_IT_number 2
_symmetry_cell_setting 'triclinic'
loop_
_space_group_symop_operation_xyz
x,y,z
-x,-y,-z
loop_
_atom_site_type_symbol
_atom_site_label
_atom_site_fract_x
_atom_site_fract_y
_atom_site_fract_z
Si Si1 0.051178 0.072478 0.032445
Si Si2 0.082995 0.482286 0.111135
Si Si3 0.054123 0.253244 0.561488
Si Si4 0.536232 0.719418 0.510406
Si Si5 0.669865 0.902507 0.902681
Si Si6 0.757288 0.647048 0.404628
Si Si7 0.677836 0.237322 0.794206
Si Si8 0.313532 0.928448 0.721306
O O1 0.083314 0.165369 0.806026
O O2 0.954289 0.287438 0.034927
O O3 0.182385 0.868914 0.212814
O O4 0.000000 0.000000 0.000000
O O5 0.054135 0.423190 0.342754
O O6 0.226639 0.273690 0.151962
O O7 0.000000 0.500000 0.000000
O O8 0.904452 0.403602 0.504268
O O9 0.193395 0.013786 0.608790
O O10 0.666166 0.640411 0.550917
O O11 0.579796 0.496490 0.588049
O O12 0.435684 0.809704 0.638486
O O13 0.464426 0.924898 0.253708
O O14 0.681467 0.068138 0.827913
O O15 0.706254 0.747026 0.164067
O O16 0.735349 0.841423 0.357915
O O17 0.653222 0.225126 0.014937
#
# Coordination Sequence:
#
# PCOD9005444 Si02
#       8
#     2   2   2   2   2   2   2   2
#     4  11  23  40  63  98 131 156 201 272 326 350
#     4  12  20  40  70  91 120 168 220 253 295 382
#     4  11  21  39  68  91 120 168 212 253 310 379
#     4  12  23  38  61  89 126 162 205 254 313 358
#     4  11  23  40  63  89 121 168 213 244 302 381
#     4  11  22  38  59  92 128 156 201 266 314 354
#     4  10  22  41  61  87 125 167 205 252 306 375
#     4  10  21  38  62  89 118 164 216 246 298 384
#
# _framework density 22.403236
#
# number of rings (size 3 to 8) (size 9 to 14) (size 15 to 20)
#    0.000    1.000    3.750    5.250    0.000    0.000 
#    2.250    1.875    2.750    0.000    0.000    0.000 
#    0.000    0.000    0.000    0.000    0.000    0.000 
#
# Total GULP energy -89087.533505 kJ/mol
# GULP energy per Si atom -5567.970844 kJ/mol
# Density = 2.235225 g / cm^3
# Si number density = 22.403236 Si / 1000 Ang^3
#
#
#
# Elastic Constant Matrix: (Units=GPa)
#
#
# Indices 1 2 3 4 5 6 
#
# 1 73.7332 52.4292 -17.6911 -8.0719 -1.9099 -18.0224
# 2 52.4292 131.1367 26.7628 -14.0247 -7.6873 -28.4111
# 3 -17.6911 26.7628 56.4515 -15.6401 7.1071 -10.4655
# 4 -8.0719 -14.0247 -15.6401 19.0879 -0.5719 4.2079
# 5 -1.9099 -7.6873 7.1071 -0.5719 19.4166 -6.0738
# 6 -18.0224 -28.4111 -10.4655 4.2079 -6.0738 43.2464
#
#
#
# Elastic Compliance Matrix: (Units=1/GPa)
#
#
# Indices 1 2 3 4 5 6 
#
# 1 0.037257 -0.017286 0.029653 0.025406 -0.010992 0.007330
# 2 -0.017286 0.018761 -0.017613 -0.008338 0.013023 0.003500
# 3 0.029653 -0.017613 0.049522 0.038199 -0.019063 0.006377
# 4 0.025406 -0.008338 0.038199 0.087019 -0.010857 0.004362
# 5 -0.010992 0.013023 -0.019063 -0.010857 0.065232 0.009580
# 6 0.007330 0.003500 0.006377 0.004362 0.009580 0.030941
#
#
# Mechanical properties :
#
#
# Convention : Reuss Voigt Hill
#
# Bulk Modulus (GPa) = 10.52103 42.70258 26.61180
# Shear Modulus (GPa) = 15.10994 29.67156 22.39075
#
# Velocity S-wave (km/s) = 2.59984 3.64322 3.16483
# Velocity P-wave (km/s) = 3.70387 6.06628 5.02585
#
# Compressibility (1/GPa) = 0.09504776
#
# Stress axis : x y z
#
# Youngs Moduli (GPa) = 26.84046 53.30155 20.19291
#
# Poissons Ratio (x) = 0.92139 -0.59877
# Poissons Ratio (y) = 0.46398 0.35565
# Poissons Ratio (z) = -0.79589 0.93878
#
# Static dielectric constant tensor:
#      x y z
#    x 2.001530 0.002680 0.019990 
#    y 0.002680 1.908600 0.018890 
#    z 0.019990 0.018890 1.853550 
# 
# From -- ./inp_files/263051.got.cif
#   From: 2010.05.17/outbox.cif.g08.bks.cpg/sg2_132_cif.got.tgz:263051.got - 2010.06.03 11:33:40.
