data_PCOD9005562
_publ_section_title
;
Structure prediction by ZEFSAII (Michael W. Deem and Ramdas Pophale) SiO2 
 PCOD9005562
Probable space group: P -1
;
_chemical_formula_sum "Si O2"
_cell_formula_units_Z 16
_cell_length_a 8.697707
_cell_length_b 8.906913
_cell_length_c 20.462459
_cell_angle_alpha 120.295933
_cell_angle_beta 118.380182
_cell_angle_gamma 31.926206
_cell_volume 719.948786
_symmetry_space_group_name_H-M "P -1"
_symmetry_group_IT_number 2
_symmetry_cell_setting 'triclinic'
loop_
_space_group_symop_operation_xyz
x,y,z
-x,-y,-z
loop_
_atom_site_type_symbol
_atom_site_label
_atom_site_fract_x
_atom_site_fract_y
_atom_site_fract_z
Si Si1 0.420600 0.241169 0.998707
Si Si2 0.980476 0.107779 0.948482
Si Si3 0.910257 0.211186 0.727688
Si Si4 0.133520 0.140481 0.193083
Si Si5 0.298288 0.587453 0.717764
Si Si6 0.157899 0.914452 0.445307
Si Si7 0.769477 0.531713 0.451046
Si Si8 0.727155 0.728852 0.171117
O O1 0.421323 0.183476 0.910115
O O2 0.146699 0.595344 0.021434
O O3 0.500000 0.000000 0.000000
O O4 0.680653 0.154694 0.058273
O O5 0.814284 0.100199 0.870056
O O6 0.000000 0.000000 0.000000
O O7 0.626756 0.391256 0.753596
O O8 0.820891 0.256221 0.642556
O O9 0.057404 0.278573 0.785528
O O10 0.147465 0.878601 0.721593
O O11 0.926740 0.302564 0.249889
O O12 0.931774 0.402169 0.157598
O O13 0.457166 0.964724 0.219229
O O14 0.329612 0.410430 0.631182
O O15 0.473999 0.753219 0.482047
O O16 0.000000 0.000000 0.500000
O O17 0.952393 0.217349 0.436457
O O18 0.000000 0.500000 0.500000
#
# Coordination Sequence:
#
# PCOD9005562 Si02
#       8
#     2   2   2   2   2   2   2   2
#     4  12  26  44  66  96 127 164 218 270 329 392
#     4  12  23  46  67  90 130 166 212 272 332 383
#     4  10  23  42  63  89 132 169 206 265 315 380
#     4  12  25  41  68  94 124 170 215 267 324 389
#     4  10  23  43  61  93 127 170 212 253 327 380
#     4  10  21  38  62  93 127 168 212 252 318 374
#     4  10  21  38  63  92 129 165 210 264 307 373
#     4  12  24  43  64  95 126 164 218 268 320 385
#
# _framework density 22.223803
#
# number of rings (size 3 to 8) (size 9 to 14) (size 15 to 20)
#    0.000    1.000    2.500    3.750    1.750    2.000 
#    0.000    0.000    0.000    0.000    0.000    0.000 
#    0.000    0.000    0.000    0.000    0.000    0.000 
#
# Total GULP energy -89201.848070 kJ/mol
# GULP energy per Si atom -5575.115504 kJ/mol
# Density = 2.217322 g / cm^3
# Si number density = 22.223803 Si / 1000 Ang^3
#
#
#
# Elastic Constant Matrix: (Units=GPa)
#
#
# Indices 1 2 3 4 5 6 
#
# 1 113.4940 40.0931 53.8609 4.1525 18.1084 -21.6296
# 2 40.0931 118.8217 10.0068 2.4702 -4.3931 -8.8833
# 3 53.8609 10.0068 52.8558 5.4987 3.7243 0.4208
# 4 4.1525 2.4702 5.4987 25.3674 -0.9219 -1.7488
# 5 18.1084 -4.3931 3.7243 -0.9219 42.5275 -8.8422
# 6 -21.6296 -8.8833 0.4208 -1.7488 -8.8422 55.4480
#
#
#
# Elastic Compliance Matrix: (Units=1/GPa)
#
#
# Indices 1 2 3 4 5 6 
#
# 1 0.025030 -0.006152 -0.024081 0.001988 -0.007514 0.007825
# 2 -0.006152 0.010253 0.004186 -0.000802 0.003233 -0.000299
# 3 -0.024081 0.004186 0.043022 -0.006191 0.005029 -0.008443
# 4 0.001988 -0.000802 -0.006191 0.040696 0.000937 0.002127
# 5 -0.007514 0.003233 0.005029 0.000937 0.027020 0.001887
# 6 0.007825 -0.000299 -0.008443 0.002127 0.001887 0.021472
#
#
# Mechanical properties :
#
#
# Convention : Reuss Voigt Hill
#
# Bulk Modulus (GPa) = 38.15103 54.78812 46.46958
# Shear Modulus (GPa) = 21.89874 36.74928 29.32401
#
# Velocity S-wave (km/s) = 3.14247 4.07086 3.63641
# Velocity P-wave (km/s) = 5.51097 6.84122 6.21181
#
# Compressibility (1/GPa) = 0.02621161
#
# Stress axis : x y z
#
# Youngs Moduli (GPa) = 39.95250 97.53189 23.24368
#
# Poissons Ratio (x) = 0.59999 0.55972
# Poissons Ratio (y) = 0.24578 -0.09729
# Poissons Ratio (z) = 0.96208 -0.40822
#
# Static dielectric constant tensor:
#      x y z
#    x 1.848360 -0.005970 -0.037230 
#    y -0.005970 1.797000 -0.002540 
#    z -0.037230 -0.002540 1.872340 
# 
# From -- ./inp_files/223531.got.cif
#   From: 2010.05.17/outbox.cif.g08.bks.cpg/sg2_112_cif.got.tgz:223531.got - 2010.06.03 11:33:40.
