data_PCOD9005614
_publ_section_title
;
Structure prediction by ZEFSAII (Michael W. Deem and Ramdas Pophale) SiO2 
 PCOD9005614
Probable space group: P -1
;
_chemical_formula_sum "Si O2"
_cell_formula_units_Z 16
_cell_length_a 13.326477
_cell_length_b 8.758344
_cell_length_c 12.718004
_cell_angle_alpha 113.639040
_cell_angle_beta 32.681621
_cell_angle_gamma 122.216600
_cell_volume 674.421524
_symmetry_space_group_name_H-M "P -1"
_symmetry_group_IT_number 2
_symmetry_cell_setting 'triclinic'
loop_
_space_group_symop_operation_xyz
x,y,z
-x,-y,-z
loop_
_atom_site_type_symbol
_atom_site_label
_atom_site_fract_x
_atom_site_fract_y
_atom_site_fract_z
Si Si1 0.275836 0.975935 0.443821
Si Si2 0.898177 0.756969 0.227936
Si Si3 0.285962 0.778925 0.584363
Si Si4 0.599026 0.609547 0.262732
Si Si5 0.896504 0.810279 0.602553
Si Si6 0.508244 0.233582 0.129528
Si Si7 0.800520 0.975853 0.104067
Si Si8 0.974076 0.409920 0.734751
O O1 0.348535 0.876885 0.442830
O O2 0.051133 0.839826 0.568923
O O3 0.234184 0.140457 0.578930
O O4 0.421438 0.061139 0.238429
O O5 0.766602 0.644457 0.215103
O O6 0.956743 0.645929 0.232325
O O7 0.112769 0.907836 0.042732
O O8 0.418556 0.667959 0.473797
O O9 0.296013 0.923718 0.703985
O O10 0.058451 0.627028 0.726730
O O11 0.526406 0.408014 0.230737
O O12 0.689472 0.760704 0.133474
O O13 0.665013 0.787454 0.809782
O O14 0.911716 0.650472 0.474208
O O15 0.000000 0.000000 0.500000
O O16 0.734270 0.292469 0.902609
O O17 0.000000 0.000000 0.000000
#
# Coordination Sequence:
#
# PCOD9005614 Si02
#       8
#     2   2   2   2   2   2   2   2
#     4  11  24  44  71  95 137 179 222 275 343 388
#     4  11  23  42  67 100 135 182 215 277 336 400
#     4  12  24  43  67 100 140 180 216 279 337 401
#     4  11  23  42  66  97 144 172 225 271 333 402
#     4  10  22  49  68  96 136 173 227 284 324 401
#     4  11  25  45  70 101 133 178 227 278 330 399
#     4  10  21  38  62  97 137 172 217 268 330 399
#     4  12  25  44  71 100 135 176 228 277 336 389
#
# _framework density 23.724036000000002
#
# number of rings (size 3 to 8) (size 9 to 14) (size 15 to 20)
#    0.000    1.000    6.250    1.875    1.750    6.500 
#    0.000    0.625    0.000    0.000    0.000    0.000 
#    0.000    0.000    0.000    0.000    0.000    0.000 
#
# Total GULP energy -89413.261816 kJ/mol
# GULP energy per Si atom -5588.328863 kJ/mol
# Density = 2.367004 g / cm^3
# Si number density = 23.724036 Si / 1000 Ang^3
#
#
#
# Elastic Constant Matrix: (Units=GPa)
#
#
# Indices 1 2 3 4 5 6 
#
# 1 97.3792 30.3191 1.3582 -13.6824 -26.0356 -0.0764
# 2 30.3191 82.4381 8.2074 -12.8529 -0.6162 1.4528
# 3 1.3582 8.2074 65.3328 -10.0616 -23.3072 -10.4300
# 4 -13.6824 -12.8529 -10.0616 42.6321 -0.2328 -3.2626
# 5 -26.0356 -0.6162 -23.3072 -0.2328 36.3439 -5.8570
# 6 -0.0764 1.4528 -10.4300 -3.2626 -5.8570 28.2194
#
#
#
# Elastic Compliance Matrix: (Units=1/GPa)
#
#
# Indices 1 2 3 4 5 6 
#
# 1 0.019612 -0.007163 0.011587 0.007791 0.023084 0.010396
# 2 -0.007163 0.015448 -0.005828 0.000560 -0.009385 -0.004852
# 3 0.011587 -0.005828 0.032272 0.011304 0.032234 0.020256
# 4 0.007791 0.000560 0.011304 0.029691 0.014749 0.010664
# 5 0.023084 -0.009385 0.032234 0.014749 0.069258 0.028539
# 6 0.010396 -0.004852 0.020256 0.010664 0.028539 0.050358
#
#
# Mechanical properties :
#
#
# Convention : Reuss Voigt Hill
#
# Bulk Modulus (GPa) = 15.49803 36.10216 25.80010
# Shear Modulus (GPa) = 20.75095 35.12343 27.93719
#
# Velocity S-wave (km/s) = 2.96071 3.85190 3.43533
# Velocity P-wave (km/s) = 4.27019 5.91890 5.16081
#
# Compressibility (1/GPa) = 0.06452431
#
# Stress axis : x y z
#
# Youngs Moduli (GPa) = 50.98839 64.73539 30.98696
#
# Poissons Ratio (x) = 0.46367 -0.35904
# Poissons Ratio (y) = 0.36521 0.18059
# Poissons Ratio (z) = -0.59079 0.37727
#
# Static dielectric constant tensor:
#      x y z
#    x 1.938640 0.047160 -0.022710 
#    y 0.047160 1.960050 -0.127500 
#    z -0.022710 -0.127500 2.119500 
# 
# From -- ./inp_files/528802.got.cif
#   From: 2010.05.17/outbox.cif.g08.bks.cpg/sg2_265_cif.got.tgz:528802.got - 2010.06.03 11:33:40.
