data_PCOD9005944
_publ_section_title
;
Structure prediction by ZEFSAII (Michael W. Deem and Ramdas Pophale) SiO2 
 PCOD9005944
Probable space group: P -1
;
_chemical_formula_sum "Si O2"
_cell_formula_units_Z 16
_cell_length_a 12.461096
_cell_length_b 9.046695
_cell_length_c 12.181413
_cell_angle_alpha 38.706311
_cell_angle_beta 47.520165
_cell_angle_gamma 60.134743
_cell_volume 632.062996
_symmetry_space_group_name_H-M "P -1"
_symmetry_group_IT_number 2
_symmetry_cell_setting 'triclinic'
loop_
_space_group_symop_operation_xyz
x,y,z
-x,-y,-z
loop_
_atom_site_type_symbol
_atom_site_label
_atom_site_fract_x
_atom_site_fract_y
_atom_site_fract_z
Si Si1 0.236090 0.425291 0.097307
Si Si2 0.475061 0.100607 0.776993
Si Si3 0.854681 0.904510 0.219016
Si Si4 0.210893 0.047214 0.135233
Si Si5 0.057233 0.282369 0.514520
Si Si6 0.950557 0.585902 0.098417
Si Si7 0.303130 0.521041 0.540579
Si Si8 0.562053 0.144978 0.266624
O O1 0.240022 0.224147 0.115982
O O2 0.180758 0.344932 0.302732
O O3 0.096909 0.578534 0.071302
O O4 0.390656 0.580602 0.901151
O O5 0.405550 0.322231 0.633346
O O6 0.599465 0.239798 0.682973
O O7 0.520778 0.928004 0.747182
O O8 0.355632 0.979346 0.010968
O O9 0.798222 0.634673 0.383110
O O10 0.721480 0.051566 0.189769
O O11 0.000000 0.000000 0.000000
O O12 0.133495 0.183976 0.008388
O O13 0.086873 0.845725 0.366667
O O14 0.876875 0.892670 0.340415
O O15 0.000000 0.500000 0.500000
O O16 0.819308 0.406883 0.331707
O O17 0.000000 0.500000 0.000000
O O18 0.500000 0.000000 0.500000
#
# Coordination Sequence:
#
# PCOD9005944 Si02
#       8
#     2   2   2   2   2   2   2   2
#     4  11  23  38  61  93 128 161 211 262 323 375
#     4   9  19  34  57  85 118 157 203 246 313 367
#     4  11  22  41  65  95 124 164 219 265 316 380
#     4  10  21  38  64  89 124 165 212 259 312 382
#     4  12  23  39  65  92 129 169 209 268 321 377
#     4   9  18  32  58  90 120 151 206 262 309 360
#     4   9  17  31  56  84 116 154 202 250 300 369
#     4  11  24  39  65  98 131 163 210 268 323 385
#
# _framework density 25.313931
#
# number of rings (size 3 to 8) (size 9 to 14) (size 15 to 20)
#    0.000    1.750    0.000    6.375    8.750    0.000 
#    0.000    0.625    0.000    3.750    0.000    0.000 
#    0.000    0.000    0.000    0.000    0.000    0.000 
#
# Total GULP energy -89297.495797 kJ/mol
# GULP energy per Si atom -5581.093487 kJ/mol
# Density = 2.525631 g / cm^3
# Si number density = 25.313931 Si / 1000 Ang^3
#
#
#
# Elastic Constant Matrix: (Units=GPa)
#
#
# Indices 1 2 3 4 5 6 
#
# 1 70.6515 14.8594 27.1945 -6.9463 18.5324 24.5623
# 2 14.8594 111.7461 41.5085 -8.4874 -9.4631 31.5746
# 3 27.1945 41.5085 151.1486 -13.2534 -13.4839 36.6130
# 4 -6.9463 -8.4874 -13.2534 43.7758 12.4120 -4.7987
# 5 18.5324 -9.4631 -13.4839 12.4120 38.8931 -0.4727
# 6 24.5623 31.5746 36.6130 -4.7987 -0.4727 43.4877
#
#
#
# Elastic Compliance Matrix: (Units=1/GPa)
#
#
# Indices 1 2 3 4 5 6 
#
# 1 0.022787 0.000072 -0.002286 0.005628 -0.013557 -0.010524
# 2 0.000072 0.011709 -0.001184 0.000493 0.002156 -0.007468
# 3 -0.002286 -0.001184 0.009023 0.000503 0.003704 -0.005350
# 4 0.005628 0.000493 0.000503 0.026986 -0.011013 -0.001102
# 5 -0.013557 0.002156 0.003704 -0.011013 0.037521 0.002166
# 6 -0.010524 -0.007468 -0.005350 -0.001102 0.002166 0.038767
#
#
# Mechanical properties :
#
#
# Convention : Reuss Voigt Hill
#
# Bulk Modulus (GPa) = 27.23105 55.63013 41.43059
# Shear Modulus (GPa) = 30.15124 41.89690 36.02407
#
# Velocity S-wave (km/s) = 3.45497 4.07270 3.77648
# Velocity P-wave (km/s) = 5.16686 6.64376 5.95130
#
# Compressibility (1/GPa) = 0.03672278
#
# Stress axis : x y z
#
# Youngs Moduli (GPa) = 43.88467 85.40345 110.82866
#
# Poissons Ratio (x) = -0.00617 0.25338
# Poissons Ratio (y) = -0.00317 0.13123
# Poissons Ratio (z) = 0.10033 0.10113
#
# Static dielectric constant tensor:
#      x y z
#    x 2.136140 -0.027940 -0.000670 
#    y -0.027940 2.072550 -0.083020 
#    z -0.000670 -0.083020 2.006640 
# 
# From -- ./inp_files/460433.got.cif
#   From: 2010.05.17/outbox.cif.g08.bks.cpg/sg2_231_cif.got.tgz:460433.got - 2010.06.03 11:33:40.
