data_PCOD9005030
_publ_section_title
;
Structure prediction by ZEFSAII (Michael W. Deem and Ramdas Pophale) SiO2 
 PCOD9005030
Probable space group: P -1
;
_chemical_formula_sum "Si O2"
_cell_formula_units_Z 13
_cell_length_a 26.419183
_cell_length_b 5.116688
_cell_length_c 26.438883
_cell_angle_alpha 132.273687
_cell_angle_beta 10.907036
_cell_angle_gamma 130.942412
_cell_volume 500.038816
_symmetry_space_group_name_H-M "P -1"
_symmetry_group_IT_number 2
_symmetry_cell_setting 'triclinic'
loop_
_space_group_symop_operation_xyz
x,y,z
-x,-y,-z
loop_
_atom_site_type_symbol
_atom_site_label
_atom_site_fract_x
_atom_site_fract_y
_atom_site_fract_z
Si Si1 0.000000 0.500000 0.000000
Si Si2 0.520001 0.513742 0.553608
Si Si3 0.779699 0.069364 0.843955
Si Si4 0.998936 0.767230 0.248339
Si Si5 0.236580 0.240472 0.279150
Si Si6 0.252323 0.540821 0.403537
Si Si7 0.483579 0.661883 0.351113
O O1 0.239960 0.386458 0.790659
O O2 0.234493 0.554345 0.734032
O O3 0.584511 0.360964 0.525759
O O4 0.473780 0.941273 0.656595
O O5 0.845254 0.037013 0.833983
O O6 0.014159 0.295907 0.620686
O O7 0.769671 0.731298 0.772259
O O8 0.518454 0.323061 0.128956
O O9 0.775458 0.484137 0.442417
O O10 0.240606 0.571262 0.956332
O O11 0.803573 0.092613 0.465307
O O12 0.259305 0.566462 0.338033
O O13 0.000000 0.000000 0.500000
O O14 0.500000 0.000000 0.000000
#
# Coordination Sequence:
#
# PCOD9005030 Si02
#       7
#     1   2   2   2   2   2   2
#     4  10  24  48  84 108 144 180 230 276 336 394
#     4  11  26  48  74 112 142 185 224 282 332 397
#     4  10  21  38  60  87 124 171 228 296 352 417
#     4  12  26  39  64  95 132 194 228 280 344 420
#     4   8  16  33  56  83 116 159 221 296 364 401
#     4  10  21  38  60  87 124 171 228 296 352 417
#     4  12  28  45  70 105 152 186 230 278 338 408
#
# _framework density 25.997982
#
# number of rings (size 3 to 8) (size 9 to 14) (size 15 to 20)
#    0.000    1.538    0.000    3.692    6.462    4.308 
#    0.000    0.000    0.000   12.923    0.000    0.000 
#    0.000    0.000    0.000    0.000    0.000    0.000 
#
# Total GULP energy -72497.338736 kJ/mol
# GULP energy per Si atom -5576.718364 kJ/mol
# Density = 2.593881 g / cm^3
# Si number density = 25.997982 Si / 1000 Ang^3
#
#
#
# Elastic Constant Matrix: (Units=GPa)
#
#
# Indices 1 2 3 4 5 6 
#
# 1 101.6231 5.8002 2.1194 -6.1326 -23.6815 -6.4662
# 2 5.8002 92.0484 24.0065 -2.2788 -2.4593 5.2989
# 3 2.1194 24.0065 234.5640 -4.7281 -16.6057 19.0756
# 4 -6.1326 -2.2788 -4.7281 -11.9062 -18.8847 11.0299
# 5 -23.6815 -2.4593 -16.6057 -18.8847 13.5653 3.4290
# 6 -6.4662 5.2989 19.0756 11.0299 3.4290 18.8259
#
#
#
# Elastic Compliance Matrix: (Units=1/GPa)
#
#
# Indices 1 2 3 4 5 6 
#
# 1 0.011401 -0.001118 -0.000365 -0.007890 0.006224 0.008090
# 2 -0.001118 0.011278 -0.001108 -0.000504 -0.001494 -0.001868
# 3 -0.000365 -0.001108 0.004498 -0.003669 0.000128 -0.002245
# 4 -0.007890 -0.000504 -0.003669 -0.009827 -0.035414 0.013357
# 5 0.006224 -0.001494 0.000128 -0.035414 0.030723 0.017581
# 6 0.008090 -0.001868 -0.002245 0.013357 0.017581 0.047669
#
#
# Mechanical properties :
#
#
# Convention : Reuss Voigt Hill
#
# Bulk Modulus (GPa) = 45.46588 54.67641 50.07115
# Shear Modulus (GPa) = 46.18710 30.51762 38.35236
#
# Velocity S-wave (km/s) = 4.21950 3.42986 3.84501
# Velocity P-wave (km/s) = 6.42380 6.06316 6.24608
#
# Compressibility (1/GPa) = 0.02199452
#
# Stress axis : x y z
#
# Youngs Moduli (GPa) = 87.71487 88.66462 222.34058
#
# Poissons Ratio (x) = 0.09912 0.08114
# Poissons Ratio (y) = 0.09806 0.24639
# Poissons Ratio (z) = 0.03201 0.09826
#
# Static dielectric constant tensor:
#      x y z
#    x 2.187290 0.068330 -0.038190 
#    y 0.068330 2.079620 0.036960 
#    z -0.038190 0.036960 1.978490 
# 
# From -- ./inp_files/621045.got.cif
#   From: 2010.05.17/outbox.cif.g08.bks.cpg/sg2_311_cif.got.tgz:621045.got - 2010.06.03 11:33:40.
