data_PCOD9005568
_publ_section_title
;
Structure prediction by ZEFSAII (Michael W. Deem and Ramdas Pophale) SiO2 
 PCOD9005568
Probable space group: P -1
;
_chemical_formula_sum "Si O2"
_cell_formula_units_Z 14
_cell_length_a 12.494396
_cell_length_b 8.730846
_cell_length_c 9.508236
_cell_angle_alpha 69.492766
_cell_angle_beta 52.480170
_cell_angle_gamma 58.624263
_cell_volume 701.521183
_symmetry_space_group_name_H-M "P -1"
_symmetry_group_IT_number 2
_symmetry_cell_setting 'triclinic'
loop_
_space_group_symop_operation_xyz
x,y,z
-x,-y,-z
loop_
_atom_site_type_symbol
_atom_site_label
_atom_site_fract_x
_atom_site_fract_y
_atom_site_fract_z
Si Si1 0.913854 0.879120 0.570575
Si Si2 0.526995 0.568994 0.606734
Si Si3 0.277811 0.140001 0.500899
Si Si4 0.640453 0.335694 0.006363
Si Si5 0.201560 0.555055 0.378943
Si Si6 0.610346 0.869181 0.308372
Si Si7 0.349239 0.028647 0.029902
O O1 0.825716 0.930813 0.477767
O O2 0.039514 0.678137 0.524132
O O3 0.786570 0.908874 0.775504
O O4 0.000000 0.000000 0.500000
O O5 0.500000 0.500000 0.500000
O O6 0.672351 0.433923 0.619617
O O7 0.568651 0.728577 0.471134
O O8 0.394526 0.640188 0.805839
O O9 0.230072 0.346553 0.426099
O O10 0.278014 0.105152 0.678645
O O11 0.451087 0.033165 0.358137
O O12 0.774041 0.371259 0.816285
O O13 0.643761 0.149713 0.000852
O O14 0.500000 0.500000 0.000000
O O15 0.677009 0.822018 0.116894
O O16 0.500000 0.000000 0.000000
#
# Coordination Sequence:
#
# PCOD9005568 Si02
#       7
#     2   2   2   2   2   2   2
#     4  12  25  41  64  96 137 169 217 271 328 388
#     4  10  23  37  66  98 131 169 215 277 321 379
#     4  10  21  41  67  89 129 173 213 270 323 382
#     4  10  21  38  62  93 130 163 222 263 316 379
#     4  10  22  42  61  95 135 171 219 260 328 386
#     4  10  21  40  65  95 122 165 228 265 322 376
#     4  12  24  40  67  97 126 176 222 267 318 394
#
# _framework density 19.956630000000001
#
# number of rings (size 3 to 8) (size 9 to 14) (size 15 to 20)
#    0.000    1.429    2.857    3.857    6.000    0.000 
#    0.000    5.000    0.000    0.000    0.000    0.000 
#    0.000    0.000    0.000    0.000    0.000    0.000 
#
# Total GULP energy -78027.316200 kJ/mol
# GULP energy per Si atom -5573.379729 kJ/mol
# Density = 1.991121 g / cm^3
# Si number density = 19.956630 Si / 1000 Ang^3
#
#
#
# Elastic Constant Matrix: (Units=GPa)
#
#
# Indices 1 2 3 4 5 6 
#
# 1 143.1231 21.9641 68.2984 8.7284 17.8688 5.1978
# 2 21.9641 63.4224 34.2694 7.2537 -2.7563 -6.8190
# 3 68.2984 34.2694 164.9786 11.3879 13.2390 -11.6504
# 4 8.7284 7.2537 11.3879 30.8054 -3.1566 0.3747
# 5 17.8688 -2.7563 13.2390 -3.1566 35.7680 3.6197
# 6 5.1978 -6.8190 -11.6504 0.3747 3.6197 21.1600
#
#
#
# Elastic Compliance Matrix: (Units=1/GPa)
#
#
# Indices 1 2 3 4 5 6 
#
# 1 0.009613 -0.001881 -0.003542 -0.001258 -0.003309 -0.004329
# 2 -0.001881 0.018873 -0.002861 -0.002626 0.002762 0.004543
# 3 -0.003542 -0.002861 0.008817 -0.001893 -0.002413 0.005249
# 4 -0.001258 -0.002626 -0.001893 0.034632 0.004483 -0.002960
# 5 -0.003309 0.002762 -0.002413 0.004483 0.031630 -0.005116
# 6 -0.004329 0.004543 0.005249 -0.002960 -0.005116 0.053604
#
#
# Mechanical properties :
#
#
# Convention : Reuss Voigt Hill
#
# Bulk Modulus (GPa) = 48.22769 68.95422 58.59096
# Shear Modulus (GPa) = 27.67786 34.01283 30.84534
#
# Velocity S-wave (km/s) = 3.72815 4.13284 3.93570
# Velocity P-wave (km/s) = 6.53841 7.57634 7.07643
#
# Compressibility (1/GPa) = 0.02073498
#
# Stress axis : x y z
#
# Youngs Moduli (GPa) = 104.02468 52.98456 113.41439
#
# Poissons Ratio (x) = 0.09964 0.40176
# Poissons Ratio (y) = 0.19562 0.32453
# Poissons Ratio (z) = 0.36850 0.15161
#
# Static dielectric constant tensor:
#      x y z
#    x 1.827140 0.114100 0.011590 
#    y 0.114100 1.894850 -0.033210 
#    z 0.011590 -0.033210 1.789520 
# 
# From -- ./inp_files/242816.got.cif
#   From: 2010.05.17/outbox.cif.g08.bks.cpg/sg2_122_cif.got.tgz:242816.got - 2010.06.03 11:33:40.
