data_PCOD9005325
_publ_section_title
;
Structure prediction by ZEFSAII (Michael W. Deem and Ramdas Pophale) SiO2 
 PCOD9005325
Probable space group: P -1
;
_chemical_formula_sum "Si O2"
_cell_formula_units_Z 16
_cell_length_a 10.012126
_cell_length_b 12.420389
_cell_length_c 9.821034
_cell_angle_alpha 37.365142
_cell_angle_beta 77.932045
_cell_angle_gamma 80.790099
_cell_volume 724.772928
_symmetry_space_group_name_H-M "P -1"
_symmetry_group_IT_number 2
_symmetry_cell_setting 'triclinic'
loop_
_space_group_symop_operation_xyz
x,y,z
-x,-y,-z
loop_
_atom_site_type_symbol
_atom_site_label
_atom_site_fract_x
_atom_site_fract_y
_atom_site_fract_z
Si Si1 0.318774 0.822471 0.624914
Si Si2 0.283426 0.636342 0.217469
Si Si3 0.638387 0.899177 0.435000
Si Si4 0.863271 0.152360 0.616410
Si Si5 0.340934 0.463674 0.098078
Si Si6 0.110906 0.477624 0.621353
Si Si7 0.362556 0.957356 0.994154
Si Si8 0.980296 0.118110 0.021956
O O1 0.474621 0.858568 0.504594
O O2 0.214116 0.881528 0.473277
O O3 0.323862 0.923136 0.667742
O O4 0.278191 0.615063 0.865094
O O5 0.310288 0.519024 0.202158
O O6 0.251545 0.515712 0.475547
O O7 0.399485 0.775513 0.089609
O O8 0.155794 0.767319 0.081429
O O9 0.692395 0.743564 0.679907
O O10 0.680093 0.912924 0.252593
O O11 0.901317 0.358434 0.435780
O O12 0.756168 0.088297 0.823878
O O13 0.997707 0.031843 0.719370
O O14 0.500000 0.500000 0.000000
O O15 0.000000 0.500000 0.500000
O O16 0.090372 0.275286 0.872199
O O17 0.500000 0.000000 0.000000
O O18 0.000000 0.000000 0.000000
#
# Coordination Sequence:
#
# PCOD9005325 Si02
#       8
#     2   2   2   2   2   2   2   2
#     4  10  21  40  60  89 126 166 213 257 303 384
#     4  10  21  38  61  92 128 164 209 259 310 382
#     4  10  21  38  64  84 125 174 205 252 322 370
#     4  11  22  37  64  97 129 163 207 269 317 370
#     4  10  22  39  62  83 120 171 213 245 313 378
#     4   9  19  36  58  90 127 156 206 259 310 369
#     4  11  20  36  62  97 128 155 209 264 312 377
#     4  11  20  38  64  94 125 168 209 257 328 378
#
# _framework density 22.075877999999999
#
# number of rings (size 3 to 8) (size 9 to 14) (size 15 to 20)
#    0.000    1.750    6.250    0.000    1.750    1.000 
#    0.000    2.500    0.000    3.750    0.000    0.000 
#    0.000    0.000    0.000    0.000    0.000    0.000 
#
# Total GULP energy -89071.539797 kJ/mol
# GULP energy per Si atom -5566.971237 kJ/mol
# Density = 2.202563 g / cm^3
# Si number density = 22.075878 Si / 1000 Ang^3
#
#
#
# Elastic Constant Matrix: (Units=GPa)
#
#
# Indices 1 2 3 4 5 6 
#
# 1 42.3237 24.3617 13.2939 -5.5408 3.0781 25.4983
# 2 24.3617 55.4559 17.0098 -10.8155 -0.1749 6.9798
# 3 13.2939 17.0098 100.6309 -10.1890 -3.5819 10.8689
# 4 -5.5408 -10.8155 -10.1890 35.1219 8.5097 2.1112
# 5 3.0781 -0.1749 -3.5819 8.5097 28.3077 6.7052
# 6 25.4983 6.9798 10.8689 2.1112 6.7052 30.4751
#
#
#
# Elastic Compliance Matrix: (Units=1/GPa)
#
#
# Indices 1 2 3 4 5 6 
#
# 1 0.070554 -0.023076 0.001396 0.006936 0.003418 -0.055477
# 2 -0.023076 0.028020 -0.002906 0.003824 -0.002185 0.014142
# 3 0.001396 -0.002906 0.011090 0.002435 0.001685 -0.004997
# 4 0.006936 0.003824 0.002435 0.034055 -0.008770 -0.007977
# 5 0.003418 -0.002185 0.001685 -0.008770 0.040456 -0.011254
# 6 -0.055477 0.014142 -0.004997 -0.007977 -0.011254 0.080803
#
#
# Mechanical properties :
#
#
# Convention : Reuss Voigt Hill
#
# Bulk Modulus (GPa) = 16.53121 34.19348 25.36235
# Shear Modulus (GPa) = 14.95598 28.36395 21.65997
#
# Velocity S-wave (km/s) = 2.60567 3.58835 3.13575
# Velocity P-wave (km/s) = 4.06907 5.71761 4.96228
#
# Compressibility (1/GPa) = 0.06049164
#
# Stress axis : x y z
#
# Youngs Moduli (GPa) = 14.17360 35.68887 90.16871
#
# Poissons Ratio (x) = 0.82357 -0.12587
# Poissons Ratio (y) = 0.32707 0.26201
# Poissons Ratio (z) = -0.01979 0.10370
#
# Static dielectric constant tensor:
#      x y z
#    x 1.845250 -0.043840 -0.056250 
#    y -0.043840 1.836790 -0.044680 
#    z -0.056250 -0.044680 1.940560 
# 
# From -- ./inp_files/255816.got.cif
#   From: 2010.05.17/outbox.cif.g08.bks.cpg/sg2_128_cif.got.tgz:255816.got - 2010.06.03 11:33:40.
