data_PCOD9005695
_publ_section_title
;
Structure prediction by ZEFSAII (Michael W. Deem and Ramdas Pophale) SiO2 
 PCOD9005695
Probable space group: P -1
;
_chemical_formula_sum "Si O2"
_cell_formula_units_Z 14
_cell_length_a 10.262057
_cell_length_b 15.622831
_cell_length_c 9.765416
_cell_angle_alpha 92.062435
_cell_angle_beta 152.889402
_cell_angle_gamma 100.473316
_cell_volume 629.538099
_symmetry_space_group_name_H-M "P -1"
_symmetry_group_IT_number 2
_symmetry_cell_setting 'triclinic'
loop_
_space_group_symop_operation_xyz
x,y,z
-x,-y,-z
loop_
_atom_site_type_symbol
_atom_site_label
_atom_site_fract_x
_atom_site_fract_y
_atom_site_fract_z
Si Si1 0.684573 0.623043 0.836343
Si Si2 0.788307 0.884551 0.311330
Si Si3 0.554739 0.962272 0.693400
Si Si4 0.075348 0.509926 0.860965
Si Si5 0.819380 0.837318 0.045860
Si Si6 0.837850 0.153494 0.130917
Si Si7 0.195130 0.361415 0.356181
O O1 0.854910 0.624438 0.850756
O O2 0.298615 0.559373 0.448074
O O3 0.815514 0.574047 0.070022
O O4 0.757620 0.730819 0.945930
O O5 0.657422 0.840565 0.038014
O O6 0.007255 0.840952 0.576083
O O7 0.515843 0.860467 0.168803
O O8 0.000000 0.000000 0.500000
O O9 0.201056 0.906163 0.425988
O O10 0.500000 0.000000 0.500000
O O11 0.695826 0.886391 0.818413
O O12 0.789797 0.055722 0.006544
O O13 0.986755 0.591643 0.719017
O O14 0.418656 0.582966 0.256922
O O15 0.045940 0.248926 0.244235
#
# Coordination Sequence:
#
# PCOD9005695 Si02
#       7
#     2   2   2   2   2   2   2
#     4  11  21  38  62  93 124 159 201 253 315 370
#     4  12  23  44  65  85 122 174 224 245 294 357
#     4  12  24  40  60  94 130 160 192 256 325 370
#     4  10  21  38  63  90 124 161 200 251 310 382
#     4  12  25  40  64  90 126 165 210 254 297 375
#     4  12  24  40  65  91 125 165 210 262 297 367
#     4  11  21  37  62  94 123 157 203 253 318 366
#
# _framework density 22.238527999999999
#
# number of rings (size 3 to 8) (size 9 to 14) (size 15 to 20)
#    0.000    0.571    2.857    7.714    0.000    2.286 
#    0.000    0.000    0.000   17.143    0.000    0.000 
#    0.000    0.000    0.000    0.000    0.000    0.000 
#
# Total GULP energy -78001.609572 kJ/mol
# GULP energy per Si atom -5571.543541 kJ/mol
# Density = 2.218791 g / cm^3
# Si number density = 22.238528 Si / 1000 Ang^3
#
#
#
# Elastic Constant Matrix: (Units=GPa)
#
#
# Indices 1 2 3 4 5 6 
#
# 1 32.2298 -1.2335 6.9597 10.4472 -2.0696 -13.3557
# 2 -1.2335 86.5381 25.6228 17.1001 8.0112 -41.1575
# 3 6.9597 25.6228 77.7913 -12.2497 14.5421 -5.3224
# 4 10.4472 17.1001 -12.2497 42.9275 -1.7072 3.6347
# 5 -2.0696 8.0112 14.5421 -1.7072 22.0054 -5.6976
# 6 -13.3557 -41.1575 -5.3224 3.6347 -5.6976 15.5682
#
#
#
# Elastic Compliance Matrix: (Units=1/GPa)
#
#
# Indices 1 2 3 4 5 6 
#
# 1 0.015360 -0.015838 0.003129 0.005900 -0.002108 -0.029772
# 2 -0.015838 -0.003861 0.003833 0.008477 -0.009161 -0.027815
# 3 0.003129 0.003833 0.013494 0.000034 -0.006081 0.015197
# 4 0.005900 0.008477 0.000034 0.016539 0.005353 0.025581
# 5 -0.002108 -0.009161 -0.006081 0.005353 0.050167 -0.010996
# 6 -0.029772 -0.027815 0.015197 0.025581 -0.010996 -0.039643
#
#
# Mechanical properties :
#
#
# Convention : Reuss Voigt Hill
#
# Bulk Modulus (GPa) = 138.08611 28.80636 83.44624
# Shear Modulus (GPa) = 69.22897 27.11423 48.17160
#
# Velocity S-wave (km/s) = 5.58550 3.49556 4.65922
# Velocity P-wave (km/s) = 10.18946 5.41049 8.15777
#
# Compressibility (1/GPa) = 0.00724186
#
# Stress axis : x y z
#
# Youngs Moduli (GPa) = 65.10244 -259.01950 74.10450
#
# Poissons Ratio (x) = -4.10226 -0.23184
# Poissons Ratio (y) = 1.03107 -0.28404
# Poissons Ratio (z) = -0.20368 0.99281
#
# Static dielectric constant tensor:
#      x y z
#    x 1.826020 -0.015890 0.011330 
#    y -0.015890 1.842060 -0.026000 
#    z 0.011330 -0.026000 1.821450 
# 
# From -- ./inp_files/328303.got.cif
#   From: 2010.05.17/outbox.cif.g08.bks.cpg/sg2_165_cif.got.tgz:328303.got - 2010.06.03 11:33:40.
