data_PCOD9005085
_publ_section_title
;
Structure prediction by ZEFSAII (Michael W. Deem and Ramdas Pophale) SiO2 
 PCOD9005085
Probable space group: P -1
;
_chemical_formula_sum "Si O2"
_cell_formula_units_Z 14
_cell_length_a 11.269428
_cell_length_b 9.680659
_cell_length_c 9.384699
_cell_angle_alpha 125.266679
_cell_angle_beta 69.948901
_cell_angle_gamma 72.685584
_cell_volume 599.329382
_symmetry_space_group_name_H-M "P -1"
_symmetry_group_IT_number 2
_symmetry_cell_setting 'triclinic'
loop_
_space_group_symop_operation_xyz
x,y,z
-x,-y,-z
loop_
_atom_site_type_symbol
_atom_site_label
_atom_site_fract_x
_atom_site_fract_y
_atom_site_fract_z
Si Si1 0.575109 0.594839 0.104531
Si Si2 0.038891 0.797677 0.950561
Si Si3 0.654966 0.973521 0.976723
Si Si4 0.506335 0.977879 0.656740
Si Si5 0.035203 0.655198 0.150527
Si Si6 0.405320 0.585183 0.735677
Si Si7 0.855163 0.644776 0.458137
O O1 0.512601 0.609867 0.299333
O O2 0.505429 0.813845 0.180306
O O3 0.500000 0.500000 0.000000
O O4 0.773523 0.460493 0.960940
O O5 0.228486 0.661665 0.827232
O O6 0.039606 0.619693 0.757763
O O7 0.963110 0.839102 0.165325
O O8 0.000000 0.000000 0.000000
O O9 0.638574 0.979016 0.160116
O O10 0.627114 0.192369 0.075398
O O11 0.805117 0.754251 0.699967
O O12 0.500000 0.000000 0.000000
O O13 0.682172 0.762542 0.513892
O O14 0.500000 0.000000 0.500000
O O15 0.943587 0.716714 0.375006
O O16 0.000000 0.500000 0.000000
O O17 0.500000 0.500000 0.500000
#
# Coordination Sequence:
#
# PCOD9005085 Si02
#       7
#     2   2   2   2   2   2   2
#     4  11  23  40  64  98 132 167 217 276 331 387
#     4  10  22  40  63  92 125 167 219 271 324 384
#     4  10  21  38  60  90 127 165 208 262 322 382
#     4  11  21  38  65  94 126 174 219 260 322 402
#     4   9  20  41  66  93 131 177 223 267 325 407
#     4  11  22  41  64  91 128 169 216 269 320 389
#     4  10  21  42  64  90 126 169 216 271 322 385
#
# _framework density 23.359442000000001
#
# number of rings (size 3 to 8) (size 9 to 14) (size 15 to 20)
#    0.000    1.714    0.000    6.857    0.000    4.571 
#    0.000   12.143    0.000    0.000    0.000    0.000 
#    0.000    0.000    0.000    0.000    0.000    0.000 
#
# Total GULP energy -78028.087701 kJ/mol
# GULP energy per Si atom -5573.434836 kJ/mol
# Density = 2.330627 g / cm^3
# Si number density = 23.359442 Si / 1000 Ang^3
#
#
#
# Elastic Constant Matrix: (Units=GPa)
#
#
# Indices 1 2 3 4 5 6 
#
# 1 102.5557 20.2543 26.5440 -5.9011 7.5207 -5.8915
# 2 20.2543 176.1307 57.8918 -8.5800 7.9818 18.8969
# 3 26.5440 57.8918 118.5607 -30.0216 -1.9684 7.4933
# 4 -5.9011 -8.5800 -30.0216 56.8425 9.7469 3.6879
# 5 7.5207 7.9818 -1.9684 9.7469 19.0362 -8.4334
# 6 -5.8915 18.8969 7.4933 3.6879 -8.4334 37.7799
#
#
#
# Elastic Compliance Matrix: (Units=1/GPa)
#
#
# Indices 1 2 3 4 5 6 
#
# 1 0.010817 -0.000466 -0.002238 0.000444 -0.003894 0.001451
# 2 -0.000466 0.007571 -0.003233 0.000655 -0.005676 -0.004549
# 3 -0.002238 -0.003233 0.012098 0.005830 -0.000275 -0.001762
# 4 0.000444 0.000655 0.005830 0.023896 -0.015251 -0.007152
# 5 -0.003894 -0.005676 -0.000275 -0.015251 0.073135 0.020100
# 6 0.001451 -0.004549 -0.001762 -0.007152 0.020100 0.034505
#
#
# Mechanical properties :
#
#
# Convention : Reuss Voigt Hill
#
# Bulk Modulus (GPa) = 53.73315 67.40303 60.56809
# Shear Modulus (GPa) = 27.76242 42.23552 34.99897
#
# Velocity S-wave (km/s) = 3.45119 4.25675 3.87496
# Velocity P-wave (km/s) = 6.23968 7.28542 6.78273
#
# Compressibility (1/GPa) = 0.01861049
#
# Stress axis : x y z
#
# Youngs Moduli (GPa) = 92.45093 132.08024 82.66131
#
# Poissons Ratio (x) = 0.06152 0.18501
# Poissons Ratio (y) = 0.04306 0.26728
# Poissons Ratio (z) = 0.20692 0.42708
#
# Static dielectric constant tensor:
#      x y z
#    x 1.860100 -0.442280 0.018160 
#    y -0.442280 1.459450 -0.496030 
#    z 0.018160 -0.496030 2.001980 
# 
# From -- ./inp_files/245299.got.cif
#   From: 2010.05.17/outbox.cif.g08.bks.cpg/sg2_123_cif.got.tgz:245299.got - 2010.06.03 11:33:40.
