data_PCOD9005718
_publ_section_title
;
Structure prediction by ZEFSAII (Michael W. Deem and Ramdas Pophale) SiO2 
 PCOD9005718
Probable space group: P -1
;
_chemical_formula_sum "Si O2"
_cell_formula_units_Z 14
_cell_length_a 8.258687
_cell_length_b 12.783814
_cell_length_c 11.847528
_cell_angle_alpha 144.948219
_cell_angle_beta 89.208665
_cell_angle_gamma 71.417939
_cell_volume 587.887623
_symmetry_space_group_name_H-M "P -1"
_symmetry_group_IT_number 2
_symmetry_cell_setting 'triclinic'
loop_
_space_group_symop_operation_xyz
x,y,z
-x,-y,-z
loop_
_atom_site_type_symbol
_atom_site_label
_atom_site_fract_x
_atom_site_fract_y
_atom_site_fract_z
Si Si1 0.315064 0.125674 0.029602
Si Si2 0.788036 0.681489 0.220209
Si Si3 0.657953 0.437584 0.162929
Si Si4 0.260988 0.769390 0.598534
Si Si5 0.076621 0.743015 0.781225
Si Si6 0.603315 0.682986 0.017152
Si Si7 0.970156 0.172200 0.558204
O O1 0.292908 0.946806 0.808045
O O2 0.345228 0.255050 0.046803
O O3 0.110635 0.269275 0.228104
O O4 0.500000 0.000000 0.000000
O O5 0.709705 0.562363 0.186289
O O6 0.845265 0.810286 0.415200
O O7 0.636440 0.803865 0.225617
O O8 0.000000 0.500000 0.000000
O O9 0.457075 0.604040 0.380436
O O10 0.820859 0.334201 0.167187
O O11 0.605961 0.284008 0.962571
O O12 0.225095 0.642932 0.585469
O O13 0.077496 0.878559 0.609336
O O14 0.000000 0.000000 0.000000
O O15 0.770600 0.419404 0.803687
O O16 0.000000 0.000000 0.500000
#
# Coordination Sequence:
#
# PCOD9005718 Si02
#       7
#     2   2   2   2   2   2   2
#     4  11  23  43  67  95 126 166 213 259 316 385
#     4  10  21  39  63  90 121 166 210 253 309 375
#     4  11  22  41  64  94 129 166 212 264 315 371
#     4  10  23  41  61  94 130 166 209 265 315 369
#     4  10  21  38  63  91 124 168 210 255 314 378
#     4  10  21  39  63  92 125 165 210 258 310 375
#     4  10  21  39  62  90 124 163 209 262 313 365
#
# _framework density 23.814074999999999
#
# number of rings (size 3 to 8) (size 9 to 14) (size 15 to 20)
#    0.000    1.714    0.000    5.143    0.000    5.714 
#    0.000   16.429    0.000    0.000    0.000    0.000 
#    0.000    0.000    0.000    0.000    0.000    0.000 
#
# Total GULP energy -78310.693420 kJ/mol
# GULP energy per Si atom -5593.620959 kJ/mol
# Density = 2.375987 g / cm^3
# Si number density = 23.814075 Si / 1000 Ang^3
#
#
#
# Elastic Constant Matrix: (Units=GPa)
#
#
# Indices 1 2 3 4 5 6 
#
# 1 204.2187 81.6364 32.3132 -13.5827 13.9510 -4.2315
# 2 81.6364 174.5154 13.5844 -8.8202 4.4891 -3.1357
# 3 32.3132 13.5844 66.5345 -16.8541 8.8262 -10.4089
# 4 -13.5827 -8.8202 -16.8541 33.3835 -4.3259 4.5432
# 5 13.9510 4.4891 8.8262 -4.3259 40.3752 -7.6044
# 6 -4.2315 -3.1357 -10.4089 4.5432 -7.6044 57.3451
#
#
#
# Elastic Compliance Matrix: (Units=1/GPa)
#
#
# Indices 1 2 3 4 5 6 
#
# 1 0.006514 -0.002806 -0.002298 0.000608 -0.001433 -0.000328
# 2 -0.002806 0.007071 0.000111 0.000795 0.000277 0.000173
# 3 -0.002298 0.000111 0.018784 0.007996 -0.002027 0.002344
# 4 0.000608 0.000795 0.007996 0.034781 0.001488 -0.001018
# 5 -0.001433 0.000277 -0.002027 0.001488 0.026385 0.002922
# 6 -0.000328 0.000173 0.002344 -0.001018 0.002922 0.018317
#
#
# Mechanical properties :
#
#
# Convention : Reuss Voigt Hill
#
# Bulk Modulus (GPa) = 44.67880 77.81517 61.24699
# Shear Modulus (GPa) = 38.67035 47.40306 43.03671
#
# Velocity S-wave (km/s) = 4.03407 4.46640 4.25572
# Velocity P-wave (km/s) = 6.36400 7.70359 7.06561
#
# Compressibility (1/GPa) = 0.02238198
#
# Stress axis : x y z
#
# Youngs Moduli (GPa) = 153.52292 141.43269 53.23646
#
# Poissons Ratio (x) = 0.39693 0.12232
# Poissons Ratio (y) = 0.43086 -0.00591
# Poissons Ratio (z) = 0.35275 -0.01571
#
# Static dielectric constant tensor:
#      x y z
#    x 1.907430 -0.038710 -0.009000 
#    y -0.038710 1.908980 -0.122740 
#    z -0.009000 -0.122740 2.242310 
# 
# From -- ./inp_files/391616.got.cif
#   From: 2010.05.17/outbox.cif.g08.bks.cpg/sg2_196_cif.got.tgz:391616.got - 2010.06.03 11:33:40.
