data_PCOD9005697
_publ_section_title
;
Structure prediction by ZEFSAII (Michael W. Deem and Ramdas Pophale) SiO2 
 PCOD9005697
Probable space group: P -1
;
_chemical_formula_sum "Si O2"
_cell_formula_units_Z 12
_cell_length_a 10.962462
_cell_length_b 9.623781
_cell_length_c 9.991709
_cell_angle_alpha 135.918996
_cell_angle_beta 53.746180
_cell_angle_gamma 95.885425
_cell_volume 484.048046
_symmetry_space_group_name_H-M "P -1"
_symmetry_group_IT_number 2
_symmetry_cell_setting 'triclinic'
loop_
_space_group_symop_operation_xyz
x,y,z
-x,-y,-z
loop_
_atom_site_type_symbol
_atom_site_label
_atom_site_fract_x
_atom_site_fract_y
_atom_site_fract_z
Si Si1 0.558359 0.608969 0.868217
Si Si2 0.091512 0.118747 0.449777
Si Si3 0.686258 0.537581 0.033248
Si Si4 0.192825 0.225661 0.197015
Si Si5 0.188152 0.234889 0.718811
Si Si6 0.175351 0.958088 0.780935
O O1 0.572688 0.637649 0.039104
O O2 0.647403 0.739887 0.840242
O O3 0.694644 0.325650 0.537453
O O4 0.366360 0.636919 0.988412
O O5 0.169148 0.073046 0.219391
O O6 0.229778 0.117925 0.464760
O O7 0.899165 0.391652 0.750891
O O8 0.000000 0.000000 0.500000
O O9 0.662782 0.730923 0.288998
O O10 0.241020 0.078296 0.925500
O O11 0.000000 0.500000 0.500000
O O12 0.142900 0.094416 0.755730
O O13 0.000000 0.500000 0.000000
O O14 0.000000 0.000000 0.000000
#
# Coordination Sequence:
#
# PCOD9005697 Si02
#       6
#     2   2   2   2   2   2
#     4  11  23  39  66  94 131 159 213 271 314 363
#     4  11  22  41  67  92 126 170 213 253 317 390
#     4  10  21  42  61  95 129 165 205 269 320 361
#     4  12  21  42  65  94 125 164 216 266 305 369
#     4  10  21  38  63  90 125 167 206 256 313 379
#     4  12  22  37  68  97 117 166 224 258 306 378
#
# _framework density 24.790925999999999
#
# number of rings (size 3 to 8) (size 9 to 14) (size 15 to 20)
#    0.000    1.000    5.000    3.000    0.000    0.667 
#    3.000    1.667    0.000    0.000    0.000    0.000 
#    0.000    0.000    0.000    0.000    0.000    0.000 
#
# Total GULP energy -67039.797197 kJ/mol
# GULP energy per Si atom -5586.649766 kJ/mol
# Density = 2.473450 g / cm^3
# Si number density = 24.790926 Si / 1000 Ang^3
#
#
#
# Elastic Constant Matrix: (Units=GPa)
#
#
# Indices 1 2 3 4 5 6 
#
# 1 125.3148 41.4830 21.8480 -7.0362 17.4005 12.3428
# 2 41.4830 139.5903 17.8674 -6.2123 1.7851 3.1187
# 3 21.8480 17.8674 80.2457 -10.1403 4.9423 6.0112
# 4 -7.0362 -6.2123 -10.1403 34.2668 7.8556 4.3460
# 5 17.4005 1.7851 4.9423 7.8556 29.5655 -3.8867
# 6 12.3428 3.1187 6.0112 4.3460 -3.8867 54.3133
#
#
#
# Elastic Compliance Matrix: (Units=1/GPa)
#
#
# Indices 1 2 3 4 5 6 
#
# 1 0.010528 -0.002673 -0.001200 0.003313 -0.007093 -0.002879
# 2 -0.002673 0.008092 -0.001145 0.000249 0.001254 0.000339
# 3 -0.001200 -0.001145 0.013943 0.004588 -0.003009 -0.001787
# 4 0.003313 0.000249 0.004588 0.034790 -0.012628 -0.004963
# 5 -0.007093 0.001254 -0.003009 -0.012628 0.042560 0.005929
# 6 -0.002879 0.000339 -0.001787 -0.004963 0.005929 0.020066
#
#
# Mechanical properties :
#
#
# Convention : Reuss Voigt Hill
#
# Bulk Modulus (GPa) = 44.39180 56.39418 50.39299
# Shear Modulus (GPa) = 33.89268 41.22595 37.55931
#
# Velocity S-wave (km/s) = 3.70150 4.08235 3.89658
# Velocity P-wave (km/s) = 6.01776 6.70955 6.37305
#
# Compressibility (1/GPa) = 0.02252668
#
# Stress axis : x y z
#
# Youngs Moduli (GPa) = 94.98100 123.57684 71.72296
#
# Poissons Ratio (x) = 0.33028 0.08608
# Poissons Ratio (y) = 0.25385 0.08215
# Poissons Ratio (z) = 0.11399 0.14154
#
# Static dielectric constant tensor:
#      x y z
#    x 2.035490 0.045280 -0.080880 
#    y 0.045280 1.984710 0.091220 
#    z -0.080880 0.091220 2.136250 
# 
# From -- ./inp_files/526956.got.cif
#   From: 2010.05.17/outbox.cif.g08.bks.cpg/sg2_264_cif.got.tgz:526956.got - 2010.06.03 11:33:40.
