data_PCOD9005745
_publ_section_title
;
Structure prediction by ZEFSAII (Michael W. Deem and Ramdas Pophale) SiO2 
 PCOD9005745
Probable space group: P -1
;
_chemical_formula_sum "Si O2"
_cell_formula_units_Z 14
_cell_length_a 19.214624
_cell_length_b 9.408808
_cell_length_c 9.118835
_cell_angle_alpha 77.541582
_cell_angle_beta 29.362115
_cell_angle_gamma 58.695672
_cell_volume 569.401918
_symmetry_space_group_name_H-M "P -1"
_symmetry_group_IT_number 2
_symmetry_cell_setting 'triclinic'
loop_
_space_group_symop_operation_xyz
x,y,z
-x,-y,-z
loop_
_atom_site_type_symbol
_atom_site_label
_atom_site_fract_x
_atom_site_fract_y
_atom_site_fract_z
Si Si1 0.257315 0.153359 0.493161
Si Si2 0.860754 0.268017 0.294589
Si Si3 0.825183 0.300573 0.670279
Si Si4 0.628838 0.269508 0.254651
Si Si5 0.592937 0.235715 0.643648
Si Si6 0.363171 0.308288 0.502298
Si Si7 0.001875 0.478163 0.328142
O O1 0.351879 0.178072 0.446255
O O2 0.173512 0.312932 0.481000
O O3 0.396539 0.919605 0.248565
O O4 0.062024 0.206309 0.898890
O O5 0.853035 0.205647 0.483981
O O6 0.776168 0.209787 0.351659
O O7 0.703506 0.510678 0.517840
O O8 0.978993 0.322490 0.381913
O O9 0.820692 0.207807 0.845783
O O10 0.609431 0.532964 0.015055
O O11 0.500000 0.500000 0.500000
O O12 0.625157 0.174921 0.426891
O O13 0.544728 0.237084 0.279884
O O14 0.197379 0.399280 0.910873
O O15 0.000000 0.500000 0.500000
#
# Coordination Sequence:
#
# PCOD9005745 Si02
#       7
#     2   2   2   2   2   2   2
#     4  11  24  41  61  95 129 163 197 259 323 360
#     4  11  20  41  64  88 121 171 211 242 299 388
#     4  11  21  39  65  93 116 165 218 250 292 371
#     4  10  21  38  63  92 122 168 208 250 299 372
#     4  11  24  39  63  93 130 160 203 259 317 355
#     4  11  20  42  65  87 125 169 211 240 305 383
#     4  11  22  38  66  93 122 162 212 252 301 373
#
# _framework density 24.587199999999999
#
# number of rings (size 3 to 8) (size 9 to 14) (size 15 to 20)
#    0.000    1.143    5.714    3.429    2.000    1.143 
#    0.000    2.143    0.000    0.000    0.000    0.000 
#    0.000    0.000    0.000    0.000    0.000    0.000 
#
# Total GULP energy -78275.334516 kJ/mol
# GULP energy per Si atom -5591.095323 kJ/mol
# Density = 2.453124 g / cm^3
# Si number density = 24.587200 Si / 1000 Ang^3
#
#
#
# Elastic Constant Matrix: (Units=GPa)
#
#
# Indices 1 2 3 4 5 6 
#
# 1 118.6658 25.8568 16.9322 -6.9436 8.9923 2.6838
# 2 25.8568 61.0250 14.0297 -13.1548 -11.3262 1.9219
# 3 16.9322 14.0297 58.3797 -17.5769 28.3457 -10.5058
# 4 -6.9436 -13.1548 -17.5769 31.6400 -2.1029 3.0659
# 5 8.9923 -11.3262 28.3457 -2.1029 41.4930 -20.9161
# 6 2.6838 1.9219 -10.5058 3.0659 -20.9161 32.8361
#
#
#
# Elastic Compliance Matrix: (Units=1/GPa)
#
#
# Indices 1 2 3 4 5 6 
#
# 1 0.010103 -0.005439 0.000838 0.000418 -0.006430 -0.004375
# 2 -0.005439 0.025854 -0.012313 0.003329 0.020820 0.007943
# 3 0.000838 -0.012313 0.039865 0.015888 -0.035293 -0.010558
# 4 0.000418 0.003329 0.015888 0.041763 -0.010956 -0.006024
# 5 -0.006430 0.020820 -0.035293 -0.010956 0.072479 0.035206
# 6 -0.004375 0.007943 -0.010558 -0.006024 0.035206 0.049957
#
#
# Mechanical properties :
#
#
# Convention : Reuss Voigt Hill
#
# Bulk Modulus (GPa) = 23.81317 39.07866 31.44592
# Shear Modulus (GPa) = 17.37022 33.27727 25.32374
#
# Velocity S-wave (km/s) = 2.66084 3.68290 3.21277
# Velocity P-wave (km/s) = 4.37565 5.83210 5.15557
#
# Compressibility (1/GPa) = 0.04199357
#
# Stress axis : x y z
#
# Youngs Moduli (GPa) = 98.97718 38.67898 25.08452
#
# Poissons Ratio (x) = 0.21038 -0.02101
# Poissons Ratio (y) = 0.53835 0.30886
# Poissons Ratio (z) = -0.08290 0.47625
#
# Static dielectric constant tensor:
#      x y z
#    x 1.988620 -0.034840 -0.015700 
#    y -0.034840 2.005450 0.038880 
#    z -0.015700 0.038880 1.982900 
# 
# From -- ./inp_files/157953.got.cif
#   From: 2010.05.17/outbox.cif.g08.bks.cpg/sg2_79_cif.got.tgz:157953.got - 2010.06.03 11:33:40.
