data_PCOD9005289
_publ_section_title
;
Structure prediction by ZEFSAII (Michael W. Deem and Ramdas Pophale) SiO2 
 PCOD9005289
Probable space group: P -1
;
_chemical_formula_sum "Si O2"
_cell_formula_units_Z 16
_cell_length_a 14.934693
_cell_length_b 15.299263
_cell_length_c 8.904273
_cell_angle_alpha 110.065665
_cell_angle_beta 98.125908
_cell_angle_gamma 142.494141
_cell_volume 803.708029
_symmetry_space_group_name_H-M "P -1"
_symmetry_group_IT_number 2
_symmetry_cell_setting 'triclinic'
loop_
_space_group_symop_operation_xyz
x,y,z
-x,-y,-z
loop_
_atom_site_type_symbol
_atom_site_label
_atom_site_fract_x
_atom_site_fract_y
_atom_site_fract_z
Si Si1 0.650790 0.510500 0.941373
Si Si2 0.252554 0.231882 0.691273
Si Si3 0.217198 0.872379 0.119297
Si Si4 0.991957 0.844277 0.965376
Si Si5 0.389142 0.804452 0.420383
Si Si6 0.036948 0.534567 0.707387
Si Si7 0.733106 0.721435 0.611197
Si Si8 0.141628 0.470294 0.910912
O O1 0.393303 0.268026 0.739489
O O2 0.769475 0.550356 0.104671
O O3 0.688528 0.651383 0.083364
O O4 0.783632 0.624973 0.887354
O O5 0.305453 0.328309 0.602309
O O6 0.000000 0.000000 0.500000
O O7 0.129650 0.879172 0.012200
O O8 0.451649 0.100912 0.376121
O O9 0.197200 0.762410 0.945430
O O10 0.067193 0.723340 0.145155
O O11 0.142984 0.064768 0.205130
O O12 0.893306 0.795048 0.762664
O O13 0.182436 0.641133 0.367628
O O14 0.318276 0.680007 0.185992
O O15 0.500000 0.000000 0.500000
O O16 0.000000 0.500000 0.500000
O O17 0.104882 0.498936 0.773686
O O18 0.500000 0.500000 0.500000
#
# Coordination Sequence:
#
# PCOD9005289 Si02
#       8
#     2   2   2   2   2   2   2   2
#     4  10  22  37  60  89 119 152 206 245 288 359
#     4  11  22  39  59  86 120 158 194 243 303 349
#     4  10  21  39  62  89 119 157 207 241 286 362
#     4  10  22  37  60  92 115 157 206 244 292 355
#     4  11  19  38  65  85 113 161 203 239 287 352
#     4  11  23  39  60  90 129 151 188 252 304 348
#     4  11  22  38  61  84 121 157 195 249 300 347
#     4  10  21  38  61  91 117 157 204 244 290 353
#
# _framework density 19.907727000000001
#
# number of rings (size 3 to 8) (size 9 to 14) (size 15 to 20)
#    0.000    1.500    5.000    0.750    1.750    2.500 
#    0.000    1.250    0.000    0.000    0.000    0.000 
#    0.000    0.000    0.000    0.000    0.000    0.000 
#
# Total GULP energy -89188.421872 kJ/mol
# GULP energy per Si atom -5574.276367 kJ/mol
# Density = 1.986242 g / cm^3
# Si number density = 19.907727 Si / 1000 Ang^3
#
#
#
# Elastic Constant Matrix: (Units=GPa)
#
#
# Indices 1 2 3 4 5 6 
#
# 1 67.9230 11.1509 16.3731 -10.5633 33.3498 -8.5913
# 2 11.1509 48.9622 13.9561 -8.6452 7.2899 0.7570
# 3 16.3731 13.9561 90.9890 -11.3325 26.1547 1.4543
# 4 -10.5633 -8.6452 -11.3325 41.9842 -2.5632 9.2129
# 5 33.3498 7.2899 26.1547 -2.5632 34.7834 -5.5208
# 6 -8.5913 0.7570 1.4543 9.2129 -5.5208 29.6279
#
#
#
# Elastic Compliance Matrix: (Units=1/GPa)
#
#
# Indices 1 2 3 4 5 6 
#
# 1 0.030797 -0.002503 0.004838 0.006409 -0.032043 0.000793
# 2 -0.002503 0.022474 -0.002262 0.003900 -0.000725 -0.002537
# 3 0.004838 -0.002262 0.015828 0.004877 -0.016322 -0.003874
# 4 0.006409 0.003900 0.004877 0.028994 -0.009978 -0.009356
# 5 -0.032043 -0.000725 -0.016322 -0.009978 0.072452 0.008131
# 6 0.000793 -0.002537 -0.003874 -0.009356 0.008131 0.038661
#
#
# Mechanical properties :
#
#
# Convention : Reuss Voigt Hill
#
# Bulk Modulus (GPa) = 14.44124 32.31495 23.37810
# Shear Modulus (GPa) = 21.53850 32.37204 26.95527
#
# Velocity S-wave (km/s) = 3.29282 4.03687 3.68368
# Velocity P-wave (km/s) = 4.66119 6.16409 5.46456
#
# Compressibility (1/GPa) = 0.06924613
#
# Stress axis : x y z
#
# Youngs Moduli (GPa) = 32.47049 44.49490 63.18028
#
# Poissons Ratio (x) = 0.11136 -0.30569
# Poissons Ratio (y) = 0.08127 0.14293
# Poissons Ratio (z) = -0.15711 0.10066
#
# Static dielectric constant tensor:
#      x y z
#    x 1.779620 -0.005130 0.011050 
#    y -0.005130 1.735490 0.074240 
#    z 0.011050 0.074240 1.920700 
# 
# From -- ./inp_files/116320.got.cif
#   From: 2010.05.17/outbox.cif.g08.bks.cpg/sg2_59_cif.got.tgz:116320.got - 2010.06.03 11:33:40.
