data_PCOD9005230
_publ_section_title
;
Structure prediction by ZEFSAII (Michael W. Deem and Ramdas Pophale) SiO2 
 PCOD9005230
Probable space group: P -1
;
_chemical_formula_sum "Si O2"
_cell_formula_units_Z 16
_cell_length_a 16.969860
_cell_length_b 8.494562
_cell_length_c 8.611201
_cell_angle_alpha 49.688778
_cell_angle_beta 66.777369
_cell_angle_gamma 97.089223
_cell_volume 732.059792
_symmetry_space_group_name_H-M "P -1"
_symmetry_group_IT_number 2
_symmetry_cell_setting 'triclinic'
loop_
_space_group_symop_operation_xyz
x,y,z
-x,-y,-z
loop_
_atom_site_type_symbol
_atom_site_label
_atom_site_fract_x
_atom_site_fract_y
_atom_site_fract_z
Si Si1 0.554166 0.340758 0.237378
Si Si2 0.641126 0.072995 0.206485
Si Si3 0.153664 0.581329 0.683947
Si Si4 0.020651 0.968753 0.822890
Si Si5 0.469039 0.238351 0.021385
Si Si6 0.996591 0.620309 0.585897
Si Si7 0.345394 0.729960 0.267637
Si Si8 0.817305 0.153618 0.203069
O O1 0.639827 0.281609 0.178160
O O2 0.491862 0.259652 0.173570
O O3 0.473640 0.161370 0.542257
O O4 0.584498 0.614802 0.068036
O O5 0.719457 0.018374 0.256778
O O6 0.667798 0.169989 0.950047
O O7 0.097307 0.683466 0.560597
O O8 0.235466 0.557257 0.538066
O O9 0.205286 0.764634 0.669719
O O10 0.063972 0.310806 0.978769
O O11 0.129000 0.995163 0.715394
O O12 0.013179 0.155285 0.598324
O O13 0.000000 0.000000 0.000000
O O14 0.405629 0.962886 0.186078
O O15 0.579371 0.361405 0.772194
O O16 0.000000 0.500000 0.500000
O O17 0.900574 0.406607 0.891026
#
# Coordination Sequence:
#
# PCOD9005230 Si02
#       8
#     2   2   2   2   2   2   2   2
#     4   9  19  39  62  87 121 157 200 250 304 357
#     4  10  21  38  61  88 123 159 199 253 301 357
#     4  11  24  41  62  92 128 160 204 253 302 364
#     4  11  23  41  68  90 118 166 201 252 313 358
#     4   9  19  39  62  87 119 160 201 246 305 360
#     4  11  21  43  66  89 124 156 205 257 301 366
#     4  10  21  38  61  88 124 160 199 253 298 357
#     4  11  24  41  62  93 127 160 203 255 304 361
#
# _framework density 21.856138000000001
#
# number of rings (size 3 to 8) (size 9 to 14) (size 15 to 20)
#    0.000    1.750    2.500    3.000    0.000    4.500 
#    9.000    0.000    0.000    0.000    0.000    0.000 
#    0.000    0.000    0.000    0.000    0.000    0.000 
#
# Total GULP energy -89432.054296 kJ/mol
# GULP energy per Si atom -5589.503394 kJ/mol
# Density = 2.180639 g / cm^3
# Si number density = 21.856138 Si / 1000 Ang^3
#
#
#
# Elastic Constant Matrix: (Units=GPa)
#
#
# Indices 1 2 3 4 5 6 
#
# 1 88.8704 5.0293 19.6332 -9.0697 7.3910 -14.5261
# 2 5.0293 47.7951 3.9645 2.2286 11.4547 -2.6933
# 3 19.6332 3.9645 52.8196 12.4998 6.0207 -14.6612
# 4 -9.0697 2.2286 12.4998 33.1944 -12.5853 10.1007
# 5 7.3910 11.4547 6.0207 -12.5853 30.3081 -3.2801
# 6 -14.5261 -2.6933 -14.6612 10.1007 -3.2801 35.3364
#
#
#
# Elastic Compliance Matrix: (Units=1/GPa)
#
#
# Indices 1 2 3 4 5 6 
#
# 1 0.013414 -0.001396 -0.006124 0.006129 0.001150 0.001222
# 2 -0.001396 0.024666 0.003757 -0.009864 -0.013343 0.004446
# 3 -0.006124 0.003757 0.033736 -0.025885 -0.015458 0.017730
# 4 0.006129 -0.009864 -0.025885 0.060775 0.030063 -0.023554
# 5 0.001150 -0.013343 -0.015458 0.030063 0.052152 -0.010710
# 6 0.001222 0.004446 0.017730 -0.023554 -0.010710 0.042235
#
#
# Mechanical properties :
#
#
# Convention : Reuss Voigt Hill
#
# Bulk Modulus (GPa) = 15.55461 27.41546 21.48504
# Shear Modulus (GPa) = 19.53635 30.49162 25.01399
#
# Velocity S-wave (km/s) = 2.99299 3.73916 3.38669
# Velocity P-wave (km/s) = 4.36764 5.58683 5.01442
#
# Compressibility (1/GPa) = 0.06428962
#
# Stress axis : x y z
#
# Youngs Moduli (GPa) = 74.55059 40.54131 29.64234
#
# Poissons Ratio (x) = 0.05660 0.18152
# Poissons Ratio (y) = 0.10408 -0.11136
# Poissons Ratio (z) = 0.45651 -0.15230
#
# Static dielectric constant tensor:
#      x y z
#    x 1.808340 -0.014400 0.000130 
#    y -0.014400 1.800110 -0.000520 
#    z 0.000130 -0.000520 1.813970 
# 
# From -- ./inp_files/202293.got.cif
#   From: 2010.05.17/outbox.cif.g08.bks.cpg/sg2_102_cif.got.tgz:202293.got - 2010.06.03 11:33:40.
