data_PCOD9005517
_publ_section_title
;
Structure prediction by ZEFSAII (Michael W. Deem and Ramdas Pophale) SiO2 
 PCOD9005517
Probable space group: P -1
;
_chemical_formula_sum "Si O2"
_cell_formula_units_Z 14
_cell_length_a 8.497449
_cell_length_b 11.655785
_cell_length_c 6.885325
_cell_angle_alpha 73.660559
_cell_angle_beta 80.272305
_cell_angle_gamma 99.381283
_cell_volume 628.817982
_symmetry_space_group_name_H-M "P -1"
_symmetry_group_IT_number 2
_symmetry_cell_setting 'triclinic'
loop_
_space_group_symop_operation_xyz
x,y,z
-x,-y,-z
loop_
_atom_site_type_symbol
_atom_site_label
_atom_site_fract_x
_atom_site_fract_y
_atom_site_fract_z
Si Si1 0.903695 0.805181 0.643761
Si Si2 0.922483 0.038933 0.803694
Si Si3 0.325665 0.391075 0.737629
Si Si4 0.977886 0.357328 0.009173
Si Si5 0.696654 0.204470 0.867860
Si Si6 0.589962 0.335249 0.479330
Si Si7 0.538496 0.699715 0.889476
O O1 0.717142 0.732136 0.741017
O O2 0.966757 0.849238 0.396044
O O3 0.020266 0.726508 0.760404
O O4 0.901983 0.925045 0.716865
O O5 0.761150 0.082184 0.885300
O O6 0.000000 0.000000 0.000000
O O7 0.405459 0.310161 0.614394
O O8 0.336273 0.520932 0.571710
O O9 0.443310 0.399436 0.900872
O O10 0.142902 0.343982 0.869567
O O11 0.829561 0.301715 0.921311
O O12 0.000000 0.500000 0.000000
O O13 0.680729 0.256375 0.631278
O O14 0.526211 0.198237 0.019886
O O15 0.583964 0.324443 0.255106
#
# Coordination Sequence:
#
# PCOD9005517 Si02
#       7
#     2   2   2   2   2   2   2
#     4  10  25  44  69  95 126 180 213 263 332 379
#     4  11  24  46  70  92 131 170 223 270 319 386
#     4   9  21  38  59  91 130 182 212 252 325 388
#     4  11  23  41  66  99 136 163 218 274 323 386
#     4  11  25  39  66  99 130 169 219 270 320 380
#     4  10  21  38  62  91 136 173 215 258 323 388
#     4  10  22  41  63  94 131 167 215 268 319 386
#
# _framework density 22.263997
#
# number of rings (size 3 to 8) (size 9 to 14) (size 15 to 20)
#    0.000    1.714    1.429    1.286    6.000    8.000 
#    0.000    1.429    0.000    0.000    0.000    0.000 
#    0.000    0.000    0.000    0.000    0.000    0.000 
#
# Total GULP energy -78112.896540 kJ/mol
# GULP energy per Si atom -5579.492610 kJ/mol
# Density = 2.221332 g / cm^3
# Si number density = 22.263997 Si / 1000 Ang^3
#
#
#
# Elastic Constant Matrix: (Units=GPa)
#
#
# Indices 1 2 3 4 5 6 
#
# 1 64.6001 3.6079 33.3218 -0.6362 16.2055 -16.2371
# 2 3.6079 56.2341 12.9335 3.3990 22.2141 -18.4689
# 3 33.3218 12.9335 127.7093 -0.3047 17.8290 -12.4377
# 4 -0.6362 3.3990 -0.3047 35.5773 -7.6651 3.3632
# 5 16.2055 22.2141 17.8290 -7.6651 46.0128 -2.9620
# 6 -16.2371 -18.4689 -12.4377 3.3632 -2.9620 34.7633
#
#
#
# Elastic Compliance Matrix: (Units=1/GPa)
#
#
# Indices 1 2 3 4 5 6 
#
# 1 0.022920 0.007960 -0.004121 -0.003791 -0.010116 0.012965
# 2 0.007960 0.031381 -0.000907 -0.008525 -0.017775 0.019376
# 3 -0.004121 -0.000907 0.009317 -0.000357 -0.001728 0.000814
# 4 -0.003791 -0.008525 -0.000357 0.031897 0.010347 -0.008632
# 5 -0.010116 -0.017775 -0.001728 0.010347 0.035449 -0.012767
# 6 0.012965 0.019376 0.000814 -0.008632 -0.012767 0.045154
#
#
# Mechanical properties :
#
#
# Convention : Reuss Voigt Hill
#
# Bulk Modulus (GPa) = 14.39176 38.69665 26.54421
# Shear Modulus (GPa) = 25.85139 36.51601 31.18370
#
# Velocity S-wave (km/s) = 3.41123 4.05425 3.74656
# Velocity P-wave (km/s) = 4.68972 6.27172 5.53751
#
# Compressibility (1/GPa) = 0.06948419
#
# Stress axis : x y z
#
# Youngs Moduli (GPa) = 43.63061 31.86597 107.33132
#
# Poissons Ratio (x) = -0.25367 0.44226
# Poissons Ratio (y) = -0.34732 0.09733
# Poissons Ratio (z) = 0.17978 0.02890
#
# Static dielectric constant tensor:
#      x y z
#    x 1.857570 0.030390 -0.019910 
#    y 0.030390 1.846220 0.010390 
#    z -0.019910 0.010390 1.825770 
# 
# From -- ./inp_files/26817.got.cif
#   From: 2010.05.17/outbox.cif.g08.bks.cpg/sg2_14_cif.got.tgz:26817.got - 2010.06.03 11:33:40.
