data_PCOD9005402
_publ_section_title
;
Structure prediction by ZEFSAII (Michael W. Deem and Ramdas Pophale) SiO2 
 PCOD9005402
Probable space group: P -1
;
_chemical_formula_sum "Si O2"
_cell_formula_units_Z 14
_cell_length_a 9.703888
_cell_length_b 19.242525
_cell_length_c 7.581086
_cell_angle_alpha 54.960457
_cell_angle_beta 84.312732
_cell_angle_gamma 130.917015
_cell_volume 560.959546
_symmetry_space_group_name_H-M "P -1"
_symmetry_group_IT_number 2
_symmetry_cell_setting 'triclinic'
loop_
_space_group_symop_operation_xyz
x,y,z
-x,-y,-z
loop_
_atom_site_type_symbol
_atom_site_label
_atom_site_fract_x
_atom_site_fract_y
_atom_site_fract_z
Si Si1 0.969074 0.617662 0.351252
Si Si2 0.100590 0.308405 0.209804
Si Si3 0.625404 0.153584 0.344868
Si Si4 0.496284 0.350297 0.549648
Si Si5 0.463114 0.812877 0.217978
Si Si6 0.019533 0.822236 0.209228
Si Si7 0.157938 0.995513 0.467439
O O1 0.144698 0.669564 0.412332
O O2 0.644996 0.427674 0.612226
O O3 0.010274 0.739572 0.197213
O O4 0.143487 0.685378 0.056049
O O5 0.821042 0.220027 0.376210
O O6 0.135519 0.296329 0.421808
O O7 0.045897 0.194028 0.269455
O O8 0.337735 0.490493 0.817151
O O9 0.367873 0.082134 0.475484
O O10 0.500000 0.000000 0.500000
O O11 0.538797 0.280964 0.561385
O O12 0.168177 0.201180 0.806048
O O13 0.643872 0.899083 0.887280
O O14 0.662783 0.982744 0.056107
O O15 0.000000 0.000000 0.500000
#
# Coordination Sequence:
#
# PCOD9005402 Si02
#       7
#     2   2   2   2   2   2   2
#     4  10  21  38  62  86 115 156 198 236 286 351
#     4   9  20  38  57  82 117 156 190 236 291 345
#     4   8  16  33  56  83 113 151 192 233 283 345
#     4  11  22  39  60  86 119 155 193 242 290 340
#     4  10  22  39  59  87 120 153 192 242 292 344
#     4  11  22  39  61  88 118 154 195 241 290 342
#     4   9  18  34  58  86 116 151 195 240 286 343
#
# _framework density 24.957236999999999
#
# number of rings (size 3 to 8) (size 9 to 14) (size 15 to 20)
#    0.000    2.286    0.000    3.000    0.000    4.571 
#    0.000    3.571    0.000    5.143    0.000    0.000 
#    0.000    0.000    0.000    0.000    0.000    0.000 
#
# Total GULP energy -78253.709934 kJ/mol
# GULP energy per Si atom -5589.550710 kJ/mol
# Density = 2.490043 g / cm^3
# Si number density = 24.957237 Si / 1000 Ang^3
#
#
#
# Elastic Constant Matrix: (Units=GPa)
#
#
# Indices 1 2 3 4 5 6 
#
# 1 166.2920 10.0204 17.8504 -7.3623 -12.6990 31.7669
# 2 10.0204 58.4635 29.0115 -5.3002 -5.9059 14.6472
# 3 17.8504 29.0115 58.0711 -16.8202 8.1277 5.0962
# 4 -7.3623 -5.3002 -16.8202 29.0284 -5.5796 -3.0729
# 5 -12.6990 -5.9059 8.1277 -5.5796 40.6139 -15.3889
# 6 31.7669 14.6472 5.0962 -3.0729 -15.3889 33.9594
#
#
#
# Elastic Compliance Matrix: (Units=1/GPa)
#
#
# Indices 1 2 3 4 5 6 
#
# 1 0.007630 0.001931 -0.002718 0.000013 0.000419 -0.007371
# 2 0.001931 0.026373 -0.014326 -0.003463 0.003056 -0.009960
# 3 -0.002718 -0.014326 0.029573 0.012957 -0.006041 0.002719
# 4 0.000013 -0.003463 0.012957 0.042876 0.004941 0.005656
# 5 0.000419 0.003056 -0.006041 0.004941 0.032537 0.014388
# 6 -0.007371 -0.009960 0.002719 0.005656 0.014388 0.047262
#
#
# Mechanical properties :
#
#
# Convention : Reuss Voigt Hill
#
# Bulk Modulus (GPa) = 29.98510 44.06568 37.02539
# Shear Modulus (GPa) = 21.96919 35.78331 28.87625
#
# Velocity S-wave (km/s) = 2.97016 3.79064 3.40520
# Velocity P-wave (km/s) = 4.87885 6.07070 5.50711
#
# Compressibility (1/GPa) = 0.03334990
#
# Stress axis : x y z
#
# Youngs Moduli (GPa) = 131.06872 37.91797 33.81502
#
# Poissons Ratio (x) = -0.07323 0.09192
# Poissons Ratio (y) = -0.25315 0.48442
# Poissons Ratio (z) = 0.35627 0.54320
#
# Static dielectric constant tensor:
#      x y z
#    x 1.980130 0.027900 -0.021130 
#    y 0.027900 2.010420 0.055330 
#    z -0.021130 0.055330 2.052330 
# 
# From -- ./inp_files/216707.got.cif
#   From: 2010.05.17/outbox.cif.g08.bks.cpg/sg2_109_cif.got.tgz:216707.got - 2010.06.03 11:33:40.
