data_PCOD9005670
_publ_section_title
;
Structure prediction by ZEFSAII (Michael W. Deem and Ramdas Pophale) SiO2 
 PCOD9005670
Probable space group: P -1
;
_chemical_formula_sum "Si O2"
_cell_formula_units_Z 14
_cell_length_a 12.466718
_cell_length_b 9.767898
_cell_length_c 20.700994
_cell_angle_alpha 45.528475
_cell_angle_beta 154.222629
_cell_angle_gamma 141.776843
_cell_volume 678.056407
_symmetry_space_group_name_H-M "P -1"
_symmetry_group_IT_number 2
_symmetry_cell_setting 'triclinic'
loop_
_space_group_symop_operation_xyz
x,y,z
-x,-y,-z
loop_
_atom_site_type_symbol
_atom_site_label
_atom_site_fract_x
_atom_site_fract_y
_atom_site_fract_z
Si Si1 0.243372 0.443872 0.624819
Si Si2 0.840229 0.782165 0.147137
Si Si3 0.804917 0.082659 0.438703
Si Si4 0.458366 0.061637 0.383495
Si Si5 0.771823 0.972561 0.173967
Si Si6 0.675408 0.316493 0.192234
Si Si7 0.834911 0.682415 0.619605
O O1 0.500499 0.691783 0.675738
O O2 0.297470 0.261216 0.751067
O O3 0.000000 0.500000 0.500000
O O4 0.101792 0.313722 0.525189
O O5 0.886213 0.943614 0.177436
O O6 0.737853 0.531577 0.196428
O O7 0.594990 0.756494 0.975328
O O8 0.147829 0.885243 0.248789
O O9 0.671496 0.054083 0.448157
O O10 0.618350 0.117305 0.273853
O O11 0.846852 0.877735 0.518167
O O12 0.500000 0.000000 0.500000
O O13 0.001166 0.182807 0.270544
O O14 0.500000 0.000000 0.000000
O O15 0.951237 0.385739 0.274357
O O16 0.500000 0.500000 0.500000
#
# Coordination Sequence:
#
# PCOD9005670 Si02
#       7
#     2   2   2   2   2   2   2
#     4   9  19  36  63  92 119 165 214 263 319 386
#     4  11  23  39  65  92 130 173 213 268 322 398
#     4  10  21  38  63  88 128 171 211 270 327 385
#     4  11  20  37  63  98 126 162 229 276 319 386
#     4  11  22  44  67  93 134 174 215 268 344 392
#     4  11  23  41  61  94 133 173 216 258 339 390
#     4  11  23  42  67  97 127 170 221 272 322 391
#
# _framework density 20.647248000000001
#
# number of rings (size 3 to 8) (size 9 to 14) (size 15 to 20)
#    0.000    1.429    1.429    6.429    0.000    1.714 
#    2.571    0.714    0.000    0.000    0.000    0.000 
#    0.000    0.000    0.000    0.000    0.000    0.000 
#
# Total GULP energy -77996.973197 kJ/mol
# GULP energy per Si atom -5571.212371 kJ/mol
# Density = 2.060025 g / cm^3
# Si number density = 20.647248 Si / 1000 Ang^3
#
#
#
# Elastic Constant Matrix: (Units=GPa)
#
#
# Indices 1 2 3 4 5 6 
#
# 1 58.8344 11.7823 26.7903 17.2952 -1.6560 -17.3042
# 2 11.7823 109.5656 58.3403 9.5498 0.3337 -9.4427
# 3 26.7903 58.3403 141.9631 -1.2556 11.7561 3.7529
# 4 17.2952 9.5498 -1.2556 36.3107 1.0003 2.3665
# 5 -1.6560 0.3337 11.7561 1.0003 25.2432 2.2326
# 6 -17.3042 -9.4427 3.7529 2.3665 2.2326 30.8656
#
#
#
# Elastic Compliance Matrix: (Units=1/GPa)
#
#
# Indices 1 2 3 4 5 6 
#
# 1 0.032227 0.004954 -0.009286 -0.018535 0.005183 0.021758
# 2 0.004954 0.013637 -0.007061 -0.006801 0.002985 0.008113
# 3 -0.009286 -0.007061 0.012485 0.007461 -0.005827 -0.009035
# 4 -0.018535 -0.006801 0.007461 0.039594 -0.004748 -0.016071
# 5 0.005183 0.002985 -0.005827 -0.004748 0.042657 0.001806
# 6 0.021758 0.008113 -0.009035 -0.016071 0.001806 0.049279
#
#
# Mechanical properties :
#
#
# Convention : Reuss Voigt Hill
#
# Bulk Modulus (GPa) = 28.11849 56.02099 42.06974
# Shear Modulus (GPa) = 22.26976 32.71390 27.49183
#
# Velocity S-wave (km/s) = 3.28774 3.98479 3.65293
# Velocity P-wave (km/s) = 5.29721 6.95434 6.18155
#
# Compressibility (1/GPa) = 0.03556379
#
# Stress axis : x y z
#
# Youngs Moduli (GPa) = 31.02973 73.33091 80.09322
#
# Poissons Ratio (x) = -0.36326 0.74373
# Poissons Ratio (y) = -0.15371 0.56552
# Poissons Ratio (z) = 0.28814 0.51777
#
# Static dielectric constant tensor:
#      x y z
#    x 1.808610 0.003660 -0.004650 
#    y 0.003660 1.767460 -0.000470 
#    z -0.004650 -0.000470 1.745080 
# 
# From -- ./inp_files/260259.got.cif
#   From: 2010.05.17/outbox.cif.g08.bks.cpg/sg2_131_cif.got.tgz:260259.got - 2010.06.03 11:33:40.
