data_PCOD9005401
_publ_section_title
;
Structure prediction by ZEFSAII (Michael W. Deem and Ramdas Pophale) SiO2 
 PCOD9005401
Probable space group: P -1
;
_chemical_formula_sum "Si O2"
_cell_formula_units_Z 16
_cell_length_a 7.635088
_cell_length_b 27.269237
_cell_length_c 9.484673
_cell_angle_alpha 46.286994
_cell_angle_beta 108.249512
_cell_angle_gamma 144.960247
_cell_volume 650.151983
_symmetry_space_group_name_H-M "P -1"
_symmetry_group_IT_number 2
_symmetry_cell_setting 'triclinic'
loop_
_space_group_symop_operation_xyz
x,y,z
-x,-y,-z
loop_
_atom_site_type_symbol
_atom_site_label
_atom_site_fract_x
_atom_site_fract_y
_atom_site_fract_z
Si Si1 0.665078 0.430151 0.969042
Si Si2 0.779132 0.834926 0.963117
Si Si3 0.012224 0.674845 0.587806
Si Si4 0.672555 0.814943 0.655064
Si Si5 0.853935 0.290675 0.781650
Si Si6 0.431533 0.037621 0.298798
Si Si7 0.368008 0.921084 0.264900
Si Si8 0.681752 0.438835 0.624294
O O1 0.765216 0.462926 0.763519
O O2 0.661021 0.508295 0.853711
O O3 0.328161 0.266391 0.219305
O O4 0.000000 0.500000 0.000000
O O5 0.608217 0.799230 0.837348
O O6 0.238091 0.989986 0.765306
O O7 0.528054 0.789303 0.113001
O O8 0.699034 0.727287 0.170453
O O9 0.354523 0.748328 0.613758
O O10 0.116200 0.711049 0.375185
O O11 0.027077 0.756607 0.485484
O O12 0.095697 0.975586 0.401156
O O13 0.224185 0.453107 0.604767
O O14 0.794843 0.201480 0.026552
O O15 0.287236 0.955194 0.284488
O O16 0.500000 0.000000 0.500000
O O17 0.500000 0.000000 0.000000
O O18 0.000000 0.500000 0.500000
#
# Coordination Sequence:
#
# PCOD9005401 Si02
#       8
#     2   2   2   2   2   2   2   2
#     4   8  16  34  58  84 110 140 183 232 281 328
#     4  10  21  38  62  87 111 147 191 233 281 334
#     4  10  21  38  62  86 112 148 189 234 280 335
#     4  10  21  38  62  86 112 148 189 234 280 335
#     4  10  21  38  62  87 111 147 191 233 281 334
#     4  12  25  40  55  81 119 154 191 232 280 332
#     4  12  25  40  55  81 119 154 191 232 280 332
#     4   8  16  34  58  85 110 136 185 239 275 324
#
# _framework density 24.609629000000002
#
# number of rings (size 3 to 8) (size 9 to 14) (size 15 to 20)
#    0.000    2.000    2.500    0.750    3.500    2.000 
#    0.000    2.500    0.000    0.000    0.000    0.000 
#    0.000    0.000    0.000    0.000    0.000    0.000 
#
# Total GULP energy -89344.351152 kJ/mol
# GULP energy per Si atom -5584.021947 kJ/mol
# Density = 2.455362 g / cm^3
# Si number density = 24.609629 Si / 1000 Ang^3
#
#
#
# Elastic Constant Matrix: (Units=GPa)
#
#
# Indices 1 2 3 4 5 6 
#
# 1 57.2301 8.8057 6.8701 -2.2709 4.9813 -8.0775
# 2 8.8057 72.6397 31.9068 -5.1154 18.4858 -15.4862
# 3 6.8701 31.9068 122.2535 -13.4169 35.6308 -21.7462
# 4 -2.2709 -5.1154 -13.4169 50.0539 -10.0216 22.9202
# 5 4.9813 18.4858 35.6308 -10.0216 47.3084 -8.2911
# 6 -8.0775 -15.4862 -21.7462 22.9202 -8.2911 43.1091
#
#
#
# Elastic Compliance Matrix: (Units=1/GPa)
#
#
# Indices 1 2 3 4 5 6 
#
# 1 0.018190 -0.001341 0.000135 -0.001022 -0.001127 0.003321
# 2 -0.001341 0.016989 -0.002492 -0.002072 -0.004203 0.004888
# 3 0.000135 -0.002492 0.011534 -0.000295 -0.007136 0.003733
# 4 -0.001022 -0.002072 -0.000295 0.027260 0.004330 -0.014746
# 5 -0.001127 -0.004203 -0.007136 0.004330 0.028826 -0.002079
# 6 0.003321 0.004888 0.003733 -0.014746 -0.002079 0.034899
#
#
# Mechanical properties :
#
#
# Convention : Reuss Voigt Hill
#
# Bulk Modulus (GPa) = 25.43420 38.58762 32.01091
# Shear Modulus (GPa) = 31.60560 41.73033 36.66797
#
# Velocity S-wave (km/s) = 3.58757 4.12234 3.86422
# Velocity P-wave (km/s) = 5.24580 6.19453 5.73980
#
# Compressibility (1/GPa) = 0.03931714
#
# Stress axis : x y z
#
# Youngs Moduli (GPa) = 54.97584 58.85993 86.70230
#
# Poissons Ratio (x) = 0.07896 -0.01171
# Poissons Ratio (y) = 0.07375 0.21602
# Poissons Ratio (z) = -0.00742 0.14665
#
# Static dielectric constant tensor:
#      x y z
#    x 2.153210 0.031600 0.036680 
#    y 0.031600 1.971890 -0.082220 
#    z 0.036680 -0.082220 2.001410 
# 
# From -- ./inp_files/176645.got.cif
#   From: 2010.05.17/outbox.cif.g08.bks.cpg/sg2_89_cif.got.tgz:176645.got - 2010.06.03 11:33:40.
