data_PCOD9005878
_publ_section_title
;
Structure prediction by ZEFSAII (Michael W. Deem and Ramdas Pophale) SiO2 
 PCOD9005878
Probable space group: P -1
;
_chemical_formula_sum "Si O2"
_cell_formula_units_Z 14
_cell_length_a 14.820280
_cell_length_b 24.113835
_cell_length_c 5.029851
_cell_angle_alpha 73.915804
_cell_angle_beta 72.743894
_cell_angle_gamma 21.690067
_cell_volume 634.435603
_symmetry_space_group_name_H-M "P -1"
_symmetry_group_IT_number 2
_symmetry_cell_setting 'triclinic'
loop_
_space_group_symop_operation_xyz
x,y,z
-x,-y,-z
loop_
_atom_site_type_symbol
_atom_site_label
_atom_site_fract_x
_atom_site_fract_y
_atom_site_fract_z
Si Si1 0.987030 0.828522 0.075978
Si Si2 0.783669 0.357066 0.379587
Si Si3 0.516282 0.835754 0.971720
Si Si4 0.233832 0.509234 0.549294
Si Si5 0.734959 0.214244 0.262942
Si Si6 0.849787 0.645008 0.430049
Si Si7 0.376529 0.786366 0.149262
O O1 0.131085 0.706120 0.907492
O O2 0.095138 0.831150 0.926397
O O3 0.051204 0.773624 0.390083
O O4 0.696577 0.996585 0.055680
O O5 0.500000 0.500000 0.500000
O O6 0.826369 0.399537 0.359191
O O7 0.735942 0.720957 0.140253
O O8 0.397005 0.840909 0.133987
O O9 0.627356 0.766733 0.672639
O O10 0.462592 0.394333 0.306650
O O11 0.354514 0.393280 0.793680
O O12 0.021804 0.599127 0.447537
O O13 0.791144 0.155601 0.578348
O O14 0.707171 0.179615 0.118338
O O15 0.000000 0.500000 0.500000
#
# Coordination Sequence:
#
# PCOD9005878 Si02
#       7
#     2   2   2   2   2   2   2
#     4  12  26  44  65  98 141 177 211 273 344 395
#     4  12  24  44  71  98 132 174 230 272 321 395
#     4  12  26  44  65  98 141 177 211 273 344 395
#     4  10  24  38  70 100 124 168 232 280 318 372
#     4  10  21  38  63  99 127 164 221 271 339 378
#     4  12  24  44  71  98 132 174 230 272 321 395
#     4  10  21  38  63  99 127 164 221 271 339 378
#
# _framework density 22.066856999999999
#
# number of rings (size 3 to 8) (size 9 to 14) (size 15 to 20)
#    0.857    0.000    2.857    5.143    4.000    1.143 
#    0.000    4.286    0.000    0.000    0.000    0.000 
#    0.000    0.000    0.000    0.000    0.000    0.000 
#
# Total GULP energy -78316.691673 kJ/mol
# GULP energy per Si atom -5594.049405 kJ/mol
# Density = 2.201663 g / cm^3
# Si number density = 22.066857 Si / 1000 Ang^3
#
#
#
# Elastic Constant Matrix: (Units=GPa)
#
#
# Indices 1 2 3 4 5 6 
#
# 1 95.8795 12.2544 -19.0937 -8.6032 15.0913 7.7989
# 2 12.2544 96.2343 -8.1033 -0.3940 2.0844 -1.8009
# 3 -19.0937 -8.1033 57.8084 -6.0407 13.4494 0.9857
# 4 -8.6032 -0.3940 -6.0407 47.9766 -0.8696 -12.1152
# 5 15.0913 2.0844 13.4494 -0.8696 33.9936 -0.4244
# 6 7.7989 -1.8009 0.9857 -12.1152 -0.4244 26.0386
#
#
#
# Elastic Compliance Matrix: (Units=1/GPa)
#
#
# Indices 1 2 3 4 5 6 
#
# 1 0.013759 -0.001056 0.006713 0.002252 -0.008686 -0.003542
# 2 -0.001056 0.010675 0.001324 0.000344 -0.000686 0.001153
# 3 0.006713 0.001324 0.022897 0.003542 -0.012046 -0.001334
# 4 0.002252 0.000344 0.003542 0.024318 -0.001669 0.010503
# 5 -0.008686 -0.000686 -0.012046 -0.001669 0.038075 0.002854
# 6 -0.003542 0.001153 -0.001334 0.010503 0.002854 0.044529
#
#
# Mechanical properties :
#
#
# Convention : Reuss Voigt Hill
#
# Bulk Modulus (GPa) = 16.31513 24.44856 20.38185
# Shear Modulus (GPa) = 31.10974 39.25939 35.18457
#
# Velocity S-wave (km/s) = 3.75880 4.22253 3.99739
# Velocity P-wave (km/s) = 5.12324 5.90562 5.52829
#
# Compressibility (1/GPa) = 0.06129280
#
# Stress axis : x y z
#
# Youngs Moduli (GPa) = 72.68030 93.67637 43.67399
#
# Poissons Ratio (x) = 0.09890 -0.29319
# Poissons Ratio (y) = 0.07673 -0.05781
# Poissons Ratio (z) = -0.48791 -0.12399
#
# Static dielectric constant tensor:
#      x y z
#    x 1.763180 -0.008060 -0.027240 
#    y -0.008060 1.873920 0.020180 
#    z -0.027240 0.020180 1.797810 
# 
# From -- ./inp_files/74261.got.cif
#   From: 2010.05.17/outbox.cif.g08.bks.cpg/sg2_38_cif.got.tgz:74261.got - 2010.06.03 11:33:40.
