data_PCOD9005775
_publ_section_title
;
Structure prediction by ZEFSAII (Michael W. Deem and Ramdas Pophale) SiO2 
 PCOD9005775
Probable space group: P -1
;
_chemical_formula_sum "Si O2"
_cell_formula_units_Z 12
_cell_length_a 13.910591
_cell_length_b 7.575810
_cell_length_c 8.199801
_cell_angle_alpha 79.886344
_cell_angle_beta 85.395914
_cell_angle_gamma 34.365692
_cell_volume 476.933418
_symmetry_space_group_name_H-M "P -1"
_symmetry_group_IT_number 2
_symmetry_cell_setting 'triclinic'
loop_
_space_group_symop_operation_xyz
x,y,z
-x,-y,-z
loop_
_atom_site_type_symbol
_atom_site_label
_atom_site_fract_x
_atom_site_fract_y
_atom_site_fract_z
Si Si1 0.571488 0.623376 0.800206
Si Si2 0.840783 0.715764 0.635647
Si Si3 0.495742 0.626517 0.316550
Si Si4 0.103789 0.785615 0.358928
Si Si5 0.793500 0.257010 0.129341
Si Si6 0.806045 0.829675 0.251598
O O1 0.540506 0.458196 0.810445
O O2 0.698413 0.465094 0.655737
O O3 0.374394 0.994135 0.778713
O O4 0.684496 0.505716 0.957549
O O5 0.885253 0.444909 0.626236
O O6 0.806626 0.862006 0.442834
O O7 0.005029 0.545830 0.734323
O O8 0.665589 0.995524 0.711201
O O9 0.500000 0.500000 0.500000
O O10 0.670387 0.454964 0.272841
O O11 0.000000 0.000000 0.500000
O O12 0.979205 0.044769 0.187058
O O13 0.811831 0.013921 0.134309
#
# Coordination Sequence:
#
# PCOD9005775 Si02
#       6
#     2   2   2   2   2   2
#     4  11  22  39  63  88 127 162 197 245 312 358
#     4  10  21  38  63  93 124 147 211 257 289 351
#     4  11  19  38  67  94 114 161 207 248 292 358
#     4  11  25  41  63  89 121 163 204 251 304 354
#     4  10  21  41  61  89 127 160 196 249 306 362
#     4   9  19  36  62  88 119 151 201 248 297 340
#
# _framework density 25.160744000000001
#
# number of rings (size 3 to 8) (size 9 to 14) (size 15 to 20)
#    0.000    1.667    3.333    3.500    4.667    0.667 
#    0.000    8.333    3.667    0.000    0.000    0.000 
#    0.000    0.000    0.000    0.000    0.000    0.000 
#
# Total GULP energy -66939.668111 kJ/mol
# GULP energy per Si atom -5578.305676 kJ/mol
# Density = 2.510348 g / cm^3
# Si number density = 25.160744 Si / 1000 Ang^3
#
#
#
# Elastic Constant Matrix: (Units=GPa)
#
#
# Indices 1 2 3 4 5 6 
#
# 1 68.0479 28.2781 0.6362 -6.3147 7.8249 -20.7821
# 2 28.2781 118.6799 15.5224 -15.1459 6.4885 -24.5902
# 3 0.6362 15.5224 87.6210 -14.9759 12.2885 -3.1085
# 4 -6.3147 -15.1459 -14.9759 34.2757 -11.3680 11.2617
# 5 7.8249 6.4885 12.2885 -11.3680 22.6184 -2.3556
# 6 -20.7821 -24.5902 -3.1085 11.2617 -2.3556 47.5881
#
#
#
# Elastic Compliance Matrix: (Units=1/GPa)
#
#
# Indices 1 2 3 4 5 6 
#
# 1 0.018582 -0.003072 0.001251 -0.001706 -0.006387 0.006697
# 2 -0.003072 0.010314 -0.001324 0.002448 0.000402 0.003342
# 3 0.001251 -0.001324 0.013000 0.003710 -0.005296 -0.000429
# 4 -0.001706 0.002448 0.003710 0.039786 0.017056 -0.007809
# 5 -0.006387 0.000402 -0.005296 0.017056 0.057326 -0.004126
# 6 0.006697 0.003342 -0.000429 -0.007809 -0.004126 0.027281
#
#
# Mechanical properties :
#
#
# Convention : Reuss Voigt Hill
#
# Bulk Modulus (GPa) = 28.08590 40.35804 34.22197
# Shear Modulus (GPa) = 27.10801 36.22392 31.66597
#
# Velocity S-wave (km/s) = 3.28593 3.79845 3.55145
# Velocity P-wave (km/s) = 5.05799 5.94244 5.51796
#
# Compressibility (1/GPa) = 0.03560505
#
# Stress axis : x y z
#
# Youngs Moduli (GPa) = 53.81612 96.95397 76.92390
#
# Poissons Ratio (x) = 0.29786 -0.09623
# Poissons Ratio (y) = 0.16533 0.10187
# Poissons Ratio (z) = -0.06733 0.12839
#
# Static dielectric constant tensor:
#      x y z
#    x 2.067950 -0.081820 0.005630 
#    y -0.081820 2.089720 -0.013690 
#    z 0.005630 -0.013690 2.062380 
# 
# From -- ./inp_files/152210.got.cif
#   From: 2010.05.17/outbox.cif.g08.bks.cpg/sg2_77_cif.got.tgz:152210.got - 2010.06.03 11:33:40.
