data_PCOD9005312
_publ_section_title
;
Structure prediction by ZEFSAII (Michael W. Deem and Ramdas Pophale) SiO2 
 PCOD9005312
Probable space group: P -1
;
_chemical_formula_sum "Si O2"
_cell_formula_units_Z 14
_cell_length_a 7.604186
_cell_length_b 15.635708
_cell_length_c 8.565516
_cell_angle_alpha 130.184650
_cell_angle_beta 51.580762
_cell_angle_gamma 114.436980
_cell_volume 609.441394
_symmetry_space_group_name_H-M "P -1"
_symmetry_group_IT_number 2
_symmetry_cell_setting 'triclinic'
loop_
_space_group_symop_operation_xyz
x,y,z
-x,-y,-z
loop_
_atom_site_type_symbol
_atom_site_label
_atom_site_fract_x
_atom_site_fract_y
_atom_site_fract_z
Si Si1 0.259385 0.964183 0.797926
Si Si2 0.602249 0.155097 0.739399
Si Si3 0.168131 0.426345 0.679001
Si Si4 0.103861 0.675268 0.037588
Si Si5 0.189448 0.749675 0.730564
Si Si6 0.262390 0.326116 0.207988
Si Si7 0.276577 0.541495 0.251710
O O1 0.303939 0.901161 0.533916
O O2 0.302010 0.871093 0.797326
O O3 0.442503 0.065553 0.813175
O O4 0.000000 0.000000 0.000000
O O5 0.796324 0.216421 0.802276
O O6 0.441424 0.260997 0.930836
O O7 0.233001 0.555531 0.830120
O O8 0.317262 0.358285 0.394720
O O9 0.925955 0.435737 0.731553
O O10 0.120916 0.360453 0.787004
O O11 0.106299 0.711388 0.900318
O O12 0.323472 0.651629 0.458711
O O13 0.959829 0.751466 0.759022
O O14 0.208264 0.441632 0.289307
O O15 0.500000 0.500000 0.000000
#
# Coordination Sequence:
#
# PCOD9005312 Si02
#       7
#     2   2   2   2   2   2   2
#     4  11  24  47  71  89 120 175 222 270 306 377
#     4  11  25  42  71  96 122 167 226 255 323 380
#     4  10  21  38  61  91 143 171 196 251 336 379
#     4  11  22  40  59  99 133 163 206 265 323 384
#     4  11  21  41  65  90 130 166 210 263 321 364
#     4  11  19  40  66  94 123 172 210 253 308 400
#     4  11  20  36  61  96 125 171 217 252 308 400
#
# _framework density 22.971855000000001
#
# number of rings (size 3 to 8) (size 9 to 14) (size 15 to 20)
#    0.000    1.143    4.286    4.286    0.000    1.143 
#    5.143    0.714    0.000    0.000    0.000    0.000 
#    0.000    0.000    0.000    0.000    0.000    0.000 
#
# Total GULP energy -78188.254588 kJ/mol
# GULP energy per Si atom -5584.875328 kJ/mol
# Density = 2.291957 g / cm^3
# Si number density = 22.971855 Si / 1000 Ang^3
#
#
#
# Elastic Constant Matrix: (Units=GPa)
#
#
# Indices 1 2 3 4 5 6 
#
# 1 24.5537 28.6641 34.6417 -5.0458 3.4959 12.6007
# 2 28.6641 186.2573 50.8576 -3.3703 12.9910 -2.4549
# 3 34.6417 50.8576 149.5571 -4.3573 -0.4439 5.6351
# 4 -5.0458 -3.3703 -4.3573 43.4383 3.1236 2.2863
# 5 3.4959 12.9910 -0.4439 3.1236 36.4884 0.3150
# 6 12.6007 -2.4549 5.6351 2.2863 0.3150 29.2916
#
#
#
# Elastic Compliance Matrix: (Units=1/GPa)
#
#
# Indices 1 2 3 4 5 6 
#
# 1 0.106478 -0.011081 -0.018896 0.012444 -0.007171 -0.043992
# 2 -0.011081 0.007274 -0.000145 -0.000919 -0.001499 0.005492
# 3 -0.018896 -0.000145 0.010841 -0.001591 0.002077 0.006133
# 4 0.012444 -0.000919 -0.001591 0.024818 -0.002948 -0.007030
# 5 -0.007171 -0.001499 0.002077 -0.002948 0.028883 0.002479
# 6 -0.043992 0.005492 0.006133 -0.007030 0.002479 0.052867
#
#
# Mechanical properties :
#
#
# Convention : Reuss Voigt Hill
#
# Bulk Modulus (GPa) = 15.54039 65.41053 40.47546
# Shear Modulus (GPa) = 15.98183 38.25732 27.11957
#
# Velocity S-wave (km/s) = 2.64050 4.08536 3.43965
# Velocity P-wave (km/s) = 4.00949 7.12668 5.78211
#
# Compressibility (1/GPa) = 0.06434845
#
# Stress axis : x y z
#
# Youngs Moduli (GPa) = 9.39161 137.47279 92.23924
#
# Poissons Ratio (x) = 1.52337 1.74297
# Poissons Ratio (y) = 0.10407 0.01338
# Poissons Ratio (z) = 0.17747 0.01994
#
# Static dielectric constant tensor:
#      x y z
#    x 1.936130 0.015670 -0.021590 
#    y 0.015670 1.896290 -0.015270 
#    z -0.021590 -0.015270 1.888850 
# 
# From -- ./inp_files/179755.got.cif
#   From: 2010.05.17/outbox.cif.g08.bks.cpg/sg2_90_cif.got.tgz:179755.got - 2010.06.03 11:33:40.
