data_PCOD9005735
_publ_section_title
;
Structure prediction by ZEFSAII (Michael W. Deem and Ramdas Pophale) SiO2 
 PCOD9005735
Probable space group: P -1
;
_chemical_formula_sum "Si O2"
_cell_formula_units_Z 15
_cell_length_a 14.680942
_cell_length_b 17.016286
_cell_length_c 7.735157
_cell_angle_alpha 108.556482
_cell_angle_beta 72.784102
_cell_angle_gamma 158.269273
_cell_volume 678.250157
_symmetry_space_group_name_H-M "P -1"
_symmetry_group_IT_number 2
_symmetry_cell_setting 'triclinic'
loop_
_space_group_symop_operation_xyz
x,y,z
-x,-y,-z
loop_
_atom_site_type_symbol
_atom_site_label
_atom_site_fract_x
_atom_site_fract_y
_atom_site_fract_z
Si Si1 0.500000 0.500000 0.500000
Si Si2 0.042998 0.963348 0.592680
Si Si3 0.275146 0.298245 0.859263
Si Si4 0.880807 0.528997 0.760685
Si Si5 0.616923 0.897418 0.434519
Si Si6 0.617268 0.139173 0.288607
Si Si7 0.608268 0.209767 0.981427
Si Si8 0.122944 0.894217 0.936614
O O1 0.353644 0.391776 0.689852
O O2 0.769789 0.711750 0.604386
O O3 0.195922 0.138055 0.773819
O O4 0.227131 0.037671 0.484551
O O5 0.000000 0.000000 0.500000
O O6 0.500000 0.500000 0.000000
O O7 0.034029 0.153393 0.955644
O O8 0.654365 0.353772 0.633893
O O9 0.791557 0.402980 0.885553
O O10 0.125030 0.683352 0.650513
O O11 0.954433 0.677807 0.892767
O O12 0.560756 0.945267 0.560823
O O13 0.776855 0.024288 0.258689
O O14 0.479359 0.945655 0.169623
O O15 0.688055 0.248623 0.154628
O O16 0.366936 0.073835 0.036513
#
# Coordination Sequence:
#
# PCOD9005735 Si02
#       8
#     1   2   2   2   2   2   2   2
#     4  10  24  42  64  94 126 172 224 280 338 394
#     4  10  24  44  66  98 133 172 231 279 338 403
#     4  11  23  43  67  94 135 176 226 285 339 405
#     4  10  21  40  61  98 126 167 217 258 328 403
#     4  11  23  39  64  93 129 166 215 272 329 392
#     4  10  21  38  63  91 131 168 211 266 323 391
#     4   9  21  39  60  90 129 171 211 261 322 389
#     4  10  23  39  62  92 129 168 217 263 332 393
#
# _framework density 22.115735000000001
#
# number of rings (size 3 to 8) (size 9 to 14) (size 15 to 20)
#    0.000    1.867    0.000    2.400    3.733   11.200 
#    2.400    0.000    0.000    0.000    0.000    0.000 
#    0.000    0.000    0.000    0.000    0.000    0.000 
#
# Total GULP energy -83509.432328 kJ/mol
# GULP energy per Si atom -5567.295489 kJ/mol
# Density = 2.206540 g / cm^3
# Si number density = 22.115735 Si / 1000 Ang^3
#
#
#
# Elastic Constant Matrix: (Units=GPa)
#
#
# Indices 1 2 3 4 5 6 
#
# 1 77.2626 32.9546 17.4932 -20.5170 -8.1986 15.7739
# 2 32.9546 95.5687 39.1092 -3.8676 -9.8732 27.5166
# 3 17.4932 39.1092 82.7814 -17.8681 -16.4586 12.3409
# 4 -20.5170 -3.8676 -17.8681 31.0383 14.1066 -6.2955
# 5 -8.1986 -9.8732 -16.4586 14.1066 34.9108 -3.6996
# 6 15.7739 27.5166 12.3409 -6.2955 -3.6996 36.9613
#
#
#
# Elastic Compliance Matrix: (Units=1/GPa)
#
#
# Indices 1 2 3 4 5 6 
#
# 1 0.018974 -0.006404 0.001751 0.013337 -0.002116 -0.001854
# 2 -0.006404 0.018450 -0.007345 -0.009559 0.003068 -0.009871
# 3 0.001751 -0.007345 0.017659 0.009172 0.003026 0.000690
# 4 0.013337 -0.009559 0.009172 0.053743 -0.016340 0.005880
# 5 -0.002116 0.003068 0.003026 -0.016340 0.036887 -0.001482
# 6 -0.001854 -0.009871 0.000690 0.005880 -0.001482 0.035818
#
#
# Mechanical properties :
#
#
# Convention : Reuss Voigt Hill
#
# Bulk Modulus (GPa) = 32.16906 48.30295 40.23601
# Shear Modulus (GPa) = 23.16006 31.65246 27.40626
#
# Velocity S-wave (km/s) = 3.23959 3.78725 3.52407
# Velocity P-wave (km/s) = 5.34515 6.40412 5.89845
#
# Compressibility (1/GPa) = 0.03108577
#
# Stress axis : x y z
#
# Youngs Moduli (GPa) = 52.70427 54.20090 56.62936
#
# Poissons Ratio (x) = 0.34710 -0.09914
# Poissons Ratio (y) = 0.33751 0.41594
# Poissons Ratio (z) = -0.09226 0.39810
#
# Static dielectric constant tensor:
#      x y z
#    x 1.870470 0.002700 0.054790 
#    y 0.002700 1.818070 0.034590 
#    z 0.054790 0.034590 1.846190 
# 
# From -- ./inp_files/317791.got.cif
#   From: 2010.05.17/outbox.cif.g08.bks.cpg/sg2_159_cif.got.tgz:317791.got - 2010.06.03 11:33:40.
