data_PCOD9005522
_publ_section_title
;
Structure prediction by ZEFSAII (Michael W. Deem and Ramdas Pophale) SiO2 
 PCOD9005522
Probable space group: P -1
;
_chemical_formula_sum "Si O2"
_cell_formula_units_Z 14
_cell_length_a 7.151040
_cell_length_b 9.898035
_cell_length_c 12.132702
_cell_angle_alpha 76.853744
_cell_angle_beta 141.034212
_cell_angle_gamma 103.075123
_cell_volume 524.175127
_symmetry_space_group_name_H-M "P -1"
_symmetry_group_IT_number 2
_symmetry_cell_setting 'triclinic'
loop_
_space_group_symop_operation_xyz
x,y,z
-x,-y,-z
loop_
_atom_site_type_symbol
_atom_site_label
_atom_site_fract_x
_atom_site_fract_y
_atom_site_fract_z
Si Si1 0.376550 0.753046 0.035916
Si Si2 0.276908 0.514648 0.498022
Si Si3 0.850541 0.782230 0.431998
Si Si4 0.992345 0.787732 0.261805
Si Si5 0.862174 0.852843 0.915697
Si Si6 0.306232 0.453314 0.100553
Si Si7 0.537708 0.964065 0.398770
O O1 0.525946 0.757575 0.226255
O O2 0.377076 0.590572 0.032517
O O3 0.651534 0.826603 0.077968
O O4 0.064773 0.818115 0.905730
O O5 0.500000 0.500000 0.500000
O O6 0.095118 0.367707 0.467797
O O7 0.051652 0.627321 0.339176
O O8 0.468385 0.555745 0.689523
O O9 0.809246 0.885641 0.492811
O O10 0.033297 0.839077 0.399148
O O11 0.246779 0.847195 0.285974
O O12 0.786014 0.699663 0.961204
O O13 0.540055 0.904261 0.731238
O O14 0.000000 0.000000 0.000000
O O15 0.000000 0.500000 0.000000
O O16 0.500000 0.000000 0.500000
#
# Coordination Sequence:
#
# PCOD9005522 Si02
#       7
#     2   2   2   2   2   2   2
#     4   8  19  39  61  86 117 161 201 249 303 358
#     4  11  19  35  67  93 117 159 204 257 313 353
#     4   9  20  38  57  90 121 159 197 253 309 350
#     4  10  21  38  62  92 122 160 203 259 302 373
#     4  11  20  38  64  89 123 169 202 248 313 367
#     4   9  20  36  60  89 121 158 206 250 302 368
#     4  12  24  38  61  93 126 163 209 250 307 376
#
# _framework density 26.708628999999998
#
# number of rings (size 3 to 8) (size 9 to 14) (size 15 to 20)
#    0.857    1.143    2.857    1.286    0.000    1.143 
#    0.000    0.000    0.000    9.429    0.000    0.000 
#    0.000    0.000    0.000    0.000    0.000    0.000 
#
# Total GULP energy -77978.540525 kJ/mol
# GULP energy per Si atom -5569.895752 kJ/mol
# Density = 2.664784 g / cm^3
# Si number density = 26.708629 Si / 1000 Ang^3
#
#
#
# Elastic Constant Matrix: (Units=GPa)
#
#
# Indices 1 2 3 4 5 6 
#
# 1 137.9127 23.2241 -5.2540 -1.8390 3.3103 -20.5872
# 2 23.2241 156.6430 15.8643 0.2780 -11.6893 -24.1895
# 3 -5.2540 15.8643 43.7564 -6.3673 10.8158 -11.2924
# 4 -1.8390 0.2780 -6.3673 40.8505 -0.5443 1.4626
# 5 3.3103 -11.6893 10.8158 -0.5443 36.5216 -2.8155
# 6 -20.5872 -24.1895 -11.2924 1.4626 -2.8155 48.5685
#
#
#
# Elastic Compliance Matrix: (Units=1/GPa)
#
#
# Indices 1 2 3 4 5 6 
#
# 1 0.008094 -0.001070 0.002737 0.000654 -0.001613 0.003421
# 2 -0.001070 0.007570 -0.003144 -0.000642 0.003659 0.002817
# 3 0.002737 -0.003144 0.028678 0.004291 -0.009252 0.005596
# 4 0.000654 -0.000642 0.004291 0.025162 -0.001150 0.000131
# 5 -0.001613 0.003659 -0.009252 -0.001150 0.031486 0.000847
# 6 0.003421 0.002817 0.005596 0.000131 0.000847 0.024789
#
#
# Mechanical properties :
#
#
# Convention : Reuss Voigt Hill
#
# Bulk Modulus (GPa) = 24.16266 45.10899 34.63582
# Shear Modulus (GPa) = 35.08039 45.48663 40.28351
#
# Velocity S-wave (km/s) = 3.62808 4.13130 3.88784
# Velocity P-wave (km/s) = 5.15917 6.29943 5.75760
#
# Compressibility (1/GPa) = 0.04138617
#
# Stress axis : x y z
#
# Youngs Moduli (GPa) = 123.55530 132.09621 34.87012
#
# Poissons Ratio (x) = 0.14140 -0.09543
# Poissons Ratio (y) = 0.13226 0.10963
# Poissons Ratio (z) = -0.33813 0.41530
#
# Static dielectric constant tensor:
#      x y z
#    x 2.133600 0.072900 -0.063840 
#    y 0.072900 2.304840 0.260150 
#    z -0.063840 0.260150 2.419580 
# 
# From -- ./inp_files/489442.got.cif
#   From: 2010.05.17/outbox.cif.g08.bks.cpg/sg2_245_cif.got.tgz:489442.got - 2010.06.03 11:33:40.
