data_PCOD9005220
_publ_section_title
;
Structure prediction by ZEFSAII (Michael W. Deem and Ramdas Pophale) SiO2 
 PCOD9005220
Probable space group: P -1
;
_chemical_formula_sum "Si O2"
_cell_formula_units_Z 16
_cell_length_a 20.305300
_cell_length_b 9.689805
_cell_length_c 13.947715
_cell_angle_alpha 151.390839
_cell_angle_beta 35.800626
_cell_angle_gamma 125.231766
_cell_volume 673.280132
_symmetry_space_group_name_H-M "P -1"
_symmetry_group_IT_number 2
_symmetry_cell_setting 'triclinic'
loop_
_space_group_symop_operation_xyz
x,y,z
-x,-y,-z
loop_
_atom_site_type_symbol
_atom_site_label
_atom_site_fract_x
_atom_site_fract_y
_atom_site_fract_z
Si Si1 0.705193 0.192115 0.821009
Si Si2 0.005354 0.236987 0.253177
Si Si3 0.534649 0.479203 0.835856
Si Si4 0.637634 0.397712 0.231110
Si Si5 0.259322 0.495108 0.658301
Si Si6 0.743341 0.699560 0.771829
Si Si7 0.293839 0.971204 0.781119
Si Si8 0.024804 0.139534 0.784202
O O1 0.734691 0.823085 0.589661
O O2 0.845319 0.130330 0.583859
O O3 0.595990 0.320257 0.947711
O O4 0.650746 0.416369 0.115065
O O5 0.894137 0.433583 0.427788
O O6 0.000000 0.500000 0.500000
O O7 0.964583 0.980334 0.191993
O O8 0.156796 0.070525 0.953235
O O9 0.641663 0.602995 0.787989
O O10 0.605543 0.126228 0.482718
O O11 0.500000 0.500000 0.000000
O O12 0.500000 0.500000 0.500000
O O13 0.685235 0.609193 0.364715
O O14 0.721394 0.024157 0.940212
O O15 0.331361 0.635885 0.593015
O O16 0.117971 0.803413 0.030373
O O17 0.714747 0.786543 0.973995
O O18 0.000000 0.500000 0.000000
#
# Coordination Sequence:
#
# PCOD9005220 Si02
#       8
#     2   2   2   2   2   2   2   2
#     4  11  22  38  59  84 121 158 194 252 306 354
#     4   9  18  38  64  89 120 158 203 255 308 362
#     4  12  25  38  55  83 118 158 201 242 302 370
#     4  11  22  37  61  90 118 156 204 247 300 366
#     4   9  19  38  62  87 113 148 199 248 299 359
#     4  10  21  38  61  88 117 154 203 250 300 365
#     4   9  20  39  61  85 116 152 194 251 300 351
#     4   9  19  37  62  90 122 160 203 253 307 362
#
# _framework density 23.764256
#
# number of rings (size 3 to 8) (size 9 to 14) (size 15 to 20)
#    0.000    2.000    0.000    4.500    0.000    3.000 
#    0.000    8.750    0.000    0.000    0.000    0.000 
#    0.000    0.000    0.000    0.000    0.000    0.000 
#
# Total GULP energy -89195.785014 kJ/mol
# GULP energy per Si atom -5574.736563 kJ/mol
# Density = 2.371017 g / cm^3
# Si number density = 23.764256 Si / 1000 Ang^3
#
#
#
# Elastic Constant Matrix: (Units=GPa)
#
#
# Indices 1 2 3 4 5 6 
#
# 1 102.3505 16.3947 44.6791 -16.4658 12.8641 -25.5892
# 2 16.3947 61.4987 26.2187 5.3908 -3.5437 -12.0080
# 3 44.6791 26.2187 127.3211 -32.0447 -1.8202 -26.7218
# 4 -16.4658 5.3908 -32.0447 32.2288 -6.7648 1.6971
# 5 12.8641 -3.5437 -1.8202 -6.7648 39.1875 5.8821
# 6 -25.5892 -12.0080 -26.7218 1.6971 5.8821 29.1559
#
#
#
# Elastic Compliance Matrix: (Units=1/GPa)
#
#
# Indices 1 2 3 4 5 6 
#
# 1 0.015327 -0.001934 -0.001175 0.005006 -0.006281 0.012554
# 2 -0.001934 0.020487 -0.005629 -0.010090 0.000164 0.002135
# 3 -0.001175 -0.005629 0.015322 0.015467 0.001844 0.009421
# 4 0.005006 -0.010090 0.015467 0.051254 0.005460 0.010329
# 5 -0.006281 0.000164 0.001844 0.005460 0.030147 -0.010155
# 6 0.012554 0.002135 0.009421 0.010329 -0.010155 0.056277
#
#
# Mechanical properties :
#
#
# Convention : Reuss Voigt Hill
#
# Bulk Modulus (GPa) = 29.71034 51.75057 40.73046
# Shear Modulus (GPa) = 22.98739 33.70629 28.34684
#
# Velocity S-wave (km/s) = 3.11353 3.77020 3.45749
# Velocity P-wave (km/s) = 5.04527 6.38564 5.75461
#
# Compressibility (1/GPa) = 0.03365831
#
# Stress axis : x y z
#
# Youngs Moduli (GPa) = 65.24616 48.81195 65.26582
#
# Poissons Ratio (x) = 0.09442 0.07669
# Poissons Ratio (y) = 0.12622 0.36738
# Poissons Ratio (z) = 0.07667 0.27476
#
# Static dielectric constant tensor:
#      x y z
#    x 1.614300 0.474990 -0.243210 
#    y 0.474990 1.306120 0.347820 
#    z -0.243210 0.347820 1.792350 
# 
# From -- ./inp_files/470194.got.cif
#   From: 2010.05.17/outbox.cif.g08.bks.cpg/sg2_236_cif.got.tgz:470194.got - 2010.06.03 11:33:40.
