data_PCOD9005633
_publ_section_title
;
Structure prediction by ZEFSAII (Michael W. Deem and Ramdas Pophale) SiO2 
 PCOD9005633
Probable space group: P -1
;
_chemical_formula_sum "Si O2"
_cell_formula_units_Z 14
_cell_length_a 12.085955
_cell_length_b 11.175716
_cell_length_c 7.745675
_cell_angle_alpha 103.371308
_cell_angle_beta 91.608770
_cell_angle_gamma 34.605978
_cell_volume 552.571148
_symmetry_space_group_name_H-M "P -1"
_symmetry_group_IT_number 2
_symmetry_cell_setting 'triclinic'
loop_
_space_group_symop_operation_xyz
x,y,z
-x,-y,-z
loop_
_atom_site_type_symbol
_atom_site_label
_atom_site_fract_x
_atom_site_fract_y
_atom_site_fract_z
Si Si1 0.570096 0.313006 0.835358
Si Si2 0.766366 0.199325 0.441658
Si Si3 0.807463 0.755698 0.155021
Si Si4 0.401299 0.396787 0.366073
Si Si5 0.708941 0.629618 0.332992
Si Si6 0.065116 0.730041 0.211677
Si Si7 0.127490 0.145130 0.102855
O O1 0.662049 0.271521 0.644050
O O2 0.401088 0.372459 0.787080
O O3 0.500000 0.500000 0.000000
O O4 0.742162 0.074678 0.863104
O O5 0.620850 0.255786 0.323848
O O6 0.738647 0.369017 0.463218
O O7 0.983388 0.934238 0.347150
O O8 0.682489 0.779388 0.273662
O O9 0.911043 0.766176 0.278112
O O10 0.730538 0.898099 0.026340
O O11 0.000000 0.500000 0.000000
O O12 0.391327 0.289385 0.454742
O O13 0.286970 0.489653 0.210953
O O14 0.954596 0.380475 0.279774
O O15 0.016687 0.781484 0.025344
#
# Coordination Sequence:
#
# PCOD9005633 Si02
#       7
#     2   2   2   2   2   2   2
#     4  11  25  39  62  88 120 159 197 245 294 355
#     4  10  23  39  56  88 121 151 204 238 294 352
#     4   8  19  39  60  91 117 151 201 242 292 350
#     4  10  22  38  60  84 121 159 190 248 292 348
#     4  10  21  41  61  88 119 156 204 238 292 354
#     4  10  21  38  63  84 120 158 191 243 302 341
#     4   9  22  38  61  88 118 152 198 242 294 348
#
# _framework density 25.336103999999999
#
# number of rings (size 3 to 8) (size 9 to 14) (size 15 to 20)
#    0.857    1.429    0.000    1.286    8.000    1.714 
#    0.000    4.286    0.000    0.000    0.000    0.000 
#    0.000    0.000    0.000    0.000    0.000    0.000 
#
# Total GULP energy -78186.971733 kJ/mol
# GULP energy per Si atom -5584.783695 kJ/mol
# Density = 2.527844 g / cm^3
# Si number density = 25.336104 Si / 1000 Ang^3
#
#
#
# Elastic Constant Matrix: (Units=GPa)
#
#
# Indices 1 2 3 4 5 6 
#
# 1 112.1347 31.1861 -7.7552 -19.6513 -15.0029 9.5109
# 2 31.1861 131.0061 24.5739 -31.7885 -3.6910 8.0957
# 3 -7.7552 24.5739 51.6686 -29.1651 -12.5785 0.9553
# 4 -19.6513 -31.7885 -29.1651 43.9957 8.3301 0.3576
# 5 -15.0029 -3.6910 -12.5785 8.3301 25.6233 -4.1058
# 6 9.5109 8.0957 0.9553 0.3576 -4.1058 41.5551
#
#
#
# Elastic Compliance Matrix: (Units=1/GPa)
#
#
# Indices 1 2 3 4 5 6 
#
# 1 0.013563 -0.002544 0.011147 0.009821 0.009533 -0.002008
# 2 -0.002544 0.009969 -0.003405 0.004475 -0.003446 -0.001661
# 3 0.011147 -0.003405 0.042386 0.027264 0.017765 -0.001342
# 4 0.009821 0.004475 0.027264 0.047764 0.003642 -0.003798
# 5 0.009533 -0.003446 0.017765 0.003642 0.052162 0.003204
# 6 -0.002008 -0.001661 -0.001342 -0.003798 0.003204 0.025227
#
#
# Mechanical properties :
#
#
# Convention : Reuss Voigt Hill
#
# Bulk Modulus (GPa) = 13.10389 43.42433 28.26411
# Shear Modulus (GPa) = 24.25844 38.68848 31.47346
#
# Velocity S-wave (km/s) = 3.09765 3.91194 3.52836
# Velocity P-wave (km/s) = 4.23995 6.13032 5.27058
#
# Compressibility (1/GPa) = 0.07631324
#
# Stress axis : x y z
#
# Youngs Moduli (GPa) = 73.72992 100.31062 23.59284
#
# Poissons Ratio (x) = 0.25519 -0.26299
# Poissons Ratio (y) = 0.18757 0.08034
# Poissons Ratio (z) = -0.82186 0.34159
#
# Static dielectric constant tensor:
#      x y z
#    x 2.059260 0.014230 0.033440 
#    y 0.014230 2.017550 0.025720 
#    z 0.033440 0.025720 2.068500 
# 
# From -- ./inp_files/259031.got.cif
#   From: 2010.05.17/outbox.cif.g08.bks.cpg/sg2_130_cif.got.tgz:259031.got - 2010.06.03 11:33:40.
