data_PCOD9005541
_publ_section_title
;
Structure prediction by ZEFSAII (Michael W. Deem and Ramdas Pophale) SiO2 
 PCOD9005541
Probable space group: P -1
;
_chemical_formula_sum "Si O2"
_cell_formula_units_Z 16
_cell_length_a 29.020033
_cell_length_b 17.698179
_cell_length_c 5.227893
_cell_angle_alpha 55.586681
_cell_angle_beta 120.539638
_cell_angle_gamma 163.179857
_cell_volume 634.890121
_symmetry_space_group_name_H-M "P -1"
_symmetry_group_IT_number 2
_symmetry_cell_setting 'triclinic'
loop_
_space_group_symop_operation_xyz
x,y,z
-x,-y,-z
loop_
_atom_site_type_symbol
_atom_site_label
_atom_site_fract_x
_atom_site_fract_y
_atom_site_fract_z
Si Si1 0.798690 0.585960 0.347596
Si Si2 0.169487 0.982062 0.134835
Si Si3 0.255410 0.296766 0.023705
Si Si4 0.426363 0.447960 0.601283
Si Si5 0.565025 0.834693 0.526826
Si Si6 0.601529 0.246428 0.939430
Si Si7 0.916952 0.594856 0.512490
Si Si8 0.150330 0.595093 0.816471
O O1 0.825011 0.735884 0.089878
O O2 0.746072 0.493169 0.671316
O O3 0.929428 0.718887 0.406959
O O4 0.660350 0.335320 0.228390
O O5 0.164275 0.084940 0.966686
O O6 0.339524 0.252808 0.958494
O O7 0.043214 0.722787 0.104119
O O8 0.088848 0.826390 0.479770
O O9 0.435732 0.607705 0.821313
O O10 0.292630 0.294928 0.377104
O O11 0.500000 0.500000 0.500000
O O12 0.551826 0.726077 0.517045
O O13 0.498940 0.821483 0.239505
O O14 0.751882 0.159968 0.473260
O O15 0.500000 0.000000 0.000000
O O16 0.810754 0.372565 0.849352
O O17 0.826883 0.441868 0.276963
#
# Coordination Sequence:
#
# PCOD9005541 Si02
#       8
#     2   2   2   2   2   2   2   2
#     4  11  21  35  56  92 126 173 213 257 301 373
#     4   9  23  41  63  92 128 174 208 264 316 385
#     4  10  22  41  62  92 130 165 218 269 317 374
#     4  11  23  44  71  93 121 165 217 276 330 378
#     4  10  22  38  63  97 127 168 211 272 311 378
#     4  11  21  34  56  91 133 168 212 254 309 366
#     4  10  21  38  62  92 135 176 212 247 314 376
#     4  10  22  40  64  96 132 174 209 252 315 377
#
# _framework density 25.20121
#
# number of rings (size 3 to 8) (size 9 to 14) (size 15 to 20)
#    0.750    1.000    1.250    3.375    1.750    3.500 
#    0.000    1.875    0.000    2.250    0.000    0.000 
#    0.000    0.000    0.000    0.000    0.000    0.000 
#
# Total GULP energy -89147.127307 kJ/mol
# GULP energy per Si atom -5571.695457 kJ/mol
# Density = 2.514385 g / cm^3
# Si number density = 25.201210 Si / 1000 Ang^3
#
#
#
# Elastic Constant Matrix: (Units=GPa)
#
#
# Indices 1 2 3 4 5 6 
#
# 1 137.3961 27.6751 42.9040 -14.9314 -17.1639 -10.5718
# 2 27.6751 98.3666 36.8497 -32.8428 4.7772 -17.1914
# 3 42.9040 36.8497 111.2203 -11.0227 -22.5276 -1.2953
# 4 -14.9314 -32.8428 -11.0227 32.1408 5.9835 0.8863
# 5 -17.1639 4.7772 -22.5276 5.9835 44.5302 -5.4148
# 6 -10.5718 -17.1914 -1.2953 0.8863 -5.4148 36.7177
#
#
#
# Elastic Compliance Matrix: (Units=1/GPa)
#
#
# Indices 1 2 3 4 5 6 
#
# 1 0.008890 -0.000400 -0.002599 0.002361 0.002147 0.002540
# 2 -0.000400 0.021228 -0.006246 0.020515 -0.007372 0.008021
# 3 -0.002599 -0.006246 0.012933 -0.004310 0.006529 -0.002149
# 4 0.002361 0.020515 -0.004310 0.053302 -0.009732 0.007411
# 5 0.002147 -0.007372 0.006529 -0.009732 0.028916 0.001896
# 6 0.002540 0.008021 -0.002149 0.007411 0.001896 0.031747
#
#
# Mechanical properties :
#
#
# Convention : Reuss Voigt Hill
#
# Bulk Modulus (GPa) = 40.71184 62.42676 51.56930
# Shear Modulus (GPa) = 27.21947 38.64802 32.93374
#
# Velocity S-wave (km/s) = 3.29003 3.92034 3.61893
# Velocity P-wave (km/s) = 5.53373 6.73181 6.16196
#
# Compressibility (1/GPa) = 0.02456288
#
# Stress axis : x y z
#
# Youngs Moduli (GPa) = 112.48035 47.10843 77.32037
#
# Poissons Ratio (x) = 0.01884 0.20093
# Poissons Ratio (y) = 0.04498 0.48291
# Poissons Ratio (z) = 0.29230 0.29422
#
# Static dielectric constant tensor:
#      x y z
#    x 1.962140 0.057660 0.000770 
#    y 0.057660 2.218530 0.036370 
#    z 0.000770 0.036370 2.005920 
# 
# From -- ./inp_files/128746.got.cif
#   From: 2010.05.17/outbox.cif.g08.bks.cpg/sg2_65_cif.got.tgz:128746.got - 2010.06.03 11:33:40.
