data_PCOD9005293
_publ_section_title
;
Structure prediction by ZEFSAII (Michael W. Deem and Ramdas Pophale) SiO2 
 PCOD9005293
Probable space group: P -1
;
_chemical_formula_sum "Si O2"
_cell_formula_units_Z 16
_cell_length_a 9.840746
_cell_length_b 10.566461
_cell_length_c 8.326139
_cell_angle_alpha 67.792039
_cell_angle_beta 78.657968
_cell_angle_gamma 54.727483
_cell_volume 654.124331
_symmetry_space_group_name_H-M "P -1"
_symmetry_group_IT_number 2
_symmetry_cell_setting 'triclinic'
loop_
_space_group_symop_operation_xyz
x,y,z
-x,-y,-z
loop_
_atom_site_type_symbol
_atom_site_label
_atom_site_fract_x
_atom_site_fract_y
_atom_site_fract_z
Si Si1 0.023982 0.620239 0.665176
Si Si2 0.562015 0.033229 0.215946
Si Si3 0.362957 0.910404 0.166055
Si Si4 0.410507 0.474395 0.689543
Si Si5 0.059479 0.895933 0.195467
Si Si6 0.496025 0.309902 0.311107
Si Si7 0.221298 0.036083 0.523097
Si Si8 0.878557 0.443508 0.687707
O O1 0.211311 0.562689 0.687980
O O2 0.021563 0.616543 0.473262
O O3 0.964183 0.497538 0.771689
O O4 0.887865 0.810569 0.643573
O O5 0.495313 0.217865 0.196367
O O6 0.670061 0.929594 0.394532
O O7 0.423547 0.998530 0.224574
O O8 0.661698 0.003533 0.043332
O O9 0.509674 0.717754 0.215315
O O10 0.201610 0.909009 0.236736
O O11 0.500000 0.500000 0.500000
O O12 0.454083 0.559855 0.776367
O O13 0.129532 0.712924 0.202213
O O14 0.913725 0.959684 0.328810
O O15 0.000000 0.000000 0.000000
O O16 0.643094 0.156549 0.453733
O O17 0.309227 0.404534 0.375274
#
# Coordination Sequence:
#
# PCOD9005293 Si02
#       8
#     2   2   2   2   2   2   2   2
#     4  10  22  37  62  92 125 169 206 255 307 382
#     4   9  23  41  64  92 121 164 216 253 319 362
#     4  11  22  41  67  90 124 169 211 258 306 392
#     4  12  23  40  64  95 127 166 212 252 316 379
#     4  11  19  38  64  91 120 164 208 256 309 376
#     4  10  21  43  60  95 128 161 207 267 310 369
#     4   9  21  40  60  90 125 165 205 256 315 362
#     4  10  21  38  61  91 122 164 207 251 316 365
#
# _framework density 24.460182
#
# number of rings (size 3 to 8) (size 9 to 14) (size 15 to 20)
#    0.750    1.000    3.750    0.750    5.250    1.500 
#    6.750    0.000    0.000    1.500    0.000    0.000 
#    0.000    0.000    0.000    0.000    0.000    0.000 
#
# Total GULP energy -89316.636468 kJ/mol
# GULP energy per Si atom -5582.289779 kJ/mol
# Density = 2.440451 g / cm^3
# Si number density = 24.460182 Si / 1000 Ang^3
#
#
#
# Elastic Constant Matrix: (Units=GPa)
#
#
# Indices 1 2 3 4 5 6 
#
# 1 175.2061 85.3228 15.0195 -12.6037 -5.2855 10.6999
# 2 85.3228 140.0337 13.9006 -15.9710 9.5391 9.4382
# 3 15.0195 13.9006 29.3852 -7.9902 6.5300 4.3780
# 4 -12.6037 -15.9710 -7.9902 20.5147 -0.7677 -0.1482
# 5 -5.2855 9.5391 6.5300 -0.7677 24.4678 -0.0030
# 6 10.6999 9.4382 4.3780 -0.1482 -0.0030 58.0662
#
#
#
# Elastic Compliance Matrix: (Units=1/GPa)
#
#
# Indices 1 2 3 4 5 6 
#
# 1 0.008720 -0.005280 -0.002841 0.000312 0.004710 -0.000533
# 2 -0.005280 0.011399 0.000136 0.005473 -0.005450 -0.000876
# 3 -0.002841 0.000136 0.042278 0.014378 -0.011500 -0.002650
# 4 0.000312 0.005473 0.014378 0.058633 -0.004064 -0.001882
# 5 0.004710 -0.005450 -0.011500 -0.004064 0.046954 0.000877
# 6 -0.000533 -0.000876 -0.002650 -0.001882 0.000877 0.017657
#
#
# Mechanical properties :
#
#
# Convention : Reuss Voigt Hill
#
# Bulk Modulus (GPa) = 21.53933 63.67898 42.60915
# Shear Modulus (GPa) = 23.03219 35.96855 29.50037
#
# Velocity S-wave (km/s) = 3.07191 3.83886 3.47660
# Velocity P-wave (km/s) = 4.62679 6.76309 5.79425
#
# Compressibility (1/GPa) = 0.04642671
#
# Stress axis : x y z
#
# Youngs Moduli (GPa) = 114.68414 87.72441 23.65272
#
# Poissons Ratio (x) = 0.46320 0.06721
# Poissons Ratio (y) = 0.60555 -0.00322
# Poissons Ratio (z) = 0.32587 -0.01195
#
# Static dielectric constant tensor:
#      x y z
#    x 1.970510 0.042530 -0.044670 
#    y 0.042530 2.065410 0.048140 
#    z -0.044670 0.048140 2.077660 
# 
# From -- ./inp_files/381700.got.cif
#   From: 2010.05.17/outbox.cif.g08.bks.cpg/sg2_191_cif.got.tgz:381700.got - 2010.06.03 11:33:40.
