data_PCOD9005475
_publ_section_title
;
Structure prediction by ZEFSAII (Michael W. Deem and Ramdas Pophale) SiO2 
 PCOD9005475
Probable space group: P -1
;
_chemical_formula_sum "Si O2"
_cell_formula_units_Z 14
_cell_length_a 6.864794
_cell_length_b 19.788776
_cell_length_c 5.429757
_cell_angle_alpha 89.685037
_cell_angle_beta 132.724652
_cell_angle_gamma 81.084567
_cell_volume 529.060622
_symmetry_space_group_name_H-M "P -1"
_symmetry_group_IT_number 2
_symmetry_cell_setting 'triclinic'
loop_
_space_group_symop_operation_xyz
x,y,z
-x,-y,-z
loop_
_atom_site_type_symbol
_atom_site_label
_atom_site_fract_x
_atom_site_fract_y
_atom_site_fract_z
Si Si1 0.168212 0.924214 0.173119
Si Si2 0.676934 0.488591 0.396868
Si Si3 0.415516 0.228018 0.769917
Si Si4 0.992591 0.209212 0.011450
Si Si5 0.818843 0.629470 0.579267
Si Si6 0.243876 0.652340 0.335146
Si Si7 0.513974 0.082818 0.053476
O O1 0.356401 0.920286 0.568882
O O2 0.984923 0.868996 0.051963
O O3 0.310424 0.910993 0.036130
O O4 0.000000 0.000000 0.000000
O O5 0.500000 0.500000 0.500000
O O6 0.845886 0.548712 0.543178
O O7 0.808564 0.407104 0.527990
O O8 0.500000 0.500000 0.000000
O O9 0.289071 0.309389 0.712681
O O10 0.261453 0.217326 0.382170
O O11 0.734681 0.222615 0.983641
O O12 0.356126 0.165718 0.890827
O O13 0.883783 0.268107 0.716158
O O14 0.562698 0.643233 0.553072
O O15 0.086427 0.639991 0.948770
O O16 0.500000 0.000000 0.000000
#
# Coordination Sequence:
#
# PCOD9005475 Si02
#       7
#     2   2   2   2   2   2   2
#     4  11  23  40  63  92 125 163 206 255 308 367
#     4  10  21  38  62  90 124 162 206 254 306 364
#     4   9  19  37  61  89 122 160 203 251 305 364
#     4   9  19  37  61  89 122 160 203 251 305 364
#     4   9  18  36  60  88 122 160 203 251 304 363
#     4   9  18  36  60  88 122 160 203 251 304 363
#     4  11  23  40  63  92 125 163 206 255 308 367
#
# _framework density 26.461995000000002
#
# number of rings (size 3 to 8) (size 9 to 14) (size 15 to 20)
#    0.000    2.286    0.000    2.143    0.000    3.429 
#    0.000   11.429    0.000   30.857    0.000    0.000 
#    0.000    0.000    0.000    0.000    0.000    0.000 
#
# Total GULP energy -78158.649852 kJ/mol
# GULP energy per Si atom -5582.760704 kJ/mol
# Density = 2.640177 g / cm^3
# Si number density = 26.461995 Si / 1000 Ang^3
#
#
#
# Elastic Constant Matrix: (Units=GPa)
#
#
# Indices 1 2 3 4 5 6 
#
# 1 110.9921 28.9156 22.8230 -0.0478 -11.6380 31.7600
# 2 28.9156 261.8227 35.9627 -47.6607 -4.0003 35.5835
# 3 22.8230 35.9627 131.8278 -2.1789 -20.2130 2.4803
# 4 -0.0478 -47.6607 -2.1789 67.3837 11.5836 -1.1584
# 5 -11.6380 -4.0003 -20.2130 11.5836 43.8446 -7.6746
# 6 31.7600 35.5835 2.4803 -1.1584 -7.6746 53.1482
#
#
#
# Elastic Compliance Matrix: (Units=1/GPa)
#
#
# Indices 1 2 3 4 5 6 
#
# 1 0.011360 -0.000251 -0.001590 -0.000552 0.001290 -0.006372
# 2 -0.000251 0.005212 -0.001547 0.003911 -0.001944 -0.003463
# 3 -0.001590 -0.001547 0.008878 -0.001511 0.004307 0.002160
# 4 -0.000552 0.003911 -0.001511 0.018516 -0.005844 -0.002658
# 5 0.001290 -0.001944 0.004307 -0.005844 0.027226 0.004133
# 6 -0.006372 -0.003463 0.002160 -0.002658 0.004133 0.025380
#
#
# Mechanical properties :
#
#
# Convention : Reuss Voigt Hill
#
# Bulk Modulus (GPa) = 53.54634 75.56056 64.55345
# Shear Modulus (GPa) = 45.63180 60.67137 53.15158
#
# Velocity S-wave (km/s) = 4.15713 4.79349 4.48660
# Velocity P-wave (km/s) = 6.58190 7.69760 7.16151
#
# Compressibility (1/GPa) = 0.01867541
#
# Stress axis : x y z
#
# Youngs Moduli (GPa) = 88.02549 191.84717 112.64324
#
# Poissons Ratio (x) = 0.04817 0.17907
# Poissons Ratio (y) = 0.02210 0.17423
# Poissons Ratio (z) = 0.13993 0.29673
#
# Static dielectric constant tensor:
#      x y z
#    x 2.339480 -0.250720 0.058360 
#    y -0.250720 2.435240 -0.092110 
#    z 0.058360 -0.092110 1.929830 
# 
# From -- ./inp_files/14874.got.cif
#   From: 2010.05.17/outbox.cif.g08.bks.cpg/sg2_8_cif.got.tgz:14874.got - 2010.06.03 11:33:40.
