data_PCOD9005563
_publ_section_title
;
Structure prediction by ZEFSAII (Michael W. Deem and Ramdas Pophale) SiO2 
 PCOD9005563
Probable space group: P -1
;
_chemical_formula_sum "Si O2"
_cell_formula_units_Z 16
_cell_length_a 9.259610
_cell_length_b 11.222301
_cell_length_c 11.296278
_cell_angle_alpha 52.538449
_cell_angle_beta 62.788389
_cell_angle_gamma 54.904404
_cell_volume 751.821197
_symmetry_space_group_name_H-M "P -1"
_symmetry_group_IT_number 2
_symmetry_cell_setting 'triclinic'
loop_
_space_group_symop_operation_xyz
x,y,z
-x,-y,-z
loop_
_atom_site_type_symbol
_atom_site_label
_atom_site_fract_x
_atom_site_fract_y
_atom_site_fract_z
Si Si1 0.958535 0.183686 0.449062
Si Si2 0.840590 0.348890 0.145518
Si Si3 0.784829 0.207501 0.749699
Si Si4 0.194656 0.325950 0.393583
Si Si5 0.794086 0.848312 0.001893
Si Si6 0.921684 0.702391 0.290501
Si Si7 0.541670 0.315664 0.143756
Si Si8 0.445577 0.285816 0.953757
O O1 0.875063 0.301971 0.297814
O O2 0.831173 0.228884 0.584475
O O3 0.134538 0.204329 0.414658
O O4 0.000000 0.000000 0.500000
O O5 0.723351 0.261862 0.181477
O O6 0.725759 0.544163 0.058613
O O7 0.026173 0.284752 0.046267
O O8 0.584802 0.323035 0.797499
O O9 0.929132 0.235493 0.760709
O O10 0.796599 0.024577 0.873171
O O11 0.195405 0.287526 0.555697
O O12 0.379023 0.321732 0.280680
O O13 0.035435 0.510279 0.328713
O O14 0.809427 0.802459 0.161478
O O15 0.628448 0.831111 0.012197
O O16 0.500000 0.500000 0.000000
O O17 0.545403 0.217233 0.081937
#
# Coordination Sequence:
#
# PCOD9005563 Si02
#       8
#     2   2   2   2   2   2   2   2
#     4  11  23  43  65  92 134 172 209 262 326 380
#     4  11  22  39  67  90 124 173 220 258 315 383
#     4  11  24  41  63  89 137 168 204 272 322 369
#     4  10  21  40  64  94 129 168 211 273 308 378
#     4  12  22  39  64  93 130 171 215 259 320 385
#     4  10  21  38  65  93 124 168 222 255 320 376
#     4  10  21  38  62  93 128 157 208 265 314 364
#     4  11  23  39  62  96 124 167 217 268 313 371
#
# _framework density 21.281656000000002
#
# number of rings (size 3 to 8) (size 9 to 14) (size 15 to 20)
#    0.000    1.250    1.250    6.375    0.000    1.500 
#    0.000    0.625    0.000    0.000    0.000    0.000 
#    0.000    0.000    0.000    0.000    0.000    0.000 
#
# Total GULP energy -89506.595974 kJ/mol
# GULP energy per Si atom -5594.162248 kJ/mol
# Density = 2.123322 g / cm^3
# Si number density = 21.281656 Si / 1000 Ang^3
#
#
#
# Elastic Constant Matrix: (Units=GPa)
#
#
# Indices 1 2 3 4 5 6 
#
# 1 131.1530 29.5530 58.8811 29.2531 -8.9325 24.7653
# 2 29.5530 56.6779 0.8865 11.0532 -6.9943 11.0856
# 3 58.8811 0.8865 104.5540 22.2494 0.6256 5.9266
# 4 29.2531 11.0532 22.2494 30.8443 -2.9785 -11.3348
# 5 -8.9325 -6.9943 0.6256 -2.9785 45.1481 6.4438
# 6 24.7653 11.0856 5.9266 -11.3348 6.4438 30.9046
#
#
#
# Elastic Compliance Matrix: (Units=1/GPa)
#
#
# Indices 1 2 3 4 5 6 
#
# 1 0.020929 0.000111 -0.004893 -0.025504 0.006332 -0.026547
# 2 0.000111 0.025319 0.004685 -0.018671 0.005218 -0.018006
# 3 -0.004893 0.004685 0.014356 -0.008775 -0.000503 -0.003626
# 4 -0.025504 -0.018671 -0.008775 0.092463 -0.010997 0.065023
# 5 0.006332 0.005218 -0.000503 -0.010997 0.025813 -0.016265
# 6 -0.026547 -0.018006 -0.003626 0.065023 -0.016265 0.088025
#
#
# Mechanical properties :
#
#
# Convention : Reuss Voigt Hill
#
# Bulk Modulus (GPa) = 16.55321 52.33622 34.44471
# Shear Modulus (GPa) = 17.40731 34.91702 26.16216
#
# Velocity S-wave (km/s) = 2.86308 4.05496 3.50998
# Velocity P-wave (km/s) = 4.32721 6.82416 5.71375
#
# Compressibility (1/GPa) = 0.06041125
#
# Stress axis : x y z
#
# Youngs Moduli (GPa) = 47.78052 39.49582 69.65534
#
# Poissons Ratio (x) = -0.00439 0.34084
# Poissons Ratio (y) = -0.00531 -0.32637
# Poissons Ratio (z) = 0.23380 -0.18506
#
# Static dielectric constant tensor:
#      x y z
#    x 1.768200 0.033020 0.004550 
#    y 0.033020 1.808950 -0.005670 
#    z 0.004550 -0.005670 1.743650 
# 
# From -- ./inp_files/205317.got.cif
#   From: 2010.05.17/outbox.cif.g08.bks.cpg/sg2_103_cif.got.tgz:205317.got - 2010.06.03 11:33:40.
