data_PCOD9005528
_publ_section_title
;
Structure prediction by ZEFSAII (Michael W. Deem and Ramdas Pophale) SiO2 
 PCOD9005528
Probable space group: P -1
;
_chemical_formula_sum "Si O2"
_cell_formula_units_Z 16
_cell_length_a 9.221217
_cell_length_b 11.973416
_cell_length_c 20.064221
_cell_angle_alpha 38.576385
_cell_angle_beta 74.664168
_cell_angle_gamma 47.735734
_cell_volume 842.583317
_symmetry_space_group_name_H-M "P -1"
_symmetry_group_IT_number 2
_symmetry_cell_setting 'triclinic'
loop_
_space_group_symop_operation_xyz
x,y,z
-x,-y,-z
loop_
_atom_site_type_symbol
_atom_site_label
_atom_site_fract_x
_atom_site_fract_y
_atom_site_fract_z
Si Si1 0.286839 0.725062 0.265653
Si Si2 0.499973 0.104108 0.881640
Si Si3 0.015388 0.455584 0.237299
Si Si4 0.065917 0.058800 0.268777
Si Si5 0.804125 0.090341 0.528473
Si Si6 0.040247 0.111482 0.886580
Si Si7 0.576500 0.677507 0.989429
Si Si8 0.155335 0.360591 0.114261
O O1 0.332087 0.882960 0.156800
O O2 0.543764 0.405032 0.397948
O O3 0.134230 0.761532 0.212858
O O4 0.144519 0.870407 0.284446
O O5 0.227128 0.416646 0.769027
O O6 0.547152 0.904494 0.916735
O O7 0.500000 0.000000 0.000000
O O8 0.016088 0.640707 0.191012
O O9 0.025334 0.497001 0.137758
O O10 0.200654 0.122875 0.379163
O O11 0.235133 0.080367 0.236739
O O12 0.110970 0.943842 0.390297
O O13 0.790991 0.376169 0.142030
O O14 0.000000 0.000000 0.500000
O O15 0.314974 0.840587 0.955364
O O16 0.000000 0.000000 0.000000
O O17 0.665554 0.641102 0.920646
O O18 0.000000 0.500000 0.000000
#
# Coordination Sequence:
#
# PCOD9005528 Si02
#       8
#     2   2   2   2   2   2   2   2
#     4  12  24  40  61  93 131 167 209 261 307 380
#     4  11  19  33  63  91 121 156 210 263 311 361
#     4  10  22  41  60  91 127 165 208 262 308 375
#     4  10  22  38  65  96 123 159 215 272 311 360
#     4  11  23  41  69  95 117 164 225 267 307 356
#     4  11  27  40  60  95 137 167 202 248 328 393
#     4  10  21  38  62  92 126 164 202 256 331 374
#     4   9  17  32  63  92 115 157 208 259 316 355
#
# _framework density 18.989221000000001
#
# number of rings (size 3 to 8) (size 9 to 14) (size 15 to 20)
#    0.000    1.500    2.500    4.125    7.000    1.000 
#    0.000    0.000    0.000    3.750    0.000    0.000 
#    0.000    0.000    0.000    0.000    0.000    0.000 
#
# Total GULP energy -89129.211825 kJ/mol
# GULP energy per Si atom -5570.575739 kJ/mol
# Density = 1.894600 g / cm^3
# Si number density = 18.989221 Si / 1000 Ang^3
#
#
#
# Elastic Constant Matrix: (Units=GPa)
#
#
# Indices 1 2 3 4 5 6 
#
# 1 82.3459 57.4964 39.8343 6.5840 5.9601 0.3377
# 2 57.4964 141.4316 59.9838 10.6281 13.7935 -6.3365
# 3 39.8343 59.9838 127.5255 -4.7647 7.0294 0.0073
# 4 6.5840 10.6281 -4.7647 36.3584 -2.1665 -1.6372
# 5 5.9601 13.7935 7.0294 -2.1665 26.1893 0.5101
# 6 0.3377 -6.3365 0.0073 -1.6372 0.5101 35.5952
#
#
#
# Elastic Compliance Matrix: (Units=1/GPa)
#
#
# Indices 1 2 3 4 5 6 
#
# 1 0.017842 -0.005932 -0.002839 -0.001947 -0.000310 -0.001310
# 2 -0.005932 0.011700 -0.003533 -0.002963 -0.004149 0.002063
# 3 -0.002839 -0.003533 0.010502 0.002898 -0.000063 -0.000470
# 4 -0.001947 -0.002963 0.002898 0.029355 0.003639 0.000788
# 5 -0.000310 -0.004149 -0.000063 0.003639 0.040780 -0.001153
# 6 -0.001310 0.002063 -0.000470 0.000788 -0.001153 0.028526
#
#
# Mechanical properties :
#
#
# Convention : Reuss Voigt Hill
#
# Bulk Modulus (GPa) = 64.77552 73.99244 69.38398
# Shear Modulus (GPa) = 29.68124 32.56117 31.12120
#
# Velocity S-wave (km/s) = 3.95784 4.14541 4.05271
# Velocity P-wave (km/s) = 7.42104 7.87163 7.64965
#
# Compressibility (1/GPa) = 0.01543793
#
# Stress axis : x y z
#
# Youngs Moduli (GPa) = 56.04692 85.47042 95.22277
#
# Poissons Ratio (x) = 0.50698 0.27032
# Poissons Ratio (y) = 0.33245 0.33638
# Poissons Ratio (z) = 0.15911 0.30193
#
# Static dielectric constant tensor:
#      x y z
#    x 1.699090 -0.048010 0.001140 
#    y -0.048010 1.930410 0.011780 
#    z 0.001140 0.011780 1.704650 
# 
# From -- ./inp_files/577175.got.cif
#   From: 2010.05.17/outbox.cif.g08.bks.cpg/sg2_289_cif.got.tgz:577175.got - 2010.06.03 11:33:40.
