data_PCOD9005901
_publ_section_title
;
Structure prediction by ZEFSAII (Michael W. Deem and Ramdas Pophale) SiO2 
 PCOD9005901
Probable space group: P -1
;
_chemical_formula_sum "Si O2"
_cell_formula_units_Z 16
_cell_length_a 18.880168
_cell_length_b 11.515811
_cell_length_c 7.855859
_cell_angle_alpha 74.052335
_cell_angle_beta 69.561097
_cell_angle_gamma 134.444731
_cell_volume 720.376699
_symmetry_space_group_name_H-M "P -1"
_symmetry_group_IT_number 2
_symmetry_cell_setting 'triclinic'
loop_
_space_group_symop_operation_xyz
x,y,z
-x,-y,-z
loop_
_atom_site_type_symbol
_atom_site_label
_atom_site_fract_x
_atom_site_fract_y
_atom_site_fract_z
Si Si1 0.084688 0.362039 0.196846
Si Si2 0.977375 0.927359 0.857285
Si Si3 0.153596 0.706999 0.161244
Si Si4 0.650185 0.561659 0.327048
Si Si5 0.307741 0.128830 0.637701
Si Si6 0.710269 0.550285 0.828596
Si Si7 0.456221 0.185079 0.927605
Si Si8 0.720987 0.843658 0.745299
O O1 0.045316 0.246991 0.091842
O O2 0.137219 0.572036 0.099853
O O3 0.218718 0.460967 0.119136
O O4 0.908588 0.106480 0.537592
O O5 0.808320 0.748169 0.018177
O O6 0.129510 0.190875 0.521186
O O7 0.000000 0.000000 0.000000
O O8 0.000000 0.500000 0.500000
O O9 0.188686 0.872258 0.944990
O O10 0.307676 0.907674 0.076652
O O11 0.488606 0.338433 0.442356
O O12 0.693087 0.744017 0.317571
O O13 0.598994 0.397471 0.584414
O O14 0.282972 0.110001 0.464086
O O15 0.550015 0.274871 0.979291
O O16 0.662709 0.623258 0.881305
O O17 0.381376 0.212594 0.024301
#
# Coordination Sequence:
#
# PCOD9005901 Si02
#       8
#     2   2   2   2   2   2   2   2
#     4  11  26  43  65  97 139 182 218 269 341 407
#     4  11  21  41  66  96 139 167 220 277 341 389
#     4  11  25  48  65  97 137 187 224 269 332 413
#     4  10  21  38  64 105 126 172 216 293 335 382
#     4  10  23  38  71  98 134 170 234 275 336 383
#     4  11  24  40  68 101 137 172 222 287 342 389
#     4  11  22  42  72  98 135 174 232 275 335 395
#     4  11  21  42  68 105 127 172 228 292 328 391
#
# _framework density 22.210602999999999
#
# number of rings (size 3 to 8) (size 9 to 14) (size 15 to 20)
#    0.000    1.250    3.750    2.625    3.500    4.000 
#    0.000    2.500    0.000    0.000    0.000    0.000 
#    0.000    0.000    0.000    0.000    0.000    0.000 
#
# Total GULP energy -89263.825803 kJ/mol
# GULP energy per Si atom -5578.989113 kJ/mol
# Density = 2.216005 g / cm^3
# Si number density = 22.210603 Si / 1000 Ang^3
#
#
#
# Elastic Constant Matrix: (Units=GPa)
#
#
# Indices 1 2 3 4 5 6 
#
# 1 34.8259 23.6048 8.9871 -3.4729 -4.0117 7.3158
# 2 23.6048 106.6479 23.0111 -15.8107 9.9750 -9.6131
# 3 8.9871 23.0111 91.4765 -3.8987 -0.7848 -7.5475
# 4 -3.4729 -15.8107 -3.8987 38.1921 3.2079 -4.6315
# 5 -4.0117 9.9750 -0.7848 3.2079 40.3384 -7.5191
# 6 7.3158 -9.6131 -7.5475 -4.6315 -7.5191 23.1712
#
#
#
# Elastic Compliance Matrix: (Units=1/GPa)
#
#
# Indices 1 2 3 4 5 6 
#
# 1 0.040592 -0.010837 -0.002848 -0.003546 0.003631 -0.017770
# 2 -0.010837 0.014126 -0.001526 0.006072 -0.003427 0.008887
# 3 -0.002848 -0.001526 0.012029 0.000813 0.001143 0.004718
# 4 -0.003546 0.006072 0.000813 0.029765 -0.002521 0.009035
# 5 0.003631 -0.003427 0.001143 -0.002521 0.027374 0.006183
# 6 -0.017770 0.008887 0.004718 0.009035 0.006183 0.057803
#
#
# Mechanical properties :
#
#
# Convention : Reuss Voigt Hill
#
# Bulk Modulus (GPa) = 27.52913 38.23960 32.88436
# Shear Modulus (GPa) = 22.29943 32.16351 27.23147
#
# Velocity S-wave (km/s) = 3.17203 3.80954 3.50531
# Velocity P-wave (km/s) = 5.08303 6.05015 5.58755
#
# Compressibility (1/GPa) = 0.03632516
#
# Stress axis : x y z
#
# Youngs Moduli (GPa) = 24.63542 70.78984 83.13100
#
# Poissons Ratio (x) = 0.76714 0.23676
# Poissons Ratio (y) = 0.26697 0.12688
# Poissons Ratio (z) = 0.07016 0.10804
#
# Static dielectric constant tensor:
#      x y z
#    x 1.876070 0.086920 -0.030650 
#    y 0.086920 1.968090 0.025640 
#    z -0.030650 0.025640 1.823180 
# 
# From -- ./inp_files/333114.got.cif
#   From: 2010.05.17/outbox.cif.g08.bks.cpg/sg2_167_cif.got.tgz:333114.got - 2010.06.03 11:33:40.
