data_PCOD9005348
_publ_section_title
;
Structure prediction by ZEFSAII (Michael W. Deem and Ramdas Pophale) SiO2 
 PCOD9005348
Probable space group: P -1
;
_chemical_formula_sum "Si O2"
_cell_formula_units_Z 16
_cell_length_a 14.410192
_cell_length_b 9.181537
_cell_length_c 12.289353
_cell_angle_alpha 38.858822
_cell_angle_beta 129.923871
_cell_angle_gamma 106.885101
_cell_volume 704.458523
_symmetry_space_group_name_H-M "P -1"
_symmetry_group_IT_number 2
_symmetry_cell_setting 'triclinic'
loop_
_space_group_symop_operation_xyz
x,y,z
-x,-y,-z
loop_
_atom_site_type_symbol
_atom_site_label
_atom_site_fract_x
_atom_site_fract_y
_atom_site_fract_z
Si Si1 0.246899 0.427038 0.555162
Si Si2 0.862680 0.636946 0.883195
Si Si3 0.952867 0.786966 0.063271
Si Si4 0.432158 0.678219 0.583224
Si Si5 0.140733 0.439134 0.699288
Si Si6 0.389524 0.877488 0.874319
Si Si7 0.861224 0.229447 0.295585
Si Si8 0.426459 0.006231 0.601617
O O1 0.096036 0.526921 0.332197
O O2 0.302758 0.643739 0.462905
O O3 0.237536 0.386069 0.701287
O O4 0.345247 0.153067 0.737737
O O5 0.728349 0.779255 0.630820
O O6 0.838424 0.449267 0.060433
O O7 0.000000 0.500000 0.000000
O O8 0.889345 0.827474 0.873534
O O9 0.848459 0.775350 0.079773
O O10 0.000000 0.000000 0.000000
O O11 0.485273 0.844186 0.451972
O O12 0.426192 0.812606 0.618469
O O13 0.535633 0.377009 0.849118
O O14 0.135501 0.665655 0.642301
O O15 0.000000 0.500000 0.500000
O O16 0.254281 0.861180 0.745777
O O17 0.469375 0.866272 0.830253
O O18 0.000000 0.000000 0.500000
#
# Coordination Sequence:
#
# PCOD9005348 Si02
#       8
#     2   2   2   2   2   2   2   2
#     4  11  23  43  64  96 136 173 223 277 332 407
#     4  11  22  39  63  98 134 164 216 279 333 389
#     4  10  21  38  61  94 131 170 217 265 334 397
#     4  11  25  46  68  95 135 180 228 275 331 402
#     4   9  20  38  59  89 127 171 214 264 329 386
#     4  12  24  44  66  99 132 174 230 273 340 397
#     4  11  21  37  64  96 130 174 222 275 333 399
#     4  11  24  45  70  98 132 175 229 277 334 401
#
# _framework density 22.712478000000001
#
# number of rings (size 3 to 8) (size 9 to 14) (size 15 to 20)
#    0.000    1.250    1.250    6.000    0.000    4.500 
#    6.750    0.000    0.000    0.000    0.000    0.000 
#    0.000    0.000    0.000    0.000    0.000    0.000 
#
# Total GULP energy -89438.821307 kJ/mol
# GULP energy per Si atom -5589.926332 kJ/mol
# Density = 2.266078 g / cm^3
# Si number density = 22.712478 Si / 1000 Ang^3
#
#
#
# Elastic Constant Matrix: (Units=GPa)
#
#
# Indices 1 2 3 4 5 6 
#
# 1 97.9483 47.6987 5.7305 5.1705 -13.0921 10.7725
# 2 47.6987 136.7286 8.7515 -8.0871 -8.9126 15.3313
# 3 5.7305 8.7515 57.6411 0.0416 8.7831 8.0357
# 4 5.1705 -8.0871 0.0416 36.0251 3.8350 1.0388
# 5 -13.0921 -8.9126 8.7831 3.8350 28.9105 3.3101
# 6 10.7725 15.3313 8.0357 1.0388 3.3101 36.5264
#
#
#
# Elastic Compliance Matrix: (Units=1/GPa)
#
#
# Indices 1 2 3 4 5 6 
#
# 1 0.013575 -0.004199 -0.001286 -0.003456 0.005977 -0.002402
# 2 -0.004199 0.009368 -0.000812 0.002658 0.001189 -0.002698
# 3 -0.001286 -0.000812 0.018973 0.000741 -0.006363 -0.002899
# 4 -0.003456 0.002658 0.000741 0.029380 -0.004793 -0.000660
# 5 0.005977 0.001189 -0.006363 -0.004793 0.040738 -0.004418
# 6 -0.002402 -0.002698 -0.002899 -0.000660 -0.004418 0.030275
#
#
# Mechanical properties :
#
#
# Convention : Reuss Voigt Hill
#
# Bulk Modulus (GPa) = 34.10279 46.29771 40.20025
# Shear Modulus (GPa) = 30.36285 35.63489 32.99887
#
# Velocity S-wave (km/s) = 3.66024 3.96530 3.81582
# Velocity P-wave (km/s) = 5.73679 6.43377 6.09525
#
# Compressibility (1/GPa) = 0.02932311
#
# Stress axis : x y z
#
# Youngs Moduli (GPa) = 73.66483 106.74790 52.70682
#
# Poissons Ratio (x) = 0.44823 0.06775
# Poissons Ratio (y) = 0.30932 0.04279
# Poissons Ratio (z) = 0.09470 0.08666
#
# Static dielectric constant tensor:
#      x y z
#    x 2.258010 0.218830 0.026450 
#    y 0.218830 1.968160 -0.001040 
#    z 0.026450 -0.001040 1.927990 
# 
# From -- ./inp_files/215847.got.cif
#   From: 2010.05.17/outbox.cif.g08.bks.cpg/sg2_108_cif.got.tgz:215847.got - 2010.06.03 11:33:40.
