data_PCOD9005367
_publ_section_title
;
Structure prediction by ZEFSAII (Michael W. Deem and Ramdas Pophale) SiO2 
 PCOD9005367
Probable space group: P -1
;
_chemical_formula_sum "Si O2"
_cell_formula_units_Z 14
_cell_length_a 4.947630
_cell_length_b 5.718675
_cell_length_c 18.807769
_cell_angle_alpha 76.592125
_cell_angle_beta 90.162603
_cell_angle_gamma 90.886911
_cell_volume 517.578606
_symmetry_space_group_name_H-M "P -1"
_symmetry_group_IT_number 2
_symmetry_cell_setting 'triclinic'
loop_
_space_group_symop_operation_xyz
x,y,z
-x,-y,-z
loop_
_atom_site_type_symbol
_atom_site_label
_atom_site_fract_x
_atom_site_fract_y
_atom_site_fract_z
Si Si1 0.039031 0.379183 0.339316
Si Si2 0.566704 0.646849 0.828940
Si Si3 0.471321 0.457138 0.586011
Si Si4 0.395989 0.992021 0.693646
Si Si5 0.789269 0.927719 0.924489
Si Si6 0.216856 0.598200 0.028900
Si Si7 0.128266 0.275404 0.801298
O O1 0.319345 0.373042 0.382222
O O2 0.066423 0.564375 0.259880
O O3 0.827543 0.491259 0.388481
O O4 0.866863 0.147705 0.327968
O O5 0.795596 0.495957 0.880130
O O6 0.324861 0.457748 0.831357
O O7 0.585886 0.797396 0.746029
O O8 0.546601 0.844822 0.878278
O O9 0.500000 0.500000 0.500000
O O10 0.527300 0.179306 0.625885
O O11 0.304542 0.151602 0.748776
O O12 0.719306 0.120084 0.969644
O O13 0.992531 0.063678 0.861402
O O14 0.940262 0.688598 0.975055
O O15 0.500000 0.500000 0.000000
#
# Coordination Sequence:
#
# PCOD9005367 Si02
#       7
#     2   2   2   2   2   2   2
#     4  10  24  40  67  95 138 176 236 290 355 421
#     4   9  21  35  65  83 128 161 224 275 345 408
#     4  11  24  43  65  97 138 183 234 289 355 428
#     4  10  22  39  62  96 131 174 225 295 351 418
#     4  10  22  37  65  87 130 173 225 287 349 421
#     4  10  22  41  62  90 130 179 225 289 358 420
#     4  10  21  38  61  97 125 170 229 284 351 416
#
# _framework density 27.049035
#
# number of rings (size 3 to 8) (size 9 to 14) (size 15 to 20)
#    0.857    1.143    0.000    2.571    4.000    9.143 
#    0.000    1.429    0.000    0.000    0.000    0.000 
#    0.000    0.000    0.000    0.000    0.000    0.000 
#
# Total GULP energy -78325.182114 kJ/mol
# GULP energy per Si atom -5594.655865 kJ/mol
# Density = 2.698747 g / cm^3
# Si number density = 27.049035 Si / 1000 Ang^3
#
#
#
# Elastic Constant Matrix: (Units=GPa)
#
#
# Indices 1 2 3 4 5 6 
#
# 1 99.4989 63.4334 69.5853 -7.0299 7.8018 -7.5554
# 2 63.4334 211.1247 98.8338 -3.2025 11.4751 5.7739
# 3 69.5853 98.8338 221.8439 -10.4642 13.2719 22.4576
# 4 -7.0299 -3.2025 -10.4642 49.2154 11.0960 8.2271
# 5 7.8018 11.4751 13.2719 11.0960 40.0970 2.1759
# 6 -7.5554 5.7739 22.4576 8.2271 2.1759 57.7942
#
#
#
# Elastic Compliance Matrix: (Units=1/GPa)
#
#
# Indices 1 2 3 4 5 6 
#
# 1 0.014792 -0.002745 -0.003658 0.000858 -0.001312 0.003557
# 2 -0.002745 0.006535 -0.002008 -0.000229 -0.000599 -0.000176
# 3 -0.003658 -0.002008 0.007032 0.001677 -0.001332 -0.003199
# 4 0.000858 -0.000229 0.001677 0.022906 -0.006804 -0.003521
# 5 -0.001312 -0.000599 -0.001332 -0.006804 0.027672 0.000332
# 6 0.003557 -0.000176 -0.003199 -0.003521 0.000332 0.019517
#
#
# Mechanical properties :
#
#
# Convention : Reuss Voigt Hill
#
# Bulk Modulus (GPa) = 86.66840 110.68583 98.67712
# Shear Modulus (GPa) = 41.97430 49.46233 45.71832
#
# Velocity S-wave (km/s) = 3.94354 4.28087 4.11567
# Velocity P-wave (km/s) = 7.26954 8.08973 7.69058
#
# Compressibility (1/GPa) = 0.01153823
#
# Stress axis : x y z
#
# Youngs Moduli (GPa) = 67.60345 153.02409 142.20599
#
# Poissons Ratio (x) = 0.42003 0.52019
# Poissons Ratio (y) = 0.18556 0.28548
# Poissons Ratio (z) = 0.24730 0.30720
#
# Static dielectric constant tensor:
#      x y z
#    x 2.151980 -0.119750 -0.019670 
#    y -0.119750 2.297450 0.002300 
#    z -0.019670 0.002300 2.087550 
# 
# From -- ./inp_files/580681.got.cif
#   From: 2010.05.17/outbox.cif.g08.bks.cpg/sg2_291_cif.got.tgz:580681.got - 2010.06.03 11:33:40.
