data_PCOD9005269
_publ_section_title
;
Structure prediction by ZEFSAII (Michael W. Deem and Ramdas Pophale) SiO2 
 PCOD9005269
Probable space group: P -1
;
_chemical_formula_sum "Si O2"
_cell_formula_units_Z 11
_cell_length_a 11.982198
_cell_length_b 13.090464
_cell_length_c 6.337837
_cell_angle_alpha 124.032535
_cell_angle_beta 103.304507
_cell_angle_gamma 38.374862
_cell_volume 467.499471
_symmetry_space_group_name_H-M "P -1"
_symmetry_group_IT_number 2
_symmetry_cell_setting 'triclinic'
loop_
_space_group_symop_operation_xyz
x,y,z
-x,-y,-z
loop_
_atom_site_type_symbol
_atom_site_label
_atom_site_fract_x
_atom_site_fract_y
_atom_site_fract_z
Si Si1 0.709544 0.559524 0.798273
Si Si2 0.672126 0.986696 0.639315
Si Si3 0.130827 0.993055 0.952691
Si Si4 0.924581 0.759839 0.108438
Si Si5 0.708177 0.767186 0.732244
Si Si6 0.500000 0.500000 0.500000
O O1 0.722303 0.614820 0.638533
O O2 0.657049 0.462990 0.631224
O O3 0.904897 0.410636 0.847048
O O4 0.536963 0.777868 0.107560
O O5 0.723935 0.948628 0.374208
O O6 0.705511 0.820797 0.555735
O O7 0.822730 0.945924 0.778841
O O8 0.338258 0.752779 0.700965
O O9 0.036790 0.149115 0.898940
O O10 0.000000 0.000000 0.000000
O O11 0.879532 0.690485 0.844261
O O12 0.500000 0.000000 0.000000
#
# Coordination Sequence:
#
# PCOD9005269 Si02
#       6
#     2   2   2   2   2   1
#     4  10  21  38  61  90 120 155 199 240 288 352
#     4   9  21  39  60  87 119 155 194 242 295 346
#     4  10  22  40  59  85 120 154 196 245 291 349
#     4  11  22  39  65  89 114 155 200 243 294 347
#     4   9  20  40  60  88 124 152 193 246 292 346
#     4  10  22  40  60  84 120 160 192 238 298 344
#
# _framework density 23.529439
#
# number of rings (size 3 to 8) (size 9 to 14) (size 15 to 20)
#    0.000    2.182    0.000    2.727    0.000    8.000 
#    0.000   14.545    0.000    0.000    0.000    0.000 
#    0.000    0.000    0.000    0.000    0.000    0.000 
#
# Total GULP energy -61288.742734 kJ/mol
# GULP energy per Si atom -5571.703885 kJ/mol
# Density = 2.347588 g / cm^3
# Si number density = 23.529439 Si / 1000 Ang^3
#
#
#
# Elastic Constant Matrix: (Units=GPa)
#
#
# Indices 1 2 3 4 5 6 
#
# 1 111.1124 26.2640 29.5485 -15.4310 4.1846 5.0032
# 2 26.2640 78.0333 16.1083 5.3031 -0.8385 3.0485
# 3 29.5485 16.1083 76.5677 -0.9256 10.6308 17.0603
# 4 -15.4310 5.3031 -0.9256 22.5912 -6.3455 -7.8205
# 5 4.1846 -0.8385 10.6308 -6.3455 39.0936 -7.5636
# 6 5.0032 3.0485 17.0603 -7.8205 -7.5636 42.7623
#
#
#
# Elastic Compliance Matrix: (Units=1/GPa)
#
#
# Indices 1 2 3 4 5 6 
#
# 1 0.012579 -0.004078 -0.004902 0.011116 0.002326 0.003219
# 2 -0.004078 0.014980 -0.001317 -0.006909 -0.000272 -0.001377
# 3 -0.004902 -0.001317 0.018263 -0.007638 -0.007517 -0.009345
# 4 0.011116 -0.006909 -0.007638 0.062720 0.014053 0.016195
# 5 0.002326 -0.000272 -0.007517 0.014053 0.031766 0.010935
# 6 0.003219 -0.001377 -0.009345 0.016195 0.010935 0.031731
#
#
# Mechanical properties :
#
#
# Convention : Reuss Voigt Hill
#
# Bulk Modulus (GPa) = 39.63909 45.50611 42.57260
# Shear Modulus (GPa) = 24.87058 33.80892 29.33975
#
# Velocity S-wave (km/s) = 3.25468 3.79473 3.53503
# Velocity P-wave (km/s) = 5.56840 6.21144 5.89869
#
# Compressibility (1/GPa) = 0.02522762
#
# Stress axis : x y z
#
# Youngs Moduli (GPa) = 79.49947 66.75672 54.75620
#
# Poissons Ratio (x) = 0.27223 0.26843
# Poissons Ratio (y) = 0.32419 0.07209
# Poissons Ratio (z) = 0.38973 0.08789
#
# Static dielectric constant tensor:
#      x y z
#    x 1.900020 -0.043640 -0.041400 
#    y -0.043640 1.870930 0.014360 
#    z -0.041400 0.014360 1.906190 
# 
# From -- ./inp_files/20118.got.cif
#   From: 2010.05.17/outbox.cif.g08.bks.cpg/sg2_11_cif.got.tgz:20118.got - 2010.06.03 11:33:40.
