data_PCOD9005234
_publ_section_title
;
Structure prediction by ZEFSAII (Michael W. Deem and Ramdas Pophale) SiO2 
 PCOD9005234
Probable space group: P -1
;
_chemical_formula_sum "Si O2"
_cell_formula_units_Z 16
_cell_length_a 9.431222
_cell_length_b 13.372662
_cell_length_c 7.873599
_cell_angle_alpha 61.253214
_cell_angle_beta 49.165176
_cell_angle_gamma 81.104856
_cell_volume 639.309892
_symmetry_space_group_name_H-M "P -1"
_symmetry_group_IT_number 2
_symmetry_cell_setting 'triclinic'
loop_
_space_group_symop_operation_xyz
x,y,z
-x,-y,-z
loop_
_atom_site_type_symbol
_atom_site_label
_atom_site_fract_x
_atom_site_fract_y
_atom_site_fract_z
Si Si1 0.899026 0.486932 0.331507
Si Si2 0.447094 0.574153 0.138523
Si Si3 0.367712 0.825538 0.644173
Si Si4 0.303668 0.564100 0.807537
Si Si5 0.588247 0.851104 0.785613
Si Si6 0.013205 0.093897 0.759487
Si Si7 0.659039 0.923239 0.046568
Si Si8 0.930121 0.760387 0.092867
O O1 0.779239 0.439767 0.632267
O O2 0.785532 0.415661 0.320179
O O3 0.889050 0.622436 0.207864
O O4 0.123139 0.491989 0.120902
O O5 0.538540 0.510619 0.267724
O O6 0.500000 0.500000 0.000000
O O7 0.548756 0.710242 0.944636
O O8 0.385910 0.690907 0.722898
O O9 0.444025 0.869712 0.734095
O O10 0.142924 0.818436 0.807877
O O11 0.496307 0.898487 0.338104
O O12 0.803155 0.901180 0.505046
O O13 0.575818 0.900910 0.941901
O O14 0.052856 0.214021 0.738264
O O15 0.817513 0.046128 0.847979
O O16 0.000000 0.000000 0.000000
O O17 0.778208 0.823090 0.075286
#
# Coordination Sequence:
#
# PCOD9005234 Si02
#       8
#     2   2   2   2   2   2   2   2
#     4  10  21  38  61  88 123 164 205 242 301 361
#     4  12  22  35  58  90 123 159 200 242 303 359
#     4  11  22  42  64  95 129 162 211 251 310 366
#     4  10  21  39  60  88 125 164 202 248 293 366
#     4  12  23  42  65  95 125 163 209 260 309 370
#     4  10  21  44  68  87 122 167 204 259 322 369
#     4  11  23  43  67  90 126 163 208 262 313 366
#     4  10  21  41  67  92 125 171 204 256 308 369
#
# _framework density 25.026985
#
# number of rings (size 3 to 8) (size 9 to 14) (size 15 to 20)
#    0.000    1.250    3.750    3.750    0.000    1.000 
#    4.500    0.625    0.000    0.000    0.000    0.000 
#    0.000    0.000    0.000    0.000    0.000    0.000 
#
# Total GULP energy -89657.843417 kJ/mol
# GULP energy per Si atom -5603.615214 kJ/mol
# Density = 2.497002 g / cm^3
# Si number density = 25.026985 Si / 1000 Ang^3
#
#
#
# Elastic Constant Matrix: (Units=GPa)
#
#
# Indices 1 2 3 4 5 6 
#
# 1 96.7841 32.8838 26.6260 -2.3204 4.4536 27.3776
# 2 32.8838 113.1592 25.7262 -0.1458 11.9045 24.1139
# 3 26.6260 25.7262 147.6653 7.6775 -10.3167 16.7435
# 4 -2.3204 -0.1458 7.6775 31.0601 10.0651 6.9264
# 5 4.4536 11.9045 -10.3167 10.0651 29.2738 8.1369
# 6 27.3776 24.1139 16.7435 6.9264 8.1369 51.2569
#
#
#
# Elastic Compliance Matrix: (Units=1/GPa)
#
#
# Indices 1 2 3 4 5 6 
#
# 1 0.013259 -0.002131 -0.001602 0.003040 -0.001153 -0.005784
# 2 -0.002131 0.010988 -0.001642 0.002519 -0.004732 -0.003084
# 3 -0.001602 -0.001642 0.008062 -0.003549 0.005355 -0.001376
# 4 0.003040 0.002519 -0.003549 0.039171 -0.014935 -0.004572
# 5 -0.001153 -0.004732 0.005355 -0.014935 0.044375 -0.003934
# 6 -0.005784 -0.003084 -0.001376 -0.004572 -0.003934 0.025741
#
#
# Mechanical properties :
#
#
# Convention : Reuss Voigt Hill
#
# Bulk Modulus (GPa) = 46.38628 58.67560 52.53094
# Shear Modulus (GPa) = 31.34144 40.47636 35.90890
#
# Velocity S-wave (km/s) = 3.54263 4.02594 3.79199
# Velocity P-wave (km/s) = 5.94209 6.71616 6.34094
#
# Compressibility (1/GPa) = 0.02155810
#
# Stress axis : x y z
#
# Youngs Moduli (GPa) = 75.41950 91.00930 124.04377
#
# Poissons Ratio (x) = 0.19395 0.19876
# Poissons Ratio (y) = 0.16073 0.20367
# Poissons Ratio (z) = 0.12084 0.14943
#
# Static dielectric constant tensor:
#      x y z
#    x 2.008280 0.010620 0.017970 
#    y 0.010620 1.984850 0.003590 
#    z 0.017970 0.003590 1.951060 
# 
# From -- ./inp_files/272345.got.cif
#   From: 2010.05.17/outbox.cif.g08.bks.cpg/sg2_137_cif.got.tgz:272345.got - 2010.06.03 11:33:40.
