data_PCOD9005443
_publ_section_title
;
Structure prediction by ZEFSAII (Michael W. Deem and Ramdas Pophale) SiO2 
 PCOD9005443
Probable space group: P -1
;
_chemical_formula_sum "Si O2"
_cell_formula_units_Z 10
_cell_length_a 7.892765
_cell_length_b 6.473217
_cell_length_c 10.179335
_cell_angle_alpha 103.840277
_cell_angle_beta 134.885809
_cell_angle_gamma 92.225728
_cell_volume 341.096889
_symmetry_space_group_name_H-M "P -1"
_symmetry_group_IT_number 2
_symmetry_cell_setting 'triclinic'
loop_
_space_group_symop_operation_xyz
x,y,z
-x,-y,-z
loop_
_atom_site_type_symbol
_atom_site_label
_atom_site_fract_x
_atom_site_fract_y
_atom_site_fract_z
Si Si1 0.359826 0.690547 0.963962
Si Si2 0.565300 0.280243 0.707743
Si Si3 0.088673 0.624497 0.426737
Si Si4 0.909376 0.033917 0.710133
Si Si5 0.602362 0.783820 0.842757
O O1 0.431681 0.796172 0.877539
O O2 0.062898 0.567312 0.785075
O O3 0.500000 0.500000 0.000000
O O4 0.449987 0.816885 0.167146
O O5 0.748747 0.174248 0.715455
O O6 0.661294 0.545012 0.823571
O O7 0.291322 0.197612 0.478198
O O8 0.995011 0.830198 0.352435
O O9 0.388579 0.730854 0.604327
O O10 0.000000 0.500000 0.500000
O O11 0.132485 0.047126 0.936524
#
# Coordination Sequence:
#
# PCOD9005443 Si02
#       5
#     2   2   2   2   2
#     4   9  17  38  61  83 115 153 195 235 288 348
#     4  10  22  39  62  88 119 158 194 241 297 346
#     4  10  21  38  62  89 117 154 200 240 293 349
#     4  11  22  41  60  87 123 155 195 243 293 349
#     4  10  21  40  62  85 119 159 195 241 293 346
#
# _framework density 29.317188000000002
#
# number of rings (size 3 to 8) (size 9 to 14) (size 15 to 20)
#    0.000    2.000    4.000    0.600    0.000    1.600 
#    3.600    4.000    0.000    0.000    0.000    0.000 
#    0.000    0.000    0.000    0.000    0.000    0.000 
#
# Total GULP energy -55850.689005 kJ/mol
# GULP energy per Si atom -5585.068901 kJ/mol
# Density = 2.925046 g / cm^3
# Si number density = 29.317188 Si / 1000 Ang^3
#
#
#
# Elastic Constant Matrix: (Units=GPa)
#
#
# Indices 1 2 3 4 5 6 
#
# 1 111.9490 16.3333 60.5225 -6.5426 -19.3987 8.7029
# 2 16.3333 58.7758 61.4381 6.4934 -2.8866 0.8318
# 3 60.5225 61.4381 308.8727 16.1256 40.3877 -21.0645
# 4 -6.5426 6.4934 16.1256 80.0319 -3.5709 -6.1015
# 5 -19.3987 -2.8866 40.3877 -3.5709 51.0957 -4.2317
# 6 8.7029 0.8318 -21.0645 -6.1015 -4.2317 33.3208
#
#
#
# Elastic Compliance Matrix: (Units=1/GPa)
#
#
# Indices 1 2 3 4 5 6 
#
# 1 0.012916 0.001071 -0.004210 0.001816 0.008028 -0.004709
# 2 0.001071 0.023251 -0.005849 -0.000653 0.005973 -0.003919
# 3 -0.004210 -0.005849 0.006461 -0.001148 -0.006763 0.004261
# 4 0.001816 -0.000653 -0.001148 0.013163 0.002609 0.001558
# 5 0.008028 0.005973 -0.006763 0.002609 0.028281 -0.002452
# 6 -0.004709 -0.003919 0.004261 0.001558 -0.002452 0.034006
#
#
# Mechanical properties :
#
#
# Convention : Reuss Voigt Hill
#
# Bulk Modulus (GPa) = 40.56344 84.02057 62.29201
# Shear Modulus (GPa) = 34.65722 55.64327 45.15025
#
# Velocity S-wave (km/s) = 3.44197 4.36130 3.92862
# Velocity P-wave (km/s) = 5.44631 7.35409 6.47089
#
# Compressibility (1/GPa) = 0.02465274
#
# Stress axis : x y z
#
# Youngs Moduli (GPa) = 77.42611 43.00889 154.78220
#
# Poissons Ratio (x) = -0.04608 0.65158
# Poissons Ratio (y) = -0.08296 0.90534
# Poissons Ratio (z) = 0.32594 0.25156
#
# Static dielectric constant tensor:
#      x y z
#    x 2.255440 0.125210 0.022740 
#    y 0.125210 2.533080 -0.034750 
#    z 0.022740 -0.034750 2.272750 
# 
# From -- ./inp_files/150002.got.cif
#   From: 2010.05.17/outbox.cif.g08.bks.cpg/sg2_76_cif.got.tgz:150002.got - 2010.06.03 11:33:40.
