data_PCOD9005179
_publ_section_title
;
Structure prediction by ZEFSAII (Michael W. Deem and Ramdas Pophale) SiO2 
 PCOD9005179
Probable space group: P -1
;
_chemical_formula_sum "Si O2"
_cell_formula_units_Z 16
_cell_length_a 12.935223
_cell_length_b 18.558787
_cell_length_c 8.881563
_cell_angle_alpha 112.128721
_cell_angle_beta 120.996327
_cell_angle_gamma 28.118663
_cell_volume 845.371260
_symmetry_space_group_name_H-M "P -1"
_symmetry_group_IT_number 2
_symmetry_cell_setting 'triclinic'
loop_
_space_group_symop_operation_xyz
x,y,z
-x,-y,-z
loop_
_atom_site_type_symbol
_atom_site_label
_atom_site_fract_x
_atom_site_fract_y
_atom_site_fract_z
Si Si1 0.596003 0.650799 0.064201
Si Si2 0.492571 0.096884 0.050350
Si Si3 0.530826 0.802745 0.402207
Si Si4 0.861554 0.697850 0.802411
Si Si5 0.314795 0.674056 0.033247
Si Si6 0.762664 0.170559 0.648548
Si Si7 0.696564 0.133806 0.261233
Si Si8 0.242857 0.069448 0.192861
O O1 0.622913 0.705082 0.247674
O O2 0.395098 0.701230 0.009186
O O3 0.852489 0.465842 0.107751
O O4 0.516958 0.727226 0.903802
O O5 0.238359 0.257684 0.067356
O O6 0.662063 0.064406 0.240044
O O7 0.500000 0.000000 0.000000
O O8 0.595150 0.050404 0.921998
O O9 0.737515 0.706350 0.601945
O O10 0.345987 0.844729 0.367669
O O11 0.387193 0.959012 0.359931
O O12 0.783315 0.824626 0.774838
O O13 0.336906 0.697898 0.237316
O O14 0.500000 0.500000 0.000000
O O15 0.032510 0.809023 0.911230
O O16 0.704918 0.191686 0.446163
O O17 0.051077 0.006995 0.747710
#
# Coordination Sequence:
#
# PCOD9005179 Si02
#       8
#     2   2   2   2   2   2   2   2
#     4  11  23  38  63  92 120 160 194 250 311 356
#     4  10  21  38  61  85 119 164 200 240 296 358
#     4  11  21  38  61  92 117 156 206 246 300 360
#     4  11  23  39  58  89 126 158 197 247 302 362
#     4  11  21  40  64  88 124 156 197 252 314 354
#     4  10  22  37  65  90 119 156 207 258 291 353
#     4  11  20  41  62  91 121 159 208 248 297 358
#     4  11  21  40  63  86 119 161 204 245 299 362
#
# _framework density 18.926594999999999
#
# number of rings (size 3 to 8) (size 9 to 14) (size 15 to 20)
#    0.000    1.250    5.000    1.500    0.000    2.500 
#    0.000    0.625    5.500    0.000    0.000    0.000 
#    0.000    0.000    0.000    0.000    0.000    0.000 
#
# Total GULP energy -89076.398224 kJ/mol
# GULP energy per Si atom -5567.274889 kJ/mol
# Density = 1.888352 g / cm^3
# Si number density = 18.926595 Si / 1000 Ang^3
#
#
#
# Elastic Constant Matrix: (Units=GPa)
#
#
# Indices 1 2 3 4 5 6 
#
# 1 63.4847 27.1650 18.3681 -2.3039 13.4264 -15.7619
# 2 27.1650 76.7641 40.0643 12.9986 -12.7857 -3.3460
# 3 18.3681 40.0643 76.0236 7.0213 0.2237 -0.2941
# 4 -2.3039 12.9986 7.0213 26.8257 0.3671 4.2801
# 5 13.4264 -12.7857 0.2237 0.3671 25.1478 1.7602
# 6 -15.7619 -3.3460 -0.2941 4.2801 1.7602 33.2031
#
#
#
# Elastic Compliance Matrix: (Units=1/GPa)
#
#
# Indices 1 2 3 4 5 6 
#
# 1 0.032587 -0.017304 0.000532 0.009185 -0.027314 0.013994
# 2 -0.017304 0.031340 -0.011199 -0.013328 0.025803 -0.004805
# 3 0.000532 -0.011199 0.018880 0.000690 -0.006123 -0.000473
# 4 0.009185 -0.013328 0.000690 0.044848 -0.012193 -0.002111
# 5 -0.027314 0.025803 -0.006123 -0.012193 0.068573 -0.012484
# 6 0.013994 -0.004805 -0.000473 -0.002111 -0.012484 0.037206
#
#
# Mechanical properties :
#
#
# Convention : Reuss Voigt Hill
#
# Bulk Modulus (GPa) = 37.22377 43.05191 40.13784
# Shear Modulus (GPa) = 16.75991 25.74697 21.25344
#
# Velocity S-wave (km/s) = 2.97900 3.69231 3.35467
# Velocity P-wave (km/s) = 5.61629 6.40107 6.02148
#
# Compressibility (1/GPa) = 0.02686456
#
# Stress axis : x y z
#
# Youngs Moduli (GPa) = 30.68738 31.90765 52.96723
#
# Poissons Ratio (x) = 0.55213 -0.02818
# Poissons Ratio (y) = 0.53102 0.59319
# Poissons Ratio (z) = -0.01633 0.35734
#
# Static dielectric constant tensor:
#      x y z
#    x 1.692160 -0.000880 -0.000220 
#    y -0.000880 1.651480 0.049870 
#    z -0.000220 0.049870 1.669900 
# 
# From -- ./inp_files/175228.got.cif
#   From: 2010.05.17/outbox.cif.g08.bks.cpg/sg2_88_cif.got.tgz:175228.got - 2010.06.03 11:33:40.
