data_PCOD9005681
_publ_section_title
;
Structure prediction by ZEFSAII (Michael W. Deem and Ramdas Pophale) SiO2 
 PCOD9005681
Probable space group: P -1
;
_chemical_formula_sum "Si O2"
_cell_formula_units_Z 14
_cell_length_a 9.120447
_cell_length_b 11.651751
_cell_length_c 16.593544
_cell_angle_alpha 144.844861
_cell_angle_beta 58.233692
_cell_angle_gamma 97.565246
_cell_volume 683.828781
_symmetry_space_group_name_H-M "P -1"
_symmetry_group_IT_number 2
_symmetry_cell_setting 'triclinic'
loop_
_space_group_symop_operation_xyz
x,y,z
-x,-y,-z
loop_
_atom_site_type_symbol
_atom_site_label
_atom_site_fract_x
_atom_site_fract_y
_atom_site_fract_z
Si Si1 0.213949 0.065467 0.259997
Si Si2 0.264071 0.533386 0.306259
Si Si3 0.298445 0.832308 0.940258
Si Si4 0.721879 0.776859 0.267132
Si Si5 0.448821 0.497056 0.920345
Si Si6 0.036455 0.274461 0.974701
Si Si7 0.346441 0.070392 0.918985
O O1 0.238546 0.048749 0.146339
O O2 0.296345 0.787136 0.102121
O O3 0.393136 0.089599 0.258250
O O4 0.971962 0.270684 0.476809
O O5 0.456662 0.405129 0.243052
O O6 0.336479 0.636859 0.274825
O O7 0.279826 0.309328 0.128564
O O8 0.129357 0.777331 0.977312
O O9 0.291871 0.917475 0.900900
O O10 0.662950 0.632268 0.142520
O O11 0.888956 0.571422 0.166695
O O12 0.500000 0.000000 0.500000
O O13 0.838896 0.854016 0.219708
O O14 0.500000 0.500000 0.000000
O O15 0.215898 0.172223 0.932760
#
# Coordination Sequence:
#
# PCOD9005681 Si02
#       7
#     2   2   2   2   2   2   2
#     4  10  21  39  62  87 124 160 205 252 307 365
#     4  10  21  38  63  89 123 160 207 251 307 366
#     4  10  21  40  62  90 124 165 202 252 309 366
#     4  11  24  41  65  90 125 166 206 254 315 368
#     4  10  21  40  62  91 122 161 209 259 306 363
#     4  11  23  41  62  90 127 160 204 252 312 367
#     4  10  22  39  62  93 126 159 203 256 306 368
#
# _framework density 20.472961000000002
#
# number of rings (size 3 to 8) (size 9 to 14) (size 15 to 20)
#    0.000    2.000    2.857    3.857    2.000    5.143 
#    0.000    0.000    0.000    5.143    0.000    0.000 
#    0.000    0.000    0.000    0.000    0.000    0.000 
#
# Total GULP energy -78186.729248 kJ/mol
# GULP energy per Si atom -5584.766375 kJ/mol
# Density = 2.042636 g / cm^3
# Si number density = 20.472961 Si / 1000 Ang^3
#
#
#
# Elastic Constant Matrix: (Units=GPa)
#
#
# Indices 1 2 3 4 5 6 
#
# 1 72.8955 56.4131 27.2418 -11.0587 -24.6011 -2.7479
# 2 56.4131 128.0836 40.0794 -18.9087 -22.5649 -12.2326
# 3 27.2418 40.0794 150.3084 -31.7937 -40.9580 -2.8257
# 4 -11.0587 -18.9087 -31.7937 14.5984 10.8679 -4.1456
# 5 -24.6011 -22.5649 -40.9580 10.8679 25.5836 -3.1286
# 6 -2.7479 -12.2326 -2.8257 -4.1456 -3.1286 38.8059
#
#
#
# Elastic Compliance Matrix: (Units=1/GPa)
#
#
# Indices 1 2 3 4 5 6 
#
# 1 0.027898 -0.008819 0.004694 0.000726 0.026469 0.001749
# 2 -0.008819 0.014223 0.001376 0.016342 0.000023 0.005707
# 3 0.004694 0.001376 0.018112 0.029697 0.022978 0.007110
# 4 0.000726 0.016342 0.029697 0.165275 -0.004539 0.024655
# 5 0.026469 0.000023 0.022978 -0.004539 0.104684 0.011510
# 6 0.001749 0.005707 0.007110 0.024655 0.011510 0.031772
#
#
# Mechanical properties :
#
#
# Convention : Reuss Voigt Hill
#
# Bulk Modulus (GPa) = 18.26957 66.52849 42.39903
# Shear Modulus (GPa) = 12.96330 30.96779 21.96554
#
# Velocity S-wave (km/s) = 2.51906 3.89346 3.27908
# Velocity P-wave (km/s) = 4.17181 7.26487 5.92378
#
# Compressibility (1/GPa) = 0.05473582
#
# Stress axis : x y z
#
# Youngs Moduli (GPa) = 35.84526 70.31071 55.21211
#
# Poissons Ratio (x) = 0.62006 -0.25919
# Poissons Ratio (y) = 0.31612 -0.07598
# Poissons Ratio (z) = -0.16827 -0.09676
#
# Static dielectric constant tensor:
#      x y z
#    x 1.757010 0.029370 -0.002500 
#    y 0.029370 1.773890 -0.013040 
#    z -0.002500 -0.013040 1.718690 
# 
# From -- ./inp_files/387350.got.cif
#   From: 2010.05.17/outbox.cif.g08.bks.cpg/sg2_194_cif.got.tgz:387350.got - 2010.06.03 11:33:40.
