data_PCOD9005588
_publ_section_title
;
Structure prediction by ZEFSAII (Michael W. Deem and Ramdas Pophale) SiO2 
 PCOD9005588
Probable space group: P -1
;
_chemical_formula_sum "Si O2"
_cell_formula_units_Z 14
_cell_length_a 9.397508
_cell_length_b 6.715490
_cell_length_c 9.048130
_cell_angle_alpha 94.014997
_cell_angle_beta 76.922845
_cell_angle_gamma 110.520378
_cell_volume 520.888817
_symmetry_space_group_name_H-M "P -1"
_symmetry_group_IT_number 2
_symmetry_cell_setting 'triclinic'
loop_
_space_group_symop_operation_xyz
x,y,z
-x,-y,-z
loop_
_atom_site_type_symbol
_atom_site_label
_atom_site_fract_x
_atom_site_fract_y
_atom_site_fract_z
Si Si1 0.181163 0.201629 0.798374
Si Si2 0.544308 0.388032 0.779943
Si Si3 0.034119 0.740340 0.883017
Si Si4 0.206478 0.686535 0.115235
Si Si5 0.710049 0.181483 0.488416
Si Si6 0.528423 0.712675 0.602642
Si Si7 0.027907 0.807333 0.397063
O O1 0.359756 0.286055 0.804796
O O2 0.114966 0.947326 0.779270
O O3 0.128901 0.297072 0.668717
O O4 0.085859 0.229450 0.965087
O O5 0.628198 0.340987 0.902597
O O6 0.620431 0.272960 0.637340
O O7 0.581540 0.634114 0.738314
O O8 0.348708 0.073009 0.482566
O O9 0.926030 0.533704 0.813568
O O10 0.165030 0.708620 0.957178
O O11 0.160317 0.855981 0.236330
O O12 0.631824 0.235562 0.362598
O O13 0.887465 0.284441 0.502104
O O14 0.500000 0.500000 0.500000
O O15 0.000000 0.000000 0.500000
#
# Coordination Sequence:
#
# PCOD9005588 Si02
#       7
#     2   2   2   2   2   2   2
#     4  10  22  39  62  93 123 167 205 261 316 365
#     4  10  21  38  62  95 121 156 217 260 309 366
#     4   9  20  43  65  83 129 164 208 259 314 373
#     4   9  20  42  64  90 120 168 211 257 313 370
#     4   9  20  39  57  84 127 176 200 247 311 376
#     4   9  19  35  60  80 125 166 209 249 304 369
#     4  10  22  38  61  89 128 161 207 254 313 379
#
# _framework density 26.877137999999999
#
# number of rings (size 3 to 8) (size 9 to 14) (size 15 to 20)
#    0.000    2.571    0.000    0.000    8.000    1.143 
#    7.714    1.429    0.000    0.000    0.000    0.000 
#    0.000    0.000    0.000    0.000    0.000    0.000 
#
# Total GULP energy -78184.638624 kJ/mol
# GULP energy per Si atom -5584.617045 kJ/mol
# Density = 2.681596 g / cm^3
# Si number density = 26.877138 Si / 1000 Ang^3
#
#
#
# Elastic Constant Matrix: (Units=GPa)
#
#
# Indices 1 2 3 4 5 6 
#
# 1 239.7880 61.1279 64.3877 -18.0410 39.3279 -32.9865
# 2 61.1279 132.2087 18.2120 -2.9882 -5.9824 4.9523
# 3 64.3877 18.2120 73.3684 1.8908 -7.6648 5.7209
# 4 -18.0410 -2.9882 1.8908 27.6981 0.8854 7.4266
# 5 39.3279 -5.9824 -7.6648 0.8854 32.8061 -6.2978
# 6 -32.9865 4.9523 5.7209 7.4266 -6.2978 40.4683
#
#
#
# Elastic Compliance Matrix: (Units=1/GPa)
#
#
# Indices 1 2 3 4 5 6 
#
# 1 0.015497 -0.006237 -0.015342 0.008285 -0.021468 0.010702
# 2 -0.006237 0.010421 0.004329 -0.002169 0.009468 -0.005099
# 3 -0.015342 0.004329 0.029694 -0.009159 0.024101 -0.011802
# 4 0.008285 -0.002169 -0.009159 0.042796 -0.013951 -0.001712
# 5 -0.021468 0.009468 0.024101 -0.013951 0.062062 -0.009846
# 6 0.010702 -0.005099 -0.011802 -0.001712 -0.009846 0.034509
#
#
# Mechanical properties :
#
#
# Convention : Reuss Voigt Hill
#
# Bulk Modulus (GPa) = 47.36708 81.42448 64.39578
# Shear Modulus (GPa) = 21.14022 40.30366 30.72194
#
# Velocity S-wave (km/s) = 2.80759 3.87661 3.38457
# Velocity P-wave (km/s) = 5.30772 7.09917 6.26778
#
# Compressibility (1/GPa) = 0.02111171
#
# Stress axis : x y z
#
# Youngs Moduli (GPa) = 64.53040 95.95603 33.67703
#
# Poissons Ratio (x) = 0.59844 0.51669
# Poissons Ratio (y) = 0.40245 -0.14579
# Poissons Ratio (z) = 0.99005 -0.41539
#
# Static dielectric constant tensor:
#      x y z
#    x 2.151810 -0.036850 0.034860 
#    y -0.036850 2.196140 0.051630 
#    z 0.034860 0.051630 2.236880 
# 
# From -- ./inp_files/234731.got.cif
#   From: 2010.05.17/outbox.cif.g08.bks.cpg/sg2_118_cif.got.tgz:234731.got - 2010.06.03 11:33:40.
