data_PCOD9005009
_publ_section_title
;
Structure prediction by ZEFSAII (Michael W. Deem and Ramdas Pophale) SiO2 
 PCOD9005009
Probable space group: P -1
;
_chemical_formula_sum "Si O2"
_cell_formula_units_Z 12
_cell_length_a 15.996701
_cell_length_b 5.899753
_cell_length_c 10.633432
_cell_angle_alpha 67.157531
_cell_angle_beta 144.963055
_cell_angle_gamma 96.837888
_cell_volume 492.054477
_symmetry_space_group_name_H-M "P -1"
_symmetry_group_IT_number 2
_symmetry_cell_setting 'triclinic'
loop_
_space_group_symop_operation_xyz
x,y,z
-x,-y,-z
loop_
_atom_site_type_symbol
_atom_site_label
_atom_site_fract_x
_atom_site_fract_y
_atom_site_fract_z
Si Si1 0.588500 0.887637 0.292330
Si Si2 0.740951 0.625158 0.202065
Si Si3 0.821755 0.002301 0.063298
Si Si4 0.688054 0.987414 0.645813
Si Si5 0.846421 0.092713 0.584747
Si Si6 0.415960 0.535039 0.179152
O O1 0.636565 0.821317 0.513712
O O2 0.808128 0.070574 0.688818
O O3 0.532715 0.657853 0.230616
O O4 0.432062 0.153045 0.031816
O O5 0.843763 0.792031 0.248170
O O6 0.806258 0.398998 0.434141
O O7 0.709174 0.474906 0.074417
O O8 0.976009 0.055009 0.207449
O O9 0.770250 0.885792 0.900057
O O10 0.680148 0.268079 0.873443
O O11 0.731192 0.965542 0.402769
O O12 0.529848 0.242300 0.421053
#
# Coordination Sequence:
#
# PCOD9005009 Si02
#       6
#     2   2   2   2   2   2
#     4   8  20  37  61  84 110 149 193 232 274 336
#     4  10  21  39  60  84 116 152 189 230 286 341
#     4  11  22  39  59  87 117 147 189 239 284 333
#     4   9  21  39  61  83 113 153 191 230 283 338
#     4  10  21  41  59  84 117 150 189 237 283 331
#     4  10  21  38  60  87 112 153 190 233 281 342
#
# _framework density 24.387540999999999
#
# number of rings (size 3 to 8) (size 9 to 14) (size 15 to 20)
#    1.000    1.333    0.000    2.000    0.000    8.667 
#    6.000    0.833    0.000    0.000    0.000    0.000 
#    0.000    0.000    0.000    0.000    0.000    0.000 
#
# Total GULP energy -67020.648211 kJ/mol
# GULP energy per Si atom -5585.054018 kJ/mol
# Density = 2.433203 g / cm^3
# Si number density = 24.387541 Si / 1000 Ang^3
#
#
#
# Elastic Constant Matrix: (Units=GPa)
#
#
# Indices 1 2 3 4 5 6 
#
# 1 129.5444 14.7610 32.7114 -0.6128 21.5666 19.5410
# 2 14.7610 47.4436 -6.3448 2.2886 4.1881 16.8844
# 3 32.7114 -6.3448 35.6006 1.9847 19.2307 6.8107
# 4 -0.6128 2.2886 1.9847 19.0145 10.8784 -1.5655
# 5 21.5666 4.1881 19.2307 10.8784 49.3170 4.6725
# 6 19.5410 16.8844 6.8107 -1.5655 4.6725 24.1018
#
#
#
# Elastic Compliance Matrix: (Units=1/GPa)
#
#
# Indices 1 2 3 4 5 6 
#
# 1 0.011360 -0.003660 -0.010076 0.002056 -0.000850 -0.003500
# 2 -0.003660 0.034099 0.016872 -0.005634 -0.004241 -0.025231
# 3 -0.010076 0.016872 0.051793 0.000015 -0.015783 -0.015225
# 4 0.002056 -0.005634 0.000015 0.062768 -0.015152 0.009290
# 5 -0.000850 -0.004241 -0.015783 -0.015152 0.030388 0.001244
# 6 -0.003500 -0.025231 -0.015225 0.009290 0.001244 0.066669
#
#
# Mechanical properties :
#
#
# Convention : Reuss Voigt Hill
#
# Bulk Modulus (GPa) = 9.65979 32.76043 21.21011
# Shear Modulus (GPa) = 17.52467 29.91739 23.72103
#
# Velocity S-wave (km/s) = 2.68356 3.50630 3.12215
# Velocity P-wave (km/s) = 3.68396 5.46394 4.65973
#
# Compressibility (1/GPa) = 0.10352188
#
# Stress axis : x y z
#
# Youngs Moduli (GPa) = 88.02768 29.32678 19.30779
#
# Poissons Ratio (x) = 0.10735 0.19455
# Poissons Ratio (y) = 0.32222 -0.32577
# Poissons Ratio (z) = 0.88701 -0.49481
#
# Static dielectric constant tensor:
#      x y z
#    x 2.007420 -0.006750 -0.031080 
#    y -0.006750 1.955190 0.021870 
#    z -0.031080 0.021870 1.901340 
# 
# From -- ./inp_files/71204.got.cif
#   From: 2010.05.17/outbox.cif.g08.bks.cpg/sg2_36_cif.got.tgz:71204.got - 2010.06.03 11:33:40.
