data_PCOD9005357
_publ_section_title
;
Structure prediction by ZEFSAII (Michael W. Deem and Ramdas Pophale) SiO2 
 PCOD9005357
Probable space group: P -1
;
_chemical_formula_sum "Si O2"
_cell_formula_units_Z 14
_cell_length_a 11.257221
_cell_length_b 8.907627
_cell_length_c 9.242988
_cell_angle_alpha 102.907966
_cell_angle_beta 50.651601
_cell_angle_gamma 125.611883
_cell_volume 566.800387
_symmetry_space_group_name_H-M "P -1"
_symmetry_group_IT_number 2
_symmetry_cell_setting 'triclinic'
loop_
_space_group_symop_operation_xyz
x,y,z
-x,-y,-z
loop_
_atom_site_type_symbol
_atom_site_label
_atom_site_fract_x
_atom_site_fract_y
_atom_site_fract_z
Si Si1 0.684919 0.711279 0.431817
Si Si2 0.809897 0.225919 0.136808
Si Si3 0.165164 0.670373 0.191146
Si Si4 0.882497 0.680710 0.840173
Si Si5 0.643007 0.801819 0.174862
Si Si6 0.758530 0.454027 0.447736
Si Si7 0.853638 0.043430 0.560102
O O1 0.500000 0.500000 0.500000
O O2 0.734810 0.815602 0.264017
O O3 0.815640 0.652499 0.378728
O O4 0.683479 0.844164 0.579193
O O5 0.714629 0.302322 0.325778
O O6 0.992301 0.276017 0.100511
O O7 0.678698 0.001273 0.165282
O O8 0.849377 0.316748 0.968007
O O9 0.247358 0.548557 0.127953
O O10 0.225591 0.866561 0.257929
O O11 0.952100 0.516844 0.382700
O O12 0.029180 0.806824 0.627156
O O13 0.748659 0.750354 0.974697
O O14 0.421244 0.638156 0.331314
O O15 0.000000 0.000000 0.500000
#
# Coordination Sequence:
#
# PCOD9005357 Si02
#       7
#     2   2   2   2   2   2   2
#     4  10  21  39  64  94 131 171 220 265 331 386
#     4  11  21  39  67  98 129 171 232 269 316 394
#     4  11  23  41  66  97 135 170 221 273 330 384
#     4  11  23  39  65  98 131 176 221 271 319 403
#     4  11  21  37  65  94 129 168 226 265 321 380
#     4  10  21  38  61  95 130 173 214 275 323 386
#     4  12  23  40  67  99 134 172 221 273 332 391
#
# _framework density 24.700053
#
# number of rings (size 3 to 8) (size 9 to 14) (size 15 to 20)
#    0.000    1.143    2.857    5.571    0.000    0.000 
#    0.000    0.714    3.143    6.857    0.000    0.000 
#    0.000    0.000    0.000    0.000    0.000    0.000 
#
# Total GULP energy -78236.477900 kJ/mol
# GULP energy per Si atom -5588.319850 kJ/mol
# Density = 2.464383 g / cm^3
# Si number density = 24.700053 Si / 1000 Ang^3
#
#
#
# Elastic Constant Matrix: (Units=GPa)
#
#
# Indices 1 2 3 4 5 6 
#
# 1 44.9485 22.6458 13.9121 -3.8547 24.7170 -10.9452
# 2 22.6458 140.6120 20.7505 23.6541 21.0750 -24.8022
# 3 13.9121 20.7505 78.6912 11.7928 18.8499 1.1366
# 4 -3.8547 23.6541 11.7928 46.8290 -0.3289 8.5115
# 5 24.7170 21.0750 18.8499 -0.3289 26.0194 -4.6890
# 6 -10.9452 -24.8022 1.1366 8.5115 -4.6890 32.3333
#
#
#
# Elastic Compliance Matrix: (Units=1/GPa)
#
#
# Indices 1 2 3 4 5 6 
#
# 1 0.050140 0.000253 0.002124 0.001342 -0.047584 0.009838
# 2 0.000253 0.011126 -0.000229 -0.007315 -0.007471 0.009470
# 3 0.002124 -0.000229 0.016287 -0.003715 -0.013870 -0.001063
# 4 0.001342 -0.007315 -0.003715 0.028252 0.005599 -0.011651
# 5 -0.047584 -0.007471 -0.013870 0.005599 0.098260 -0.008575
# 6 0.009838 0.009470 -0.001063 -0.011651 -0.008575 0.043383
#
#
# Mechanical properties :
#
#
# Convention : Reuss Voigt Hill
#
# Bulk Modulus (GPa) = 12.21781 42.09649 27.15715
# Shear Modulus (GPa) = 18.48869 34.83256 26.66062
#
# Velocity S-wave (km/s) = 2.73889 3.75937 3.28895
# Velocity P-wave (km/s) = 3.86772 5.99365 5.04396
#
# Compressibility (1/GPa) = 0.08184774
#
# Stress axis : x y z
#
# Youngs Moduli (GPa) = 19.94428 89.88260 61.39721
#
# Poissons Ratio (x) = -0.02273 -0.13040
# Poissons Ratio (y) = -0.00504 0.01408
# Poissons Ratio (z) = -0.04236 0.02061
#
# Static dielectric constant tensor:
#      x y z
#    x 2.161800 -0.029070 -0.014000 
#    y -0.029070 2.027760 0.053940 
#    z -0.014000 0.053940 1.951610 
# 
# From -- ./inp_files/244849.got.cif
#   From: 2010.05.17/outbox.cif.g08.bks.cpg/sg2_123_cif.got.tgz:244849.got - 2010.06.03 11:33:40.
