data_PCOD9005862
_publ_section_title
;
Structure prediction by ZEFSAII (Michael W. Deem and Ramdas Pophale) SiO2 
 PCOD9005862
Probable space group: P -1
;
_chemical_formula_sum "Si O2"
_cell_formula_units_Z 14
_cell_length_a 12.415844
_cell_length_b 9.860785
_cell_length_c 6.685988
_cell_angle_alpha 93.280581
_cell_angle_beta 86.696791
_cell_angle_gamma 46.179261
_cell_volume 584.237274
_symmetry_space_group_name_H-M "P -1"
_symmetry_group_IT_number 2
_symmetry_cell_setting 'triclinic'
loop_
_space_group_symop_operation_xyz
x,y,z
-x,-y,-z
loop_
_atom_site_type_symbol
_atom_site_label
_atom_site_fract_x
_atom_site_fract_y
_atom_site_fract_z
Si Si1 0.971150 0.872314 0.554390
Si Si2 0.520139 0.352845 0.628814
Si Si3 0.824864 0.531433 0.651819
Si Si4 0.241898 0.533650 0.960526
Si Si5 0.850372 0.642836 0.266941
Si Si6 0.704549 0.032540 0.291969
Si Si7 0.221324 0.853527 0.082896
O O1 0.116694 0.653621 0.487106
O O2 0.844811 0.931146 0.420004
O O3 0.906344 0.939188 0.789388
O O4 0.000000 0.000000 0.500000
O O5 0.500000 0.500000 0.500000
O O6 0.378710 0.444761 0.790412
O O7 0.563859 0.190907 0.461989
O O8 0.653648 0.264319 0.765628
O O9 0.780011 0.675908 0.497895
O O10 0.978184 0.459014 0.726111
O O11 0.716623 0.573287 0.840413
O O12 0.145894 0.500955 0.863595
O O13 0.171063 0.743136 0.035157
O O14 0.740468 0.849923 0.195120
O O15 0.715106 0.131461 0.120577
#
# Coordination Sequence:
#
# PCOD9005862 Si02
#       7
#     2   2   2   2   2   2   2
#     4  10  21  38  63  97 127 169 218 267 322 377
#     4  11  25  43  69  98 129 167 220 277 326 379
#     4  10  23  44  66  94 138 169 219 266 317 388
#     4  12  24  38  72  97 124 175 217 263 327 390
#     4  10  25  44  64  94 135 178 211 264 324 391
#     4  10  24  44  63  93 137 170 212 274 320 380
#     4  11  24  41  67  98 130 166 219 276 325 380
#
# _framework density 23.962866000000002
#
# number of rings (size 3 to 8) (size 9 to 14) (size 15 to 20)
#    0.000    1.429    2.857    0.857    4.000    8.000 
#    0.000    1.429    0.000    0.000    0.000    0.000 
#    0.000    0.000    0.000    0.000    0.000    0.000 
#
# Total GULP energy -78293.233764 kJ/mol
# GULP energy per Si atom -5592.373840 kJ/mol
# Density = 2.390833 g / cm^3
# Si number density = 23.962866 Si / 1000 Ang^3
#
#
#
# Elastic Constant Matrix: (Units=GPa)
#
#
# Indices 1 2 3 4 5 6 
#
# 1 81.1825 28.4739 29.5098 5.1886 6.9977 26.0391
# 2 28.4739 64.0913 26.8675 -9.6550 6.8637 23.2173
# 3 29.5098 26.8675 155.5403 -2.0792 -25.3873 5.5208
# 4 5.1886 -9.6550 -2.0792 40.7841 7.1891 -2.4184
# 5 6.9977 6.8637 -25.3873 7.1891 49.2270 1.6288
# 6 26.0391 23.2173 5.5208 -2.4184 1.6288 31.6632
#
#
#
# Elastic Compliance Matrix: (Units=1/GPa)
#
#
# Indices 1 2 3 4 5 6 
#
# 1 0.019201 -0.002421 -0.003304 -0.003433 -0.003146 -0.013540
# 2 -0.002421 0.025559 -0.004285 0.006267 -0.005841 -0.015224
# 3 -0.003304 -0.004285 0.008533 -0.000884 0.005464 0.004022
# 4 -0.003433 0.006267 -0.000884 0.027292 -0.004851 0.000716
# 5 -0.003146 -0.005841 0.005464 -0.004851 0.024961 0.004263
# 6 -0.013540 -0.015224 0.004022 0.000716 0.004263 0.053015
#
#
# Mechanical properties :
#
#
# Convention : Reuss Voigt Hill
#
# Bulk Modulus (GPa) = 30.05251 52.27961 41.16606
# Shear Modulus (GPa) = 26.36115 38.73237 32.54676
#
# Velocity S-wave (km/s) = 3.32035 4.02475 3.68940
# Velocity P-wave (km/s) = 5.22189 6.59260 5.94687
#
# Compressibility (1/GPa) = 0.03327509
#
# Stress axis : x y z
#
# Youngs Moduli (GPa) = 52.07932 39.12471 117.18694
#
# Poissons Ratio (x) = 0.09472 0.38714
# Poissons Ratio (y) = 0.12608 0.50214
# Poissons Ratio (z) = 0.17205 0.16765
#
# Static dielectric constant tensor:
#      x y z
#    x 1.971230 0.022270 0.064750 
#    y 0.022270 1.959560 0.046920 
#    z 0.064750 0.046920 2.000050 
# 
# From -- ./inp_files/70407.got.cif
#   From: 2010.05.17/outbox.cif.g08.bks.cpg/sg2_36_cif.got.tgz:70407.got - 2010.06.03 11:33:40.
