data_PCOD9005938
_publ_section_title
;
Structure prediction by ZEFSAII (Michael W. Deem and Ramdas Pophale) SiO2 
 PCOD9005938
Probable space group: P -1
;
_chemical_formula_sum "Si O2"
_cell_formula_units_Z 16
_cell_length_a 14.746511
_cell_length_b 14.566740
_cell_length_c 15.353586
_cell_angle_alpha 150.718941
_cell_angle_beta 39.253579
_cell_angle_gamma 151.429612
_cell_volume 770.942924
_symmetry_space_group_name_H-M "P -1"
_symmetry_group_IT_number 2
_symmetry_cell_setting 'triclinic'
loop_
_space_group_symop_operation_xyz
x,y,z
-x,-y,-z
loop_
_atom_site_type_symbol
_atom_site_label
_atom_site_fract_x
_atom_site_fract_y
_atom_site_fract_z
Si Si1 0.384340 0.555383 0.950379
Si Si2 0.571381 0.254719 0.115807
Si Si3 0.228924 0.166727 0.366320
Si Si4 0.045002 0.493161 0.194869
Si Si5 0.988788 0.043372 0.816139
Si Si6 0.051068 0.329871 0.745079
Si Si7 0.773695 0.793004 0.944733
Si Si8 0.992156 0.341650 0.296089
O O1 0.455074 0.710923 0.936921
O O2 0.217788 0.254771 0.810178
O O3 0.559941 0.628171 0.934056
O O4 0.263610 0.615102 0.136110
O O5 0.444147 0.302373 0.298548
O O6 0.796766 0.442633 0.117996
O O7 0.500000 0.000000 0.000000
O O8 0.178913 0.270372 0.563334
O O9 0.120381 0.132715 0.330301
O O10 0.121193 0.891082 0.253112
O O11 0.016842 0.625608 0.254130
O O12 0.978059 0.451968 0.309432
O O13 0.936073 0.218797 0.008890
O O14 0.912009 0.897684 0.843337
O O15 0.823332 0.639894 0.828886
O O16 0.832337 0.036505 0.153466
O O17 0.000000 0.500000 0.500000
#
# Coordination Sequence:
#
# PCOD9005938 Si02
#       8
#     2   2   2   2   2   2   2   2
#     4  10  21  38  64  89 121 155 208 246 302 373
#     4  12  23  35  62  89 119 165 211 240 299 369
#     4  11  22  37  59  88 124 169 200 242 316 354
#     4   9  21  39  59  86 121 156 202 252 302 355
#     4   9  19  38  61  87 118 158 200 244 302 363
#     4  11  23  39  55  88 135 157 200 260 292 370
#     4  10  21  43  68  89 122 163 200 260 314 362
#     4  10  23  42  66  93 121 158 208 258 314 369
#
# _framework density 20.753805
#
# number of rings (size 3 to 8) (size 9 to 14) (size 15 to 20)
#    0.750    1.000    2.500    1.875    3.500    2.000 
#    0.000    1.875    0.000    0.000    0.000    0.000 
#    0.000    0.000    0.000    0.000    0.000    0.000 
#
# Total GULP energy -89075.907055 kJ/mol
# GULP energy per Si atom -5567.244191 kJ/mol
# Density = 2.070657 g / cm^3
# Si number density = 20.753805 Si / 1000 Ang^3
#
#
#
# Elastic Constant Matrix: (Units=GPa)
#
#
# Indices 1 2 3 4 5 6 
#
# 1 100.1191 30.2149 3.5405 9.1671 -5.9055 17.5774
# 2 30.2149 67.5720 -2.9406 -0.7024 -0.2578 11.4666
# 3 3.5405 -2.9406 59.0227 -9.4803 9.4275 3.4884
# 4 9.1671 -0.7024 -9.4803 18.5189 0.2307 4.2709
# 5 -5.9055 -0.2578 9.4275 0.2307 26.7079 -3.6793
# 6 17.5774 11.4666 3.4884 4.2709 -3.6793 39.3168
#
#
#
# Elastic Compliance Matrix: (Units=1/GPa)
#
#
# Indices 1 2 3 4 5 6 
#
# 1 0.013157 -0.005572 -0.002646 -0.007455 0.003456 -0.002889
# 2 -0.005572 0.018131 0.002830 0.005834 -0.002648 -0.003929
# 3 -0.002646 0.002830 0.020936 0.013101 -0.008574 -0.003726
# 4 -0.007455 0.005834 0.013101 0.066439 -0.007821 -0.007480
# 5 0.003456 -0.002648 -0.008574 -0.007821 0.041931 0.004762
# 6 -0.002889 -0.003929 -0.003726 -0.007480 0.004762 0.029461
#
#
# Mechanical properties :
#
#
# Convention : Reuss Voigt Hill
#
# Bulk Modulus (GPa) = 24.12652 32.03815 28.08234
# Shear Modulus (GPa) = 23.29400 29.96864 26.63132
#
# Velocity S-wave (km/s) = 3.35385 3.80413 3.58607
# Velocity P-wave (km/s) = 5.16218 5.89627 5.54139
#
# Compressibility (1/GPa) = 0.04144816
#
# Stress axis : x y z
#
# Youngs Moduli (GPa) = 76.00528 55.15361 47.76396
#
# Poissons Ratio (x) = 0.30734 0.12636
# Poissons Ratio (y) = 0.42353 -0.13516
# Poissons Ratio (z) = 0.20107 -0.15607
#
# Static dielectric constant tensor:
#      x y z
#    x 1.748800 -0.015450 0.019620 
#    y -0.015450 1.747260 0.027190 
#    z 0.019620 0.027190 1.789310 
# 
# From -- ./inp_files/534552.got.cif
#   From: 2010.05.17/outbox.cif.g08.bks.cpg/sg2_268_cif.got.tgz:534552.got - 2010.06.03 11:33:40.
