data_PCOD9005834
_publ_section_title
;
Structure prediction by ZEFSAII (Michael W. Deem and Ramdas Pophale) SiO2 
 PCOD9005834
Probable space group: P -1
;
_chemical_formula_sum "Si O2"
_cell_formula_units_Z 14
_cell_length_a 14.076375
_cell_length_b 7.802376
_cell_length_c 11.130365
_cell_angle_alpha 90.504229
_cell_angle_beta 148.770500
_cell_angle_gamma 81.022229
_cell_volume 607.205847
_symmetry_space_group_name_H-M "P -1"
_symmetry_group_IT_number 2
_symmetry_cell_setting 'triclinic'
loop_
_space_group_symop_operation_xyz
x,y,z
-x,-y,-z
loop_
_atom_site_type_symbol
_atom_site_label
_atom_site_fract_x
_atom_site_fract_y
_atom_site_fract_z
Si Si1 0.255391 0.678393 0.201142
Si Si2 0.828072 0.770215 0.092822
Si Si3 0.233964 0.662126 0.438099
Si Si4 0.877542 0.916715 0.706395
Si Si5 0.370800 0.200247 0.378245
Si Si6 0.896024 0.110280 0.275682
Si Si7 0.659075 0.483459 0.966971
O O1 0.209054 0.595824 0.275273
O O2 0.467613 0.697836 0.442180
O O3 0.260195 0.576760 0.080723
O O4 0.083925 0.861082 0.996878
O O5 0.054386 0.677357 0.328339
O O6 0.795769 0.974812 0.100103
O O7 0.754198 0.765114 0.877078
O O8 0.730929 0.655756 0.072159
O O9 0.431284 0.549868 0.708289
O O10 0.227352 0.870795 0.407238
O O11 0.753290 0.806242 0.637557
O O12 0.938668 0.866337 0.635369
O O13 0.500000 0.000000 0.500000
O O14 0.748543 0.304639 0.139085
O O15 0.000000 0.000000 0.500000
#
# Coordination Sequence:
#
# PCOD9005834 Si02
#       7
#     2   2   2   2   2   2   2
#     4  11  21  34  58  94 142 171 199 251 316 396
#     4  11  24  40  66  95 131 171 206 260 332 383
#     4  11  20  35  59  94 137 168 205 253 315 391
#     4  10  21  38  63  95 132 176 212 256 323 383
#     4  12  19  32  63  98 132 170 201 247 321 396
#     4  10  25  48  69  89 124 173 227 274 314 370
#     4  11  24  40  63  98 129 168 213 264 318 384
#
# _framework density 23.056431
#
# number of rings (size 3 to 8) (size 9 to 14) (size 15 to 20)
#    0.000    1.143    4.286    3.429    0.000    3.429 
#    0.000    4.286    0.000   27.429    0.000    0.000 
#    0.000    0.000    0.000    0.000    0.000    0.000 
#
# Total GULP energy -78242.154363 kJ/mol
# GULP energy per Si atom -5588.725312 kJ/mol
# Density = 2.300395 g / cm^3
# Si number density = 23.056431 Si / 1000 Ang^3
#
#
#
# Elastic Constant Matrix: (Units=GPa)
#
#
# Indices 1 2 3 4 5 6 
#
# 1 47.0210 10.4777 48.2704 -8.9497 5.0449 15.3453
# 2 10.4777 83.7566 39.7666 -18.3307 9.0918 18.8541
# 3 48.2704 39.7666 116.3840 -41.9123 9.2227 23.4555
# 4 -8.9497 -18.3307 -41.9123 45.7828 -3.8419 4.8291
# 5 5.0449 9.0918 9.2227 -3.8419 28.3890 -8.9728
# 6 15.3453 18.8541 23.4555 4.8291 -8.9728 24.1400
#
#
#
# Elastic Compliance Matrix: (Units=1/GPa)
#
#
# Indices 1 2 3 4 5 6 
#
# 1 0.045108 0.008973 -0.015663 -0.000401 -0.013935 -0.025563
# 2 0.008973 0.023762 0.003830 0.017174 -0.020459 -0.039024
# 3 -0.015663 0.003830 0.036113 0.034383 -0.018793 -0.041987
# 4 -0.000401 0.017174 0.034383 0.065052 -0.030171 -0.070794
# 5 -0.013935 -0.020459 -0.018793 -0.030171 0.070032 0.075163
# 6 -0.025563 -0.039024 -0.041987 -0.070794 0.075163 0.171050
#
#
# Mechanical properties :
#
#
# Convention : Reuss Voigt Hill
#
# Bulk Modulus (GPa) = 10.07426 49.35453 29.71440
# Shear Modulus (GPa) = 11.11295 29.57215 20.34255
#
# Velocity S-wave (km/s) = 2.19781 3.58522 2.97357
# Velocity P-wave (km/s) = 3.28928 6.21216 4.97042
#
# Compressibility (1/GPa) = 0.09926288
#
# Stress axis : x y z
#
# Youngs Moduli (GPa) = 22.16904 42.08314 27.69077
#
# Poissons Ratio (x) = -0.37760 0.43372
# Poissons Ratio (y) = -0.19892 -0.10605
# Poissons Ratio (z) = 0.34723 -0.16117
#
# Static dielectric constant tensor:
#      x y z
#    x 1.881160 -0.014580 -0.022590 
#    y -0.014580 1.999430 -0.003170 
#    z -0.022590 -0.003170 1.857260 
# 
# From -- ./inp_files/447391.got.cif
#   From: 2010.05.17/outbox.cif.g08.bks.cpg/sg2_224_cif.got.tgz:447391.got - 2010.06.03 11:33:40.
