data_PCOD9005041
_publ_section_title
;
Structure prediction by ZEFSAII (Michael W. Deem and Ramdas Pophale) SiO2 
 PCOD9005041
Probable space group: P -1
;
_chemical_formula_sum "Si O2"
_cell_formula_units_Z 16
_cell_length_a 11.465592
_cell_length_b 6.381854
_cell_length_c 11.573562
_cell_angle_alpha 74.828029
_cell_angle_beta 120.663620
_cell_angle_gamma 90.887117
_cell_volume 695.919491
_symmetry_space_group_name_H-M "P -1"
_symmetry_group_IT_number 2
_symmetry_cell_setting 'triclinic'
loop_
_space_group_symop_operation_xyz
x,y,z
-x,-y,-z
loop_
_atom_site_type_symbol
_atom_site_label
_atom_site_fract_x
_atom_site_fract_y
_atom_site_fract_z
Si Si1 0.487207 0.222000 0.703692
Si Si2 0.051548 0.526783 0.682523
Si Si3 0.943001 0.108347 0.744638
Si Si4 0.458819 0.160165 0.063615
Si Si5 0.267192 0.580897 0.251095
Si Si6 0.217530 0.187956 0.440161
Si Si7 0.341363 0.523714 0.789617
Si Si8 0.093024 0.644840 0.952140
O O1 0.587118 0.346053 0.660587
O O2 0.357762 0.145251 0.586407
O O3 0.423895 0.392832 0.745959
O O4 0.577833 0.004809 0.833148
O O5 0.181863 0.583949 0.670950
O O6 0.084988 0.575827 0.825904
O O7 0.032311 0.272907 0.703778
O O8 0.905593 0.675792 0.567269
O O9 0.849996 0.250983 0.770834
O O10 0.843051 0.014348 0.616653
O O11 0.033591 0.902004 0.880635
O O12 0.584124 0.276520 0.158219
O O13 0.352563 0.352550 0.927751
O O14 0.500000 0.000000 0.000000
O O15 0.249314 0.346801 0.327936
O O16 0.238108 0.598403 0.096854
O O17 0.000000 0.500000 0.000000
#
# Coordination Sequence:
#
# PCOD9005041 Si02
#       8
#     2   2   2   2   2   2   2   2
#     4  11  25  40  63  89 125 168 204 242 301 374
#     4  10  23  38  65  89 121 162 198 258 304 359
#     4  10  21  38  60  88 123 159 202 254 307 352
#     4   9  22  40  59  89 120 157 202 248 299 358
#     4  11  23  37  61  92 124 161 200 251 308 362
#     4  10  23  43  58  91 127 158 209 250 296 363
#     4  10  23  43  62  89 126 156 205 257 303 353
#     4  11  20  35  59  95 124 150 205 256 309 356
#
# _framework density 22.991166
#
# number of rings (size 3 to 8) (size 9 to 14) (size 15 to 20)
#    0.000    1.750    3.750    0.750    7.000    7.000 
#    0.000    1.250    0.000    0.000    0.000    0.000 
#    0.000    0.000    0.000    0.000    0.000    0.000 
#
# Total GULP energy -89443.562802 kJ/mol
# GULP energy per Si atom -5590.222675 kJ/mol
# Density = 2.293884 g / cm^3
# Si number density = 22.991166 Si / 1000 Ang^3
#
#
#
# Elastic Constant Matrix: (Units=GPa)
#
#
# Indices 1 2 3 4 5 6 
#
# 1 59.5868 -5.2085 -5.3888 -5.2351 9.8254 8.2189
# 2 -5.2085 91.7229 16.3125 12.3971 -9.7578 14.4230
# 3 -5.3888 16.3125 74.9989 6.7701 6.0129 -0.9076
# 4 -5.2351 12.3971 6.7701 27.2876 3.2864 3.9571
# 5 9.8254 -9.7578 6.0129 3.2864 22.0322 8.2075
# 6 8.2189 14.4230 -0.9076 3.9571 8.2075 17.1916
#
#
#
# Elastic Compliance Matrix: (Units=1/GPa)
#
#
# Indices 1 2 3 4 5 6 
#
# 1 0.019577 0.000792 0.001201 0.005042 -0.006467 -0.008034
# 2 0.000792 0.018427 -0.005243 -0.005746 0.018982 -0.023854
# 3 0.001201 -0.005243 0.015669 -0.001452 -0.010673 0.010081
# 4 0.005042 -0.005746 -0.001452 0.042147 -0.009656 -0.002758
# 5 -0.006467 0.018982 -0.010673 -0.009656 0.079298 -0.049032
# 6 -0.008034 -0.023854 0.010081 -0.002758 -0.049032 0.106597
#
#
# Mechanical properties :
#
#
# Convention : Reuss Voigt Hill
#
# Bulk Modulus (GPa) = 21.19882 26.41545 23.80713
# Shear Modulus (GPa) = 16.45061 28.00850 22.22955
#
# Velocity S-wave (km/s) = 2.67782 3.49410 3.11283
# Velocity P-wave (km/s) = 4.33606 5.27187 4.82670
#
# Compressibility (1/GPa) = 0.04717245
#
# Stress axis : x y z
#
# Youngs Moduli (GPa) = 51.07911 54.26899 63.82097
#
# Poissons Ratio (x) = -0.04298 -0.07662
# Poissons Ratio (y) = -0.04046 0.33460
# Poissons Ratio (z) = -0.06132 0.28452
#
# Static dielectric constant tensor:
#      x y z
#    x 1.823060 -0.007480 0.005720 
#    y -0.007480 1.828880 0.005960 
#    z 0.005720 0.005960 1.905500 
# 
# From -- ./inp_files/70761.got.cif
#   From: 2010.05.17/outbox.cif.g08.bks.cpg/sg2_36_cif.got.tgz:70761.got - 2010.06.03 11:33:40.
