data_PCOD9005763
_publ_section_title
;
Structure prediction by ZEFSAII (Michael W. Deem and Ramdas Pophale) SiO2 
 PCOD9005763
Probable space group: P -1
;
_chemical_formula_sum "Si O2"
_cell_formula_units_Z 12
_cell_length_a 7.145849
_cell_length_b 7.596478
_cell_length_c 12.332803
_cell_angle_alpha 106.382870
_cell_angle_beta 48.457136
_cell_angle_gamma 94.826647
_cell_volume 475.760916
_symmetry_space_group_name_H-M "P -1"
_symmetry_group_IT_number 2
_symmetry_cell_setting 'triclinic'
loop_
_space_group_symop_operation_xyz
x,y,z
-x,-y,-z
loop_
_atom_site_type_symbol
_atom_site_label
_atom_site_fract_x
_atom_site_fract_y
_atom_site_fract_z
Si Si1 0.290165 0.096026 0.516471
Si Si2 0.696344 0.726759 0.931234
Si Si3 0.137250 0.519110 0.625272
Si Si4 0.152970 0.914165 0.189623
Si Si5 0.027829 0.794118 0.003736
Si Si6 0.508266 0.312248 0.317025
O O1 0.216920 0.314882 0.606884
O O2 0.406294 0.120363 0.355930
O O3 0.027973 0.021326 0.628683
O O4 0.500000 0.000000 0.500000
O O5 0.841670 0.575313 0.767098
O O6 0.845749 0.692575 0.982214
O O7 0.761063 0.911137 0.875771
O O8 0.404293 0.767805 0.081737
O O9 0.278224 0.480412 0.448514
O O10 0.287243 0.655482 0.661377
O O11 0.981756 0.822849 0.152046
O O12 0.320649 0.707514 0.857645
O O13 0.000000 0.000000 0.000000
#
# Coordination Sequence:
#
# PCOD9005763 Si02
#       6
#     2   2   2   2   2   2
#     4  10  17  28  50  78  97 126 173 204 239 295
#     4   9  18  35  49  73 105 132 161 200 252 295
#     4   8  16  30  52  68  99 140 158 198 254 294
#     4  10  20  30  55  79  94 130 172 204 237 295
#     4   9  16  31  53  72  98 132 164 201 244 294
#     4   8  16  30  49  71  97 135 162 193 256 291
#
# _framework density 25.222753000000001
#
# number of rings (size 3 to 8) (size 9 to 14) (size 15 to 20)
#    1.000    2.000    0.000    3.000    0.000    0.667 
#    0.000    4.167    0.000   20.000    0.000    0.000 
#    0.000    0.000    0.000    0.000    0.000    0.000 
#
# Total GULP energy -66829.224178 kJ/mol
# GULP energy per Si atom -5569.102015 kJ/mol
# Density = 2.516534 g / cm^3
# Si number density = 25.222753 Si / 1000 Ang^3
#
#
#
# Elastic Constant Matrix: (Units=GPa)
#
#
# Indices 1 2 3 4 5 6 
#
# 1 64.9325 12.5416 22.0621 3.4646 -20.2926 -6.7504
# 2 12.5416 32.6475 15.5844 7.2127 -6.3281 -3.5416
# 3 22.0621 15.5844 100.4849 12.5553 -25.3806 -19.2244
# 4 3.4646 7.2127 12.5553 49.0250 -11.0102 -13.7698
# 5 -20.2926 -6.3281 -25.3806 -11.0102 42.8168 10.7688
# 6 -6.7504 -3.5416 -19.2244 -13.7698 10.7688 10.5594
#
#
#
# Elastic Compliance Matrix: (Units=1/GPa)
#
#
# Indices 1 2 3 4 5 6 
#
# 1 0.019463 -0.005679 -0.000949 0.002725 0.007281 0.004938
# 2 -0.005679 0.035702 -0.005277 -0.006110 0.000279 -0.009514
# 3 -0.000949 -0.005277 0.017678 0.007235 0.001668 0.037543
# 4 0.002725 -0.006110 0.007235 0.036227 -0.001512 0.061648
# 5 0.007281 0.000279 0.001668 -0.001512 0.034950 -0.029830
# 6 0.004938 -0.009514 0.037543 0.061648 -0.029830 0.273829
#
#
# Mechanical properties :
#
#
# Convention : Reuss Voigt Hill
#
# Bulk Modulus (GPa) = 20.39385 33.16011 26.77698
# Shear Modulus (GPa) = 10.91692 30.33871 20.62782
#
# Velocity S-wave (km/s) = 2.08269 3.47195 2.86287
# Velocity P-wave (km/s) = 3.72646 5.40814 4.64406
#
# Compressibility (1/GPa) = 0.04903440
#
# Stress axis : x y z
#
# Youngs Moduli (GPa) = 51.37824 28.00933 56.56667
#
# Poissons Ratio (x) = 0.15906 0.05370
# Poissons Ratio (y) = 0.29177 0.29849
# Poissons Ratio (z) = 0.04877 0.14780
#
# Static dielectric constant tensor:
#      x y z
#    x 2.024700 0.028960 -0.021690 
#    y 0.028960 2.019590 -0.072990 
#    z -0.021690 -0.072990 2.159110 
# 
# From -- ./inp_files/211364.got.cif
#   From: 2010.05.17/outbox.cif.g08.bks.cpg/sg2_106_cif.got.tgz:211364.got - 2010.06.03 11:33:40.
