data_PCOD9005527
_publ_section_title
;
Structure prediction by ZEFSAII (Michael W. Deem and Ramdas Pophale) SiO2 
 PCOD9005527
Probable space group: P -1
;
_chemical_formula_sum "Si O2"
_cell_formula_units_Z 16
_cell_length_a 15.574790
_cell_length_b 7.816567
_cell_length_c 11.706468
_cell_angle_alpha 61.976795
_cell_angle_beta 71.919918
_cell_angle_gamma 36.463414
_cell_volume 741.468176
_symmetry_space_group_name_H-M "P -1"
_symmetry_group_IT_number 2
_symmetry_cell_setting 'triclinic'
loop_
_space_group_symop_operation_xyz
x,y,z
-x,-y,-z
loop_
_atom_site_type_symbol
_atom_site_label
_atom_site_fract_x
_atom_site_fract_y
_atom_site_fract_z
Si Si1 0.888292 0.806523 0.788125
Si Si2 0.138005 0.893457 0.516210
Si Si3 0.180399 0.160913 0.821869
Si Si4 0.521625 0.771809 0.425630
Si Si5 0.270956 0.268697 0.225103
Si Si6 0.002071 0.680258 0.358050
Si Si7 0.704940 0.320810 0.889622
Si Si8 0.449550 0.829962 0.680516
O O1 0.804982 0.738542 0.837601
O O2 0.060609 0.488448 0.835353
O O3 0.865593 0.926253 0.631340
O O4 0.824610 0.065094 0.823764
O O5 0.305007 0.543529 0.555754
O O6 0.091207 0.013680 0.626702
O O7 0.000000 0.000000 0.500000
O O8 0.080855 0.209454 0.760403
O O9 0.289232 0.093187 0.716108
O O10 0.267531 0.876262 0.959289
O O11 0.463691 0.751321 0.566373
O O12 0.421715 0.910701 0.312283
O O13 0.493637 0.046217 0.374327
O O14 0.288860 0.468588 0.131588
O O15 0.166639 0.446347 0.325580
O O16 0.000000 0.500000 0.500000
O O17 0.555596 0.538724 0.813586
#
# Coordination Sequence:
#
# PCOD9005527 Si02
#       8
#     2   2   2   2   2   2   2   2
#     4  11  23  40  63  96 123 169 205 263 310 366
#     4  12  23  38  63  95 128 155 207 259 318 375
#     4  11  23  40  65  88 127 169 209 253 312 372
#     4  10  22  37  63  95 125 164 201 260 322 363
#     4  10  23  41  63  92 133 159 213 258 306 380
#     4  11  22  39  61  91 125 160 200 262 316 361
#     4  11  23  43  63  91 124 173 213 252 310 369
#     4  10  21  38  62  92 125 166 208 257 309 374
#
# _framework density 21.578807999999999
#
# number of rings (size 3 to 8) (size 9 to 14) (size 15 to 20)
#    0.000    1.250    3.750    3.000    3.500    3.500 
#    0.000    2.500    0.000    3.750    0.000    0.000 
#    0.000    0.000    0.000    0.000    0.000    0.000 
#
# Total GULP energy -89239.109006 kJ/mol
# GULP energy per Si atom -5577.444313 kJ/mol
# Density = 2.152969 g / cm^3
# Si number density = 21.578808 Si / 1000 Ang^3
#
#
#
# Elastic Constant Matrix: (Units=GPa)
#
#
# Indices 1 2 3 4 5 6 
#
# 1 41.2034 23.9381 6.0962 0.0338 0.2746 -6.9895
# 2 23.9381 85.7585 22.7624 -13.0504 7.6841 -20.8226
# 3 6.0962 22.7624 63.9303 -17.1659 10.5778 -7.2777
# 4 0.0338 -13.0504 -17.1659 26.9830 -4.5896 2.6976
# 5 0.2746 7.6841 10.5778 -4.5896 17.8451 -0.8004
# 6 -6.9895 -20.8226 -7.2777 2.6976 -0.8004 35.4849
#
#
#
# Elastic Compliance Matrix: (Units=1/GPa)
#
#
# Indices 1 2 3 4 5 6 
#
# 1 0.029647 -0.008669 -0.001386 -0.004703 0.002929 0.000892
# 2 -0.008669 0.017843 -0.002430 0.005585 -0.004326 0.007742
# 3 -0.001386 -0.002430 0.021106 0.010622 -0.008638 0.001628
# 4 -0.004703 0.005585 0.010622 0.047018 0.003510 0.001034
# 5 0.002929 -0.004326 -0.008638 0.003510 0.063764 -0.002562
# 6 0.000892 0.007742 0.001628 0.001034 -0.002562 0.033097
#
#
# Mechanical properties :
#
#
# Convention : Reuss Voigt Hill
#
# Bulk Modulus (GPa) = 22.92214 32.94286 27.93250
# Shear Modulus (GPa) = 19.84232 25.26897 22.55564
#
# Velocity S-wave (km/s) = 3.03566 3.42571 3.23657
# Velocity P-wave (km/s) = 4.78880 5.56298 5.19034
#
# Compressibility (1/GPa) = 0.04362595
#
# Stress axis : x y z
#
# Youngs Moduli (GPa) = 33.73014 56.04541 47.38019
#
# Poissons Ratio (x) = 0.48586 0.06568
# Poissons Ratio (y) = 0.29241 0.11511
# Poissons Ratio (z) = 0.04676 0.13616
#
# Static dielectric constant tensor:
#      x y z
#    x 1.912300 0.024120 0.000990 
#    y 0.024120 1.869790 0.007100 
#    z 0.000990 0.007100 1.802460 
# 
# From -- ./inp_files/207662.got.cif
#   From: 2010.05.17/outbox.cif.g08.bks.cpg/sg2_104_cif.got.tgz:207662.got - 2010.06.03 11:33:40.
