data_PCOD9005965
_publ_section_title
;
Structure prediction by ZEFSAII (Michael W. Deem and Ramdas Pophale) SiO2 
 PCOD9005965
Probable space group: P -1
;
_chemical_formula_sum "Si O2"
_cell_formula_units_Z 16
_cell_length_a 7.051441
_cell_length_b 11.015156
_cell_length_c 12.717726
_cell_angle_alpha 103.175598
_cell_angle_beta 59.294340
_cell_angle_gamma 136.211392
_cell_volume 571.069569
_symmetry_space_group_name_H-M "P -1"
_symmetry_group_IT_number 2
_symmetry_cell_setting 'triclinic'
loop_
_space_group_symop_operation_xyz
x,y,z
-x,-y,-z
loop_
_atom_site_type_symbol
_atom_site_label
_atom_site_fract_x
_atom_site_fract_y
_atom_site_fract_z
Si Si1 0.005323 0.381214 0.757138
Si Si2 0.242485 0.189697 0.146925
Si Si3 0.872054 0.648596 0.497318
Si Si4 0.288927 0.746739 0.796078
Si Si5 0.666258 0.959006 0.518870
Si Si6 0.575262 0.821475 0.318878
Si Si7 0.518601 0.538535 0.213951
Si Si8 0.376525 0.019105 0.934551
O O1 0.021614 0.535722 0.799752
O O2 0.156904 0.390394 0.822650
O O3 0.237212 0.437087 0.606004
O O4 0.671415 0.172845 0.804143
O O5 0.458506 0.215333 0.185707
O O6 0.368197 0.381747 0.143998
O O7 0.273376 0.111320 0.023939
O O8 0.869085 0.031338 0.248607
O O9 0.206142 0.706725 0.407920
O O10 0.712541 0.554431 0.635460
O O11 0.993942 0.841463 0.509281
O O12 0.471049 0.853016 0.657801
O O13 0.175010 0.828468 0.898079
O O14 0.665611 0.838369 0.419726
O O15 0.500000 0.000000 0.500000
O O16 0.598123 0.714666 0.213021
O O17 0.500000 0.000000 0.000000
#
# Coordination Sequence:
#
# PCOD9005965 Si02
#       8
#     2   2   2   2   2   2   2   2
#     4  11  23  40  64  97 128 160 214 263 313 375
#     4  10  23  39  62  96 122 167 216 256 306 371
#     4  11  22  40  61  90 127 168 204 254 318 381
#     4  10  21  39  66  95 125 165 208 265 317 369
#     4  10  21  38  64  90 123 168 205 250 318 379
#     4  11  23  40  62  90 131 168 203 255 318 377
#     4  11  22  38  62  94 128 162 204 262 314 378
#     4  10  21  40  65  93 127 167 211 263 312 363
#
# _framework density 28.017603000000001
#
# number of rings (size 3 to 8) (size 9 to 14) (size 15 to 20)
#    0.000    1.500    2.500    3.000    0.000    8.000 
#    0.000    0.625    0.000    1.500    0.000    0.000 
#    0.000    0.000    0.000    0.000    0.000    0.000 
#
# Total GULP energy -89523.157749 kJ/mol
# GULP energy per Si atom -5595.197359 kJ/mol
# Density = 2.795383 g / cm^3
# Si number density = 28.017603 Si / 1000 Ang^3
#
#
#
# Elastic Constant Matrix: (Units=GPa)
#
#
# Indices 1 2 3 4 5 6 
#
# 1 81.2693 16.9886 -1.5005 10.9880 18.2635 -2.6185
# 2 16.9886 175.5745 25.1720 46.7051 2.3343 -12.7301
# 3 -1.5005 25.1720 97.8080 23.4169 6.4027 -14.0720
# 4 10.9880 46.7051 23.4169 60.3195 -7.6254 -3.4325
# 5 18.2635 2.3343 6.4027 -7.6254 37.8548 10.3850
# 6 -2.6185 -12.7301 -14.0720 -3.4325 10.3850 33.4163
#
#
#
# Elastic Compliance Matrix: (Units=1/GPa)
#
#
# Indices 1 2 3 4 5 6 
#
# 1 0.015524 -0.000110 0.002839 -0.004863 -0.010337 0.005083
# 2 -0.000110 0.007542 0.000095 -0.005995 -0.002475 0.003058
# 3 0.002839 0.000095 0.013226 -0.006176 -0.006867 0.007328
# 4 -0.004863 -0.005995 -0.006176 0.025497 0.010519 -0.005916
# 5 -0.010337 -0.002475 -0.006867 0.010519 0.039153 -0.015732
# 6 0.005083 0.003058 0.007328 -0.005916 -0.015732 0.038856
#
#
# Mechanical properties :
#
#
# Convention : Reuss Voigt Hill
#
# Bulk Modulus (GPa) = 23.84387 48.44132 36.14260
# Shear Modulus (GPa) = 33.75402 47.25089 40.50246
#
# Velocity S-wave (km/s) = 3.47471 4.11112 3.80624
# Velocity P-wave (km/s) = 4.96255 6.31366 5.67843
#
# Compressibility (1/GPa) = 0.04193950
#
# Stress axis : x y z
#
# Youngs Moduli (GPa) = 64.41457 132.58930 75.61064
#
# Poissons Ratio (x) = 0.01453 -0.21463
# Poissons Ratio (y) = 0.00706 -0.00715
# Poissons Ratio (z) = -0.18285 -0.01254
#
# Static dielectric constant tensor:
#      x y z
#    x 2.405760 0.032010 0.014720 
#    y 0.032010 2.241040 0.079690 
#    z 0.014720 0.079690 2.229210 
# 
# From -- ./inp_files/500533.got.cif
#   From: 2010.05.17/outbox.cif.g08.bks.cpg/sg2_251_cif.got.tgz:500533.got - 2010.06.03 11:33:40.
