data_PCOD9005977
_publ_section_title
;
Structure prediction by ZEFSAII (Michael W. Deem and Ramdas Pophale) SiO2 
 PCOD9005977
Probable space group: P -1
;
_chemical_formula_sum "Si O2"
_cell_formula_units_Z 14
_cell_length_a 24.645121
_cell_length_b 22.377125
_cell_length_c 5.401885
_cell_angle_alpha 109.090829
_cell_angle_beta 72.236400
_cell_angle_gamma 169.038881
_cell_volume 533.165748
_symmetry_space_group_name_H-M "P -1"
_symmetry_group_IT_number 2
_symmetry_cell_setting 'triclinic'
loop_
_space_group_symop_operation_xyz
x,y,z
-x,-y,-z
loop_
_atom_site_type_symbol
_atom_site_label
_atom_site_fract_x
_atom_site_fract_y
_atom_site_fract_z
Si Si1 0.119868 0.161936 0.803537
Si Si2 0.873551 0.665420 0.504556
Si Si3 0.228140 0.104188 0.218746
Si Si4 0.299839 0.056068 0.795160
Si Si5 0.455234 0.797911 0.840852
Si Si6 0.003960 0.378342 0.567788
Si Si7 0.367198 0.882810 0.772099
O O1 0.461801 0.530340 0.784901
O O2 0.000000 0.000000 0.500000
O O3 0.997431 0.100480 0.902180
O O4 0.000000 0.000000 0.000000
O O5 0.607992 0.387098 0.683030
O O6 0.733655 0.469736 0.213265
O O7 0.064759 0.928084 0.471875
O O8 0.098602 0.869848 0.619961
O O9 0.290261 0.097117 0.079902
O O10 0.133972 0.808499 0.727488
O O11 0.284943 0.649392 0.653719
O O12 0.754488 0.098522 0.732972
O O13 0.541713 0.945136 0.115841
O O14 0.055472 0.510425 0.678822
O O15 0.500000 0.000000 0.500000
O O16 0.500000 0.000000 0.000000
#
# Coordination Sequence:
#
# PCOD9005977 Si02
#       7
#     2   2   2   2   2   2   2
#     4  12  30  52  78 110 144 185 230 281 344 418
#     4  10  22  40  67  99 140 180 234 287 345 410
#     4  12  26  44  78 103 142 184 230 284 344 417
#     4  10  22  40  67  99 140 180 234 287 345 410
#     4   9  19  38  60  92 131 177 230 286 339 402
#     4   9  19  38  60  92 131 177 230 286 339 402
#     4  10  21  38  64  90 132 182 232 286 346 402
#
# _framework density 26.258253
#
# number of rings (size 3 to 8) (size 9 to 14) (size 15 to 20)
#    0.000    1.714    0.000    3.000    8.000    0.000 
#    0.000   11.429    0.000    0.000    0.000    0.000 
#    0.000    0.000    0.000    0.000    0.000    0.000 
#
# Total GULP energy -78143.624226 kJ/mol
# GULP energy per Si atom -5581.687445 kJ/mol
# Density = 2.619849 g / cm^3
# Si number density = 26.258253 Si / 1000 Ang^3
#
#
#
# Elastic Constant Matrix: (Units=GPa)
#
#
# Indices 1 2 3 4 5 6 
#
# 1 88.4769 34.5413 20.0898 -9.6637 6.3712 24.1722
# 2 34.5413 180.9734 32.0120 -15.0416 9.3717 -2.3719
# 3 20.0898 32.0120 109.2738 -3.4908 -13.0821 -3.1285
# 4 -9.6637 -15.0416 -3.4908 31.8174 -9.5225 -9.3635
# 5 6.3712 9.3717 -13.0821 -9.5225 38.7551 -6.3150
# 6 24.1722 -2.3719 -3.1285 -9.3635 -6.3150 39.4977
#
#
#
# Elastic Compliance Matrix: (Units=1/GPa)
#
#
# Indices 1 2 3 4 5 6 
#
# 1 0.016506 -0.002568 -0.003341 -0.001710 -0.005566 -0.011816
# 2 -0.002568 0.006541 -0.001356 0.002705 -0.000560 0.002409
# 3 -0.003341 -0.001356 0.011093 0.002660 0.005997 0.004432
# 4 -0.001710 0.002705 0.002660 0.040003 0.012455 0.012895
# 5 -0.005566 -0.000560 0.005997 0.012455 0.033930 0.012225
# 6 -0.011816 0.002409 0.004432 0.012895 0.012225 0.038056
#
#
# Mechanical properties :
#
#
# Convention : Reuss Voigt Hill
#
# Bulk Modulus (GPa) = 50.99758 61.33449 56.16604
# Shear Modulus (GPa) = 29.90507 41.48612 35.69559
#
# Velocity S-wave (km/s) = 3.37839 3.97914 3.69101
# Velocity P-wave (km/s) = 5.88912 6.67235 6.29294
#
# Compressibility (1/GPa) = 0.01960877
#
# Stress axis : x y z
#
# Youngs Moduli (GPa) = 60.58498 152.88125 90.14950
#
# Poissons Ratio (x) = 0.39261 0.30123
# Poissons Ratio (y) = 0.15559 0.12222
# Poissons Ratio (z) = 0.20244 0.20727
#
# Static dielectric constant tensor:
#      x y z
#    x 2.173230 -0.119490 -0.211740 
#    y -0.119490 2.089280 0.202240 
#    z -0.211740 0.202240 2.107820 
# 
# From -- ./inp_files/125630.got.cif
#   From: 2010.05.17/outbox.cif.g08.bks.cpg/sg2_63_cif.got.tgz:125630.got - 2010.06.03 11:33:40.
