data_PCOD9005097
_publ_section_title
;
Structure prediction by ZEFSAII (Michael W. Deem and Ramdas Pophale) SiO2 
 PCOD9005097
Probable space group: P -1
;
_chemical_formula_sum "Si O2"
_cell_formula_units_Z 14
_cell_length_a 16.095436
_cell_length_b 10.282680
_cell_length_c 10.668953
_cell_angle_alpha 57.984302
_cell_angle_beta 150.149997
_cell_angle_gamma 131.048643
_cell_volume 659.137453
_symmetry_space_group_name_H-M "P -1"
_symmetry_group_IT_number 2
_symmetry_cell_setting 'triclinic'
loop_
_space_group_symop_operation_xyz
x,y,z
-x,-y,-z
loop_
_atom_site_type_symbol
_atom_site_label
_atom_site_fract_x
_atom_site_fract_y
_atom_site_fract_z
Si Si1 0.250230 0.068345 0.413316
Si Si2 0.208210 0.643845 0.852052
Si Si3 0.416636 0.621036 0.385586
Si Si4 0.912741 0.694685 0.799199
Si Si5 0.125560 0.904679 0.732515
Si Si6 0.901924 0.283715 0.710091
Si Si7 0.562851 0.150807 0.176556
O O1 0.401033 0.196549 0.442583
O O2 0.172324 0.177176 0.333716
O O3 0.093049 0.891965 0.236878
O O4 0.369682 0.995996 0.688194
O O5 0.120525 0.776131 0.681538
O O6 0.357473 0.709296 0.901422
O O7 0.045040 0.447057 0.732729
O O8 0.310436 0.653874 0.112901
O O9 0.500000 0.500000 0.500000
O O10 0.262118 0.498471 0.345753
O O11 0.041351 0.779294 0.805670
O O12 0.034962 0.684660 0.080606
O O13 0.000000 0.000000 0.500000
O O14 0.341177 0.051676 0.955468
O O15 0.688564 0.240321 0.418711
#
# Coordination Sequence:
#
# PCOD9005097 Si02
#       7
#     2   2   2   2   2   2   2
#     4   9  18  38  61  90 114 155 205 236 297 347
#     4  11  20  40  62  89 120 153 204 241 295 355
#     4   9  19  33  61  88 114 153 195 247 284 342
#     4  10  21  38  60  91 124 146 201 250 294 352
#     4  12  26  39  60  89 121 162 195 249 300 344
#     4   9  21  37  67  86 116 157 201 242 298 347
#     4  10  22  38  63  85 117 160 201 239 294 353
#
# _framework density 21.239878999999998
#
# number of rings (size 3 to 8) (size 9 to 14) (size 15 to 20)
#    0.857    1.143    1.429    2.143    4.000    2.857 
#    0.000    0.714    0.000    0.000    0.000    0.000 
#    0.000    0.000    0.000    0.000    0.000    0.000 
#
# Total GULP energy -78064.159560 kJ/mol
# GULP energy per Si atom -5576.011397 kJ/mol
# Density = 2.119154 g / cm^3
# Si number density = 21.239879 Si / 1000 Ang^3
#
#
#
# Elastic Constant Matrix: (Units=GPa)
#
#
# Indices 1 2 3 4 5 6 
#
# 1 71.8451 46.6241 30.7581 5.9127 16.8257 36.7559
# 2 46.6241 161.8100 36.4634 27.1239 14.7011 37.5171
# 3 30.7581 36.4634 78.5743 1.5108 24.6643 13.8830
# 4 5.9127 27.1239 1.5108 42.5012 2.1838 9.1132
# 5 16.8257 14.7011 24.6643 2.1838 22.3658 -2.8536
# 6 36.7559 37.5171 13.8830 9.1132 -2.8536 46.7142
#
#
#
# Elastic Compliance Matrix: (Units=1/GPa)
#
#
# Indices 1 2 3 4 5 6 
#
# 1 0.038627 -0.001590 0.002419 0.004413 -0.035303 -0.032852
# 2 -0.001590 0.009191 -0.001670 -0.004352 -0.003214 -0.004981
# 3 0.002419 -0.001670 0.022818 0.003405 -0.027453 -0.009684
# 4 0.004413 -0.004352 0.003405 0.027431 -0.007763 -0.006815
# 5 -0.035303 -0.003214 -0.027453 -0.007763 0.110382 0.046774
# 6 -0.032852 -0.004981 -0.009684 -0.006815 0.046774 0.058321
#
#
# Mechanical properties :
#
#
# Convention : Reuss Voigt Hill
#
# Bulk Modulus (GPa) = 14.50279 59.99117 37.24698
# Shear Modulus (GPa) = 17.15628 35.54183 26.34906
#
# Velocity S-wave (km/s) = 2.84516 4.09510 3.52596
# Velocity P-wave (km/s) = 4.19954 7.11799 5.84388
#
# Compressibility (1/GPa) = 0.06895224
#
# Stress axis : x y z
#
# Youngs Moduli (GPa) = 25.88862 108.80072 43.82479
#
# Poissons Ratio (x) = 0.17305 -0.10599
# Poissons Ratio (y) = 0.04118 0.07319
# Poissons Ratio (z) = -0.06261 0.18171
#
# Static dielectric constant tensor:
#      x y z
#    x 1.774950 -0.010070 0.000940 
#    y -0.010070 1.845730 -0.016080 
#    z 0.000940 -0.016080 1.831090 
# 
# From -- ./inp_files/464409.got.cif
#   From: 2010.05.17/outbox.cif.g08.bks.cpg/sg2_233_cif.got.tgz:464409.got - 2010.06.03 11:33:40.
