data_PCOD9005263
_publ_section_title
;
Structure prediction by ZEFSAII (Michael W. Deem and Ramdas Pophale) SiO2 
 PCOD9005263
Probable space group: P -1
;
_chemical_formula_sum "Si O2"
_cell_formula_units_Z 16
_cell_length_a 9.143095
_cell_length_b 13.933647
_cell_length_c 11.680408
_cell_angle_alpha 39.400562
_cell_angle_beta 110.937843
_cell_angle_gamma 131.607514
_cell_volume 667.112708
_symmetry_space_group_name_H-M "P -1"
_symmetry_group_IT_number 2
_symmetry_cell_setting 'triclinic'
loop_
_space_group_symop_operation_xyz
x,y,z
-x,-y,-z
loop_
_atom_site_type_symbol
_atom_site_label
_atom_site_fract_x
_atom_site_fract_y
_atom_site_fract_z
Si Si1 0.591720 0.069486 0.794092
Si Si2 0.181033 0.039054 0.937136
Si Si3 0.214620 0.124597 0.383387
Si Si4 0.404235 0.532880 0.337665
Si Si5 0.658897 0.826431 0.392203
Si Si6 0.766751 0.513766 0.988576
Si Si7 0.394082 0.047396 0.339720
Si Si8 0.844562 0.385940 0.893679
O O1 0.656085 0.062110 0.692069
O O2 0.547134 0.217322 0.667898
O O3 0.763912 0.101481 0.893199
O O4 0.355944 0.851846 0.940442
O O5 0.394381 0.250399 0.848653
O O6 0.186704 0.062299 0.777874
O O7 0.000000 0.000000 0.000000
O O8 0.330824 0.107382 0.534899
O O9 0.266159 0.327183 0.169838
O O10 0.199736 0.002169 0.386140
O O11 0.000000 0.000000 0.500000
O O12 0.500000 0.500000 0.500000
O O13 0.346569 0.353206 0.411590
O O14 0.213858 0.527524 0.298830
O O15 0.841613 0.492813 0.906880
O O16 0.556021 0.288775 0.155389
O O17 0.943731 0.574260 0.073716
O O18 0.500000 0.000000 0.500000
#
# Coordination Sequence:
#
# PCOD9005263 Si02
#       8
#     2   2   2   2   2   2   2   2
#     4  10  21  41  64  88 128 167 209 261 322 377
#     4  10  23  42  65  91 121 165 217 269 317 368
#     4  12  25  39  63  98 132 170 215 257 321 391
#     4   9  19  38  63  89 121 161 210 259 317 370
#     4  11  21  40  65  91 122 168 213 257 318 385
#     4  10  21  38  61  89 129 169 213 256 318 376
#     4  11  24  41  62  94 133 167 212 268 319 379
#     4   9  18  36  61  88 120 164 206 255 313 377
#
# _framework density 23.983951000000001
#
# number of rings (size 3 to 8) (size 9 to 14) (size 15 to 20)
#    0.000    1.750    2.500    1.500    5.250    0.000 
#    2.250    0.625    0.000    0.000    0.000    0.000 
#    0.000    0.000    0.000    0.000    0.000    0.000 
#
# Total GULP energy -89087.111887 kJ/mol
# GULP energy per Si atom -5567.944493 kJ/mol
# Density = 2.392936 g / cm^3
# Si number density = 23.983951 Si / 1000 Ang^3
#
#
#
# Elastic Constant Matrix: (Units=GPa)
#
#
# Indices 1 2 3 4 5 6 
#
# 1 141.8800 24.8174 49.2854 23.9461 9.2526 -6.7671
# 2 24.8174 61.5375 14.9636 22.6789 4.5177 2.4779
# 3 49.2854 14.9636 80.2510 14.6649 26.3974 -2.1040
# 4 23.9461 22.6789 14.6649 33.3019 7.9639 3.8721
# 5 9.2526 4.5177 26.3974 7.9639 40.7385 8.8325
# 6 -6.7671 2.4779 -2.1040 3.8721 8.8325 38.6276
#
#
#
# Elastic Compliance Matrix: (Units=1/GPa)
#
#
# Indices 1 2 3 4 5 6 
#
# 1 0.009932 -0.001168 -0.005726 -0.004509 0.002148 0.001464
# 2 -0.001168 0.022091 -0.001402 -0.013888 0.001584 -0.000668
# 3 -0.005726 -0.001402 0.020639 -0.001438 -0.012324 0.003173
# 4 -0.004509 -0.013888 -0.001438 0.044843 -0.004525 -0.003438
# 5 0.002148 0.001584 -0.012324 -0.004525 0.034449 -0.007820
# 6 0.001464 -0.000668 0.003173 -0.003438 -0.007820 0.028493
#
#
# Mechanical properties :
#
#
# Convention : Reuss Voigt Hill
#
# Bulk Modulus (GPa) = 27.72495 51.31123 39.51809
# Shear Modulus (GPa) = 26.44592 35.50707 30.97649
#
# Velocity S-wave (km/s) = 3.32422 3.85184 3.59771
# Velocity P-wave (km/s) = 5.13019 6.42049 5.81126
#
# Compressibility (1/GPa) = 0.03606860
#
# Stress axis : x y z
#
# Youngs Moduli (GPa) = 100.68001 45.26683 48.45186
#
# Poissons Ratio (x) = 0.05288 0.27746
# Poissons Ratio (y) = 0.11762 0.06795
# Poissons Ratio (z) = 0.57654 0.06348
#
# Static dielectric constant tensor:
#      x y z
#    x 1.936300 -0.090300 0.019830 
#    y -0.090300 2.109990 -0.091350 
#    z 0.019830 -0.091350 1.970830 
# 
# From -- ./inp_files/331858.got.cif
#   From: 2010.05.17/outbox.cif.g08.bks.cpg/sg2_166_cif.got.tgz:331858.got - 2010.06.03 11:33:40.
