data_PCOD9005645
_publ_section_title
;
Structure prediction by ZEFSAII (Michael W. Deem and Ramdas Pophale) SiO2 
 PCOD9005645
Probable space group: P -1
;
_chemical_formula_sum "Si O2"
_cell_formula_units_Z 16
_cell_length_a 14.479285
_cell_length_b 7.611843
_cell_length_c 7.733549
_cell_angle_alpha 56.276589
_cell_angle_beta 117.001691
_cell_angle_gamma 95.558336
_cell_volume 617.634105
_symmetry_space_group_name_H-M "P -1"
_symmetry_group_IT_number 2
_symmetry_cell_setting 'triclinic'
loop_
_space_group_symop_operation_xyz
x,y,z
-x,-y,-z
loop_
_atom_site_type_symbol
_atom_site_label
_atom_site_fract_x
_atom_site_fract_y
_atom_site_fract_z
Si Si1 0.688940 0.157364 0.986534
Si Si2 0.916603 0.443615 0.825576
Si Si3 0.213821 0.834935 0.579245
Si Si4 0.670161 0.604985 0.615172
Si Si5 0.393391 0.246763 0.876491
Si Si6 0.148156 0.413079 0.680606
Si Si7 0.572608 0.090171 0.371161
Si Si8 0.859669 0.009969 0.924173
O O1 0.769569 0.093002 0.250836
O O2 0.604288 0.009018 0.016568
O O3 0.643195 0.413598 0.812941
O O4 0.748319 0.102647 0.883297
O O5 0.796889 0.535069 0.742605
O O6 0.910964 0.550821 0.572452
O O7 0.925032 0.187172 0.942112
O O8 0.000000 0.500000 0.000000
O O9 0.152132 0.639879 0.646943
O O10 0.332232 0.777401 0.625112
O O11 0.154067 0.984663 0.295814
O O12 0.609900 0.615296 0.375228
O O13 0.641175 0.852654 0.509462
O O14 0.273872 0.322360 0.805355
O O15 0.485658 0.236681 0.095484
O O16 0.107461 0.232788 0.851009
O O17 0.500000 0.000000 0.500000
#
# Coordination Sequence:
#
# PCOD9005645 Si02
#       8
#     2   2   2   2   2   2   2   2
#     4  10  21  38  63  87 120 172 212 258 316 372
#     4   9  19  39  70 100 122 158 214 262 319 389
#     4  11  23  38  61  92 125 172 216 257 311 382
#     4  10  22  40  60  91 123 165 205 263 316 368
#     4  10  21  41  58  86 127 160 216 263 305 372
#     4   9  20  38  64  89 127 167 202 261 324 365
#     4  12  25  39  59  92 130 169 217 262 309 378
#     4   9  20  41  62  96 127 160 211 264 316 384
#
# _framework density 25.905306
#
# number of rings (size 3 to 8) (size 9 to 14) (size 15 to 20)
#    0.000    2.000    1.250    2.625    3.500    1.500 
#    0.000    0.000    0.000   15.000    0.000    0.000 
#    0.000    0.000    0.000    0.000    0.000    0.000 
#
# Total GULP energy -89440.640845 kJ/mol
# GULP energy per Si atom -5590.040053 kJ/mol
# Density = 2.584634 g / cm^3
# Si number density = 25.905306 Si / 1000 Ang^3
#
#
#
# Elastic Constant Matrix: (Units=GPa)
#
#
# Indices 1 2 3 4 5 6 
#
# 1 82.6970 18.9350 60.2966 -8.9870 12.2844 16.3165
# 2 18.9350 84.8886 58.5505 -16.0070 -1.7600 24.3269
# 3 60.2966 58.5505 175.7534 -3.1084 8.3065 25.5519
# 4 -8.9870 -16.0070 -3.1084 40.7496 13.8233 -2.4487
# 5 12.2844 -1.7600 8.3065 13.8233 47.4156 -1.7159
# 6 16.3165 24.3269 25.5519 -2.4487 -1.7159 35.4678
#
#
#
# Elastic Compliance Matrix: (Units=1/GPa)
#
#
# Indices 1 2 3 4 5 6 
#
# 1 0.018578 0.002818 -0.006066 0.006319 -0.005703 -0.005949
# 2 0.002818 0.019430 -0.005771 0.007763 -0.001623 -0.010009
# 3 -0.006066 -0.005771 0.009672 -0.003076 0.000545 -0.000405
# 4 0.006319 0.007763 -0.003076 0.031980 -0.010289 -0.004305
# 5 -0.005703 -0.001623 0.000545 -0.010289 0.025552 0.003870
# 6 -0.005949 -0.010009 -0.000405 -0.004305 0.003870 0.037978
#
#
# Mechanical properties :
#
#
# Convention : Reuss Voigt Hill
#
# Bulk Modulus (GPa) = 33.73526 68.76702 51.25114
# Shear Modulus (GPa) = 29.22131 38.43040 33.82585
#
# Velocity S-wave (km/s) = 3.36222 3.85580 3.61744
# Velocity P-wave (km/s) = 5.30316 6.81367 6.10531
#
# Compressibility (1/GPa) = 0.02964258
#
# Stress axis : x y z
#
# Youngs Moduli (GPa) = 53.82794 51.46641 103.38935
#
# Poissons Ratio (x) = -0.14504 0.62718
# Poissons Ratio (y) = -0.15170 0.59663
# Poissons Ratio (z) = 0.32653 0.29700
#
# Static dielectric constant tensor:
#      x y z
#    x 2.158610 -0.015060 -0.001080 
#    y -0.015060 2.093400 -0.008150 
#    z -0.001080 -0.008150 1.979490 
# 
# From -- ./inp_files/328513.got.cif
#   From: 2010.05.17/outbox.cif.g08.bks.cpg/sg2_165_cif.got.tgz:328513.got - 2010.06.03 11:33:40.
