data_PCOD9005033
_publ_section_title
;
Structure prediction by ZEFSAII (Michael W. Deem and Ramdas Pophale) SiO2 
 PCOD9005033
Probable space group: P -1
;
_chemical_formula_sum "Si O2"
_cell_formula_units_Z 16
_cell_length_a 14.625141
_cell_length_b 12.391049
_cell_length_c 4.948863
_cell_angle_alpha 82.882042
_cell_angle_beta 74.703689
_cell_angle_gamma 64.547464
_cell_volume 781.047035
_symmetry_space_group_name_H-M "P -1"
_symmetry_group_IT_number 2
_symmetry_cell_setting 'triclinic'
loop_
_space_group_symop_operation_xyz
x,y,z
-x,-y,-z
loop_
_atom_site_type_symbol
_atom_site_label
_atom_site_fract_x
_atom_site_fract_y
_atom_site_fract_z
Si Si1 0.196059 0.037765 0.008339
Si Si2 0.210355 0.407944 0.200016
Si Si3 0.949632 0.326214 0.654187
Si Si4 0.045381 0.824621 0.820981
Si Si5 0.376154 0.492352 0.820836
Si Si6 0.377520 0.633513 0.281912
Si Si7 0.767842 0.109102 0.467875
Si Si8 0.170584 0.286818 0.753623
O O1 0.215973 0.150930 0.864119
O O2 0.253620 0.926351 0.801391
O O3 0.071299 0.079106 0.061399
O O4 0.221872 0.998095 0.307479
O O5 0.129546 0.536630 0.329743
O O6 0.234225 0.317179 0.459447
O O7 0.088507 0.748221 0.082823
O O8 0.308841 0.424553 0.998351
O O9 0.962965 0.264644 0.373015
O O10 0.839647 0.633382 0.999045
O O11 0.059338 0.314105 0.693727
O O12 0.122497 0.879465 0.636770
O O13 0.346912 0.547693 0.529205
O O14 0.498962 0.408484 0.762414
O O15 0.358302 0.602398 0.003465
O O16 0.314153 0.767461 0.386310
#
# Coordination Sequence:
#
# PCOD9005033 Si02
#       8
#     2   2   2   2   2   2   2   2
#     4  11  23  37  52  77 112 150 189 225 260 308
#     4  12  21  36  59  80 108 148 186 219 271 327
#     4  11  21  35  54  82 114 142 180 225 273 326
#     4  11  21  35  54  82 114 142 180 225 273 326
#     4  10  21  38  60  88 115 136 169 223 283 335
#     4  10  21  38  60  88 115 136 169 223 283 335
#     4  12  21  36  59  80 108 148 186 219 271 327
#     4  11  23  37  52  77 112 150 189 225 260 308
#
# _framework density 20.485320000000002
#
# number of rings (size 3 to 8) (size 9 to 14) (size 15 to 20)
#    0.000    1.000    0.000    9.750    0.000    0.000 
#    0.000    0.000    0.000    4.500    0.000    0.000 
#    0.000    0.000    0.000    0.000    0.000    0.000 
#
# Total GULP energy -89556.889140 kJ/mol
# GULP energy per Si atom -5597.305571 kJ/mol
# Density = 2.043869 g / cm^3
# Si number density = 20.485320 Si / 1000 Ang^3
#
#
#
# Elastic Constant Matrix: (Units=GPa)
#
#
# Indices 1 2 3 4 5 6 
#
# 1 21.9711 16.1001 8.3752 1.9898 -8.4670 6.9053
# 2 16.1001 65.4152 39.6776 5.1262 -19.5544 -0.8423
# 3 8.3752 39.6776 83.7089 -2.2279 -14.2294 6.1967
# 4 1.9898 5.1262 -2.2279 45.5891 12.3672 0.7070
# 5 -8.4670 -19.5544 -14.2294 12.3672 27.1314 1.3496
# 6 6.9053 -0.8423 6.1967 0.7070 1.3496 15.3167
#
#
#
# Elastic Compliance Matrix: (Units=1/GPa)
#
#
# Indices 1 2 3 4 5 6 
#
# 1 0.075645 -0.016729 0.006413 -0.005790 0.019495 -0.039068
# 2 -0.016729 0.031718 -0.012167 -0.007431 0.013983 0.013320
# 3 0.006413 -0.012167 0.018427 0.001399 0.002822 -0.011329
# 4 -0.005790 -0.007431 0.001399 0.028335 -0.019446 0.002041
# 5 0.019495 0.013983 0.002822 -0.019446 0.064055 -0.013908
# 6 -0.039068 0.013320 -0.011329 0.002041 -0.013908 0.089348
#
#
# Mechanical properties :
#
#
# Convention : Reuss Voigt Hill
#
# Bulk Modulus (GPa) = 12.37272 33.26678 22.81975
# Shear Modulus (GPa) = 13.17742 24.73694 18.95718
#
# Velocity S-wave (km/s) = 2.53901 3.47874 3.04534
# Velocity P-wave (km/s) = 3.82732 5.69299 4.85069
#
# Compressibility (1/GPa) = 0.08082297
#
# Stress axis : x y z
#
# Youngs Moduli (GPa) = 13.21970 31.52768 54.26702
#
# Poissons Ratio (x) = 0.52744 -0.34802
# Poissons Ratio (y) = 0.22116 0.66029
# Poissons Ratio (z) = -0.08478 0.38361
#
# Static dielectric constant tensor:
#      x y z
#    x 1.707800 0.011860 -0.013070 
#    y 0.011860 1.719040 -0.015940 
#    z -0.013070 -0.015940 1.740080 
# 
# From -- ./inp_files/108918.got.cif
#   From: 2010.05.17/outbox.cif.g08.bks.cpg/sg2_55_cif.got.tgz:108918.got - 2010.06.03 11:33:40.
