data_PCOD9005252
_publ_section_title
;
Structure prediction by ZEFSAII (Michael W. Deem and Ramdas Pophale) SiO2 
 PCOD9005252
Probable space group: P -1
;
_chemical_formula_sum "Si O2"
_cell_formula_units_Z 16
_cell_length_a 8.758088
_cell_length_b 10.211677
_cell_length_c 22.558522
_cell_angle_alpha 56.146575
_cell_angle_beta 120.660815
_cell_angle_gamma 149.053541
_cell_volume 859.141931
_symmetry_space_group_name_H-M "P -1"
_symmetry_group_IT_number 2
_symmetry_cell_setting 'triclinic'
loop_
_space_group_symop_operation_xyz
x,y,z
-x,-y,-z
loop_
_atom_site_type_symbol
_atom_site_label
_atom_site_fract_x
_atom_site_fract_y
_atom_site_fract_z
Si Si1 0.858015 0.955526 0.544469
Si Si2 0.896678 0.780833 0.219161
Si Si3 0.195594 0.287495 0.212506
Si Si4 0.831074 0.542802 0.957199
Si Si5 0.774628 0.320260 0.679745
Si Si6 0.824253 0.486807 0.513196
Si Si7 0.931035 0.194825 0.305173
Si Si8 0.136392 0.047131 0.952877
O O1 0.508238 0.726704 0.523046
O O2 0.937119 0.874122 0.625861
O O3 0.000000 0.000000 0.500000
O O4 0.008745 0.227201 0.523052
O O5 0.549111 0.516398 0.234311
O O6 0.912692 0.866010 0.133970
O O7 0.063296 0.732517 0.267484
O O8 0.047691 0.014982 0.234305
O O9 0.161664 0.373002 0.127015
O O10 0.032490 0.258797 0.241190
O O11 0.487706 0.277298 0.972294
O O12 0.988538 0.778133 0.972288
O O13 0.000000 0.500000 0.000000
O O14 0.806765 0.402659 0.597357
O O15 0.925803 0.557994 0.692569
O O16 0.424678 0.056880 0.692563
O O17 0.000000 0.500000 0.500000
O O18 0.000000 0.000000 0.000000
#
# Coordination Sequence:
#
# PCOD9005252 Si02
#       8
#     2   2   2   2   2   2   2   2
#     4  12  23  44  62  85 121 152 193 250 296 342
#     4  10  23  41  61  85 125 156 193 245 287 347
#     4  10  23  41  60  88 118 160 196 234 299 347
#     4  10  21  38  61  89 122 153 196 245 284 344
#     4  12  24  41  59  90 118 152 199 245 290 350
#     4  12  26  41  62  90 116 152 200 243 296 352
#     4  12  25  39  64  87 117 157 197 241 298 350
#     4  10  21  38  61  90 119 159 196 234 296 344
#
# _framework density 18.623231000000001
#
# number of rings (size 3 to 8) (size 9 to 14) (size 15 to 20)
#    0.000    1.000    2.500    3.750    3.500    2.000 
#    0.000    0.000    0.000    0.000    0.000    0.000 
#    0.000    0.000    0.000    0.000    0.000    0.000 
#
# Total GULP energy -89462.988370 kJ/mol
# GULP energy per Si atom -5591.436773 kJ/mol
# Density = 1.858084 g / cm^3
# Si number density = 18.623231 Si / 1000 Ang^3
#
#
#
# Elastic Constant Matrix: (Units=GPa)
#
#
# Indices 1 2 3 4 5 6 
#
# 1 192.6544 119.7180 73.1444 2.9043 0.0727 0.4937
# 2 119.7180 221.7235 59.1062 4.2317 8.3791 2.5123
# 3 73.1444 59.1062 49.7889 2.0908 4.7849 -1.7322
# 4 2.9043 4.2317 2.0908 22.9146 -3.2481 2.6504
# 5 0.0727 8.3791 4.7849 -3.2481 51.4239 0.6456
# 6 0.4937 2.5123 -1.7322 2.6504 0.6456 38.5841
#
#
#
# Elastic Compliance Matrix: (Units=1/GPa)
#
#
# Indices 1 2 3 4 5 6 
#
# 1 0.013028 -0.002847 -0.016008 0.000708 0.001989 -0.000782
# 2 -0.002847 0.007255 -0.004346 -0.000630 -0.000806 -0.000574
# 3 -0.016008 -0.004346 0.049363 -0.002590 -0.004063 0.002950
# 4 0.000708 -0.000630 -0.002590 0.044729 0.003208 -0.003211
# 5 0.001989 -0.000806 -0.004063 0.003208 0.020164 -0.000713
# 6 -0.000782 -0.000574 0.002950 -0.003211 -0.000713 0.026330
#
#
# Mechanical properties :
#
#
# Convention : Reuss Voigt Hill
#
# Bulk Modulus (GPa) = 43.02165 107.56713 75.29439
# Shear Modulus (GPa) = 23.25385 36.73109 29.99247
#
# Velocity S-wave (km/s) = 3.53745 4.44591 4.01744
# Velocity P-wave (km/s) = 6.31158 9.17822 7.87641
#
# Compressibility (1/GPa) = 0.02324411
#
# Stress axis : x y z
#
# Youngs Moduli (GPa) = 76.75863 137.83818 20.25822
#
# Poissons Ratio (x) = 0.39241 0.32428
# Poissons Ratio (y) = 0.21852 0.08805
# Poissons Ratio (z) = 1.22872 0.59908
#
# Static dielectric constant tensor:
#      x y z
#    x 1.602070 0.004020 -0.013690 
#    y 0.004020 1.628740 0.002820 
#    z -0.013690 0.002820 1.605970 
# 
# From -- ./inp_files/120063.got.cif
#   From: 2010.05.17/outbox.cif.g08.bks.cpg/sg2_61_cif.got.tgz:120063.got - 2010.06.03 11:33:40.
