data_PCOD9005354
_publ_section_title
;
Structure prediction by ZEFSAII (Michael W. Deem and Ramdas Pophale) SiO2 
 PCOD9005354
Probable space group: P -1
;
_chemical_formula_sum "Si O2"
_cell_formula_units_Z 14
_cell_length_a 8.749052
_cell_length_b 11.376012
_cell_length_c 9.579990
_cell_angle_alpha 138.645932
_cell_angle_beta 82.054692
_cell_angle_gamma 105.534221
_cell_volume 604.006583
_symmetry_space_group_name_H-M "P -1"
_symmetry_group_IT_number 2
_symmetry_cell_setting 'triclinic'
loop_
_space_group_symop_operation_xyz
x,y,z
-x,-y,-z
loop_
_atom_site_type_symbol
_atom_site_label
_atom_site_fract_x
_atom_site_fract_y
_atom_site_fract_z
Si Si1 0.212789 0.833372 0.408556
Si Si2 0.673480 0.094749 0.828319
Si Si3 0.155037 0.168180 0.158607
Si Si4 0.658254 0.075760 0.221929
Si Si5 0.863801 0.699773 0.421606
Si Si6 0.094087 0.674744 0.787621
Si Si7 0.647057 0.449524 0.011790
O O1 0.280633 0.959626 0.379439
O O2 0.304967 0.901853 0.599029
O O3 0.241635 0.633751 0.182883
O O4 0.028617 0.818759 0.445233
O O5 0.602440 0.273333 0.964120
O O6 0.530276 0.952676 0.794790
O O7 0.833746 0.179758 0.969322
O O8 0.188918 0.205714 0.351200
O O9 0.082933 0.326406 0.241454
O O10 0.290526 0.101996 0.002035
O O11 0.000000 0.000000 0.000000
O O12 0.774525 0.248155 0.281319
O O13 0.903583 0.519773 0.324626
O O14 0.741451 0.620416 0.243639
O O15 0.500000 0.500000 0.000000
#
# Coordination Sequence:
#
# PCOD9005354 Si02
#       7
#     2   2   2   2   2   2   2
#     4  10  21  39  66  85 128 163 210 252 315 365
#     4   9  22  40  60  90 125 166 208 250 313 372
#     4  10  21  38  61  95 127 158 208 257 304 373
#     4  11  21  42  61  91 131 166 206 256 309 374
#     4  11  20  42  66  94 125 160 212 262 310 370
#     4  10  21  38  64  92 122 165 209 252 314 365
#     4   9  22  41  61  95 123 162 209 259 315 364
#
# _framework density 23.178557000000001
#
# number of rings (size 3 to 8) (size 9 to 14) (size 15 to 20)
#    0.857    1.143    2.857    1.714    0.000    1.143 
#    7.714    2.143    0.000    0.000    0.000    0.000 
#    0.000    0.000    0.000    0.000    0.000    0.000 
#
# Total GULP energy -78155.743972 kJ/mol
# GULP energy per Si atom -5582.553141 kJ/mol
# Density = 2.312580 g / cm^3
# Si number density = 23.178557 Si / 1000 Ang^3
#
#
#
# Elastic Constant Matrix: (Units=GPa)
#
#
# Indices 1 2 3 4 5 6 
#
# 1 126.0771 28.2151 50.6569 -13.3613 -0.0445 -5.8083
# 2 28.2151 51.6335 15.7356 -11.3798 -11.3224 6.7236
# 3 50.6569 15.7356 162.6215 -24.9353 -4.8270 -10.2216
# 4 -13.3613 -11.3798 -24.9353 43.1025 -2.1070 -1.3043
# 5 -0.0445 -11.3224 -4.8270 -2.1070 27.7695 -12.4620
# 6 -5.8083 6.7236 -10.2216 -1.3043 -12.4620 34.3907
#
#
#
# Elastic Compliance Matrix: (Units=1/GPa)
#
#
# Indices 1 2 3 4 5 6 
#
# 1 0.010271 -0.005387 -0.002633 0.000177 -0.002056 0.001267
# 2 -0.005387 0.026005 0.000219 0.005757 0.010158 -0.002030
# 3 -0.002633 0.000219 0.007860 0.004039 0.003172 0.003151
# 4 0.000177 0.005757 0.004039 0.027551 0.006755 0.003597
# 5 -0.002056 0.010158 0.003172 0.006755 0.048609 0.016480
# 6 0.001267 -0.002030 0.003151 0.003597 0.016480 0.036733
#
#
# Mechanical properties :
#
#
# Convention : Reuss Voigt Hill
#
# Bulk Modulus (GPa) = 35.04616 58.83860 46.94238
# Shear Modulus (GPa) = 27.45090 37.43417 32.44254
#
# Velocity S-wave (km/s) = 3.44513 4.02311 3.74529
# Velocity P-wave (km/s) = 5.56580 6.85716 6.24495
#
# Compressibility (1/GPa) = 0.02853380
#
# Stress axis : x y z
#
# Youngs Moduli (GPa) = 97.35738 38.45353 127.23201
#
# Poissons Ratio (x) = 0.20717 0.33494
# Poissons Ratio (y) = 0.52451 -0.02782
# Poissons Ratio (z) = 0.25630 -0.00841
#
# Static dielectric constant tensor:
#      x y z
#    x 1.904540 -0.078780 -0.028290 
#    y -0.078780 1.950950 0.035680 
#    z -0.028290 0.035680 1.910080 
# 
# From -- ./inp_files/190822.got.cif
#   From: 2010.05.17/outbox.cif.g08.bks.cpg/sg2_96_cif.got.tgz:190822.got - 2010.06.03 11:33:40.
