data_PCOD9005671
_publ_section_title
;
Structure prediction by ZEFSAII (Michael W. Deem and Ramdas Pophale) SiO2 
 PCOD9005671
Probable space group: P -1
;
_chemical_formula_sum "Si O2"
_cell_formula_units_Z 12
_cell_length_a 13.592771
_cell_length_b 6.932637
_cell_length_c 8.302635
_cell_angle_alpha 92.562542
_cell_angle_beta 134.080544
_cell_angle_gamma 71.682924
_cell_volume 515.917836
_symmetry_space_group_name_H-M "P -1"
_symmetry_group_IT_number 2
_symmetry_cell_setting 'triclinic'
loop_
_space_group_symop_operation_xyz
x,y,z
-x,-y,-z
loop_
_atom_site_type_symbol
_atom_site_label
_atom_site_fract_x
_atom_site_fract_y
_atom_site_fract_z
Si Si1 0.369171 0.415739 0.347033
Si Si2 0.104024 0.507521 0.266497
Si Si3 0.118811 0.815774 0.526608
Si Si4 0.865527 0.479429 0.180898
Si Si5 0.563550 0.249727 0.062025
Si Si6 0.376405 0.107136 0.094768
O O1 0.500000 0.500000 0.500000
O O2 0.275346 0.417122 0.401090
O O3 0.421309 0.187823 0.313595
O O4 0.238879 0.557660 0.077631
O O5 0.073823 0.739865 0.306322
O O6 0.037716 0.399816 0.322633
O O7 0.000000 0.500000 0.000000
O O8 0.158392 0.618604 0.686204
O O9 0.271916 0.844219 0.678044
O O10 0.000000 0.000000 0.500000
O O11 0.796870 0.734577 0.116380
O O12 0.456427 0.184676 0.049161
O O13 0.500000 0.500000 0.000000
O O14 0.585549 0.134083 0.909254
#
# Coordination Sequence:
#
# PCOD9005671 Si02
#       6
#     2   2   2   2   2   2
#     4   9  18  38  68  95 132 174 214 272 337 399
#     4  10  21  38  63  88 130 173 209 272 337 389
#     4  12  24  38  67  93 130 175 233 270 325 392
#     4   9  20  40  62  96 131 170 219 274 324 394
#     4  11  20  38  63  98 125 168 221 276 324 389
#     4   9  20  36  66  90 134 163 217 268 334 377
#
# _framework density 23.259519000000001
#
# number of rings (size 3 to 8) (size 9 to 14) (size 15 to 20)
#    1.000    1.000    1.667    2.500    0.000    0.000 
#    0.000    3.333    7.333    3.000    0.000    0.000 
#    0.000    0.000    0.000    0.000    0.000    0.000 
#
# Total GULP energy -66872.260734 kJ/mol
# GULP energy per Si atom -5572.688394 kJ/mol
# Density = 2.320658 g / cm^3
# Si number density = 23.259519 Si / 1000 Ang^3
#
#
#
# Elastic Constant Matrix: (Units=GPa)
#
#
# Indices 1 2 3 4 5 6 
#
# 1 142.5855 31.3378 24.0165 16.0941 29.4983 -15.8386
# 2 31.3378 138.9852 38.7378 29.5264 6.7591 -38.1344
# 3 24.0165 38.7378 81.1609 24.8537 24.0682 -9.3994
# 4 16.0941 29.5264 24.8537 41.5138 3.8279 -10.3362
# 5 29.4983 6.7591 24.0682 3.8279 31.8910 3.5688
# 6 -15.8386 -38.1344 -9.3994 -10.3362 3.5688 37.4049
#
#
#
# Elastic Compliance Matrix: (Units=1/GPa)
#
#
# Indices 1 2 3 4 5 6 
#
# 1 0.009737 -0.000424 0.001642 -0.002397 -0.010363 0.004429
# 2 -0.000424 0.011702 -0.002980 -0.003842 -0.000495 0.009987
# 3 0.001642 -0.002980 0.020972 -0.009137 -0.015832 0.001913
# 4 -0.002397 -0.003842 -0.009137 0.033018 0.005814 0.001341
# 5 -0.010363 -0.000495 -0.015832 0.005814 0.053684 -0.012387
# 6 0.004429 0.009987 0.001913 0.001341 -0.012387 0.040825
#
#
# Mechanical properties :
#
#
# Convention : Reuss Voigt Hill
#
# Bulk Modulus (GPa) = 25.71653 61.21287 43.46470
# Shear Modulus (GPa) = 26.82057 40.07122 33.44590
#
# Velocity S-wave (km/s) = 3.39942 4.15515 3.79614
# Velocity P-wave (km/s) = 5.14669 7.02815 6.15968
#
# Compressibility (1/GPa) = 0.03888549
#
# Stress axis : x y z
#
# Youngs Moduli (GPa) = 102.70553 85.45760 47.68261
#
# Poissons Ratio (x) = 0.03627 -0.07827
# Poissons Ratio (y) = 0.04359 0.14207
# Poissons Ratio (z) = -0.16860 0.25462
#
# Static dielectric constant tensor:
#      x y z
#    x 1.895980 -0.076840 -0.020510 
#    y -0.076840 1.994840 0.030660 
#    z -0.020510 0.030660 1.962060 
# 
# From -- ./inp_files/159329.got.cif
#   From: 2010.05.17/outbox.cif.g08.bks.cpg/sg2_80_cif.got.tgz:159329.got - 2010.06.03 11:33:40.
