data_PCOD9005961
_publ_section_title
;
Structure prediction by ZEFSAII (Michael W. Deem and Ramdas Pophale) SiO2 
 PCOD9005961
Probable space group: P -1
;
_chemical_formula_sum "Si O2"
_cell_formula_units_Z 16
_cell_length_a 15.029192
_cell_length_b 9.472538
_cell_length_c 8.707686
_cell_angle_alpha 79.365328
_cell_angle_beta 63.895930
_cell_angle_gamma 39.561149
_cell_volume 682.589391
_symmetry_space_group_name_H-M "P -1"
_symmetry_group_IT_number 2
_symmetry_cell_setting 'triclinic'
loop_
_space_group_symop_operation_xyz
x,y,z
-x,-y,-z
loop_
_atom_site_type_symbol
_atom_site_label
_atom_site_fract_x
_atom_site_fract_y
_atom_site_fract_z
Si Si1 0.436800 0.520474 0.275844
Si Si2 0.047879 0.326501 0.874997
Si Si3 0.217904 0.855859 0.851364
Si Si4 0.454821 0.793534 0.036303
Si Si5 0.058236 0.896417 0.223557
Si Si6 0.714344 0.735601 0.894505
Si Si7 0.838552 0.654529 0.495335
Si Si8 0.129695 0.692656 0.518801
O O1 0.598410 0.338264 0.288319
O O2 0.483452 0.363492 0.127927
O O3 0.281882 0.621441 0.443273
O O4 0.404739 0.720106 0.202620
O O5 0.880070 0.491077 0.884511
O O6 0.167138 0.225709 0.661770
O O7 0.130791 0.096215 0.933184
O O8 0.000000 0.500000 0.000000
O O9 0.198980 0.766084 0.024481
O O10 0.100097 0.946707 0.786230
O O11 0.588602 0.750504 0.009907
O O12 0.324006 0.064518 0.042791
O O13 0.094854 0.735970 0.354179
O O14 0.020101 0.075208 0.325112
O O15 0.715490 0.772944 0.703244
O O16 0.842553 0.502664 0.427193
O O17 0.000000 0.500000 0.500000
#
# Coordination Sequence:
#
# PCOD9005961 Si02
#       8
#     2   2   2   2   2   2   2   2
#     4  11  23  38  67  95 137 164 215 269 331 381
#     4  11  23  39  64  90 130 168 213 260 323 389
#     4  11  24  40  62  98 130 172 206 266 331 387
#     4  10  21  38  64  96 126 170 212 268 316 387
#     4  10  23  39  65  90 129 167 218 266 315 387
#     4  10  21  39  67  94 123 166 226 261 312 376
#     4  10  21  38  64  90 122 164 218 271 306 375
#     4  11  22  42  65  96 123 172 223 271 314 377
#
# _framework density 23.440152000000001
#
# number of rings (size 3 to 8) (size 9 to 14) (size 15 to 20)
#    0.000    1.500    1.250    4.500    3.500    6.500 
#    0.000    0.625    0.000    0.000    0.000    0.000 
#    0.000    0.000    0.000    0.000    0.000    0.000 
#
# Total GULP energy -89336.156949 kJ/mol
# GULP energy per Si atom -5583.509809 kJ/mol
# Density = 2.338680 g / cm^3
# Si number density = 23.440152 Si / 1000 Ang^3
#
#
#
# Elastic Constant Matrix: (Units=GPa)
#
#
# Indices 1 2 3 4 5 6 
#
# 1 101.1532 25.3079 18.4369 0.7732 -7.2634 3.8270
# 2 25.3079 91.7053 2.3425 -1.5127 -12.8130 11.2352
# 3 18.4369 2.3425 51.8967 -1.2498 -3.1390 -1.9895
# 4 0.7732 -1.5127 -1.2498 28.0149 3.9835 2.3935
# 5 -7.2634 -12.8130 -3.1390 3.9835 31.5978 0.2811
# 6 3.8270 11.2352 -1.9895 2.3935 0.2811 47.9779
#
#
#
# Elastic Compliance Matrix: (Units=1/GPa)
#
#
# Indices 1 2 3 4 5 6 
#
# 1 0.011413 -0.002853 -0.003887 -0.000779 0.001182 -0.000372
# 2 -0.002853 0.012650 0.000619 0.000383 0.004512 -0.002755
# 3 -0.003887 0.000619 0.020758 0.000797 0.001310 0.000979
# 4 -0.000779 0.000383 0.000797 0.036572 -0.004539 -0.001792
# 5 0.001182 0.004512 0.001310 -0.004539 0.034461 -0.001072
# 6 -0.000372 -0.002755 0.000979 -0.001792 -0.001072 0.021654
#
#
# Mechanical properties :
#
#
# Convention : Reuss Voigt Hill
#
# Bulk Modulus (GPa) = 30.69435 37.43667 34.06551
# Shear Modulus (GPa) = 31.13141 34.76265 32.94703
#
# Velocity S-wave (km/s) = 3.64830 3.85520 3.75317
# Velocity P-wave (km/s) = 5.55607 5.98520 5.77462
#
# Compressibility (1/GPa) = 0.03257929
#
# Stress axis : x y z
#
# Youngs Moduli (GPa) = 87.61845 79.05095 48.17389
#
# Poissons Ratio (x) = 0.22550 0.18727
# Poissons Ratio (y) = 0.24993 -0.02982
# Poissons Ratio (z) = 0.34061 -0.04893
#
# Static dielectric constant tensor:
#      x y z
#    x 1.916880 0.004620 -0.006680 
#    y 0.004620 1.874480 0.025660 
#    z -0.006680 0.025660 1.885190 
# 
# From -- ./inp_files/243882.got.cif
#   From: 2010.05.17/outbox.cif.g08.bks.cpg/sg2_122_cif.got.tgz:243882.got - 2010.06.03 11:33:40.
