data_PCOD9005902
_publ_section_title
;
Structure prediction by ZEFSAII (Michael W. Deem and Ramdas Pophale) SiO2 
 PCOD9005902
Probable space group: P -1
;
_chemical_formula_sum "Si O2"
_cell_formula_units_Z 16
_cell_length_a 11.408108
_cell_length_b 5.143287
_cell_length_c 17.101091
_cell_angle_alpha 60.830060
_cell_angle_beta 54.260038
_cell_angle_gamma 59.480940
_cell_volume 674.991338
_symmetry_space_group_name_H-M "P -1"
_symmetry_group_IT_number 2
_symmetry_cell_setting 'triclinic'
loop_
_space_group_symop_operation_xyz
x,y,z
-x,-y,-z
loop_
_atom_site_type_symbol
_atom_site_label
_atom_site_fract_x
_atom_site_fract_y
_atom_site_fract_z
Si Si1 0.497134 0.886591 0.250933
Si Si2 0.325663 0.805988 0.752153
Si Si3 0.813518 0.190400 0.963887
Si Si4 0.651945 0.304431 0.519800
Si Si5 0.056917 0.042280 0.214373
Si Si6 0.099938 0.286600 0.882827
Si Si7 0.201459 0.175018 0.593058
Si Si8 0.619701 0.828249 0.911463
O O1 0.630010 0.565027 0.223160
O O2 0.389111 0.755867 0.366762
O O3 0.545488 0.116099 0.257920
O O4 0.440499 0.068545 0.166685
O O5 0.303710 0.959680 0.653173
O O6 0.182422 0.017215 0.827557
O O7 0.659001 0.463578 0.973116
O O8 0.924278 0.303350 0.960714
O O9 0.891566 0.152694 0.855574
O O10 0.819641 0.858632 0.045954
O O11 0.500000 0.500000 0.500000
O O12 0.725619 0.979864 0.493327
O O13 0.226472 0.505759 0.551614
O O14 0.215290 0.105085 0.165096
O O15 0.928519 0.372229 0.193558
O O16 0.967375 0.857990 0.328248
O O17 0.500000 0.000000 0.000000
#
# Coordination Sequence:
#
# PCOD9005902 Si02
#       8
#     2   2   2   2   2   2   2   2
#     4  12  27  43  70 106 149 194 242 291 359 442
#     4  12  22  40  70 106 146 179 235 296 373 424
#     4  10  22  40  69  93 139 182 242 295 364 421
#     4  12  23  43  71 111 149 183 240 300 370 429
#     4  11  24  43  70 102 142 190 242 301 363 435
#     4  10  21  38  64 107 135 179 233 305 364 427
#     4  12  23  43  73 109 146 183 234 312 372 419
#     4  11  28  49  68 100 146 202 246 294 357 443
#
# _framework density 23.704008999999999
#
# number of rings (size 3 to 8) (size 9 to 14) (size 15 to 20)
#    0.000    0.750    3.750    3.750    5.250    0.500 
#    0.000    1.250    0.000    0.000    0.000    0.000 
#    0.000    0.000    0.000    0.000    0.000    0.000 
#
# Total GULP energy -89336.655639 kJ/mol
# GULP energy per Si atom -5583.540977 kJ/mol
# Density = 2.365006 g / cm^3
# Si number density = 23.704009 Si / 1000 Ang^3
#
#
#
# Elastic Constant Matrix: (Units=GPa)
#
#
# Indices 1 2 3 4 5 6 
#
# 1 79.1944 11.6625 37.8755 -4.7566 -11.5770 -17.1765
# 2 11.6625 62.3566 37.4245 21.4917 16.9209 -5.6620
# 3 37.8755 37.4245 124.9672 1.2088 -1.4299 -7.0880
# 4 -4.7566 21.4917 1.2088 40.7493 5.4017 4.6234
# 5 -11.5770 16.9209 -1.4299 5.4017 37.1177 -4.8966
# 6 -17.1765 -5.6620 -7.0880 4.6234 -4.8966 34.7572
#
#
#
# Elastic Compliance Matrix: (Units=1/GPa)
#
#
# Indices 1 2 3 4 5 6 
#
# 1 0.018049 -0.002838 -0.004070 0.001752 0.007629 0.008469
# 2 -0.002838 0.029897 -0.007982 -0.014439 -0.012456 0.002006
# 3 -0.004070 -0.007982 0.011559 0.003221 0.002205 -0.001072
# 4 0.001752 -0.014439 0.003221 0.032573 0.001866 -0.004899
# 5 0.007629 -0.012456 0.002205 0.001866 0.035733 0.006976
# 6 0.008469 0.002006 -0.001072 -0.004899 0.006976 0.034699
#
#
# Mechanical properties :
#
#
# Convention : Reuss Voigt Hill
#
# Bulk Modulus (GPa) = 33.64206 48.93813 41.29009
# Shear Modulus (GPa) = 24.72823 34.49520 29.61171
#
# Velocity S-wave (km/s) = 3.23338 3.81891 3.53828
# Velocity P-wave (km/s) = 5.30688 6.33528 5.84375
#
# Compressibility (1/GPa) = 0.02972470
#
# Stress axis : x y z
#
# Youngs Moduli (GPa) = 55.40562 33.44815 86.51063
#
# Poissons Ratio (x) = 0.09494 0.35206
# Poissons Ratio (y) = 0.15726 0.69055
# Poissons Ratio (z) = 0.22548 0.26699
#
# Static dielectric constant tensor:
#      x y z
#    x 2.051030 0.014360 -0.089290 
#    y 0.014360 1.887580 -0.025790 
#    z -0.089290 -0.025790 1.932840 
# 
# From -- ./inp_files/564393.got.cif
#   From: 2010.05.17/outbox.cif.g08.bks.cpg/sg2_283_cif.got.tgz:564393.got - 2010.06.03 11:33:40.
