data_PCOD9005863
_publ_section_title
;
Structure prediction by ZEFSAII (Michael W. Deem and Ramdas Pophale) SiO2 
 PCOD9005863
Probable space group: P -1
;
_chemical_formula_sum "Si O2"
_cell_formula_units_Z 14
_cell_length_a 7.070075
_cell_length_b 11.438207
_cell_length_c 11.878777
_cell_angle_alpha 125.337426
_cell_angle_beta 100.388467
_cell_angle_gamma 117.188542
_cell_volume 550.885100
_symmetry_space_group_name_H-M "P -1"
_symmetry_group_IT_number 2
_symmetry_cell_setting 'triclinic'
loop_
_space_group_symop_operation_xyz
x,y,z
-x,-y,-z
loop_
_atom_site_type_symbol
_atom_site_label
_atom_site_fract_x
_atom_site_fract_y
_atom_site_fract_z
Si Si1 0.407930 0.084172 0.433326
Si Si2 0.437287 0.694375 0.026267
Si Si3 0.931388 0.165160 0.562902
Si Si4 0.902422 0.151302 0.306460
Si Si5 0.143742 0.331594 0.905374
Si Si6 0.387467 0.284399 0.344939
Si Si7 0.662618 0.233704 0.170525
O O1 0.241714 0.048292 0.507406
O O2 0.173442 0.864302 0.223370
O O3 0.688474 0.155768 0.532665
O O4 0.472579 0.236085 0.434250
O O5 0.668665 0.691178 0.032543
O O6 0.624347 0.932864 0.193176
O O7 0.271113 0.556261 0.041719
O O8 0.261579 0.653530 0.876582
O O9 0.044338 0.227990 0.485291
O O10 0.157872 0.316051 0.762048
O O11 0.876109 0.286824 0.314175
O O12 0.065938 0.133477 0.232014
O O13 0.500000 0.500000 0.500000
O O14 0.483712 0.255894 0.228481
O O15 0.500000 0.000000 0.000000
#
# Coordination Sequence:
#
# PCOD9005863 Si02
#       7
#     2   2   2   2   2   2   2
#     4   9  19  41  65  96 136 171 224 289 338 396
#     4  10  21  38  63  97 128 181 226 269 338 414
#     4   9  19  38  73  90 133 179 222 283 348 389
#     4  11  22  43  69  96 138 180 227 289 340 403
#     4   9  19  38  66  94 131 173 229 279 334 408
#     4  12  26  41  67 107 134 175 236 283 337 410
#     4  10  25  46  68  93 143 186 223 273 352 410
#
# _framework density 25.413647000000001
#
# number of rings (size 3 to 8) (size 9 to 14) (size 15 to 20)
#    0.857    1.143    2.857    0.000    2.000    6.286 
#    2.571    0.714    0.000    0.000    0.000    0.000 
#    0.000    0.000    0.000    0.000    0.000    0.000 
#
# Total GULP energy -77989.960265 kJ/mol
# GULP energy per Si atom -5570.711448 kJ/mol
# Density = 2.535580 g / cm^3
# Si number density = 25.413647 Si / 1000 Ang^3
#
#
#
# Elastic Constant Matrix: (Units=GPa)
#
#
# Indices 1 2 3 4 5 6 
#
# 1 86.3268 5.6824 14.5629 4.3268 6.3851 3.8245
# 2 5.6824 146.8460 22.9887 1.1651 11.9591 -30.0449
# 3 14.5629 22.9887 50.5203 3.7762 9.3656 -8.2686
# 4 4.3268 1.1651 3.7762 41.4123 -4.9697 9.3131
# 5 6.3851 11.9591 9.3656 -4.9697 33.0207 -8.7552
# 6 3.8245 -30.0449 -8.2686 9.3131 -8.7552 34.4634
#
#
#
# Elastic Compliance Matrix: (Units=1/GPa)
#
#
# Indices 1 2 3 4 5 6 
#
# 1 0.012513 -0.000358 -0.003478 -0.000582 -0.002168 -0.002929
# 2 -0.000358 0.008792 -0.002420 -0.001743 -0.000726 0.007410
# 3 -0.003478 -0.002420 0.023577 -0.003083 -0.004652 0.003585
# 4 -0.000582 -0.001743 -0.003083 0.026878 0.003384 -0.008598
# 5 -0.002168 -0.000726 -0.004652 0.003384 0.034474 0.006335
# 6 -0.002929 0.007410 0.003585 -0.008598 0.006335 0.040594
#
#
# Mechanical properties :
#
#
# Convention : Reuss Voigt Hill
#
# Bulk Modulus (GPa) = 30.89213 41.12903 36.01058
# Shear Modulus (GPa) = 29.38919 37.80989 33.59954
#
# Velocity S-wave (km/s) = 3.40433 3.86136 3.64002
# Velocity P-wave (km/s) = 5.25687 6.00825 5.64508
#
# Compressibility (1/GPa) = 0.03237070
#
# Stress axis : x y z
#
# Youngs Moduli (GPa) = 79.91411 113.74512 42.41387
#
# Poissons Ratio (x) = 0.04069 0.14753
# Poissons Ratio (y) = 0.02859 0.10263
# Poissons Ratio (z) = 0.27797 0.27523
#
# Static dielectric constant tensor:
#      x y z
#    x 2.055030 -0.017210 -0.025360 
#    y -0.017210 2.144530 0.079380 
#    z -0.025360 0.079380 2.207970 
# 
# From -- ./inp_files/388281.got.cif
#   From: 2010.05.17/outbox.cif.g08.bks.cpg/sg2_195_cif.got.tgz:388281.got - 2010.06.03 11:33:40.
