data_PCOD9005371
_publ_section_title
;
Structure prediction by ZEFSAII (Michael W. Deem and Ramdas Pophale) SiO2 
 PCOD9005371
Probable space group: P -1
;
_chemical_formula_sum "Si O2"
_cell_formula_units_Z 14
_cell_length_a 5.292414
_cell_length_b 22.384492
_cell_length_c 5.168930
_cell_angle_alpha 78.836206
_cell_angle_beta 84.000426
_cell_angle_gamma 111.458068
_cell_volume 548.716736
_symmetry_space_group_name_H-M "P -1"
_symmetry_group_IT_number 2
_symmetry_cell_setting 'triclinic'
loop_
_space_group_symop_operation_xyz
x,y,z
-x,-y,-z
loop_
_atom_site_type_symbol
_atom_site_label
_atom_site_fract_x
_atom_site_fract_y
_atom_site_fract_z
Si Si1 0.078223 0.700321 0.321648
Si Si2 0.582103 0.805061 0.004355
Si Si3 0.603928 0.729941 0.544118
Si Si4 0.095615 0.417145 0.944302
Si Si5 0.733872 0.485673 0.726042
Si Si6 0.138375 0.078308 0.488200
Si Si7 0.566561 0.046822 0.706757
O O1 0.256116 0.774907 0.132814
O O2 0.297633 0.687670 0.499250
O O3 0.813394 0.695024 0.514925
O O4 0.002930 0.653528 0.120634
O O5 0.606945 0.758757 0.803462
O O6 0.721217 0.877624 0.809813
O O7 0.701254 0.788405 0.268044
O O8 0.402726 0.454036 0.736970
O O9 0.821837 0.435662 0.937852
O O10 0.201723 0.444966 0.193633
O O11 0.000000 0.500000 0.500000
O O12 0.372272 0.086273 0.665396
O O13 0.885480 0.092898 0.610993
O O14 0.000000 0.000000 0.500000
O O15 0.500000 0.000000 0.500000
O O16 0.500000 0.000000 0.000000
#
# Coordination Sequence:
#
# PCOD9005371 Si02
#       7
#     2   2   2   2   2   2   2
#     4  10  24  42  66  95 132 178 224 270 325 390
#     4  10  26  44  68  96 134 171 221 277 330 391
#     4  10  25  42  67  93 134 169 226 272 329 384
#     4  10  21  39  62  92 130 166 217 256 322 384
#     4  10  21  38  61  97 130 167 206 266 318 378
#     4  10  23  42  67  95 127 168 213 266 334 395
#     4  10  22  39  60  90 123 156 206 252 315 388
#
# _framework density 25.514074999999998
#
# number of rings (size 3 to 8) (size 9 to 14) (size 15 to 20)
#    0.857    1.143    0.000    1.714    4.000    6.857 
#    2.571    0.000    0.000    0.000    0.000    0.000 
#    0.000    0.000    0.000    0.000    0.000    0.000 
#
# Total GULP energy -78080.141758 kJ/mol
# GULP energy per Si atom -5577.152983 kJ/mol
# Density = 2.545600 g / cm^3
# Si number density = 25.514075 Si / 1000 Ang^3
#
#
#
# Elastic Constant Matrix: (Units=GPa)
#
#
# Indices 1 2 3 4 5 6 
#
# 1 204.7526 29.4608 22.8058 -0.2797 -31.1515 11.7187
# 2 29.4608 102.9274 4.2754 7.1426 -9.2429 19.6586
# 3 22.8058 4.2754 104.3943 14.1132 -12.4412 4.1064
# 4 -0.2797 7.1426 14.1132 38.6679 -5.1721 -3.5556
# 5 -31.1515 -9.2429 -12.4412 -5.1721 25.7666 -2.2284
# 6 11.7187 19.6586 4.1064 -3.5556 -2.2284 28.6264
#
#
#
# Elastic Compliance Matrix: (Units=1/GPa)
#
#
# Indices 1 2 3 4 5 6 
#
# 1 0.006232 -0.001014 -0.000615 0.001302 0.007044 -0.001056
# 2 -0.001014 0.011908 0.000696 -0.002922 0.002098 -0.008062
# 3 -0.000615 0.000696 0.010712 -0.003717 0.003765 -0.001931
# 4 0.001302 -0.002922 -0.003717 0.028997 0.005071 0.006003
# 5 0.007044 0.002098 0.003765 0.005071 0.050891 -0.000273
# 6 -0.001056 -0.008062 -0.001931 0.006003 -0.000273 0.041903
#
#
# Mechanical properties :
#
#
# Convention : Reuss Voigt Hill
#
# Bulk Modulus (GPa) = 37.05673 58.35094 47.70384
# Shear Modulus (GPa) = 30.95875 42.31433 36.63654
#
# Velocity S-wave (km/s) = 3.48717 4.07685 3.79348
# Velocity P-wave (km/s) = 5.54701 6.71422 6.15833
#
# Compressibility (1/GPa) = 0.02698565
#
# Stress axis : x y z
#
# Youngs Moduli (GPa) = 160.45397 83.97817 93.35260
#
# Poissons Ratio (x) = 0.08518 0.05741
# Poissons Ratio (y) = 0.16276 -0.06497
# Poissons Ratio (z) = 0.09867 -0.05845
#
# Static dielectric constant tensor:
#      x y z
#    x 2.870140 0.144170 0.131980 
#    y 0.144170 2.173540 -0.177090 
#    z 0.131980 -0.177090 2.184170 
# 
# From -- ./inp_files/13279.got.cif
#   From: 2010.05.17/outbox.cif.g08.bks.cpg/sg2_7_cif.got.tgz:13279.got - 2010.06.03 11:33:40.
