data_PCOD9005846
_publ_section_title
;
Structure prediction by ZEFSAII (Michael W. Deem and Ramdas Pophale) SiO2 
 PCOD9005846
Probable space group: P -1
;
_chemical_formula_sum "Si O2"
_cell_formula_units_Z 16
_cell_length_a 16.100337
_cell_length_b 14.855486
_cell_length_c 8.833573
_cell_angle_alpha 111.970822
_cell_angle_beta 138.138188
_cell_angle_gamma 37.639073
_cell_volume 730.648062
_symmetry_space_group_name_H-M "P -1"
_symmetry_group_IT_number 2
_symmetry_cell_setting 'triclinic'
loop_
_space_group_symop_operation_xyz
x,y,z
-x,-y,-z
loop_
_atom_site_type_symbol
_atom_site_label
_atom_site_fract_x
_atom_site_fract_y
_atom_site_fract_z
Si Si1 0.145430 0.242982 0.740538
Si Si2 0.273012 0.543983 0.848663
Si Si3 0.595632 0.867381 0.248155
Si Si4 0.508152 0.245107 0.752029
Si Si5 0.020161 0.287152 0.170975
Si Si6 0.850430 0.464638 0.751976
Si Si7 0.625000 0.403863 0.448850
Si Si8 0.995931 0.927307 0.088227
O O1 0.236719 0.256472 0.744003
O O2 0.963245 0.285009 0.449844
O O3 0.019178 0.375807 0.789352
O O4 0.361087 0.051186 0.977834
O O5 0.412472 0.391357 0.822730
O O6 0.169483 0.561432 0.869779
O O7 0.445901 0.505758 0.136246
O O8 0.548592 0.812425 0.264677
O O9 0.732910 0.859137 0.521622
O O10 0.371704 0.333527 0.464311
O O11 0.766456 0.088653 0.967834
O O12 0.995838 0.188623 0.038150
O O13 0.977115 0.384405 0.031282
O O14 0.767355 0.406146 0.600757
O O15 0.500000 0.500000 0.500000
O O16 0.794990 0.206190 0.595146
O O17 0.000000 0.000000 0.000000
#
# Coordination Sequence:
#
# PCOD9005846 Si02
#       8
#     2   2   2   2   2   2   2   2
#     4   9  21  39  63  86 127 172 211 256 319 382
#     4  10  22  42  64  96 121 183 204 255 325 383
#     4  10  21  44  63  94 131 169 216 267 314 375
#     4  11  25  40  63  98 135 161 216 272 310 374
#     4  10  22  42  71  90 129 180 214 250 327 386
#     4  10  21  38  63  96 125 173 212 260 318 384
#     4  11  20  41  68  89 131 172 212 259 320 393
#     4  11  24  42  64 101 131 161 214 274 313 372
#
# _framework density 21.898367
#
# number of rings (size 3 to 8) (size 9 to 14) (size 15 to 20)
#    0.000    1.750    2.500    2.250    0.000    9.500 
#    9.000    1.250    0.000    0.000    0.000    0.000 
#    0.000    0.000    0.000    0.000    0.000    0.000 
#
# Total GULP energy -89198.709022 kJ/mol
# GULP energy per Si atom -5574.919314 kJ/mol
# Density = 2.184853 g / cm^3
# Si number density = 21.898367 Si / 1000 Ang^3
#
#
#
# Elastic Constant Matrix: (Units=GPa)
#
#
# Indices 1 2 3 4 5 6 
#
# 1 102.2304 27.9658 49.3074 -10.9095 -4.4349 -0.2333
# 2 27.9658 48.1395 38.3381 -13.0442 5.8842 -13.4712
# 3 49.3074 38.3381 144.6702 -16.3045 3.0874 -6.1023
# 4 -10.9095 -13.0442 -16.3045 32.4883 -4.0375 5.2438
# 5 -4.4349 5.8842 3.0874 -4.0375 37.1140 -6.8598
# 6 -0.2333 -13.4712 -6.1023 5.2438 -6.8598 33.8049
#
#
#
# Elastic Compliance Matrix: (Units=1/GPa)
#
#
# Indices 1 2 3 4 5 6 
#
# 1 0.013026 -0.005924 -0.002886 0.001250 0.002410 -0.002496
# 2 -0.005924 0.033954 -0.005708 0.006670 -0.002887 0.010839
# 3 -0.002886 -0.005708 0.009563 0.001651 -0.000216 -0.000869
# 4 0.001250 0.006670 0.001651 0.035335 0.002424 -0.002024
# 5 0.002410 -0.002887 -0.000216 0.002424 0.028764 0.004288
# 6 -0.002496 0.010839 -0.000869 -0.002024 0.004288 0.034911
#
#
# Mechanical properties :
#
#
# Convention : Reuss Voigt Hill
#
# Bulk Modulus (GPa) = 36.35422 58.47363 47.41393
# Shear Modulus (GPa) = 25.80545 32.64336 29.22441
#
# Velocity S-wave (km/s) = 3.43654 3.86512 3.65711
# Velocity P-wave (km/s) = 5.69067 6.83221 6.28740
#
# Compressibility (1/GPa) = 0.02750712
#
# Stress axis : x y z
#
# Youngs Moduli (GPa) = 76.76699 29.45184 104.57345
#
# Poissons Ratio (x) = 0.17446 0.30178
# Poissons Ratio (y) = 0.45474 0.59694
# Poissons Ratio (z) = 0.22153 0.16812
#
# Static dielectric constant tensor:
#      x y z
#    x 1.801600 -0.006750 -0.012840 
#    y -0.006750 1.811670 0.037760 
#    z -0.012840 0.037760 1.889900 
# 
# From -- ./inp_files/315501.got.cif
#   From: 2010.05.17/outbox.cif.g08.bks.cpg/sg2_158_cif.got.tgz:315501.got - 2010.06.03 11:33:40.
