data_PCOD9005708
_publ_section_title
;
Structure prediction by ZEFSAII (Michael W. Deem and Ramdas Pophale) SiO2 
 PCOD9005708
Probable space group: P -1
;
_chemical_formula_sum "Si O2"
_cell_formula_units_Z 16
_cell_length_a 10.378483
_cell_length_b 15.230582
_cell_length_c 12.647707
_cell_angle_alpha 136.852948
_cell_angle_beta 57.327729
_cell_angle_gamma 148.742399
_cell_volume 689.335493
_symmetry_space_group_name_H-M "P -1"
_symmetry_group_IT_number 2
_symmetry_cell_setting 'triclinic'
loop_
_space_group_symop_operation_xyz
x,y,z
-x,-y,-z
loop_
_atom_site_type_symbol
_atom_site_label
_atom_site_fract_x
_atom_site_fract_y
_atom_site_fract_z
Si Si1 0.084247 0.658319 0.835183
Si Si2 0.742964 0.409380 0.449914
Si Si3 0.009969 0.678923 0.114664
Si Si4 0.569752 0.749344 0.945655
Si Si5 0.430910 0.968143 0.777096
Si Si6 0.103384 0.104636 0.662071
Si Si7 0.695168 0.554685 0.785897
Si Si8 0.653618 0.734866 0.653917
O O1 0.061976 0.506387 0.652571
O O2 0.869864 0.613079 0.850203
O O3 0.345055 0.888707 0.868872
O O4 0.066253 0.635147 0.946594
O O5 0.795400 0.562604 0.637687
O O6 0.486600 0.268839 0.373566
O O7 0.698735 0.249901 0.399285
O O8 0.268192 0.841012 0.209487
O O9 0.738785 0.463688 0.096154
O O10 0.976894 0.802754 0.200793
O O11 0.680320 0.698361 0.911213
O O12 0.634106 0.775913 0.816678
O O13 0.652108 0.941427 0.126240
O O14 0.407858 0.307784 0.708383
O O15 0.000000 0.000000 0.500000
O O16 0.946549 0.915312 0.648230
O O17 0.500000 0.500000 0.500000
#
# Coordination Sequence:
#
# PCOD9005708 Si02
#       8
#     2   2   2   2   2   2   2   2
#     4  10  23  38  66  83 125 172 202 241 303 372
#     4  10  21  39  66  85 122 156 208 242 307 364
#     4  11  20  40  61  92 124 158 209 249 302 365
#     4  11  24  34  63  95 124 153 202 262 305 348
#     4  10  21  38  63  91 118 159 203 253 301 357
#     4  11  20  37  64  89 122 157 202 251 303 361
#     4  11  22  42  60  92 124 164 205 247 303 368
#     4  12  20  37  63  95 119 151 199 260 306 348
#
# _framework density 23.210760000000001
#
# number of rings (size 3 to 8) (size 9 to 14) (size 15 to 20)
#    0.750    0.500    3.750    3.375    0.000    2.500 
#    0.000    1.250    0.000    1.500    0.000    0.000 
#    0.000    0.000    0.000    0.000    0.000    0.000 
#
# Total GULP energy -89323.815517 kJ/mol
# GULP energy per Si atom -5582.738470 kJ/mol
# Density = 2.315793 g / cm^3
# Si number density = 23.210760 Si / 1000 Ang^3
#
#
#
# Elastic Constant Matrix: (Units=GPa)
#
#
# Indices 1 2 3 4 5 6 
#
# 1 64.9105 4.7448 13.5561 5.8477 -23.5889 12.5201
# 2 4.7448 99.8547 19.1239 -10.4837 -9.3345 0.2952
# 3 13.5561 19.1239 71.1657 -0.8974 -24.6982 0.5736
# 4 5.8477 -10.4837 -0.8974 28.0462 -3.8180 -3.4487
# 5 -23.5889 -9.3345 -24.6982 -3.8180 41.2527 1.3577
# 6 12.5201 0.2952 0.5736 -3.4487 1.3577 23.5300
#
#
#
# Elastic Compliance Matrix: (Units=1/GPa)
#
#
# Indices 1 2 3 4 5 6 
#
# 1 0.023404 -0.000394 0.000397 -0.004887 0.013538 -0.013955
# 2 -0.000394 0.011071 -0.002431 0.004394 0.001207 0.000705
# 3 0.000397 -0.002431 0.018405 0.000933 0.010819 -0.001117
# 4 -0.004887 0.004394 0.000933 0.039650 0.002157 0.008210
# 5 0.013538 0.001207 0.010819 0.002157 0.039243 -0.009430
# 6 -0.013955 0.000705 -0.001117 0.008210 -0.009430 0.051690
#
#
# Mechanical properties :
#
#
# Convention : Reuss Voigt Hill
#
# Bulk Modulus (GPa) = 20.82352 34.53117 27.67734
# Shear Modulus (GPa) = 24.47060 31.79950 28.13505
#
# Velocity S-wave (km/s) = 3.25049 3.70541 3.48538
# Velocity P-wave (km/s) = 4.80401 5.76336 5.30541
#
# Compressibility (1/GPa) = 0.04802262
#
# Stress axis : x y z
#
# Youngs Moduli (GPa) = 42.72863 90.32610 54.33312
#
# Poissons Ratio (x) = 0.03563 -0.02158
# Poissons Ratio (y) = 0.01686 0.13209
# Poissons Ratio (z) = -0.01697 0.21959
#
# Static dielectric constant tensor:
#      x y z
#    x 1.917170 -0.001600 -0.033110 
#    y -0.001600 1.908430 0.032680 
#    z -0.033110 0.032680 1.891920 
# 
# From -- ./inp_files/436945.got.cif
#   From: 2010.05.17/outbox.cif.g08.bks.cpg/sg2_219_cif.got.tgz:436945.got - 2010.06.03 11:33:40.
