data_PCOD9005268
_publ_section_title
;
Structure prediction by ZEFSAII (Michael W. Deem and Ramdas Pophale) SiO2 
 PCOD9005268
Probable space group: P -1
;
_chemical_formula_sum "Si O2"
_cell_formula_units_Z 16
_cell_length_a 14.755313
_cell_length_b 8.906739
_cell_length_c 8.887246
_cell_angle_alpha 47.933312
_cell_angle_beta 97.329167
_cell_angle_gamma 67.704733
_cell_volume 666.925887
_symmetry_space_group_name_H-M "P -1"
_symmetry_group_IT_number 2
_symmetry_cell_setting 'triclinic'
loop_
_space_group_symop_operation_xyz
x,y,z
-x,-y,-z
loop_
_atom_site_type_symbol
_atom_site_label
_atom_site_fract_x
_atom_site_fract_y
_atom_site_fract_z
Si Si1 0.274496 0.592512 0.659003
Si Si2 0.862155 0.849525 0.583461
Si Si3 0.555476 0.655081 0.880598
Si Si4 0.718345 0.144835 0.077432
Si Si5 0.331752 0.098105 0.362057
Si Si6 0.093816 0.496521 0.710142
Si Si7 0.633340 0.252025 0.668574
Si Si8 0.060934 0.097197 0.861644
O O1 0.212756 0.462280 0.758326
O O2 0.295988 0.655747 0.454512
O O3 0.191636 0.871068 0.542740
O O4 0.399652 0.419293 0.888957
O O5 0.000238 0.668934 0.708147
O O6 0.804314 0.751804 0.732585
O O7 0.797970 0.906512 0.369508
O O8 0.609008 0.391776 0.977366
O O9 0.422249 0.892920 0.647820
O O10 0.632944 0.725639 0.778640
O O11 0.672479 0.119380 0.929549
O O12 0.822100 0.147185 0.034691
O O13 0.360603 0.926021 0.337423
O O14 0.097299 0.246924 0.865341
O O15 0.029395 0.683100 0.425341
O O16 0.500000 0.500000 0.500000
O O17 0.000000 0.000000 0.000000
#
# Coordination Sequence:
#
# PCOD9005268 Si02
#       8
#     2   2   2   2   2   2   2   2
#     4  10  22  39  64  88 131 166 207 269 320 379
#     4   9  21  39  67  86 124 171 210 261 316 380
#     4  10  22  40  60  88 127 167 209 260 317 383
#     4  10  21  38  61  90 119 164 207 257 319 378
#     4  10  22  40  60  90 125 164 216 260 312 382
#     4  10  21  41  60  97 127 166 215 263 322 381
#     4  11  22  38  62  93 124 165 214 265 317 379
#     4  10  22  38  63  91 130 168 209 266 322 379
#
# _framework density 23.990673000000001
#
# number of rings (size 3 to 8) (size 9 to 14) (size 15 to 20)
#    0.000    2.000    1.250    1.125    5.250    1.500 
#    2.250    1.250    0.000    0.000    0.000    0.000 
#    0.000    0.000    0.000    0.000    0.000    0.000 
#
# Total GULP energy -89321.611278 kJ/mol
# GULP energy per Si atom -5582.600705 kJ/mol
# Density = 2.393607 g / cm^3
# Si number density = 23.990673 Si / 1000 Ang^3
#
#
#
# Elastic Constant Matrix: (Units=GPa)
#
#
# Indices 1 2 3 4 5 6 
#
# 1 132.4747 14.9492 14.2962 -3.4859 -15.8583 11.9885
# 2 14.9492 27.7887 18.4885 18.3566 -1.3876 -0.3222
# 3 14.2962 18.4885 77.1260 8.4001 0.3344 9.6994
# 4 -3.4859 18.3566 8.4001 26.0412 5.4884 0.4740
# 5 -15.8583 -1.3876 0.3344 5.4884 45.6694 -3.6611
# 6 11.9885 -0.3222 9.6994 0.4740 -3.6611 35.0653
#
#
#
# Elastic Compliance Matrix: (Units=1/GPa)
#
#
# Indices 1 2 3 4 5 6 
#
# 1 0.009479 -0.010978 0.000356 0.008607 0.001650 -0.003384
# 2 -0.010978 0.096405 -0.015208 -0.066411 0.008058 0.010585
# 3 0.000356 -0.015208 0.016554 0.005851 -0.001571 -0.005083
# 4 0.008607 -0.066411 0.005851 0.086740 -0.010089 -0.007397
# 5 0.001650 0.008058 -0.001571 -0.010089 0.024147 0.002602
# 6 -0.003384 0.010585 -0.005083 -0.007397 0.002602 0.031550
#
#
# Mechanical properties :
#
#
# Convention : Reuss Voigt Hill
#
# Bulk Modulus (GPa) = 14.12888 36.98413 25.55651
# Shear Modulus (GPa) = 14.70027 33.99887 24.34957
#
# Velocity S-wave (km/s) = 2.47806 3.76862 3.18930
# Velocity P-wave (km/s) = 3.75364 5.86397 4.92321
#
# Compressibility (1/GPa) = 0.07077701
#
# Stress axis : x y z
#
# Youngs Moduli (GPa) = 105.49261 10.37290 60.40716
#
# Poissons Ratio (x) = 0.11388 -0.02149
# Poissons Ratio (y) = 1.15815 0.91868
# Poissons Ratio (z) = -0.03752 0.15775
#
# Static dielectric constant tensor:
#      x y z
#    x 1.954750 0.009220 0.012130 
#    y 0.009220 1.918610 0.021750 
#    z 0.012130 0.021750 1.995680 
# 
# From -- ./inp_files/297472.got.cif
#   From: 2010.05.17/outbox.cif.g08.bks.cpg/sg2_149_cif.got.tgz:297472.got - 2010.06.03 11:33:40.
