data_PCOD9005261
_publ_section_title
;
Structure prediction by ZEFSAII (Michael W. Deem and Ramdas Pophale) SiO2 
 PCOD9005261
Probable space group: P -1
;
_chemical_formula_sum "Si O2"
_cell_formula_units_Z 16
_cell_length_a 10.069689
_cell_length_b 15.124686
_cell_length_c 11.224350
_cell_angle_alpha 41.157091
_cell_angle_beta 65.572754
_cell_angle_gamma 47.104845
_cell_volume 806.674174
_symmetry_space_group_name_H-M "P -1"
_symmetry_group_IT_number 2
_symmetry_cell_setting 'triclinic'
loop_
_space_group_symop_operation_xyz
x,y,z
-x,-y,-z
loop_
_atom_site_type_symbol
_atom_site_label
_atom_site_fract_x
_atom_site_fract_y
_atom_site_fract_z
Si Si1 0.370434 0.177136 0.936671
Si Si2 0.203171 0.660097 0.500400
Si Si3 0.375942 0.732377 0.906063
Si Si4 0.015501 0.499411 0.634970
Si Si5 0.444808 0.666790 0.211092
Si Si6 0.091451 0.304384 0.122196
Si Si7 0.924660 0.953170 0.465246
Si Si8 0.752291 0.484696 0.900319
O O1 0.184449 0.305277 0.801385
O O2 0.492023 0.242237 0.828261
O O3 0.280046 0.209682 0.069971
O O4 0.500000 0.000000 0.000000
O O5 0.076610 0.606582 0.560945
O O6 0.306712 0.653823 0.350989
O O7 0.359745 0.524495 0.675413
O O8 0.085220 0.842394 0.420674
O O9 0.588246 0.635291 0.888859
O O10 0.246045 0.884397 0.707355
O O11 0.361489 0.766017 0.017837
O O12 0.328604 0.601232 0.044640
O O13 0.000000 0.500000 0.500000
O O14 0.830601 0.549295 0.714404
O O15 0.117412 0.174644 0.342883
O O16 0.000000 0.500000 0.000000
O O17 0.928088 0.343034 0.057910
O O18 0.000000 0.000000 0.500000
#
# Coordination Sequence:
#
# PCOD9005261 Si02
#       8
#     2   2   2   2   2   2   2   2
#     4  10  23  38  63  93 123 167 210 266 327 378
#     4  10  23  41  65  93 130 173 219 262 325 397
#     4  11  23  38  62  97 125 171 214 278 322 378
#     4  10  21  40  62  91 126 174 214 260 322 395
#     4  10  22  42  65  91 129 172 214 262 328 399
#     4  11  22  44  67  86 131 178 214 263 331 396
#     4  12  25  40  63  99 130 164 221 275 323 382
#     4  10  21  38  61  89 128 169 220 254 327 388
#
# _framework density 19.834526
#
# number of rings (size 3 to 8) (size 9 to 14) (size 15 to 20)
#    0.000    1.500    1.250    4.500    3.500    2.500 
#    0.000    4.375    0.000    0.000    0.000    0.000 
#    0.000    0.000    0.000    0.000    0.000    0.000 
#
# Total GULP energy -89246.302668 kJ/mol
# GULP energy per Si atom -5577.893917 kJ/mol
# Density = 1.978938 g / cm^3
# Si number density = 19.834526 Si / 1000 Ang^3
#
#
#
# Elastic Constant Matrix: (Units=GPa)
#
#
# Indices 1 2 3 4 5 6 
#
# 1 61.6408 36.3038 30.6412 9.9285 -6.3838 -17.8901
# 2 36.3038 102.9487 32.0098 -1.5845 -9.5543 -5.7329
# 3 30.6412 32.0098 102.9483 18.8058 3.4768 -6.6566
# 4 9.9285 -1.5845 18.8058 32.4419 2.3335 -4.7336
# 5 -6.3838 -9.5543 3.4768 2.3335 33.7845 10.3645
# 6 -17.8901 -5.7329 -6.6566 -4.7336 10.3645 20.9764
#
#
#
# Elastic Compliance Matrix: (Units=1/GPa)
#
#
# Indices 1 2 3 4 5 6 
#
# 1 0.030087 -0.008407 -0.004094 -0.003720 -0.002976 0.022695
# 2 -0.008407 0.013726 -0.002962 0.003875 0.004007 -0.005464
# 3 -0.004094 -0.002962 0.013068 -0.006354 -0.002393 -0.000405
# 4 -0.003720 0.003875 -0.006354 0.036923 -0.003291 0.005828
# 5 -0.002976 0.004007 -0.002393 -0.003291 0.037184 -0.021318
# 6 0.022695 -0.005464 -0.000405 0.005828 -0.021318 0.077255
#
#
# Mechanical properties :
#
#
# Convention : Reuss Voigt Hill
#
# Bulk Modulus (GPa) = 38.52591 51.71637 45.12114
# Shear Modulus (GPa) = 20.17597 28.67943 24.42770
#
# Velocity S-wave (km/s) = 3.19284 3.80667 3.51319
# Velocity P-wave (km/s) = 5.74962 6.74177 6.26537
#
# Compressibility (1/GPa) = 0.02595656
#
# Stress axis : x y z
#
# Youngs Moduli (GPa) = 33.23740 72.85252 76.52021
#
# Poissons Ratio (x) = 0.61244 0.31324
# Poissons Ratio (y) = 0.27941 0.22667
# Poissons Ratio (z) = 0.13606 0.21581
#
# Static dielectric constant tensor:
#      x y z
#    x 1.687140 0.003890 -0.019610 
#    y 0.003890 1.735230 0.009890 
#    z -0.019610 0.009890 1.728460 
# 
# From -- ./inp_files/398391.got.cif
#   From: 2010.05.17/outbox.cif.g08.bks.cpg/sg2_200_cif.got.tgz:398391.got - 2010.06.03 11:33:40.
