data_PCOD9005776
_publ_section_title
;
Structure prediction by ZEFSAII (Michael W. Deem and Ramdas Pophale) SiO2 
 PCOD9005776
Probable space group: P -1
;
_chemical_formula_sum "Si O2"
_cell_formula_units_Z 16
_cell_length_a 22.293986
_cell_length_b 11.977299
_cell_length_c 11.880370
_cell_angle_alpha 43.432302
_cell_angle_beta 152.815312
_cell_angle_gamma 148.582587
_cell_volume 748.217071
_symmetry_space_group_name_H-M "P -1"
_symmetry_group_IT_number 2
_symmetry_cell_setting 'triclinic'
loop_
_space_group_symop_operation_xyz
x,y,z
-x,-y,-z
loop_
_atom_site_type_symbol
_atom_site_label
_atom_site_fract_x
_atom_site_fract_y
_atom_site_fract_z
Si Si1 0.095832 0.589350 0.975555
Si Si2 0.091737 0.312661 0.992549
Si Si3 0.160145 0.990357 0.401083
Si Si4 0.518007 0.320464 0.666797
Si Si5 0.736594 0.719220 0.280945
Si Si6 0.530623 0.259246 0.279339
Si Si7 0.516282 0.907639 0.447451
Si Si8 0.009091 0.833919 0.502243
O O1 0.048520 0.395401 0.962489
O O2 0.046558 0.711362 0.734710
O O3 0.306379 0.763439 0.212616
O O4 0.000000 0.500000 0.000000
O O5 0.936878 0.172522 0.746674
O O6 0.273033 0.531025 0.080661
O O7 0.127322 0.157931 0.208988
O O8 0.067053 0.851769 0.459439
O O9 0.370511 0.139061 0.640842
O O10 0.500000 0.500000 0.500000
O O11 0.461186 0.188900 0.550901
O O12 0.675612 0.500497 0.390880
O O13 0.813417 0.731974 0.277901
O O14 0.876854 0.921037 0.443935
O O15 0.584081 0.723864 0.006009
O O16 0.425194 0.120089 0.316090
O O17 0.594812 0.152913 0.398729
#
# Coordination Sequence:
#
# PCOD9005776 Si02
#       8
#     2   2   2   2   2   2   2   2
#     4  11  23  40  65  93 130 166 206 266 322 377
#     4   9  22  41  63  94 123 169 218 255 315 380
#     4  10  22  41  64  89 126 169 215 261 311 382
#     4   9  20  38  61  90 122 163 209 259 308 370
#     4  10  23  39  58  92 130 161 206 257 324 381
#     4  10  21  39  62  91 125 163 202 262 317 380
#     4  10  21  38  63  93 124 161 214 256 313 380
#     4  11  24  40  61  93 127 169 209 258 322 381
#
# _framework density 21.384167999999999
#
# number of rings (size 3 to 8) (size 9 to 14) (size 15 to 20)
#    0.000    2.000    1.250    0.750    8.750    6.500 
#    2.250    2.500    0.000    0.000    0.000    0.000 
#    0.000    0.000    0.000    0.000    0.000    0.000 
#
# Total GULP energy -89294.408119 kJ/mol
# GULP energy per Si atom -5580.900507 kJ/mol
# Density = 2.133550 g / cm^3
# Si number density = 21.384168 Si / 1000 Ang^3
#
#
#
# Elastic Constant Matrix: (Units=GPa)
#
#
# Indices 1 2 3 4 5 6 
#
# 1 115.4450 48.2842 19.9395 -7.8304 9.6618 -5.9599
# 2 48.2842 99.5892 26.4129 -13.9069 0.7127 -19.1886
# 3 19.9395 26.4129 41.7154 -2.5947 2.2355 3.0005
# 4 -7.8304 -13.9069 -2.5947 22.6443 2.0778 7.3982
# 5 9.6618 0.7127 2.2355 2.0778 21.6683 -3.2101
# 6 -5.9599 -19.1886 3.0005 7.3982 -3.2101 42.4740
#
#
#
# Elastic Compliance Matrix: (Units=1/GPa)
#
#
# Indices 1 2 3 4 5 6 
#
# 1 0.011590 -0.005113 -0.001846 0.001521 -0.005134 -0.001206
# 2 -0.005113 0.016777 -0.008524 0.005042 0.003135 0.006823
# 3 -0.001846 -0.008524 0.030891 0.000083 -0.003060 -0.006538
# 4 0.001521 0.005042 0.000083 0.050647 -0.006723 -0.006844
# 5 -0.005134 0.003135 -0.003060 -0.006723 0.050167 0.005874
# 6 -0.001206 0.006823 -0.006538 -0.006844 0.005874 0.028555
#
#
# Mechanical properties :
#
#
# Convention : Reuss Voigt Hill
#
# Bulk Modulus (GPa) = 35.34541 49.55808 42.45174
# Shear Modulus (GPa) = 21.83187 28.16486 24.99836
#
# Velocity S-wave (km/s) = 3.19868 3.63311 3.42279
# Velocity P-wave (km/s) = 5.49606 6.38942 5.95951
#
# Compressibility (1/GPa) = 0.02829222
#
# Stress axis : x y z
#
# Youngs Moduli (GPa) = 86.28154 59.60519 32.37199
#
# Poissons Ratio (x) = 0.30475 0.05976
# Poissons Ratio (y) = 0.44114 0.27594
# Poissons Ratio (z) = 0.15929 0.50807
#
# Static dielectric constant tensor:
#      x y z
#    x 1.770750 0.036970 0.037550 
#    y 0.036970 1.833940 0.038800 
#    z 0.037550 0.038800 1.784100 
# 
# From -- ./inp_files/238967.got.cif
#   From: 2010.05.17/outbox.cif.g08.bks.cpg/sg2_120_cif.got.tgz:238967.got - 2010.06.03 11:33:40.
