data_PCOD9005632
_publ_section_title
;
Structure prediction by ZEFSAII (Michael W. Deem and Ramdas Pophale) SiO2 
 PCOD9005632
Probable space group: P -1
;
_chemical_formula_sum "Si O2"
_cell_formula_units_Z 16
_cell_length_a 20.184769
_cell_length_b 11.971353
_cell_length_c 16.827955
_cell_angle_alpha 41.636764
_cell_angle_beta 158.508719
_cell_angle_gamma 149.752274
_cell_volume 714.501155
_symmetry_space_group_name_H-M "P -1"
_symmetry_group_IT_number 2
_symmetry_cell_setting 'triclinic'
loop_
_space_group_symop_operation_xyz
x,y,z
-x,-y,-z
loop_
_atom_site_type_symbol
_atom_site_label
_atom_site_fract_x
_atom_site_fract_y
_atom_site_fract_z
Si Si1 0.138055 0.163441 0.271228
Si Si2 0.376277 0.813991 0.806743
Si Si3 0.668356 0.053106 0.845975
Si Si4 0.764722 0.262152 0.089929
Si Si5 0.241833 0.590073 0.355059
Si Si6 0.037036 0.307986 0.699346
Si Si7 0.478040 0.550342 0.315270
Si Si8 0.223302 0.656629 0.472132
O O1 0.272925 0.318902 0.260994
O O2 0.338566 0.255626 0.515265
O O3 0.977506 0.898684 0.211180
O O4 0.954594 0.184761 0.089845
O O5 0.302821 0.571521 0.858906
O O6 0.114009 0.727760 0.529698
O O7 0.552583 0.967962 0.847914
O O8 0.535779 0.988148 0.965299
O O9 0.662678 0.234036 0.703961
O O10 0.491684 0.806027 0.732708
O O11 0.943196 0.378559 0.147697
O O12 0.982315 0.376545 0.339109
O O13 0.651785 0.376777 0.911709
O O14 0.373535 0.492690 0.548035
O O15 0.294357 0.727856 0.421536
O O16 0.891482 0.276030 0.633345
#
# Coordination Sequence:
#
# PCOD9005632 Si02
#       8
#     2   2   2   2   2   2   2   2
#     4  11  22  34  61  92 122 154 200 256 294 356
#     4  10  21  38  63  83 118 163 201 250 292 352
#     4  11  21  38  59  90 126 158 196 248 305 353
#     4  10  21  39  60  92 117 161 196 244 305 352
#     4  10  22  37  60  90 129 156 191 246 308 359
#     4  10  21  40  60  88 117 158 208 243 296 353
#     4  11  21  36  60  97 121 152 201 249 304 356
#     4   9  22  39  59  86 122 163 195 242 304 359
#
# _framework density 22.393246000000001
#
# number of rings (size 3 to 8) (size 9 to 14) (size 15 to 20)
#    0.750    1.000    2.500    2.625    1.750    3.000 
#    0.000    2.500    0.000    1.500    0.000    0.000 
#    0.000    0.000    0.000    0.000    0.000    0.000 
#
# Total GULP energy -89112.000354 kJ/mol
# GULP energy per Si atom -5569.500022 kJ/mol
# Density = 2.234228 g / cm^3
# Si number density = 22.393246 Si / 1000 Ang^3
#
#
#
# Elastic Constant Matrix: (Units=GPa)
#
#
# Indices 1 2 3 4 5 6 
#
# 1 97.8143 -8.9506 18.7178 3.1447 -20.7637 -4.8943
# 2 -8.9506 335.7885 24.5979 -29.6392 107.0187 30.0885
# 3 18.7178 24.5979 76.2136 25.7745 -1.1307 -4.5307
# 4 3.1447 -29.6392 25.7745 49.7882 -41.1277 -12.2986
# 5 -20.7637 107.0187 -1.1307 -41.1277 87.5717 26.6273
# 6 -4.8943 30.0885 -4.5307 -12.2986 26.6273 21.0765
#
#
#
# Elastic Compliance Matrix: (Units=1/GPa)
#
#
# Indices 1 2 3 4 5 6 
#
# 1 0.012724 -0.001179 -0.005596 0.008216 0.009324 -0.003550
# 2 -0.001179 0.005391 -0.000269 -0.003689 -0.008944 0.001119
# 3 -0.005596 -0.000269 0.021157 -0.018610 -0.011801 0.007682
# 4 0.008216 -0.003689 -0.018610 0.052567 0.033469 -0.008436
# 5 0.009324 -0.008944 -0.011801 0.033469 0.049392 -0.030474
# 6 -0.003550 0.001119 0.007682 -0.008436 -0.030474 0.080253
#
#
# Mechanical properties :
#
#
# Convention : Reuss Voigt Hill
#
# Bulk Modulus (GPa) = 39.70717 64.28297 51.99507
# Shear Modulus (GPa) = 20.49457 63.38403 41.93930
#
# Velocity S-wave (km/s) = 3.02853 5.32601 4.33234
# Velocity P-wave (km/s) = 5.47719 8.16031 6.94947
#
# Compressibility (1/GPa) = 0.02518437
#
# Stress axis : x y z
#
# Youngs Moduli (GPa) = 78.59298 185.49642 47.26481
#
# Poissons Ratio (x) = 0.21873 0.26448
# Poissons Ratio (y) = 0.09268 0.01272
# Poissons Ratio (z) = 0.43978 0.04991
#
# Static dielectric constant tensor:
#      x y z
#    x 1.877090 -0.017770 -0.021590 
#    y -0.017770 1.846600 0.054030 
#    z -0.021590 0.054030 1.841800 
# 
# From -- ./inp_files/602033.got.cif
#   From: 2010.05.17/outbox.cif.g08.bks.cpg/sg2_302_cif.got.tgz:602033.got - 2010.06.03 11:33:40.
