data_PCOD9005764
_publ_section_title
;
Structure prediction by ZEFSAII (Michael W. Deem and Ramdas Pophale) SiO2 
 PCOD9005764
Probable space group: P -1
;
_chemical_formula_sum "Si O2"
_cell_formula_units_Z 16
_cell_length_a 14.362722
_cell_length_b 9.127273
_cell_length_c 11.521777
_cell_angle_alpha 143.058606
_cell_angle_beta 59.230166
_cell_angle_gamma 102.215029
_cell_volume 720.793023
_symmetry_space_group_name_H-M "P -1"
_symmetry_group_IT_number 2
_symmetry_cell_setting 'triclinic'
loop_
_space_group_symop_operation_xyz
x,y,z
-x,-y,-z
loop_
_atom_site_type_symbol
_atom_site_label
_atom_site_fract_x
_atom_site_fract_y
_atom_site_fract_z
Si Si1 0.139753 0.583145 0.886914
Si Si2 0.982323 0.748468 0.300167
Si Si3 0.545561 0.264148 0.416511
Si Si4 0.281334 0.823322 0.554102
Si Si5 0.989841 0.089345 0.220515
Si Si6 0.074530 0.452702 0.266963
Si Si7 0.340402 0.327445 0.042864
Si Si8 0.656486 0.678219 0.234597
O O1 0.135336 0.316035 0.664972
O O2 0.241059 0.523656 0.878337
O O3 0.021144 0.720514 0.125760
O O4 0.109464 0.827830 0.976350
O O5 0.069889 0.514603 0.173893
O O6 0.000000 0.000000 0.500000
O O7 0.500000 0.500000 0.500000
O O8 0.662971 0.247106 0.397962
O O9 0.456016 0.292234 0.598063
O O10 0.573084 0.967121 0.164136
O O11 0.140756 0.910837 0.700465
O O12 0.316095 0.056828 0.627382
O O13 0.339232 0.565154 0.273968
O O14 0.987894 0.273129 0.450527
O O15 0.005571 0.268956 0.221041
O O16 0.208678 0.333983 0.143269
O O17 0.355032 0.387205 0.934896
#
# Coordination Sequence:
#
# PCOD9005764 Si02
#       8
#     2   2   2   2   2   2   2   2
#     4  11  23  35  62  93 126 167 207 251 316 373
#     4  11  21  37  57  89 130 166 207 256 302 377
#     4  11  27  45  65  95 128 159 217 278 318 377
#     4  10  22  45  69  92 126 169 218 258 318 387
#     4  10  22  39  62  98 131 165 211 254 313 389
#     4  10  21  38  63  92 130 169 206 258 316 374
#     4  10  22  43  70  90 124 176 213 260 322 373
#     4  11  24  42  64  97 127 167 220 264 309 379
#
# _framework density 22.197772000000001
#
# number of rings (size 3 to 8) (size 9 to 14) (size 15 to 20)
#    0.000    1.500    2.500    3.000    5.250    4.000 
#    0.000    0.000    0.000    0.000    0.000    0.000 
#    0.000    0.000    0.000    0.000    0.000    0.000 
#
# Total GULP energy -89234.856192 kJ/mol
# GULP energy per Si atom -5577.178512 kJ/mol
# Density = 2.214725 g / cm^3
# Si number density = 22.197772 Si / 1000 Ang^3
#
#
#
# Elastic Constant Matrix: (Units=GPa)
#
#
# Indices 1 2 3 4 5 6 
#
# 1 70.2436 41.9046 26.9426 15.4031 0.9201 -16.4695
# 2 41.9046 109.8550 40.8097 15.7934 -1.8831 -5.9778
# 3 26.9426 40.8097 109.0474 12.4476 16.0810 -7.4931
# 4 15.4031 15.7934 12.4476 29.3890 -1.8578 -12.0893
# 5 0.9201 -1.8831 16.0810 -1.8578 38.3115 2.2541
# 6 -16.4695 -5.9778 -7.4931 -12.0893 2.2541 33.7357
#
#
#
# Elastic Compliance Matrix: (Units=1/GPa)
#
#
# Indices 1 2 3 4 5 6 
#
# 1 0.021480 -0.006574 -0.001773 -0.003903 -0.000730 0.007578
# 2 -0.006574 0.013262 -0.003508 -0.003269 0.002298 -0.002964
# 3 -0.001773 -0.003508 0.012021 -0.002323 -0.005330 0.000706
# 4 -0.003903 -0.003269 -0.002323 0.044172 0.002305 0.012674
# 5 -0.000730 0.002298 -0.005330 0.002305 0.028712 -0.002226
# 6 0.007578 -0.002964 0.000706 0.012674 -0.002226 0.037664
#
#
# Mechanical properties :
#
#
# Convention : Reuss Voigt Hill
#
# Bulk Modulus (GPa) = 43.37905 56.49554 49.93730
# Shear Modulus (GPa) = 26.49615 32.25319 29.37467
#
# Velocity S-wave (km/s) = 3.45866 3.81595 3.64169
# Velocity P-wave (km/s) = 5.96106 6.70235 6.34255
#
# Compressibility (1/GPa) = 0.02305260
#
# Stress axis : x y z
#
# Youngs Moduli (GPa) = 46.55437 75.40328 83.18757
#
# Poissons Ratio (x) = 0.49571 0.14749
# Poissons Ratio (y) = 0.30605 0.29184
# Poissons Ratio (z) = 0.08254 0.26453
#
# Static dielectric constant tensor:
#      x y z
#    x 1.847200 0.017190 0.008910 
#    y 0.017190 1.871230 0.022930 
#    z 0.008910 0.022930 1.912380 
# 
# From -- ./inp_files/448320.got.cif
#   From: 2010.05.17/outbox.cif.g08.bks.cpg/sg2_225_cif.got.tgz:448320.got - 2010.06.03 11:33:40.
