data_PCOD9005279
_publ_section_title
;
Structure prediction by ZEFSAII (Michael W. Deem and Ramdas Pophale) SiO2 
 PCOD9005279
Probable space group: P -1
;
_chemical_formula_sum "Si O2"
_cell_formula_units_Z 14
_cell_length_a 12.222879
_cell_length_b 9.725051
_cell_length_c 11.283981
_cell_angle_alpha 77.100313
_cell_angle_beta 34.624246
_cell_angle_gamma 99.914813
_cell_volume 569.216144
_symmetry_space_group_name_H-M "P -1"
_symmetry_group_IT_number 2
_symmetry_cell_setting 'triclinic'
loop_
_space_group_symop_operation_xyz
x,y,z
-x,-y,-z
loop_
_atom_site_type_symbol
_atom_site_label
_atom_site_fract_x
_atom_site_fract_y
_atom_site_fract_z
Si Si1 0.214002 0.403225 0.241996
Si Si2 0.396559 0.686836 0.390529
Si Si3 0.326450 0.139636 0.554971
Si Si4 0.771811 0.501521 0.185460
Si Si5 0.185865 0.947188 0.957966
Si Si6 0.965773 0.367991 0.692002
Si Si7 0.060597 0.810087 0.700687
O O1 0.180388 0.555780 0.217108
O O2 0.015459 0.292931 0.548536
O O3 0.112161 0.267840 0.246101
O O4 0.500000 0.500000 0.000000
O O5 0.366459 0.568117 0.552195
O O6 0.229363 0.749154 0.547383
O O7 0.251488 0.543767 0.441406
O O8 0.673241 0.882333 0.108195
O O9 0.581558 0.346301 0.289784
O O10 0.099476 0.139034 0.784170
O O11 0.246431 0.022169 0.530189
O O12 0.324526 0.034584 0.691926
O O13 0.000000 0.500000 0.000000
O O14 0.888572 0.697102 0.990857
O O15 0.170053 0.783748 0.055124
#
# Coordination Sequence:
#
# PCOD9005279 Si02
#       7
#     2   2   2   2   2   2   2
#     4  10  24  43  67  94 119 172 228 263 314 372
#     4   9  20  37  62  93 124 161 205 256 324 382
#     4  10  22  37  61  99 132 158 210 254 308 404
#     4   9  19  35  60  95 126 164 203 250 326 380
#     4  10  22  39  62  95 129 167 200 254 330 377
#     4  10  22  45  67  87 132 167 211 273 315 370
#     4  10  21  38  61  90 125 164 210 264 314 369
#
# _framework density 24.595230000000001
#
# number of rings (size 3 to 8) (size 9 to 14) (size 15 to 20)
#    0.000    2.286    0.000    0.857    4.000    9.714 
#    0.000   12.857    0.000    0.000    0.000    0.000 
#    0.000    0.000    0.000    0.000    0.000    0.000 
#
# Total GULP energy -78334.368968 kJ/mol
# GULP energy per Si atom -5595.312069 kJ/mol
# Density = 2.453925 g / cm^3
# Si number density = 24.595230 Si / 1000 Ang^3
#
#
#
# Elastic Constant Matrix: (Units=GPa)
#
#
# Indices 1 2 3 4 5 6 
#
# 1 103.1878 33.4223 22.5275 -8.3679 -32.5495 9.5247
# 2 33.4223 74.6292 12.4553 -9.3837 -17.1810 11.7280
# 3 22.5275 12.4553 72.8429 -14.5987 -35.3010 -8.9637
# 4 -8.3679 -9.3837 -14.5987 39.7274 10.5546 -9.7382
# 5 -32.5495 -17.1810 -35.3010 10.5546 38.4070 -7.3607
# 6 9.5247 11.7280 -8.9637 -9.7382 -7.3607 38.9198
#
#
#
# Elastic Compliance Matrix: (Units=1/GPa)
#
#
# Indices 1 2 3 4 5 6 
#
# 1 0.014458 -0.004048 0.002532 -0.000266 0.012967 0.000650
# 2 -0.004048 0.016566 -0.000479 0.001409 0.002523 -0.003282
# 3 0.002532 -0.000479 0.031771 0.007203 0.031969 0.014691
# 4 -0.000266 0.001409 0.007203 0.030166 0.000447 0.008932
# 5 0.012967 0.002523 0.031969 0.000447 0.070655 0.016904
# 6 0.000650 -0.003282 0.014691 0.008932 0.016904 0.035339
#
#
# Mechanical properties :
#
#
# Convention : Reuss Voigt Hill
#
# Bulk Modulus (GPa) = 17.00557 43.05222 30.02890
# Shear Modulus (GPa) = 22.46696 35.56117 29.01406
#
# Velocity S-wave (km/s) = 3.02564 3.80657 3.43835
# Velocity P-wave (km/s) = 4.37438 6.07143 5.29138
#
# Compressibility (1/GPa) = 0.05880425
#
# Stress axis : x y z
#
# Youngs Moduli (GPa) = 69.16499 60.36343 31.47486
#
# Poissons Ratio (x) = 0.24435 -0.07968
# Poissons Ratio (y) = 0.27998 0.01509
# Poissons Ratio (z) = -0.17509 0.02894
#
# Static dielectric constant tensor:
#      x y z
#    x 1.989860 0.024380 -0.005810 
#    y 0.024380 1.969740 0.032870 
#    z -0.005810 0.032870 1.987850 
# 
# From -- ./inp_files/306204.got.cif
#   From: 2010.05.17/outbox.cif.g08.bks.cpg/sg2_154_cif.got.tgz:306204.got - 2010.06.03 11:33:40.
