data_PCOD9005238
_publ_section_title
;
Structure prediction by ZEFSAII (Michael W. Deem and Ramdas Pophale) SiO2 
 PCOD9005238
Probable space group: P -1
;
_chemical_formula_sum "Si O2"
_cell_formula_units_Z 14
_cell_length_a 8.316624
_cell_length_b 17.403136
_cell_length_c 8.013299
_cell_angle_alpha 69.125738
_cell_angle_beta 121.164641
_cell_angle_gamma 137.818624
_cell_volume 665.650712
_symmetry_space_group_name_H-M "P -1"
_symmetry_group_IT_number 2
_symmetry_cell_setting 'triclinic'
loop_
_space_group_symop_operation_xyz
x,y,z
-x,-y,-z
loop_
_atom_site_type_symbol
_atom_site_label
_atom_site_fract_x
_atom_site_fract_y
_atom_site_fract_z
Si Si1 0.646800 0.129328 0.512348
Si Si2 0.748015 0.503558 0.500730
Si Si3 0.770309 0.709949 0.797845
Si Si4 0.874541 0.294235 0.202147
Si Si5 0.595265 0.333297 0.781877
Si Si6 0.267208 0.129733 0.511020
Si Si7 0.208789 0.326616 0.783976
O O1 0.688944 0.194745 0.315313
O O2 0.481258 0.133601 0.547787
O O3 0.936866 0.201384 0.683523
O O4 0.500000 0.000000 0.500000
O O5 0.458996 0.396467 0.359213
O O6 0.790854 0.427209 0.669685
O O7 0.842977 0.591551 0.332618
O O8 0.873626 0.596695 0.643791
O O9 0.780801 0.809816 0.689868
O O10 0.031767 0.744702 0.849846
O O11 0.718223 0.672947 0.989514
O O12 0.744059 0.329652 0.007907
O O13 0.386535 0.209675 0.677265
O O14 0.435965 0.361430 0.756264
O O15 0.000000 0.000000 0.500000
#
# Coordination Sequence:
#
# PCOD9005238 Si02
#       7
#     2   2   2   2   2   2   2
#     4  11  23  42  64  89 118 155 198 248 301 356
#     4  10  21  38  61  88 125 162 199 244 295 350
#     4  11  22  39  61  90 123 160 200 245 295 352
#     4  11  22  39  61  90 123 160 200 245 295 352
#     4  11  22  39  61  90 123 160 200 245 295 352
#     4  11  23  42  64  89 118 155 198 248 301 356
#     4  11  22  39  61  90 123 160 200 245 295 352
#
# _framework density 21.032053000000001
#
# number of rings (size 3 to 8) (size 9 to 14) (size 15 to 20)
#    0.000    1.143    0.000    9.429    0.000    1.143 
#    0.000   30.000    0.000    0.000    0.000    0.000 
#    0.000    0.000    0.000    0.000    0.000    0.000 
#
# Total GULP energy -78036.312467 kJ/mol
# GULP energy per Si atom -5574.022319 kJ/mol
# Density = 2.098418 g / cm^3
# Si number density = 21.032053 Si / 1000 Ang^3
#
#
#
# Elastic Constant Matrix: (Units=GPa)
#
#
# Indices 1 2 3 4 5 6 
#
# 1 88.0285 16.0894 26.0677 -6.8104 3.6541 -1.5694
# 2 16.0894 139.4765 49.7350 -17.6022 -3.8583 -5.9451
# 3 26.0677 49.7350 167.1314 -19.8158 -8.5793 -2.5323
# 4 -6.8104 -17.6022 -19.8158 16.7759 2.6282 -0.3539
# 5 3.6541 -3.8583 -8.5793 2.6282 23.1147 0.5155
# 6 -1.5694 -5.9451 -2.5323 -0.3539 0.5155 3.3169
#
#
#
# Elastic Compliance Matrix: (Units=1/GPa)
#
#
# Indices 1 2 3 4 5 6 
#
# 1 0.012349 -0.000323 -0.001498 0.003490 -0.003070 0.004970
# 2 -0.000323 0.009526 -0.001545 0.008432 -0.000263 0.016682
# 3 -0.001498 -0.001545 0.007588 0.006477 0.001999 0.002695
# 4 0.003490 0.008432 0.006477 0.079190 -0.006439 0.031159
# 5 -0.003070 -0.000263 0.001999 -0.006439 0.045359 -0.008135
# 6 0.004970 0.016682 0.002695 0.031159 -0.008135 0.340389
#
#
# Mechanical properties :
#
#
# Convention : Reuss Voigt Hill
#
# Bulk Modulus (GPa) = 43.99545 64.26897 54.13221
# Shear Modulus (GPa) = 9.82876 28.82444 19.32660
#
# Velocity S-wave (km/s) = 2.16411 3.70604 3.03464
# Velocity P-wave (km/s) = 5.21615 6.99550 6.17030
#
# Compressibility (1/GPa) = 0.02272962
#
# Stress axis : x y z
#
# Youngs Moduli (GPa) = 80.97973 104.97753 131.78149
#
# Poissons Ratio (x) = 0.03388 0.19747
# Poissons Ratio (y) = 0.02614 0.20366
# Poissons Ratio (z) = 0.12135 0.16223
#
# Static dielectric constant tensor:
#      x y z
#    x 1.766800 0.010480 0.001260 
#    y 0.010480 1.730210 -0.021490 
#    z 0.001260 -0.021490 1.742270 
# 
# From -- ./inp_files/214860.got.cif
#   From: 2010.05.17/outbox.cif.g08.bks.cpg/sg2_108_cif.got.tgz:214860.got - 2010.06.03 11:33:40.
