data_PCOD9005427
_publ_section_title
;
Structure prediction by ZEFSAII (Michael W. Deem and Ramdas Pophale) SiO2 
 PCOD9005427
Probable space group: P -1
;
_chemical_formula_sum "Si O2"
_cell_formula_units_Z 16
_cell_length_a 5.372538
_cell_length_b 15.911266
_cell_length_c 15.752577
_cell_angle_alpha 33.204452
_cell_angle_beta 57.378676
_cell_angle_gamma 61.599500
_cell_volume 620.221282
_symmetry_space_group_name_H-M "P -1"
_symmetry_group_IT_number 2
_symmetry_cell_setting 'triclinic'
loop_
_space_group_symop_operation_xyz
x,y,z
-x,-y,-z
loop_
_atom_site_type_symbol
_atom_site_label
_atom_site_fract_x
_atom_site_fract_y
_atom_site_fract_z
Si Si1 0.835384 0.568564 0.198679
Si Si2 0.501624 0.658394 0.007514
Si Si3 0.766479 0.773306 0.700762
Si Si4 0.472818 0.156715 0.925032
Si Si5 0.702912 0.140427 0.391537
Si Si6 0.799715 0.923019 0.784280
Si Si7 0.289988 0.743565 0.426865
Si Si8 0.015094 0.312576 0.651288
O O1 0.681219 0.594168 0.111943
O O2 0.687770 0.678943 0.206738
O O3 0.778534 0.402635 0.382829
O O4 0.180122 0.598653 0.107965
O O5 0.659103 0.653100 0.891139
O O6 0.516987 0.843456 0.863451
O O7 0.595475 0.761621 0.655010
O O8 0.112167 0.772428 0.648272
O O9 0.681480 0.961116 0.571938
O O10 0.800049 0.217498 0.832939
O O11 0.500000 0.000000 0.000000
O O12 0.248741 0.119474 0.073641
O O13 0.914735 0.140643 0.267748
O O14 0.804922 0.102924 0.635332
O O15 0.117997 0.732908 0.377965
O O16 0.645541 0.744821 0.350306
O O17 0.000000 0.500000 0.500000
#
# Coordination Sequence:
#
# PCOD9005427 Si02
#       8
#     2   2   2   2   2   2   2   2
#     4  11  24  40  59  85 118 159 194 243 298 353
#     4  10  21  38  62  88 118 149 198 244 289 348
#     4   9  16  32  58  88 120 151 187 236 293 347
#     4  11  23  40  62  87 116 152 200 253 291 343
#     4   9  18  32  56  89 121 151 186 238 295 347
#     4  10  23  39  60  90 120 152 198 248 293 346
#     4  12  26  42  61  83 119 161 197 243 304 356
#     4  12  26  43  61  84 115 160 203 247 298 357
#
# _framework density 25.797243999999999
#
# number of rings (size 3 to 8) (size 9 to 14) (size 15 to 20)
#    0.000    1.500    2.500    3.375    3.500    2.500 
#    0.000    0.000    0.000    1.500    0.000    0.000 
#    0.000    0.000    0.000    0.000    0.000    0.000 
#
# Total GULP energy -89332.187857 kJ/mol
# GULP energy per Si atom -5583.261741 kJ/mol
# Density = 2.573853 g / cm^3
# Si number density = 25.797244 Si / 1000 Ang^3
#
#
#
# Elastic Constant Matrix: (Units=GPa)
#
#
# Indices 1 2 3 4 5 6 
#
# 1 197.7882 19.6708 48.8629 10.8102 -21.1801 11.1164
# 2 19.6708 101.5218 36.5001 -13.7010 -2.1019 -1.4285
# 3 48.8629 36.5001 150.6608 2.9476 -22.3065 8.1131
# 4 10.8102 -13.7010 2.9476 45.5519 2.8882 2.7998
# 5 -21.1801 -2.1019 -22.3065 2.8882 47.7417 11.0774
# 6 11.1164 -1.4285 8.1131 2.7998 11.0774 12.9036
#
#
#
# Elastic Compliance Matrix: (Units=1/GPa)
#
#
# Indices 1 2 3 4 5 6 
#
# 1 0.006424 -0.001295 -0.000551 -0.001623 0.004732 -0.009042
# 2 -0.001295 0.011872 -0.003397 0.003906 -0.003419 0.006654
# 3 -0.000551 -0.003397 0.009231 -0.001224 0.006563 -0.011074
# 4 -0.001623 0.003906 -0.001224 0.023775 -0.002453 -0.000453
# 5 0.004732 -0.003419 0.006563 -0.002453 0.034936 -0.038041
# 6 -0.009042 0.006654 -0.011074 -0.000453 -0.038041 0.125743
#
#
# Mechanical properties :
#
#
# Convention : Reuss Voigt Hill
#
# Bulk Modulus (GPa) = 58.67881 73.33761 66.00821
# Shear Modulus (GPa) = 21.91557 44.23524 33.07541
#
# Velocity S-wave (km/s) = 2.91783 4.14542 3.58457
# Velocity P-wave (km/s) = 5.84356 7.16958 6.54026
#
# Compressibility (1/GPa) = 0.01704193
#
# Stress axis : x y z
#
# Youngs Moduli (GPa) = 155.65804 84.22874 108.33077
#
# Poissons Ratio (x) = 0.10909 0.05964
# Poissons Ratio (y) = 0.20159 0.36803
# Poissons Ratio (z) = 0.08569 0.28615
#
# Static dielectric constant tensor:
#      x y z
#    x 2.110430 0.021370 0.059130 
#    y 0.021370 2.138870 -0.033210 
#    z 0.059130 -0.033210 2.257040 
# 
# From -- ./inp_files/283154.got.cif
#   From: 2010.05.17/outbox.cif.g08.bks.cpg/sg2_142_cif.got.tgz:283154.got - 2010.06.03 11:33:40.
