data_PCOD9005331
_publ_section_title
;
Structure prediction by ZEFSAII (Michael W. Deem and Ramdas Pophale) SiO2 
 PCOD9005331
Probable space group: P -1
;
_chemical_formula_sum "Si O2"
_cell_formula_units_Z 14
_cell_length_a 24.973731
_cell_length_b 10.643034
_cell_length_c 5.543928
_cell_angle_alpha 73.283363
_cell_angle_beta 114.199840
_cell_angle_gamma 152.312975
_cell_volume 614.558241
_symmetry_space_group_name_H-M "P -1"
_symmetry_group_IT_number 2
_symmetry_cell_setting 'triclinic'
loop_
_space_group_symop_operation_xyz
x,y,z
-x,-y,-z
loop_
_atom_site_type_symbol
_atom_site_label
_atom_site_fract_x
_atom_site_fract_y
_atom_site_fract_z
Si Si1 0.002801 0.331641 0.835501
Si Si2 0.264551 0.725352 0.043343
Si Si3 0.335903 0.303292 0.249381
Si Si4 0.655828 0.395331 0.971891
Si Si5 0.888358 0.160645 0.223146
Si Si6 0.593752 0.127620 0.405579
Si Si7 0.585333 0.743396 0.216779
O O1 0.121878 0.476623 0.929680
O O2 0.051793 0.577852 0.795270
O O3 0.915219 0.148487 0.539026
O O4 0.948481 0.206741 0.073890
O O5 0.291411 0.634283 0.029827
O O6 0.338295 0.986427 0.903224
O O7 0.322367 0.821055 0.363211
O O8 0.479653 0.582963 0.294912
O O9 0.324800 0.179302 0.515563
O O10 0.298287 0.380430 0.180805
O O11 0.252344 0.098442 0.980096
O O12 0.672518 0.399756 0.284536
O O13 0.507673 0.120876 0.831270
O O14 0.500000 0.000000 0.500000
O O15 0.500000 0.500000 0.000000
#
# Coordination Sequence:
#
# PCOD9005331 Si02
#       7
#     2   2   2   2   2   2   2
#     4  10  24  44  69  97 129 179 235 277 332 396
#     4  11  23  39  67  96 130 174 222 279 330 405
#     4  11  24  41  63  98 134 174 216 279 343 400
#     4  10  21  38  61  92 134 172 216 267 341 410
#     4  10  24  44  69  95 133 179 228 282 332 399
#     4   9  18  35  58  89 125 174 212 257 323 401
#     4  11  24  38  64 100 135 168 220 281 340 398
#
# _framework density 22.780588999999999
#
# number of rings (size 3 to 8) (size 9 to 14) (size 15 to 20)
#    0.000    1.714    0.000    4.286   10.000    3.429 
#    0.000    1.429    0.000    0.000    0.000    0.000 
#    0.000    0.000    0.000    0.000    0.000    0.000 
#
# Total GULP energy -78059.311899 kJ/mol
# GULP energy per Si atom -5575.665136 kJ/mol
# Density = 2.272874 g / cm^3
# Si number density = 22.780589 Si / 1000 Ang^3
#
#
#
# Elastic Constant Matrix: (Units=GPa)
#
#
# Indices 1 2 3 4 5 6 
#
# 1 118.2222 39.0828 61.5578 -11.0544 16.6398 2.6499
# 2 39.0828 62.2238 51.9135 1.7033 21.0522 -0.2013
# 3 61.5578 51.9135 187.0168 1.4715 27.7110 -4.4786
# 4 -11.0544 1.7033 1.4715 34.4820 -2.5550 9.7233
# 5 16.6398 21.0522 27.7110 -2.5550 28.8637 0.7572
# 6 2.6499 -0.2013 -4.4786 9.7233 0.7572 40.5283
#
#
#
# Elastic Compliance Matrix: (Units=1/GPa)
#
#
# Indices 1 2 3 4 5 6 
#
# 1 0.012160 -0.005696 -0.002525 0.004937 0.000065 -0.002288
# 2 -0.005696 0.027440 -0.003649 -0.004440 -0.013657 0.001426
# 3 -0.002525 -0.003649 0.007760 -0.001633 -0.003516 0.001462
# 4 0.004937 -0.004440 -0.001633 0.033712 0.005172 -0.008710
# 5 0.000065 -0.013657 -0.003516 0.005172 0.048470 -0.002607
# 6 -0.002288 0.001426 0.001462 -0.008710 -0.002607 0.027131
#
#
# Mechanical properties :
#
#
# Convention : Reuss Voigt Hill
#
# Bulk Modulus (GPa) = 42.33742 74.73011 58.53376
# Shear Modulus (GPa) = 26.55524 35.10206 30.82865
#
# Velocity S-wave (km/s) = 3.41793 3.92966 3.68269
# Velocity P-wave (km/s) = 5.84821 7.31198 6.62068
#
# Compressibility (1/GPa) = 0.02361977
#
# Stress axis : x y z
#
# Youngs Moduli (GPa) = 82.23632 36.44299 128.86613
#
# Poissons Ratio (x) = 0.20758 0.32535
# Poissons Ratio (y) = 0.46842 0.47030
# Poissons Ratio (z) = 0.20763 0.13300
#
# Static dielectric constant tensor:
#      x y z
#    x 1.917580 -0.030860 -0.068020 
#    y -0.030860 1.885970 -0.010840 
#    z -0.068020 -0.010840 1.993950 
# 
# From -- ./inp_files/126595.got.cif
#   From: 2010.05.17/outbox.cif.g08.bks.cpg/sg2_64_cif.got.tgz:126595.got - 2010.06.03 11:33:40.
