data_PCOD9005951
_publ_section_title
;
Structure prediction by ZEFSAII (Michael W. Deem and Ramdas Pophale) SiO2 
 PCOD9005951
Probable space group: P -1
;
_chemical_formula_sum "Si O2"
_cell_formula_units_Z 14
_cell_length_a 7.796184
_cell_length_b 18.675836
_cell_length_c 15.212268
_cell_angle_alpha 152.871052
_cell_angle_beta 57.664766
_cell_angle_gamma 106.862455
_cell_volume 747.401619
_symmetry_space_group_name_H-M "P -1"
_symmetry_group_IT_number 2
_symmetry_cell_setting 'triclinic'
loop_
_space_group_symop_operation_xyz
x,y,z
-x,-y,-z
loop_
_atom_site_type_symbol
_atom_site_label
_atom_site_fract_x
_atom_site_fract_y
_atom_site_fract_z
Si Si1 0.845687 0.382505 0.706586
Si Si2 0.472568 0.763729 0.295600
Si Si3 0.632044 0.713413 0.841746
Si Si4 0.972840 0.482797 0.344424
Si Si5 0.159529 0.735298 0.995381
Si Si6 0.763196 0.943010 0.462843
Si Si7 0.789561 0.949059 0.667846
O O1 0.680017 0.293523 0.665035
O O2 0.929397 0.405031 0.613188
O O3 0.694709 0.580653 0.004015
O O4 0.074961 0.251867 0.556061
O O5 0.561928 0.887129 0.452756
O O6 0.332904 0.874504 0.368311
O O7 0.816006 0.660212 0.810836
O O8 0.431200 0.659435 0.860298
O O9 0.768265 0.609081 0.604039
O O10 0.482804 0.927950 0.104060
O O11 0.888732 0.384276 0.190139
O O12 0.106423 0.930481 0.185101
O O13 0.986994 0.788203 0.182874
O O14 0.815307 0.959613 0.567450
#
# Coordination Sequence:
#
# PCOD9005951 Si02
#       7
#     2   2   2   2   2   2   2
#     4  11  22  36  54  92 124 151 189 256 295 343
#     4  10  22  35  59  85 116 164 194 239 293 349
#     4   9  23  39  67  84 112 161 205 241 279 372
#     4  11  21  43  64  85 118 154 206 241 301 333
#     4  10  21  38  64  90 111 161 196 247 275 370
#     4  11  20  39  61  83 118 165 196 232 290 365
#     4  10  23  36  57  89 124 150 198 241 295 349
#
# _framework density 18.731562
#
# number of rings (size 3 to 8) (size 9 to 14) (size 15 to 20)
#    0.857    0.857    2.857    1.714    2.000    2.286 
#    2.571    0.000    0.000    2.571    0.000    0.000 
#    0.000    0.000    0.000    0.000    0.000    0.000 
#
# Total GULP energy -77984.237618 kJ/mol
# GULP energy per Si atom -5570.302687 kJ/mol
# Density = 1.868893 g / cm^3
# Si number density = 18.731562 Si / 1000 Ang^3
#
#
#
# Elastic Constant Matrix: (Units=GPa)
#
#
# Indices 1 2 3 4 5 6 
#
# 1 68.9111 17.7658 39.3950 -8.4845 -6.4539 2.2017
# 2 17.7658 66.1543 39.9551 -0.5775 -4.8760 5.2858
# 3 39.3950 39.9551 102.5280 -10.9952 -28.7111 -4.7380
# 4 -8.4845 -0.5775 -10.9952 22.7549 0.5983 2.7708
# 5 -6.4539 -4.8760 -28.7111 0.5983 31.1348 1.8771
# 6 2.2017 5.2858 -4.7380 2.7708 1.8771 20.7741
#
#
#
# Elastic Compliance Matrix: (Units=1/GPa)
#
#
# Indices 1 2 3 4 5 6 
#
# 1 0.019504 -0.000235 -0.008087 0.003942 -0.003281 -0.004081
# 2 -0.000235 0.021803 -0.010855 -0.003772 -0.006153 -0.006939
# 3 -0.008087 -0.010855 0.022919 0.006549 0.017246 0.006414
# 4 0.003942 -0.003772 0.006549 0.048946 0.005627 -0.005001
# 5 -0.003281 -0.006153 0.017246 0.005627 0.046215 0.000920
# 6 -0.004081 -0.006939 0.006414 -0.005001 0.000920 0.052382
#
#
# Mechanical properties :
#
#
# Convention : Reuss Voigt Hill
#
# Bulk Modulus (GPa) = 38.65104 47.98059 43.31582
# Shear Modulus (GPa) = 19.32395 24.29793 21.81094
#
# Velocity S-wave (km/s) = 3.21538 3.60553 3.41603
# Velocity P-wave (km/s) = 5.87059 6.55771 6.22364
#
# Compressibility (1/GPa) = 0.02587253
#
# Stress axis : x y z
#
# Youngs Moduli (GPa) = 51.27229 45.86501 43.63147
#
# Poissons Ratio (x) = 0.01076 0.35286
# Poissons Ratio (y) = 0.01203 0.47361
# Poissons Ratio (z) = 0.41466 0.49786
#
# Static dielectric constant tensor:
#      x y z
#    x 1.681690 0.021430 -0.031180 
#    y 0.021430 1.631540 0.000130 
#    z -0.031180 0.000130 1.665960 
# 
# From -- ./inp_files/507081.got.cif
#   From: 2010.05.17/outbox.cif.g08.bks.cpg/sg2_254_cif.got.tgz:507081.got - 2010.06.03 11:33:40.
