data_PCOD9005507
_publ_section_title
;
Structure prediction by ZEFSAII (Michael W. Deem and Ramdas Pophale) SiO2 
 PCOD9005507
Probable space group: P -1
;
_chemical_formula_sum "Si O2"
_cell_formula_units_Z 14
_cell_length_a 9.290953
_cell_length_b 9.001935
_cell_length_c 17.098126
_cell_angle_alpha 149.033172
_cell_angle_beta 62.587147
_cell_angle_gamma 116.731299
_cell_volume 648.428862
_symmetry_space_group_name_H-M "P -1"
_symmetry_group_IT_number 2
_symmetry_cell_setting 'triclinic'
loop_
_space_group_symop_operation_xyz
x,y,z
-x,-y,-z
loop_
_atom_site_type_symbol
_atom_site_label
_atom_site_fract_x
_atom_site_fract_y
_atom_site_fract_z
Si Si1 0.904345 0.537042 0.822079
Si Si2 0.885095 0.747490 0.631411
Si Si3 0.530162 0.416275 0.543337
Si Si4 0.634639 0.457373 0.201212
Si Si5 0.111684 0.959660 0.073262
Si Si6 0.616892 0.230838 0.689421
Si Si7 0.891403 0.923075 0.394970
O O1 0.720652 0.374987 0.801265
O O2 0.034191 0.306507 0.670240
O O3 0.897682 0.760804 0.853319
O O4 0.974209 0.718616 0.962122
O O5 0.705174 0.580230 0.595696
O O6 0.000000 0.500000 0.500000
O O7 0.908018 0.955912 0.794509
O O8 0.950352 0.917430 0.614633
O O9 0.500000 0.500000 0.500000
O O10 0.409914 0.523113 0.687145
O O11 0.501451 0.065078 0.398320
O O12 0.482091 0.541195 0.227578
O O13 0.780105 0.719747 0.270090
O O14 0.714189 0.165953 0.034027
O O15 0.764100 0.127271 0.553112
#
# Coordination Sequence:
#
# PCOD9005507 Si02
#       7
#     2   2   2   2   2   2   2
#     4  10  21  38  62  91 125 164 205 255 306 370
#     4  12  24  41  65  93 125 163 212 264 309 370
#     4  11  24  40  63  96 129 163 209 262 310 363
#     4  10  22  42  64  90 130 171 207 253 314 381
#     4  10  24  42  63  93 126 168 213 255 314 374
#     4  11  21  41  67  95 126 166 210 253 315 375
#     4  10  21  39  64  93 125 166 212 256 309 371
#
# _framework density 21.590648000000002
#
# number of rings (size 3 to 8) (size 9 to 14) (size 15 to 20)
#    0.000    1.429    0.000    6.429    0.000   11.429 
#    0.000    1.429    0.000    6.857    0.000    0.000 
#    0.000    0.000    0.000    0.000    0.000    0.000 
#
# Total GULP energy -78191.805517 kJ/mol
# GULP energy per Si atom -5585.128966 kJ/mol
# Density = 2.154151 g / cm^3
# Si number density = 21.590648 Si / 1000 Ang^3
#
#
#
# Elastic Constant Matrix: (Units=GPa)
#
#
# Indices 1 2 3 4 5 6 
#
# 1 143.9079 45.3462 62.8262 6.4292 -10.6161 -6.4252
# 2 45.3462 100.0712 49.7564 3.0507 2.9252 6.7823
# 3 62.8262 49.7564 119.5574 5.3170 -15.3425 -12.5040
# 4 6.4292 3.0507 5.3170 20.8148 -3.6713 5.4407
# 5 -10.6161 2.9252 -15.3425 -3.6713 44.4755 12.9880
# 6 -6.4252 6.7823 -12.5040 5.4407 12.9880 38.4411
#
#
#
# Elastic Compliance Matrix: (Units=1/GPa)
#
#
# Indices 1 2 3 4 5 6 
#
# 1 0.009523 -0.002499 -0.003704 -0.001701 0.000785 0.000803
# 2 -0.002499 0.014048 -0.005254 0.000728 -0.002106 -0.003997
# 3 -0.003704 -0.005254 0.013360 -0.002071 0.002723 0.004026
# 4 -0.001701 0.000728 -0.002071 0.052906 0.006327 -0.010712
# 5 0.000785 -0.002106 0.002723 0.006327 0.026769 -0.008551
# 6 0.000803 -0.003997 0.004026 -0.010712 -0.008551 0.032568
#
#
# Mechanical properties :
#
#
# Convention : Reuss Voigt Hill
#
# Bulk Modulus (GPa) = 71.34102 75.48823 73.41463
# Shear Modulus (GPa) = 28.28695 34.45344 31.37020
#
# Velocity S-wave (km/s) = 3.62352 3.99903 3.81590
# Velocity P-wave (km/s) = 7.11483 7.50748 7.31379
#
# Compressibility (1/GPa) = 0.01401718
#
# Stress axis : x y z
#
# Youngs Moduli (GPa) = 105.00713 71.18591 74.85295
#
# Poissons Ratio (x) = 0.17791 0.27724
# Poissons Ratio (y) = 0.26244 0.39324
# Poissons Ratio (z) = 0.38893 0.37398
#
# Static dielectric constant tensor:
#      x y z
#    x 1.791580 -0.031190 0.030190 
#    y -0.031190 1.698250 0.033200 
#    z 0.030190 0.033200 1.809010 
# 
# From -- ./inp_files/189944.got.cif
#   From: 2010.05.17/outbox.cif.g08.bks.cpg/sg2_95_cif.got.tgz:189944.got - 2010.06.03 11:33:40.
