data_PCOD9005838
_publ_section_title
;
Structure prediction by ZEFSAII (Michael W. Deem and Ramdas Pophale) SiO2 
 PCOD9005838
Probable space group: P -1
;
_chemical_formula_sum "Si O2"
_cell_formula_units_Z 16
_cell_length_a 11.896962
_cell_length_b 11.172699
_cell_length_c 11.243159
_cell_angle_alpha 119.116115
_cell_angle_beta 83.535524
_cell_angle_gamma 46.050666
_cell_volume 656.294150
_symmetry_space_group_name_H-M "P -1"
_symmetry_group_IT_number 2
_symmetry_cell_setting 'triclinic'
loop_
_space_group_symop_operation_xyz
x,y,z
-x,-y,-z
loop_
_atom_site_type_symbol
_atom_site_label
_atom_site_fract_x
_atom_site_fract_y
_atom_site_fract_z
Si Si1 0.634761 0.198915 0.176390
Si Si2 0.204402 0.199009 0.452000
Si Si3 0.392956 0.861202 0.469975
Si Si4 0.901512 0.778408 0.762497
Si Si5 0.410909 0.540541 0.908379
Si Si6 0.153963 0.666899 0.413615
Si Si7 0.175734 0.741988 0.762485
Si Si8 0.027624 0.842849 0.254060
O O1 0.613309 0.316239 0.116881
O O2 0.389683 0.398047 0.321522
O O3 0.707077 0.238520 0.282925
O O4 0.797995 0.910392 0.970344
O O5 0.090743 0.465569 0.590386
O O6 0.275816 0.081506 0.251226
O O7 0.003641 0.299385 0.537991
O O8 0.359745 0.027375 0.468532
O O9 0.389045 0.757387 0.311853
O O10 0.627709 0.563881 0.356257
O O11 0.177765 0.052456 0.669059
O O12 0.024176 0.795859 0.732585
O O13 0.500000 0.500000 0.000000
O O14 0.187385 0.689598 0.045189
O O15 0.175954 0.652172 0.260011
O O16 0.070095 0.904486 0.580700
O O17 0.000000 0.000000 0.000000
#
# Coordination Sequence:
#
# PCOD9005838 Si02
#       8
#     2   2   2   2   2   2   2   2
#     4  10  18  32  55  79 109 147 182 230 288 336
#     4  10  22  35  55  82 110 149 196 233 267 338
#     4  10  20  35  55  86 111 146 193 230 281 338
#     4  10  21  38  54  77 114 153 192 229 278 335
#     4  11  16  26  52  84 113 145 173 234 293 323
#     4  10  17  30  49  82 114 137 183 237 280 334
#     4   9  19  36  59  80 115 148 180 234 291 339
#     4  10  17  28  50  85 120 135 180 242 281 332
#
# _framework density 24.379311000000001
#
# number of rings (size 3 to 8) (size 9 to 14) (size 15 to 20)
#    0.000    2.000    3.750    3.000    0.000    1.000 
#    0.000    0.625   11.000    0.000    0.000    7.875 
#    0.000    0.000    0.000    0.000    0.000    0.000 
#
# Total GULP energy -89082.512825 kJ/mol
# GULP energy per Si atom -5567.657052 kJ/mol
# Density = 2.432382 g / cm^3
# Si number density = 24.379311 Si / 1000 Ang^3
#
#
#
# Elastic Constant Matrix: (Units=GPa)
#
#
# Indices 1 2 3 4 5 6 
#
# 1 73.7331 2.9642 29.9861 5.8015 10.3239 -18.8053
# 2 2.9642 90.7821 3.5240 5.1779 5.8263 1.5072
# 3 29.9861 3.5240 86.1464 2.7894 -5.0302 5.6602
# 4 5.8015 5.1779 2.7894 28.2662 -0.5621 -6.9332
# 5 10.3239 5.8263 -5.0302 -0.5621 38.0109 6.2091
# 6 -18.8053 1.5072 5.6602 -6.9332 6.2091 22.9332
#
#
#
# Elastic Compliance Matrix: (Units=1/GPa)
#
#
# Indices 1 2 3 4 5 6 
#
# 1 0.028765 -0.000184 -0.013033 0.002889 -0.014637 0.031653
# 2 -0.000184 0.011285 -0.000346 -0.002289 -0.001584 -0.001071
# 3 -0.013033 -0.000346 0.018013 -0.003416 0.008959 -0.018568
# 4 0.002889 -0.002289 -0.003416 0.039426 -0.002928 0.016074
# 5 -0.014637 -0.001584 0.008959 -0.002928 0.035697 -0.024660
# 6 0.031653 -0.001071 -0.018568 0.016074 -0.024660 0.085750
#
#
# Mechanical properties :
#
#
# Convention : Reuss Voigt Hill
#
# Bulk Modulus (GPa) = 32.32375 35.95670 34.14023
# Shear Modulus (GPa) = 19.50280 32.12120 25.81200
#
# Velocity S-wave (km/s) = 2.83145 3.63376 3.25740
# Velocity P-wave (km/s) = 4.89662 5.69091 5.30864
#
# Compressibility (1/GPa) = 0.03093700
#
# Stress axis : x y z
#
# Youngs Moduli (GPa) = 34.76426 88.61438 55.51653
#
# Poissons Ratio (x) = 0.01632 0.72355
# Poissons Ratio (y) = 0.00640 0.01918
# Poissons Ratio (z) = 0.45309 0.03062
#
# Static dielectric constant tensor:
#      x y z
#    x 2.054380 -0.041180 -0.027460 
#    y -0.041180 2.145500 -0.009750 
#    z -0.027460 -0.009750 2.062580 
# 
# From -- ./inp_files/518198.got.cif
#   From: 2010.05.17/outbox.cif.g08.bks.cpg/sg2_260_cif.got.tgz:518198.got - 2010.06.03 11:33:40.
