data_PCOD9005473
_publ_section_title
;
Structure prediction by ZEFSAII (Michael W. Deem and Ramdas Pophale) SiO2 
 PCOD9005473
Probable space group: P -1
;
_chemical_formula_sum "Si O2"
_cell_formula_units_Z 16
_cell_length_a 12.777771
_cell_length_b 9.038583
_cell_length_c 14.196812
_cell_angle_alpha 114.291749
_cell_angle_beta 130.222409
_cell_angle_gamma 37.201696
_cell_volume 737.876643
_symmetry_space_group_name_H-M "P -1"
_symmetry_group_IT_number 2
_symmetry_cell_setting 'triclinic'
loop_
_space_group_symop_operation_xyz
x,y,z
-x,-y,-z
loop_
_atom_site_type_symbol
_atom_site_label
_atom_site_fract_x
_atom_site_fract_y
_atom_site_fract_z
Si Si1 0.515137 0.104548 0.392091
Si Si2 0.571803 0.186887 0.076985
Si Si3 0.849070 0.695909 0.879739
Si Si4 0.696604 0.348565 0.845820
Si Si5 0.189151 0.329325 0.832234
Si Si6 0.407419 0.327504 0.590598
Si Si7 0.168266 0.939841 0.962785
Si Si8 0.054974 0.302428 0.548880
O O1 0.338584 0.253111 0.247201
O O2 0.439538 0.270164 0.482913
O O3 0.547647 0.888005 0.390160
O O4 0.737511 0.967641 0.444976
O O5 0.460504 0.359683 0.150483
O O6 0.727874 0.900197 0.120622
O O7 0.706154 0.194375 0.096524
O O8 0.383271 0.278592 0.929978
O O9 0.995522 0.583155 0.843023
O O10 0.763000 0.946558 0.927962
O O11 0.000000 0.500000 0.000000
O O12 0.567495 0.316190 0.719585
O O13 0.913363 0.178384 0.869817
O O14 0.771299 0.239801 0.967713
O O15 0.117424 0.328361 0.690430
O O16 0.163758 0.596001 0.539329
O O17 0.000000 0.500000 0.500000
#
# Coordination Sequence:
#
# PCOD9005473 Si02
#       8
#     2   2   2   2   2   2   2   2
#     4  10  21  38  62  90 124 159 206 262 314 361
#     4  11  24  41  62  93 130 167 205 266 318 374
#     4  12  21  39  69  95 129 162 210 270 317 371
#     4  11  24  40  62  91 132 169 212 255 317 379
#     4  11  23  40  66  98 126 161 217 262 318 377
#     4  10  21  39  60  90 122 163 209 258 305 376
#     4  11  23  40  59  96 129 168 208 260 319 380
#     4  10  22  38  63  93 124 161 207 261 314 368
#
# _framework density 21.683841999999999
#
# number of rings (size 3 to 8) (size 9 to 14) (size 15 to 20)
#    0.000    1.250    5.000    1.125    3.500    1.000 
#    0.000    0.625    0.000    3.750    0.000    0.000 
#    0.000    0.000    0.000    0.000    0.000    0.000 
#
# Total GULP energy -89445.462536 kJ/mol
# GULP energy per Si atom -5590.341409 kJ/mol
# Density = 2.163449 g / cm^3
# Si number density = 21.683842 Si / 1000 Ang^3
#
#
#
# Elastic Constant Matrix: (Units=GPa)
#
#
# Indices 1 2 3 4 5 6 
#
# 1 87.9474 17.9359 37.1981 -9.3526 15.1452 -41.2987
# 2 17.9359 55.3220 12.2309 -6.6066 10.3102 -24.3342
# 3 37.1981 12.2309 103.4938 -12.0678 18.1909 -18.5929
# 4 -9.3526 -6.6066 -12.0678 22.3991 0.4500 9.0020
# 5 15.1452 10.3102 18.1909 0.4500 31.9255 -10.2141
# 6 -41.2987 -24.3342 -18.5929 9.0020 -10.2141 40.6706
#
#
#
# Elastic Compliance Matrix: (Units=1/GPa)
#
#
# Indices 1 2 3 4 5 6 
#
# 1 0.024419 0.004405 -0.004487 -0.000907 -0.002450 0.024966
# 2 0.004405 0.025792 -0.000348 0.002041 -0.004433 0.018181
# 3 -0.004487 -0.000348 0.012658 0.005605 -0.005568 -0.001617
# 4 -0.000907 0.002041 0.005605 0.052304 -0.007555 -0.010611
# 5 -0.002450 -0.004433 -0.005568 -0.007555 0.038353 0.003619
# 6 0.024966 0.018181 -0.001617 -0.010611 0.003619 0.063336
#
#
# Mechanical properties :
#
#
# Convention : Reuss Voigt Hill
#
# Bulk Modulus (GPa) = 16.12681 42.38809 29.25745
# Shear Modulus (GPa) = 20.97384 30.95894 25.96639
#
# Velocity S-wave (km/s) = 3.11345 3.78265 3.46424
# Velocity P-wave (km/s) = 4.51422 6.21841 5.43354
#
# Compressibility (1/GPa) = 0.06200855
#
# Stress axis : x y z
#
# Youngs Moduli (GPa) = 40.95168 38.77208 79.00083
#
# Poissons Ratio (x) = -0.17079 0.35450
# Poissons Ratio (y) = -0.18040 0.02749
# Poissons Ratio (z) = 0.18376 0.01349
#
# Static dielectric constant tensor:
#      x y z
#    x 1.805030 -0.002370 -0.002750 
#    y -0.002370 1.800920 -0.040760 
#    z -0.002750 -0.040760 1.752070 
# 
# From -- ./inp_files/308115.got.cif
#   From: 2010.05.17/outbox.cif.g08.bks.cpg/sg2_155_cif.got.tgz:308115.got - 2010.06.03 11:33:40.
