data_PCOD9005903
_publ_section_title
;
Structure prediction by ZEFSAII (Michael W. Deem and Ramdas Pophale) SiO2 
 PCOD9005903
Probable space group: P -1
;
_chemical_formula_sum "Si O2"
_cell_formula_units_Z 14
_cell_length_a 17.079147
_cell_length_b 9.283287
_cell_length_c 9.362634
_cell_angle_alpha 148.268440
_cell_angle_beta 71.983600
_cell_angle_gamma 119.485591
_cell_volume 659.944721
_symmetry_space_group_name_H-M "P -1"
_symmetry_group_IT_number 2
_symmetry_cell_setting 'triclinic'
loop_
_space_group_symop_operation_xyz
x,y,z
-x,-y,-z
loop_
_atom_site_type_symbol
_atom_site_label
_atom_site_fract_x
_atom_site_fract_y
_atom_site_fract_z
Si Si1 0.532776 0.804874 0.145076
Si Si2 0.061879 0.329337 0.305859
Si Si3 0.306829 0.212131 0.092203
Si Si4 0.165960 0.698862 0.297435
Si Si5 0.102775 0.197474 0.674941
Si Si6 0.207955 0.487401 0.579287
Si Si7 0.350617 0.721681 0.275175
O O1 0.435309 0.810989 0.191535
O O2 0.601653 0.078158 0.440521
O O3 0.500000 0.500000 0.000000
O O4 0.591027 0.771507 0.953078
O O5 0.141280 0.531116 0.321468
O O6 0.110438 0.303763 0.398955
O O7 0.000000 0.500000 0.500000
O O8 0.000000 0.000000 0.000000
O O9 0.278900 0.383637 0.376431
O O10 0.305368 0.374478 0.077074
O O11 0.239457 0.848220 0.838057
O O12 0.274476 0.797343 0.309426
O O13 0.135788 0.966205 0.534130
O O14 0.108220 0.448846 0.998795
O O15 0.180821 0.384896 0.670088
O O16 0.000000 0.000000 0.500000
#
# Coordination Sequence:
#
# PCOD9005903 Si02
#       7
#     2   2   2   2   2   2   2
#     4   9  19  35  65 104 140 159 202 269 335 392
#     4  12  24  39  63  96 122 159 215 286 331 367
#     4  11  20  38  65  97 127 164 211 263 321 382
#     4  12  25  43  70  93 133 168 227 269 320 393
#     4  12  28  48  63  91 133 185 222 265 330 393
#     4  12  24  41  66  89 131 169 224 264 328 392
#     4  10  21  38  64 108 131 167 208 275 327 387
#
# _framework density 21.213895999999998
#
# number of rings (size 3 to 8) (size 9 to 14) (size 15 to 20)
#    0.000    0.857    2.857    4.714    6.000    0.000 
#    0.000    0.000    0.000    5.143    0.000    0.000 
#    0.000    0.000    0.000    0.000    0.000    0.000 
#
# Total GULP energy -78172.706622 kJ/mol
# GULP energy per Si atom -5583.764759 kJ/mol
# Density = 2.116561 g / cm^3
# Si number density = 21.213896 Si / 1000 Ang^3
#
#
#
# Elastic Constant Matrix: (Units=GPa)
#
#
# Indices 1 2 3 4 5 6 
#
# 1 83.7595 -3.7736 -8.9282 3.8629 -14.5580 23.4084
# 2 -3.7736 49.1209 10.0159 5.4990 -1.6023 3.7820
# 3 -8.9282 10.0159 84.7048 16.6908 -15.8204 4.9928
# 4 3.8629 5.4990 16.6908 39.8126 7.4405 -5.6631
# 5 -14.5580 -1.6023 -15.8204 7.4405 30.2333 -5.4680
# 6 23.4084 3.7820 4.9928 -5.6631 -5.4680 27.2956
#
#
#
# Elastic Compliance Matrix: (Units=1/GPa)
#
#
# Indices 1 2 3 4 5 6 
#
# 1 0.021321 0.003265 0.007775 -0.011143 0.013682 -0.019730
# 2 0.003265 0.021767 -0.000545 -0.004422 0.002417 -0.006150
# 3 0.007775 -0.000545 0.018482 -0.012550 0.014734 -0.009625
# 4 -0.011143 -0.004422 -0.012550 0.037890 -0.018485 0.016622
# 5 0.013682 0.002417 0.014734 -0.018485 0.050518 -0.008479
# 6 -0.019730 -0.006150 -0.009625 0.016622 -0.008479 0.057919
#
#
# Mechanical properties :
#
#
# Convention : Reuss Voigt Hill
#
# Bulk Modulus (GPa) = 12.11217 23.57928 17.84572
# Shear Modulus (GPa) = 23.31811 34.15306 28.73559
#
# Velocity S-wave (km/s) = 3.31900 4.01676 3.68443
# Velocity P-wave (km/s) = 4.51770 5.71416 5.15079
#
# Compressibility (1/GPa) = 0.08256158
#
# Stress axis : x y z
#
# Youngs Moduli (GPa) = 46.90268 45.94082 54.10726
#
# Poissons Ratio (x) = -0.15001 -0.42069
# Poissons Ratio (y) = -0.15315 0.02946
# Poissons Ratio (z) = -0.36468 0.02502
#
# Static dielectric constant tensor:
#      x y z
#    x 1.821080 0.081150 -0.034800 
#    y 0.081150 1.790630 -0.001150 
#    z -0.034800 -0.001150 1.813140 
# 
# From -- ./inp_files/38237.got.cif
#   From: 2010.05.17/outbox.cif.g08.bks.cpg/sg2_20_cif.got.tgz:38237.got - 2010.06.03 11:33:40.
