data_PCOD9005931
_publ_section_title
;
Structure prediction by ZEFSAII (Michael W. Deem and Ramdas Pophale) SiO2 
 PCOD9005931
Probable space group: P -1
;
_chemical_formula_sum "Si O2"
_cell_formula_units_Z 14
_cell_length_a 21.099107
_cell_length_b 11.071102
_cell_length_c 8.934359
_cell_angle_alpha 39.405535
_cell_angle_beta 142.246921
_cell_angle_gamma 149.389579
_cell_volume 621.539860
_symmetry_space_group_name_H-M "P -1"
_symmetry_group_IT_number 2
_symmetry_cell_setting 'triclinic'
loop_
_space_group_symop_operation_xyz
x,y,z
-x,-y,-z
loop_
_atom_site_type_symbol
_atom_site_label
_atom_site_fract_x
_atom_site_fract_y
_atom_site_fract_z
Si Si1 0.373161 0.588830 0.218856
Si Si2 0.141129 0.267962 0.849819
Si Si3 0.397199 0.247834 0.747340
Si Si4 0.428787 0.923951 0.242673
Si Si5 0.117691 0.763558 0.584118
Si Si6 0.719886 0.280085 0.545642
Si Si7 0.912960 0.238218 0.803594
O O1 0.395025 0.470548 0.512164
O O2 0.497244 0.696141 0.236401
O O3 0.378632 0.799052 0.105866
O O4 0.239072 0.388509 0.063049
O O5 0.222158 0.470984 0.674651
O O6 0.005546 0.230064 0.657551
O O7 0.101367 0.004809 0.987477
O O8 0.244028 0.006308 0.664051
O O9 0.437214 0.164685 0.041315
O O10 0.327959 0.733759 0.363375
O O11 0.582820 0.042855 0.438340
O O12 0.153023 0.770093 0.469959
O O13 0.060240 0.508312 0.803346
O O14 0.832384 0.249005 0.773181
#
# Coordination Sequence:
#
# PCOD9005931 Si02
#       7
#     2   2   2   2   2   2   2
#     4  11  24  37  66  98 125 153 205 263 312 352
#     4  11  22  40  66  94 124 159 206 258 303 364
#     4  11  23  39  62  99 125 155 204 261 312 353
#     4  11  24  40  62  88 133 163 201 253 308 371
#     4  10  22  36  64  97 121 162 205 249 312 363
#     4  10  24  42  60  91 122 174 205 239 313 376
#     4  10  21  38  64  88 124 161 206 249 296 368
#
# _framework density 22.524701
#
# number of rings (size 3 to 8) (size 9 to 14) (size 15 to 20)
#    0.000    1.429    2.857    1.714    8.000    1.143 
#    0.000    5.714    0.000    5.143    0.000    0.000 
#    0.000    0.000    0.000    0.000    0.000    0.000 
#
# Total GULP energy -78183.494989 kJ/mol
# GULP energy per Si atom -5584.535356 kJ/mol
# Density = 2.247343 g / cm^3
# Si number density = 22.524701 Si / 1000 Ang^3
#
#
#
# Elastic Constant Matrix: (Units=GPa)
#
#
# Indices 1 2 3 4 5 6 
#
# 1 77.1917 37.1708 21.0280 -12.2572 11.3753 21.5558
# 2 37.1708 99.8812 23.4302 -11.9619 18.1625 7.7651
# 3 21.0280 23.4302 72.5662 -22.9326 15.6506 1.4499
# 4 -12.2572 -11.9619 -22.9326 42.7604 -0.5523 5.8895
# 5 11.3753 18.1625 15.6506 -0.5523 27.0226 -7.3616
# 6 21.5558 7.7651 1.4499 5.8895 -7.3616 28.1403
#
#
#
# Elastic Compliance Matrix: (Units=1/GPa)
#
#
# Indices 1 2 3 4 5 6 
#
# 1 0.024964 -0.003764 0.000649 0.009562 -0.014687 -0.023961
# 2 -0.003764 0.013651 -0.000599 0.002806 -0.008160 -0.003575
# 3 0.000649 -0.000599 0.020645 0.011942 -0.013615 -0.007457
# 4 0.009562 0.002806 0.011942 0.035964 -0.017784 -0.020893
# 5 -0.014687 -0.008160 -0.013615 -0.017784 0.065765 0.035130
# 6 -0.023961 -0.003575 -0.007457 -0.020893 0.035130 0.068824
#
#
# Mechanical properties :
#
#
# Convention : Reuss Voigt Hill
#
# Bulk Modulus (GPa) = 19.29283 45.87747 32.58515
# Shear Modulus (GPa) = 19.64493 30.78531 25.21512
#
# Velocity S-wave (km/s) = 2.95642 3.70095 3.34944
# Velocity P-wave (km/s) = 4.49863 6.21889 5.42735
#
# Compressibility (1/GPa) = 0.05183272
#
# Stress axis : x y z
#
# Youngs Moduli (GPa) = 40.05737 73.25494 48.43795
#
# Poissons Ratio (x) = 0.27574 -0.03145
# Poissons Ratio (y) = 0.15078 0.02901
# Poissons Ratio (z) = -0.02601 0.04387
#
# Static dielectric constant tensor:
#      x y z
#    x 1.794970 0.004830 -0.001370 
#    y 0.004830 1.830400 0.001460 
#    z -0.001370 0.001460 1.915560 
# 
# From -- ./inp_files/261058.got.cif
#   From: 2010.05.17/outbox.cif.g08.bks.cpg/sg2_131_cif.got.tgz:261058.got - 2010.06.03 11:33:40.
