data_PCOD9005595
_publ_section_title
;
Structure prediction by ZEFSAII (Michael W. Deem and Ramdas Pophale) SiO2 
 PCOD9005595
Probable space group: P -1
;
_chemical_formula_sum "Si O2"
_cell_formula_units_Z 16
_cell_length_a 7.319225
_cell_length_b 16.755604
_cell_length_c 8.250363
_cell_angle_alpha 73.472870
_cell_angle_beta 45.031485
_cell_angle_gamma 97.920210
_cell_volume 594.505607
_symmetry_space_group_name_H-M "P -1"
_symmetry_group_IT_number 2
_symmetry_cell_setting 'triclinic'
loop_
_space_group_symop_operation_xyz
x,y,z
-x,-y,-z
loop_
_atom_site_type_symbol
_atom_site_label
_atom_site_fract_x
_atom_site_fract_y
_atom_site_fract_z
Si Si1 0.090734 0.265078 0.574769
Si Si2 0.895373 0.069859 0.739619
Si Si3 0.024833 0.364773 0.849446
Si Si4 0.508938 0.963197 0.337724
Si Si5 0.618739 0.426339 0.950925
Si Si6 0.815319 0.875373 0.763434
Si Si7 0.568261 0.240901 0.474021
Si Si8 0.504582 0.335238 0.741739
O O1 0.335405 0.330279 0.254013
O O2 0.272827 0.241801 0.607133
O O3 0.851940 0.164767 0.706587
O O4 0.977685 0.322274 0.721650
O O5 0.222562 0.121793 0.411122
O O6 0.770202 0.957446 0.828672
O O7 0.774343 0.041233 0.017547
O O8 0.904427 0.440325 0.867345
O O9 0.801454 0.284196 0.159319
O O10 0.335133 0.381499 0.719566
O O11 0.530079 0.868108 0.378054
O O12 0.177349 0.925092 0.497635
O O13 0.500000 0.000000 0.500000
O O14 0.654389 0.408229 0.752045
O O15 0.500000 0.500000 0.000000
O O16 0.690506 0.773230 0.990664
O O17 0.694649 0.311471 0.508957
#
# Coordination Sequence:
#
# PCOD9005595 Si02
#       8
#     2   2   2   2   2   2   2   2
#     4  10  22  42  66  94 135 176 215 274 333 391
#     4  11  23  38  57  91 135 177 226 272 310 388
#     4  10  23  44  69  99 134 173 220 267 337 403
#     4  12  23  34  58  93 130 179 231 265 312 380
#     4  11  26  47  73 103 128 164 224 285 345 407
#     4  11  23  39  57  91 133 181 226 267 324 382
#     4  10  21  38  62  95 133 175 222 266 318 391
#     4  11  22  44  70  95 135 180 218 275 335 394
#
# _framework density 26.913121
#
# number of rings (size 3 to 8) (size 9 to 14) (size 15 to 20)
#    0.000    1.250    3.750    1.875    1.750    5.000 
#    0.000    5.625    0.000    0.000    0.000    0.000 
#    0.000    0.000    0.000    0.000    0.000    0.000 
#
# Total GULP energy -89258.308680 kJ/mol
# GULP energy per Si atom -5578.644292 kJ/mol
# Density = 2.685187 g / cm^3
# Si number density = 26.913121 Si / 1000 Ang^3
#
#
#
# Elastic Constant Matrix: (Units=GPa)
#
#
# Indices 1 2 3 4 5 6 
#
# 1 99.2283 57.3280 5.5528 12.5724 1.1699 -24.5451
# 2 57.3280 128.9011 7.4587 -2.3382 15.7842 -20.0467
# 3 5.5528 7.4587 107.7389 4.3486 23.7406 13.7796
# 4 12.5724 -2.3382 4.3486 41.9301 4.8798 16.4200
# 5 1.1699 15.7842 23.7406 4.8798 33.3535 9.4039
# 6 -24.5451 -20.0467 13.7796 16.4200 9.4039 36.9511
#
#
#
# Elastic Compliance Matrix: (Units=1/GPa)
#
#
# Indices 1 2 3 4 5 6 
#
# 1 0.019120 -0.006450 -0.002313 -0.011889 0.001552 0.014952
# 2 -0.006450 0.011901 0.000598 0.002286 -0.006925 0.002696
# 3 -0.002313 0.000598 0.011490 0.002194 -0.007408 -0.004587
# 4 -0.011889 0.002286 0.002194 0.036632 -0.000957 -0.023510
# 5 0.001552 -0.006925 -0.007408 -0.000957 0.041463 -0.010090
# 6 0.014952 0.002696 -0.004587 -0.023510 -0.010090 0.053183
#
#
# Mechanical properties :
#
#
# Convention : Reuss Voigt Hill
#
# Bulk Modulus (GPa) = 38.19848 52.94970 45.57409
# Shear Modulus (GPa) = 25.14498 40.14886 32.64692
#
# Velocity S-wave (km/s) = 3.05995 3.86657 3.48666
# Velocity P-wave (km/s) = 5.16802 6.29689 5.76018
#
# Compressibility (1/GPa) = 0.02617905
#
# Stress axis : x y z
#
# Youngs Moduli (GPa) = 52.30027 84.02866 87.03212
#
# Poissons Ratio (x) = 0.54200 0.20134
# Poissons Ratio (y) = 0.33734 -0.05201
# Poissons Ratio (z) = 0.12099 -0.05021
#
# Static dielectric constant tensor:
#      x y z
#    x -0.200590 -0.828750 -1.167600 
#    y -0.828750 1.823690 -0.358240 
#    z -1.167600 -0.358240 1.512190 
# 
# From -- ./inp_files/206658.got.cif
#   From: 2010.05.17/outbox.cif.g08.bks.cpg/sg2_104_cif.got.tgz:206658.got - 2010.06.03 11:33:40.
