data_PCOD9005740
_publ_section_title
;
Structure prediction by ZEFSAII (Michael W. Deem and Ramdas Pophale) SiO2 
 PCOD9005740
Probable space group: P -1
;
_chemical_formula_sum "Si O2"
_cell_formula_units_Z 16
_cell_length_a 16.009380
_cell_length_b 18.711157
_cell_length_c 11.070451
_cell_angle_alpha 148.860099
_cell_angle_beta 129.844036
_cell_angle_gamma 27.597293
_cell_volume 691.703643
_symmetry_space_group_name_H-M "P -1"
_symmetry_group_IT_number 2
_symmetry_cell_setting 'triclinic'
loop_
_space_group_symop_operation_xyz
x,y,z
-x,-y,-z
loop_
_atom_site_type_symbol
_atom_site_label
_atom_site_fract_x
_atom_site_fract_y
_atom_site_fract_z
Si Si1 0.175453 0.597211 0.271591
Si Si2 0.260466 0.506174 0.957514
Si Si3 0.180244 0.196258 0.703670
Si Si4 0.313825 0.981944 0.274909
Si Si5 0.951020 0.196183 0.175795
Si Si6 0.857738 0.048812 0.264790
Si Si7 0.378298 0.264925 0.456804
Si Si8 0.408181 0.923976 0.995698
O O1 0.225546 0.705459 0.455378
O O2 0.942760 0.816011 0.413852
O O3 0.207561 0.495162 0.021345
O O4 0.343233 0.360349 0.180164
O O5 0.287724 0.389063 0.689424
O O6 0.489619 0.319289 0.929050
O O7 0.061330 0.816108 0.199149
O O8 0.282797 0.117084 0.553830
O O9 0.374906 0.986984 0.670575
O O10 0.000000 0.500000 0.000000
O O11 0.092527 0.151253 0.310484
O O12 0.356178 0.978349 0.171152
O O13 0.727503 0.504738 0.391510
O O14 0.000000 0.000000 0.000000
O O15 0.052683 0.069405 0.956167
O O16 0.698846 0.091558 0.191120
O O17 0.335423 0.153260 0.215931
#
# Coordination Sequence:
#
# PCOD9005740 Si02
#       8
#     2   2   2   2   2   2   2   2
#     4  11  21  37  61  90 128 161 202 249 308 363
#     4   9  21  37  62  90 116 159 206 254 301 355
#     4  11  22  38  59  91 128 161 197 252 310 360
#     4   9  21  37  61  86 117 163 201 249 299 360
#     4  10  21  40  63  88 121 164 206 252 305 365
#     4  10  21  38  63  92 121 161 209 255 299 357
#     4  10  22  41  62  93 122 160 207 250 306 365
#     4  10  21  39  62  89 123 163 202 251 302 366
#
# _framework density 23.131295999999999
#
# number of rings (size 3 to 8) (size 9 to 14) (size 15 to 20)
#    0.000    2.000    1.250    1.500    1.750    7.000 
#    0.000    8.125    0.000    0.000    0.000    0.000 
#    0.000    0.000    0.000    0.000    0.000    0.000 
#
# Total GULP energy -89135.056532 kJ/mol
# GULP energy per Si atom -5570.941033 kJ/mol
# Density = 2.307865 g / cm^3
# Si number density = 23.131296 Si / 1000 Ang^3
#
#
#
# Elastic Constant Matrix: (Units=GPa)
#
#
# Indices 1 2 3 4 5 6 
#
# 1 44.4171 29.7400 25.6189 1.6095 2.8633 -5.6006
# 2 29.7400 113.1798 51.7295 30.7814 8.8151 2.8346
# 3 25.6189 51.7295 100.6061 21.3033 29.1702 -3.6911
# 4 1.6095 30.7814 21.3033 29.0057 6.6086 -2.9327
# 5 2.8633 8.8151 29.1702 6.6086 35.3720 0.9423
# 6 -5.6006 2.8346 -3.6911 -2.9327 0.9423 27.0383
#
#
#
# Elastic Compliance Matrix: (Units=1/GPa)
#
#
# Indices 1 2 3 4 5 6 
#
# 1 0.033445 -0.009859 -0.006818 0.013887 0.002553 0.008448
# 2 -0.009859 0.017806 -0.004289 -0.016567 0.003163 -0.006402
# 3 -0.006818 -0.004289 0.018927 -0.005881 -0.012927 0.001434
# 4 0.013887 -0.016567 -0.005881 0.057344 -0.003129 0.010139
# 5 0.002553 0.003163 -0.012927 -0.003129 0.038608 -0.003253
# 6 0.008448 -0.006402 0.001434 0.010139 -0.003253 0.040814
#
#
# Mechanical properties :
#
#
# Convention : Reuss Voigt Hill
#
# Bulk Modulus (GPa) = 35.40286 52.48664 43.94475
# Shear Modulus (GPa) = 19.35781 28.35751 23.85766
#
# Velocity S-wave (km/s) = 2.89600 3.50514 3.21503
# Velocity P-wave (km/s) = 5.14984 6.25470 5.72897
#
# Compressibility (1/GPa) = 0.02824631
#
# Stress axis : x y z
#
# Youngs Moduli (GPa) = 29.89961 56.16025 52.83357
#
# Poissons Ratio (x) = 0.55371 0.36022
# Poissons Ratio (y) = 0.29479 0.22660
# Poissons Ratio (z) = 0.20386 0.24086
#
# Static dielectric constant tensor:
#      x y z
#    x 1.941390 -0.019010 0.012040 
#    y -0.019010 1.883490 -0.077260 
#    z 0.012040 -0.077260 1.934770 
# 
# From -- ./inp_files/274651.got.cif
#   From: 2010.05.17/outbox.cif.g08.bks.cpg/sg2_138_cif.got.tgz:274651.got - 2010.06.03 11:33:40.
