data_PCOD9005678
_publ_section_title
;
Structure prediction by ZEFSAII (Michael W. Deem and Ramdas Pophale) SiO2 
 PCOD9005678
Probable space group: P -1
;
_chemical_formula_sum "Si O2"
_cell_formula_units_Z 16
_cell_length_a 10.776690
_cell_length_b 16.956942
_cell_length_c 6.293097
_cell_angle_alpha 128.750743
_cell_angle_beta 100.938878
_cell_angle_gamma 58.591883
_cell_volume 749.194383
_symmetry_space_group_name_H-M "P -1"
_symmetry_group_IT_number 2
_symmetry_cell_setting 'triclinic'
loop_
_space_group_symop_operation_xyz
x,y,z
-x,-y,-z
loop_
_atom_site_type_symbol
_atom_site_label
_atom_site_fract_x
_atom_site_fract_y
_atom_site_fract_z
Si Si1 0.625655 0.727975 0.088663
Si Si2 0.580022 0.872277 0.703009
Si Si3 0.836187 0.975397 0.592136
Si Si4 0.853465 0.519488 0.098235
Si Si5 0.616440 0.175708 0.145121
Si Si6 0.836844 0.122359 0.472930
Si Si7 0.154507 0.309015 0.281755
Si Si8 0.948825 0.276482 0.895742
O O1 0.572324 0.847018 0.411243
O O2 0.709550 0.616046 0.084488
O O3 0.486215 0.739883 0.936013
O O4 0.747785 0.713891 0.935651
O O5 0.500604 0.813627 0.701924
O O6 0.750577 0.798837 0.707204
O O7 0.500000 0.000000 0.000000
O O8 0.990818 0.968577 0.687674
O O9 0.899710 0.836819 0.343105
O O10 0.787715 0.048151 0.476168
O O11 0.712417 0.045980 0.846075
O O12 0.857733 0.577396 0.419956
O O13 0.872157 0.392589 0.921363
O O14 0.000000 0.500000 0.000000
O O15 0.736734 0.183983 0.338919
O O16 0.847371 0.219415 0.783746
O O17 0.004813 0.313197 0.181504
#
# Coordination Sequence:
#
# PCOD9005678 Si02
#       8
#     2   2   2   2   2   2   2   2
#     4  10  23  40  57  87 124 162 195 246 303 354
#     4  10  24  34  59  89 121 162 200 242 307 364
#     4   9  21  38  60  90 124 154 198 250 297 352
#     4  11  22  41  61  90 124 158 202 253 300 354
#     4  11  21  38  61  84 128 161 194 247 308 353
#     4   9  21  40  58  93 121 159 198 252 298 356
#     4  10  22  38  59  90 122 157 198 250 302 356
#     4  10  21  38  63  89 121 155 205 246 299 362
#
# _framework density 21.356272000000001
#
# number of rings (size 3 to 8) (size 9 to 14) (size 15 to 20)
#    0.750    1.250    1.250    1.500    5.250    1.000 
#    2.250    0.625    0.000   10.500    0.000    0.000 
#    0.000    0.000    0.000    0.000    0.000    0.000 
#
# Total GULP energy -89151.728756 kJ/mol
# GULP energy per Si atom -5571.983047 kJ/mol
# Density = 2.130766 g / cm^3
# Si number density = 21.356272 Si / 1000 Ang^3
#
#
#
# Elastic Constant Matrix: (Units=GPa)
#
#
# Indices 1 2 3 4 5 6 
#
# 1 34.2980 32.3117 29.5635 -7.4827 1.6903 -19.6550
# 2 32.3117 101.0005 47.6835 0.0558 29.2701 -24.8861
# 3 29.5635 47.6835 109.0984 -2.7482 -2.8848 3.1824
# 4 -7.4827 0.0558 -2.7482 37.1042 -4.0572 11.5995
# 5 1.6903 29.2701 -2.8848 -4.0572 33.9991 -12.3592
# 6 -19.6550 -24.8861 3.1824 11.5995 -12.3592 28.4541
#
#
#
# Elastic Compliance Matrix: (Units=1/GPa)
#
#
# Indices 1 2 3 4 5 6 
#
# 1 0.105425 -0.010809 -0.025440 -0.002436 0.030930 0.080643
# 2 -0.010809 0.026811 -0.009894 -0.008898 -0.020086 0.011992
# 3 -0.025440 -0.009894 0.021465 0.006179 0.001211 -0.030620
# 4 -0.002436 -0.008898 0.006179 0.034373 0.004301 -0.022300
# 5 0.030930 -0.020086 0.001211 0.004301 0.055192 0.025881
# 6 0.080643 0.011992 -0.030620 -0.022300 0.025881 0.125095
#
#
# Mechanical properties :
#
#
# Convention : Reuss Voigt Hill
#
# Bulk Modulus (GPa) = 16.28262 51.50159 33.89210
# Shear Modulus (GPa) = 10.39247 28.90069 19.64658
#
# Velocity S-wave (km/s) = 2.20835 3.68267 3.03635
# Velocity P-wave (km/s) = 3.76075 6.50004 5.31007
#
# Compressibility (1/GPa) = 0.06141518
#
# Stress axis : x y z
#
# Youngs Moduli (GPa) = 9.48541 37.29840 46.58735
#
# Poissons Ratio (x) = 0.40315 1.18517
# Poissons Ratio (y) = 0.10253 0.46095
# Poissons Ratio (z) = 0.24131 0.36904
#
# Static dielectric constant tensor:
#      x y z
#    x 1.796090 -0.020290 0.019670 
#    y -0.020290 1.836650 -0.014680 
#    z 0.019670 -0.014680 1.807170 
# 
# From -- ./inp_files/81712.got.cif
#   From: 2010.05.17/outbox.cif.g08.bks.cpg/sg2_41_cif.got.tgz:81712.got - 2010.06.03 11:33:40.
