data_PCOD9005657
_publ_section_title
;
Structure prediction by ZEFSAII (Michael W. Deem and Ramdas Pophale) SiO2 
 PCOD9005657
Probable space group: P -1
;
_chemical_formula_sum "Si O2"
_cell_formula_units_Z 16
_cell_length_a 12.492722
_cell_length_b 13.025273
_cell_length_c 14.517328
_cell_angle_alpha 125.827160
_cell_angle_beta 148.221227
_cell_angle_gamma 38.039773
_cell_volume 740.370907
_symmetry_space_group_name_H-M "P -1"
_symmetry_group_IT_number 2
_symmetry_cell_setting 'triclinic'
loop_
_space_group_symop_operation_xyz
x,y,z
-x,-y,-z
loop_
_atom_site_type_symbol
_atom_site_label
_atom_site_fract_x
_atom_site_fract_y
_atom_site_fract_z
Si Si1 0.952708 0.057308 0.188070
Si Si2 0.092881 0.596312 0.234035
Si Si3 0.315525 0.591085 0.733919
Si Si4 0.231786 0.023470 0.819209
Si Si5 0.433620 0.334866 0.192376
Si Si6 0.024934 0.517736 0.344936
Si Si7 0.547265 0.832678 0.447629
Si Si8 0.482420 0.711913 0.152438
O O1 0.893497 0.219948 0.274580
O O2 0.811271 0.017213 0.132234
O O3 0.809581 0.129055 0.021660
O O4 0.273663 0.889111 0.323670
O O5 0.355010 0.443115 0.284304
O O6 0.095292 0.539577 0.308046
O O7 0.023377 0.775042 0.281959
O O8 0.829494 0.640289 0.014666
O O9 0.513789 0.586180 0.808739
O O10 0.146627 0.564257 0.533402
O O11 0.478266 0.441326 0.851257
O O12 0.305964 0.872622 0.728382
O O13 0.500000 0.000000 0.000000
O O14 0.184030 0.321132 0.380312
O O15 0.702430 0.634579 0.190155
O O16 0.562493 0.773928 0.324743
O O17 0.500000 0.000000 0.500000
#
# Coordination Sequence:
#
# PCOD9005657 Si02
#       8
#     2   2   2   2   2   2   2   2
#     4  11  22  40  64  95 120 165 213 259 311 372
#     4  10  21  40  63  85 127 164 215 255 311 372
#     4  10  21  38  63  87 127 156 205 258 315 376
#     4   9  19  38  61  88 126 157 209 267 305 362
#     4   9  20  39  60  93 118 166 212 263 305 371
#     4  11  23  41  62  91 124 172 199 253 326 373
#     4  11  24  42  58  94 134 158 203 262 318 377
#     4  11  22  40  66  89 122 167 212 251 313 377
#
# _framework density 21.610789
#
# number of rings (size 3 to 8) (size 9 to 14) (size 15 to 20)
#    0.000    1.750    0.000    6.000    3.500    1.500 
#   11.250    1.250    0.000    0.000    0.000    0.000 
#    0.000    0.000    0.000    0.000    0.000    0.000 
#
# Total GULP energy -89423.732666 kJ/mol
# GULP energy per Si atom -5588.983292 kJ/mol
# Density = 2.156160 g / cm^3
# Si number density = 21.610789 Si / 1000 Ang^3
#
#
#
# Elastic Constant Matrix: (Units=GPa)
#
#
# Indices 1 2 3 4 5 6 
#
# 1 127.0777 49.6425 4.9890 7.8430 -6.4696 -12.5362
# 2 49.6425 120.7707 15.1448 8.2323 -14.5569 1.5414
# 3 4.9890 15.1448 24.6315 -2.9653 -3.0667 -5.6772
# 4 7.8430 8.2323 -2.9653 12.6818 -5.7316 7.4197
# 5 -6.4696 -14.5569 -3.0667 -5.7316 34.1701 2.2393
# 6 -12.5362 1.5414 -5.6772 7.4197 2.2393 33.8075
#
#
#
# Elastic Compliance Matrix: (Units=1/GPa)
#
#
# Indices 1 2 3 4 5 6 
#
# 1 0.010437 -0.004089 0.000666 -0.007768 -0.001400 0.005966
# 2 -0.004089 0.011473 -0.006881 -0.003622 0.003059 -0.002602
# 3 0.000666 -0.006881 0.048014 0.013684 0.003446 0.005392
# 4 -0.007768 -0.003622 0.013684 0.113304 0.018959 -0.026540
# 5 -0.001400 0.003059 0.003446 0.018959 0.034219 -0.006507
# 6 0.005966 -0.002602 0.005392 -0.026540 -0.006507 0.039071
#
#
# Mechanical properties :
#
#
# Convention : Reuss Voigt Hill
#
# Bulk Modulus (GPa) = 20.27782 45.78139 33.02961
# Shear Modulus (GPa) = 17.03202 29.64546 23.33874
#
# Velocity S-wave (km/s) = 2.81040 3.70779 3.28984
# Velocity P-wave (km/s) = 4.46483 6.28973 5.45415
#
# Compressibility (1/GPa) = 0.04931497
#
# Stress axis : x y z
#
# Youngs Moduli (GPa) = 95.81182 87.16404 20.82747
#
# Poissons Ratio (x) = 0.35642 -0.01387
# Poissons Ratio (y) = 0.39178 0.14331
# Poissons Ratio (z) = -0.06379 0.59976
#
# Static dielectric constant tensor:
#      x y z
#    x 1.772300 -0.020610 0.027940 
#    y -0.020610 1.794120 0.010950 
#    z 0.027940 0.010950 1.782090 
# 
# From -- ./inp_files/225841.got.cif
#   From: 2010.05.17/outbox.cif.g08.bks.cpg/sg2_113_cif.got.tgz:225841.got - 2010.06.03 11:33:40.
