data_PCOD9005466
_publ_section_title
;
Structure prediction by ZEFSAII (Michael W. Deem and Ramdas Pophale) SiO2 
 PCOD9005466
Probable space group: P -1
;
_chemical_formula_sum "Si O2"
_cell_formula_units_Z 16
_cell_length_a 11.302658
_cell_length_b 8.599871
_cell_length_c 10.921726
_cell_angle_alpha 140.789903
_cell_angle_beta 99.412226
_cell_angle_gamma 87.470313
_cell_volume 656.247439
_symmetry_space_group_name_H-M "P -1"
_symmetry_group_IT_number 2
_symmetry_cell_setting 'triclinic'
loop_
_space_group_symop_operation_xyz
x,y,z
-x,-y,-z
loop_
_atom_site_type_symbol
_atom_site_label
_atom_site_fract_x
_atom_site_fract_y
_atom_site_fract_z
Si Si1 0.513800 0.594687 0.698996
Si Si2 0.097482 0.304959 0.803276
Si Si3 0.649222 0.170179 0.576496
Si Si4 0.346327 0.877149 0.973086
Si Si5 0.867986 0.901923 0.821366
Si Si6 0.856178 0.949451 0.570034
Si Si7 0.081403 0.302076 0.058640
Si Si8 0.505926 0.208535 0.815717
O O1 0.500000 0.500000 0.500000
O O2 0.581503 0.393629 0.656359
O O3 0.601389 0.849002 0.897175
O O4 0.382538 0.659630 0.760316
O O5 0.168499 0.263024 0.666110
O O6 0.022553 0.530080 0.893493
O O7 0.160095 0.323888 0.959621
O O8 0.996668 0.064365 0.660036
O O9 0.587857 0.118879 0.666824
O O10 0.788027 0.169955 0.636805
O O11 0.619520 0.956624 0.338930
O O12 0.429895 0.856641 0.091787
O O13 0.211846 0.903208 0.010565
O O14 0.820745 0.863113 0.649246
O O15 0.862179 0.674227 0.779989
O O16 0.005182 0.028120 0.896812
O O17 0.500000 0.500000 0.000000
#
# Coordination Sequence:
#
# PCOD9005466 Si02
#       8
#     2   2   2   2   2   2   2   2
#     4  11  24  42  60  88 131 164 207 255 304 374
#     4   9  20  40  60  88 122 156 202 254 307 373
#     4  11  23  39  63  92 122 164 209 251 309 371
#     4  11  23  41  62  91 125 167 205 255 310 363
#     4  10  21  39  62  89 122 155 207 255 310 368
#     4  10  21  38  62  90 122 156 203 256 310 368
#     4   9  20  40  61  88 119 160 202 252 308 375
#     4  11  22  41  63  90 124 160 208 258 302 367
#
# _framework density 24.381049999999998
#
# number of rings (size 3 to 8) (size 9 to 14) (size 15 to 20)
#    0.000    1.750    3.750    0.000    1.750    2.500 
#    4.500    0.000    0.000    0.000    0.000    0.000 
#    0.000    0.000    0.000    0.000    0.000    0.000 
#
# Total GULP energy -89131.925658 kJ/mol
# GULP energy per Si atom -5570.745354 kJ/mol
# Density = 2.432556 g / cm^3
# Si number density = 24.381050 Si / 1000 Ang^3
#
#
#
# Elastic Constant Matrix: (Units=GPa)
#
#
# Indices 1 2 3 4 5 6 
#
# 1 55.4574 13.4521 20.5352 -13.8641 -12.7502 -6.1389
# 2 13.4521 184.0256 60.1436 -31.5995 -22.0531 -14.1258
# 3 20.5352 60.1436 116.7042 -19.0726 -27.5529 -1.8386
# 4 -13.8641 -31.5995 -19.0726 43.3878 12.1222 -2.3221
# 5 -12.7502 -22.0531 -27.5529 12.1222 35.5054 -3.1372
# 6 -6.1389 -14.1258 -1.8386 -2.3221 -3.1372 22.9952
#
#
#
# Elastic Compliance Matrix: (Units=1/GPa)
#
#
# Indices 1 2 3 4 5 6 
#
# 1 0.022217 0.001428 -0.002157 0.005984 0.005858 0.008039
# 2 0.001428 0.007742 -0.002940 0.004549 0.001984 0.005632
# 3 -0.002157 -0.002940 0.012103 0.000640 0.006532 -0.000459
# 4 0.005984 0.004549 0.000640 0.030096 -0.004194 0.006910
# 5 0.005858 0.001984 0.006532 -0.004194 0.038723 0.008164
# 6 0.008039 0.005632 -0.000459 0.006910 0.008164 0.050868
#
#
# Mechanical properties :
#
#
# Convention : Reuss Voigt Hill
#
# Bulk Modulus (GPa) = 28.80017 60.49436 44.64727
# Shear Modulus (GPa) = 27.67572 37.84810 32.76191
#
# Velocity S-wave (km/s) = 3.37283 3.94427 3.66969
# Velocity P-wave (km/s) = 5.19674 6.75344 6.02557
#
# Compressibility (1/GPa) = 0.03472202
#
# Stress axis : x y z
#
# Youngs Moduli (GPa) = 45.01016 129.16791 82.62290
#
# Poissons Ratio (x) = -0.18441 0.17825
# Poissons Ratio (y) = -0.06426 0.24295
# Poissons Ratio (z) = 0.09711 0.37981
#
# Static dielectric constant tensor:
#      x y z
#    x 2.077840 -0.031570 0.065740 
#    y -0.031570 2.062850 -0.151170 
#    z 0.065740 -0.151170 2.101810 
# 
# From -- ./inp_files/418650.got.cif
#   From: 2010.05.17/outbox.cif.g08.bks.cpg/sg2_210_cif.got.tgz:418650.got - 2010.06.03 11:33:40.
