data_PCOD9005403
_publ_section_title
;
Structure prediction by ZEFSAII (Michael W. Deem and Ramdas Pophale) SiO2 
 PCOD9005403
Probable space group: P -1
;
_chemical_formula_sum "Si O2"
_cell_formula_units_Z 16
_cell_length_a 23.755018
_cell_length_b 9.482134
_cell_length_c 7.591780
_cell_angle_alpha 67.322416
_cell_angle_beta 68.745829
_cell_angle_gamma 21.736394
_cell_volume 584.281007
_symmetry_space_group_name_H-M "P -1"
_symmetry_group_IT_number 2
_symmetry_cell_setting 'triclinic'
loop_
_space_group_symop_operation_xyz
x,y,z
-x,-y,-z
loop_
_atom_site_type_symbol
_atom_site_label
_atom_site_fract_x
_atom_site_fract_y
_atom_site_fract_z
Si Si1 0.256259 0.960903 0.854954
Si Si2 0.479738 0.656879 0.613377
Si Si3 0.828637 0.114047 0.232674
Si Si4 0.155732 0.328345 0.120209
Si Si5 0.928305 0.440888 0.519036
Si Si6 0.244288 0.438309 0.345056
Si Si7 0.349856 0.172804 0.955881
Si Si8 0.608095 0.628316 0.661337
O O1 0.189707 0.111556 0.053789
O O2 0.131607 0.344163 0.693244
O O3 0.413285 0.689728 0.811016
O O4 0.272188 0.773520 0.809135
O O5 0.500000 0.500000 0.500000
O O6 0.344291 0.090940 0.516606
O O7 0.608206 0.474417 0.620163
O O8 0.740374 0.473443 0.189406
O O9 0.910603 0.877706 0.435662
O O10 0.977528 0.787738 0.095867
O O11 0.257975 0.232633 0.989572
O O12 0.180193 0.258728 0.336450
O O13 0.912545 0.292482 0.616591
O O14 0.249606 0.597382 0.334906
O O15 0.331358 0.237783 0.155263
O O16 0.514286 0.797439 0.861646
O O17 0.500000 0.000000 0.500000
#
# Coordination Sequence:
#
# PCOD9005403 Si02
#       8
#     2   2   2   2   2   2   2   2
#     4  11  19  39  61  86 121 166 193 247 307 346
#     4  10  22  40  62  85 117 156 204 249 294 356
#     4  10  22  35  63  88 120 156 200 244 291 367
#     4   9  20  37  61  83 120 161 197 243 301 345
#     4   8  20  37  60  89 122 157 198 247 297 349
#     4   9  20  38  63  83 119 155 191 248 301 349
#     4  11  20  40  61  87 121 157 191 249 307 343
#     4  10  21  38  62  86 116 156 199 242 301 358
#
# _framework density 27.384084000000001
#
# number of rings (size 3 to 8) (size 9 to 14) (size 15 to 20)
#    0.750    1.500    1.250    1.500    3.500    0.000 
#    0.000    7.500    0.000    0.000    0.000    0.000 
#    0.000    0.000    0.000    0.000    0.000    0.000 
#
# Total GULP energy -89507.456400 kJ/mol
# GULP energy per Si atom -5594.216025 kJ/mol
# Density = 2.732176 g / cm^3
# Si number density = 27.384084 Si / 1000 Ang^3
#
#
#
# Elastic Constant Matrix: (Units=GPa)
#
#
# Indices 1 2 3 4 5 6 
#
# 1 222.5127 41.1062 30.6877 7.2362 9.2166 3.8257
# 2 41.1062 65.9980 14.9434 11.2414 5.5440 13.3545
# 3 30.6877 14.9434 104.6321 5.0906 13.5630 0.0557
# 4 7.2362 11.2414 5.0906 49.2528 4.3179 7.2530
# 5 9.2166 5.5440 13.5630 4.3179 38.9276 12.7523
# 6 3.8257 13.3545 0.0557 7.2530 12.7523 24.8948
#
#
#
# Elastic Compliance Matrix: (Units=1/GPa)
#
#
# Indices 1 2 3 4 5 6 
#
# 1 0.005241 -0.003250 -0.000954 -0.000060 -0.000905 0.001421
# 2 -0.003250 0.020055 -0.002101 -0.002510 0.002455 -0.010780
# 3 -0.000954 -0.002101 0.010729 -0.000648 -0.004341 0.003662
# 4 -0.000060 -0.002510 -0.000648 0.021685 -0.000220 -0.004848
# 5 -0.000905 0.002455 -0.004341 -0.000220 0.032987 -0.018002
# 6 0.001421 -0.010780 0.003662 -0.004848 -0.018002 0.056360
#
#
# Mechanical properties :
#
#
# Convention : Reuss Voigt Hill
#
# Bulk Modulus (GPa) = 42.70704 62.95748 52.83226
# Shear Modulus (GPa) = 29.85575 43.04207 36.44891
#
# Velocity S-wave (km/s) = 3.30549 3.96888 3.65228
# Velocity P-wave (km/s) = 5.49525 6.63650 6.09266
#
# Compressibility (1/GPa) = 0.02341534
#
# Stress axis : x y z
#
# Youngs Moduli (GPa) = 190.80475 49.86406 93.20181
#
# Poissons Ratio (x) = 0.16204 0.08888
# Poissons Ratio (y) = 0.62006 0.19586
# Poissons Ratio (z) = 0.18195 0.10479
#
# Static dielectric constant tensor:
#      x y z
#    x 2.130580 -0.018220 -0.011530 
#    y -0.018220 2.171050 -0.001150 
#    z -0.011530 -0.001150 2.170150 
# 
# From -- ./inp_files/351731.got.cif
#   From: 2010.05.17/outbox.cif.g08.bks.cpg/sg2_176_cif.got.tgz:351731.got - 2010.06.03 11:33:40.
