data_PCOD9005972
_publ_section_title
;
Structure prediction by ZEFSAII (Michael W. Deem and Ramdas Pophale) SiO2 
 PCOD9005972
Probable space group: P -1
;
_chemical_formula_sum "Si O2"
_cell_formula_units_Z 15
_cell_length_a 15.976546
_cell_length_b 10.762299
_cell_length_c 8.967535
_cell_angle_alpha 139.451443
_cell_angle_beta 54.192118
_cell_angle_gamma 146.975869
_cell_volume 540.372163
_symmetry_space_group_name_H-M "P -1"
_symmetry_group_IT_number 2
_symmetry_cell_setting 'triclinic'
loop_
_space_group_symop_operation_xyz
x,y,z
-x,-y,-z
loop_
_atom_site_type_symbol
_atom_site_label
_atom_site_fract_x
_atom_site_fract_y
_atom_site_fract_z
Si Si1 0.851575 0.647543 0.849734
Si Si2 0.301135 0.133742 0.321576
Si Si3 0.845585 0.443979 0.189888
Si Si4 0.500000 0.000000 0.500000
Si Si5 0.513237 0.142981 0.268930
Si Si6 0.179877 0.752993 0.661193
Si Si7 0.905745 0.840352 0.278861
Si Si8 0.765738 0.769424 0.824763
O O1 0.883531 0.474388 0.610820
O O2 0.708483 0.524946 0.778021
O O3 0.814379 0.618618 0.034263
O O4 0.000000 0.000000 0.000000
O O5 0.440771 0.240846 0.373240
O O6 0.202410 0.142533 0.533265
O O7 0.323781 0.260751 0.247941
O O8 0.205079 0.808490 0.084107
O O9 0.696919 0.373161 0.309990
O O10 0.905113 0.442586 0.280496
O O11 0.944847 0.724180 0.245152
O O12 0.453293 0.003332 0.368367
O O13 0.638452 0.052670 0.341870
O O14 0.500000 0.000000 0.000000
O O15 0.187828 0.990394 0.895817
O O16 0.080122 0.122793 0.300050
#
# Coordination Sequence:
#
# PCOD9005972 Si02
#       8
#     2   2   2   1   2   2   2   2
#     4  10  24  40  59  93 132 172 219 269 324 397
#     4  10  21  38  64  90 127 171 210 276 323 394
#     4   9  21  40  63  94 124 169 221 271 332 391
#     4  10  22  40  72 100 130 176 220 282 334 394
#     4   9  20  39  64  99 128 168 221 273 331 398
#     4  10  22  42  68  91 129 177 217 274 334 392
#     4  11  23  36  61  95 129 171 218 270 329 399
#     4  10  23  42  62  93 131 176 222 273 330 394
#
# _framework density 27.758647
#
# number of rings (size 3 to 8) (size 9 to 14) (size 15 to 20)
#    0.000    2.133    0.000    2.000    5.600    8.000 
#    0.000    0.667    0.000    0.000    0.000    0.000 
#    0.000    0.000    0.000    0.000    0.000    0.000 
#
# Total GULP energy -83568.505296 kJ/mol
# GULP energy per Si atom -5571.233686 kJ/mol
# Density = 2.769547 g / cm^3
# Si number density = 27.758647 Si / 1000 Ang^3
#
#
#
# Elastic Constant Matrix: (Units=GPa)
#
#
# Indices 1 2 3 4 5 6 
#
# 1 217.8829 35.6727 102.4528 -13.5218 -8.3773 -24.5088
# 2 35.6727 38.9905 24.2022 -18.0410 -2.2358 -15.0273
# 3 102.4528 24.2022 229.6638 -0.3581 -7.7872 -6.2651
# 4 -13.5218 -18.0410 -0.3581 32.4210 -5.6580 6.3472
# 5 -8.3773 -2.2358 -7.7872 -5.6580 76.7286 6.0114
# 6 -24.5088 -15.0273 -6.2651 6.3472 6.0114 43.6590
#
#
#
# Elastic Compliance Matrix: (Units=1/GPa)
#
#
# Indices 1 2 3 4 5 6 
#
# 1 0.006610 -0.003479 -0.002517 0.000431 0.000236 0.002057
# 2 -0.003479 0.044289 -0.002771 0.021549 0.001470 0.009558
# 3 -0.002517 -0.002771 0.005737 -0.002259 0.000157 -0.001237
# 4 0.000431 0.021549 -0.002259 0.043521 0.003615 0.000510
# 5 0.000236 0.001470 0.000157 0.003615 0.013519 -0.001726
# 6 0.002057 0.009558 -0.001237 0.000510 -0.001726 0.027335
#
#
# Mechanical properties :
#
#
# Convention : Reuss Voigt Hill
#
# Bulk Modulus (GPa) = 25.57448 90.13250 57.85349
# Shear Modulus (GPa) = 29.14065 52.17570 40.65817
#
# Velocity S-wave (km/s) = 3.24356 4.34016 3.83130
# Velocity P-wave (km/s) = 4.82293 7.59319 6.36071
#
# Compressibility (1/GPa) = 0.03910147
#
# Stress axis : x y z
#
# Youngs Moduli (GPa) = 151.28215 22.57882 174.29931
#
# Poissons Ratio (x) = 0.07856 0.43878
# Poissons Ratio (y) = 0.52635 0.48298
# Poissons Ratio (z) = 0.38083 0.06257
#
# Static dielectric constant tensor:
#      x y z
#    x 2.198920 -0.034760 0.101430 
#    y -0.034760 2.454520 -0.002260 
#    z 0.101430 -0.002260 2.167280 
# 
# From -- ./inp_files/331412.got.cif
#   From: 2010.05.17/outbox.cif.g08.bks.cpg/sg2_166_cif.got.tgz:331412.got - 2010.06.03 11:33:40.
