data_PCOD9005047
_publ_section_title
;
Structure prediction by ZEFSAII (Michael W. Deem and Ramdas Pophale) SiO2 
 PCOD9005047
Probable space group: P -1
;
_chemical_formula_sum "Si O2"
_cell_formula_units_Z 16
_cell_length_a 14.073468
_cell_length_b 13.876758
_cell_length_c 9.745379
_cell_angle_alpha 132.307137
_cell_angle_beta 47.228995
_cell_angle_gamma 150.180005
_cell_volume 676.124006
_symmetry_space_group_name_H-M "P -1"
_symmetry_group_IT_number 2
_symmetry_cell_setting 'triclinic'
loop_
_space_group_symop_operation_xyz
x,y,z
-x,-y,-z
loop_
_atom_site_type_symbol
_atom_site_label
_atom_site_fract_x
_atom_site_fract_y
_atom_site_fract_z
Si Si1 0.530606 0.924220 0.553172
Si Si2 0.737474 0.669282 0.419724
Si Si3 0.689238 0.539400 0.054591
Si Si4 0.253530 0.944128 0.775328
Si Si5 0.767026 0.461395 0.396803
Si Si6 0.886320 0.407177 0.673244
Si Si7 0.857896 0.726918 0.803446
Si Si8 0.230979 0.134517 0.180610
O O1 0.585811 0.879318 0.322841
O O2 0.715482 0.164150 0.621333
O O3 0.345568 0.872894 0.642286
O O4 0.444469 0.773163 0.616419
O O5 0.500000 0.500000 0.500000
O O6 0.787298 0.688517 0.230377
O O7 0.793241 0.578097 0.356143
O O8 0.812635 0.848197 0.608403
O O9 0.459311 0.347263 0.130181
O O10 0.785180 0.469212 0.866035
O O11 0.716165 0.641223 0.987890
O O12 0.054093 0.819447 0.769352
O O13 0.227473 0.984959 0.989655
O O14 0.772173 0.557728 0.618387
O O15 0.951070 0.506393 0.288434
O O16 0.000000 0.500000 0.500000
O O17 0.894630 0.881038 0.823252
#
# Coordination Sequence:
#
# PCOD9005047 Si02
#       8
#     2   2   2   2   2   2   2   2
#     4  11  22  35  62  98 131 164 204 264 326 376
#     4   9  23  43  65  85 126 174 216 257 311 381
#     4  11  20  39  63  86 122 170 209 256 325 368
#     4  11  20  35  58  94 132 159 203 267 323 370
#     4  11  22  40  65  96 128 164 211 266 314 376
#     4  12  21  39  65 101 132 160 207 270 318 379
#     4  11  21  35  61  95 122 164 216 261 314 376
#     4  10  21  38  60  88 126 167 212 262 309 380
#
# _framework density 23.664297000000001
#
# number of rings (size 3 to 8) (size 9 to 14) (size 15 to 20)
#    0.000    1.250    3.750    3.750    0.000    2.500 
#    0.000    1.250    5.500    0.000    0.000    0.000 
#    0.000    0.000    0.000    0.000    0.000    0.000 
#
# Total GULP energy -89304.241004 kJ/mol
# GULP energy per Si atom -5581.515063 kJ/mol
# Density = 2.361044 g / cm^3
# Si number density = 23.664297 Si / 1000 Ang^3
#
#
#
# Elastic Constant Matrix: (Units=GPa)
#
#
# Indices 1 2 3 4 5 6 
#
# 1 64.3776 13.2856 15.9777 -4.2902 2.8440 19.6563
# 2 13.2856 87.2749 34.1854 -0.6607 -4.1686 14.1716
# 3 15.9777 34.1854 127.7348 -0.4956 9.5276 2.0980
# 4 -4.2902 -0.6607 -0.4956 28.3323 2.4831 -5.2919
# 5 2.8440 -4.1686 9.5276 2.4831 35.9861 -2.5820
# 6 19.6563 14.1716 2.0980 -5.2919 -2.5820 18.8350
#
#
#
# Elastic Compliance Matrix: (Units=1/GPa)
#
#
# Indices 1 2 3 4 5 6 
#
# 1 0.024124 0.001636 -0.002809 -0.001116 -0.002819 -0.026794
# 2 0.001636 0.015000 -0.004160 -0.002043 0.001929 -0.012839
# 3 -0.002809 -0.004160 0.009399 0.000771 -0.002450 0.004896
# 4 -0.001116 -0.002043 0.000771 0.037684 -0.002026 0.012925
# 5 -0.002819 0.001929 -0.002450 -0.002026 0.029398 0.005224
# 6 -0.026794 -0.012839 0.004896 0.012925 0.005224 0.094517
#
#
# Mechanical properties :
#
#
# Convention : Reuss Voigt Hill
#
# Bulk Modulus (GPa) = 26.41615 45.14274 35.77945
# Shear Modulus (GPa) = 21.42171 31.02659 26.22415
#
# Velocity S-wave (km/s) = 3.01197 3.62486 3.33254
# Velocity P-wave (km/s) = 4.82526 6.05287 5.47359
#
# Compressibility (1/GPa) = 0.03785563
#
# Stress axis : x y z
#
# Youngs Moduli (GPa) = 41.45241 66.66666 106.39665
#
# Poissons Ratio (x) = -0.10905 0.29890
# Poissons Ratio (y) = -0.06780 0.44261
# Poissons Ratio (z) = 0.11645 0.27733
#
# Static dielectric constant tensor:
#      x y z
#    x 1.891290 -0.015460 -0.020330 
#    y -0.015460 2.046070 0.058730 
#    z -0.020330 0.058730 1.979860 
# 
# From -- ./inp_files/315829.got.cif
#   From: 2010.05.17/outbox.cif.g08.bks.cpg/sg2_158_cif.got.tgz:315829.got - 2010.06.03 11:33:40.
