data_PCOD9005363
_publ_section_title
;
Structure prediction by ZEFSAII (Michael W. Deem and Ramdas Pophale) SiO2 
 PCOD9005363
Probable space group: P -1
;
_chemical_formula_sum "Si O2"
_cell_formula_units_Z 16
_cell_length_a 21.835420
_cell_length_b 10.424080
_cell_length_c 16.994497
_cell_angle_alpha 39.757101
_cell_angle_beta 20.436078
_cell_angle_gamma 28.551189
_cell_volume 610.336078
_symmetry_space_group_name_H-M "P -1"
_symmetry_group_IT_number 2
_symmetry_cell_setting 'triclinic'
loop_
_space_group_symop_operation_xyz
x,y,z
-x,-y,-z
loop_
_atom_site_type_symbol
_atom_site_label
_atom_site_fract_x
_atom_site_fract_y
_atom_site_fract_z
Si Si1 0.068665 0.521376 0.066599
Si Si2 0.225947 0.745624 0.292968
Si Si3 0.193824 0.029403 0.423302
Si Si4 0.541258 0.473524 0.177772
Si Si5 0.088517 0.915184 0.764151
Si Si6 0.707550 0.920399 0.458154
Si Si7 0.365365 0.280635 0.580247
Si Si8 0.447002 0.119967 0.182193
O O1 0.911154 0.704565 0.248584
O O2 0.912761 0.476422 0.229435
O O3 0.061170 0.712891 0.924293
O O4 0.332464 0.224358 0.915129
O O5 0.395579 0.486817 0.273565
O O6 0.000000 0.000000 0.500000
O O7 0.075037 0.781537 0.383465
O O8 0.411198 0.782240 0.035347
O O9 0.399971 0.789206 0.225112
O O10 0.196696 0.873994 0.567637
O O11 0.273037 0.180860 0.291963
O O12 0.516530 0.352813 0.340205
O O13 0.827017 0.245064 0.921351
O O14 0.245119 0.898248 0.650242
O O15 0.428682 0.156086 0.648904
O O16 0.709071 0.776945 0.598795
O O17 0.500000 0.000000 0.500000
#
# Coordination Sequence:
#
# PCOD9005363 Si02
#       8
#     2   2   2   2   2   2   2   2
#     4  11  22  37  64  94 131 172 208 260 329 392
#     4  10  24  47  69  94 128 176 224 266 318 384
#     4  10  25  42  66 100 129 171 223 266 320 387
#     4  11  22  43  68  88 135 171 213 274 319 378
#     4  11  23  38  64  99 128 171 214 257 336 387
#     4  10  23  39  61  98 135 163 214 266 322 395
#     4  10  21  38  61  96 128 163 212 261 322 388
#     4  11  25  43  66  99 132 171 215 270 325 377
#
# _framework density 26.215066
#
# number of rings (size 3 to 8) (size 9 to 14) (size 15 to 20)
#    0.000    1.500    2.500    2.625    5.250    4.000 
#    0.000    7.500    0.000    0.000    0.000    0.000 
#    0.000    0.000    0.000    0.000    0.000    0.000 
#
# Total GULP energy -89506.530119 kJ/mol
# GULP energy per Si atom -5594.158132 kJ/mol
# Density = 2.615540 g / cm^3
# Si number density = 26.215066 Si / 1000 Ang^3
#
#
#
# Elastic Constant Matrix: (Units=GPa)
#
#
# Indices 1 2 3 4 5 6 
#
# 1 164.1224 38.7776 37.4057 13.1596 -27.6744 -9.8478
# 2 38.7776 66.6865 35.0223 3.5491 10.4425 -6.8755
# 3 37.4057 35.0223 116.3967 0.2745 -0.2758 1.3760
# 4 13.1596 3.5491 0.2745 37.9835 -0.7101 5.3022
# 5 -27.6744 10.4425 -0.2758 -0.7101 42.6148 3.5025
# 6 -9.8478 -6.8755 1.3760 5.3022 3.5025 21.2116
#
#
#
# Elastic Compliance Matrix: (Units=1/GPa)
#
#
# Indices 1 2 3 4 5 6 
#
# 1 0.009226 -0.005391 -0.001345 -0.002853 0.007078 0.002167
# 2 -0.005391 0.023365 -0.005405 -0.001498 -0.009897 0.007430
# 3 -0.001345 -0.005405 0.010691 0.001406 0.000836 -0.003560
# 4 -0.002853 -0.001498 0.001406 0.028702 -0.000256 -0.009034
# 5 0.007078 -0.009897 0.000836 -0.000256 0.030901 -0.005015
# 6 0.002167 0.007430 -0.003560 -0.009034 -0.005015 0.053875
#
#
# Mechanical properties :
#
#
# Convention : Reuss Voigt Hill
#
# Bulk Modulus (GPa) = 52.63660 63.29076 57.96368
# Shear Modulus (GPa) = 26.68440 36.09532 31.38986
#
# Velocity S-wave (km/s) = 3.19392 3.71468 3.46410
# Velocity P-wave (km/s) = 5.80722 6.52639 6.17728
#
# Compressibility (1/GPa) = 0.01899819
#
# Stress axis : x y z
#
# Youngs Moduli (GPa) = 108.39372 42.79902 93.54019
#
# Poissons Ratio (x) = 0.23075 0.12578
# Poissons Ratio (y) = 0.58440 0.50562
# Poissons Ratio (z) = 0.14575 0.23134
#
# Static dielectric constant tensor:
#      x y z
#    x 2.127650 0.051030 -0.033420 
#    y 0.051030 2.039490 -0.027270 
#    z -0.033420 -0.027270 2.036130 
# 
# From -- ./inp_files/516259.got.cif
#   From: 2010.05.17/outbox.cif.g08.bks.cpg/sg2_259_cif.got.tgz:516259.got - 2010.06.03 11:33:40.
