data_PCOD9005677
_publ_section_title
;
Structure prediction by ZEFSAII (Michael W. Deem and Ramdas Pophale) SiO2 
 PCOD9005677
Probable space group: P -1
;
_chemical_formula_sum "Si O2"
_cell_formula_units_Z 16
_cell_length_a 19.798459
_cell_length_b 9.033454
_cell_length_c 4.946639
_cell_angle_alpha 98.906210
_cell_angle_beta 54.836344
_cell_angle_gamma 117.846194
_cell_volume 631.471279
_symmetry_space_group_name_H-M "P -1"
_symmetry_group_IT_number 2
_symmetry_cell_setting 'triclinic'
loop_
_space_group_symop_operation_xyz
x,y,z
-x,-y,-z
loop_
_atom_site_type_symbol
_atom_site_label
_atom_site_fract_x
_atom_site_fract_y
_atom_site_fract_z
Si Si1 0.518372 0.672388 0.726450
Si Si2 0.651212 0.681750 0.810631
Si Si3 0.465320 0.816848 0.390146
Si Si4 0.113510 0.390746 0.948391
Si Si5 0.260810 0.754313 0.833544
Si Si6 0.167059 0.265323 0.288142
Si Si7 0.249310 0.941514 0.416842
Si Si8 0.938227 0.074780 0.311902
O O1 0.616674 0.675296 0.573934
O O2 0.501080 0.723311 0.489042
O O3 0.436127 0.485978 0.926129
O O4 0.503366 0.799088 0.005531
O O5 0.737973 0.671795 0.745002
O O6 0.683306 0.881215 0.831816
O O7 0.352969 0.729746 0.603409
O O8 0.500000 0.000000 0.500000
O O9 0.173039 0.329288 0.989550
O O10 0.008939 0.270376 0.263587
O O11 0.166596 0.591208 0.912609
O O12 0.113788 0.340685 0.621688
O O13 0.278643 0.906971 0.631198
O O14 0.247413 0.799653 0.180272
O O15 0.110544 0.060777 0.373749
O O16 0.148376 0.934233 0.658875
O O17 0.000000 0.000000 0.000000
#
# Coordination Sequence:
#
# PCOD9005677 Si02
#       8
#     2   2   2   2   2   2   2   2
#     4  11  24  39  65  92 119 162 203 251 301 348
#     4  10  23  41  62  91 124 154 206 256 299 352
#     4  12  24  42  63  89 125 163 202 243 298 362
#     4  11  22  39  62  89 121 159 202 245 296 362
#     4  12  25  41  62  89 123 162 202 244 298 360
#     4  10  21  38  63  89 120 158 198 251 304 352
#     4  11  25  42  63  90 122 160 198 248 303 352
#     4   9  22  41  65  91 120 156 198 247 303 357
#
# _framework density 25.337655999999999
#
# number of rings (size 3 to 8) (size 9 to 14) (size 15 to 20)
#    0.000    1.250    0.000    5.250    0.000   13.000 
#    0.000    0.000    0.000    0.000    0.000    0.000 
#    0.000    0.000    0.000    0.000    0.000    0.000 
#
# Total GULP energy -89445.107833 kJ/mol
# GULP energy per Si atom -5590.319240 kJ/mol
# Density = 2.527999 g / cm^3
# Si number density = 25.337656 Si / 1000 Ang^3
#
#
#
# Elastic Constant Matrix: (Units=GPa)
#
#
# Indices 1 2 3 4 5 6 
#
# 1 120.7863 -15.6711 30.9248 -9.3938 -5.6745 -1.1778
# 2 -15.6711 97.6742 1.8822 -21.3874 -3.5089 22.0254
# 3 30.9248 1.8822 67.7775 6.6580 2.0319 8.0772
# 4 -9.3938 -21.3874 6.6580 43.0730 3.5425 4.0946
# 5 -5.6745 -3.5089 2.0319 3.5425 45.9533 -8.1428
# 6 -1.1778 22.0254 8.0772 4.0946 -8.1428 39.6747
#
#
#
# Elastic Compliance Matrix: (Units=1/GPa)
#
#
# Indices 1 2 3 4 5 6 
#
# 1 0.010402 0.002882 -0.005253 0.004442 0.001322 -0.000409
# 2 0.002882 0.014678 -0.001538 0.009053 -0.000718 -0.008832
# 3 -0.005253 -0.001538 0.018010 -0.004276 -0.001744 -0.002885
# 4 0.004442 0.009053 -0.004276 0.030250 -0.002251 -0.007608
# 5 0.001322 -0.000718 -0.001744 -0.002251 0.023144 0.005775
# 6 -0.000409 -0.008832 -0.002885 -0.007608 0.005775 0.032654
#
#
# Mechanical properties :
#
#
# Convention : Reuss Voigt Hill
#
# Bulk Modulus (GPa) = 28.35101 35.61218 31.98160
# Shear Modulus (GPa) = 33.62205 43.68034 38.65119
#
# Velocity S-wave (km/s) = 3.64670 4.15653 3.90993
# Velocity P-wave (km/s) = 5.38003 6.09272 5.74743
#
# Compressibility (1/GPa) = 0.03527211
#
# Stress axis : x y z
#
# Youngs Moduli (GPa) = 96.13894 68.12755 55.52499
#
# Poissons Ratio (x) = -0.19637 0.29168
# Poissons Ratio (y) = -0.27712 0.08540
# Poissons Ratio (z) = 0.50504 0.10479
#
# Static dielectric constant tensor:
#      x y z
#    x 1.975950 0.012250 -0.038700 
#    y 0.012250 2.025420 0.025620 
#    z -0.038700 0.025620 2.027330 
# 
# From -- ./inp_files/107094.got.cif
#   From: 2010.05.17/outbox.cif.g08.bks.cpg/sg2_54_cif.got.tgz:107094.got - 2010.06.03 11:33:40.
