data_PCOD9005706
_publ_section_title
;
Structure prediction by ZEFSAII (Michael W. Deem and Ramdas Pophale) SiO2 
 PCOD9005706
Probable space group: P -1
;
_chemical_formula_sum "Si O2"
_cell_formula_units_Z 16
_cell_length_a 16.654996
_cell_length_b 19.462175
_cell_length_c 7.576364
_cell_angle_alpha 39.640334
_cell_angle_beta 121.275431
_cell_angle_gamma 150.499669
_cell_volume 676.436447
_symmetry_space_group_name_H-M "P -1"
_symmetry_group_IT_number 2
_symmetry_cell_setting 'triclinic'
loop_
_space_group_symop_operation_xyz
x,y,z
-x,-y,-z
loop_
_atom_site_type_symbol
_atom_site_label
_atom_site_fract_x
_atom_site_fract_y
_atom_site_fract_z
Si Si1 0.258410 0.942460 0.410436
Si Si2 0.644368 0.008981 0.118242
Si Si3 0.514442 0.516375 0.700779
Si Si4 0.609670 0.132539 0.148247
Si Si5 0.161492 0.457518 0.211279
Si Si6 0.415120 0.645739 0.814793
Si Si7 0.885449 0.811939 0.103603
Si Si8 0.193957 0.011749 0.846290
O O1 0.374880 0.947440 0.532073
O O2 0.053363 0.723116 0.686459
O O3 0.387347 0.147763 0.266266
O O4 0.227569 0.971443 0.135745
O O5 0.460465 0.760052 0.467320
O O6 0.796567 0.067162 0.141096
O O7 0.690840 0.143698 0.051380
O O8 0.579657 0.010067 0.870382
O O9 0.500000 0.500000 0.500000
O O10 0.302010 0.315475 0.916761
O O11 0.633306 0.736316 0.461613
O O12 0.613131 0.509379 0.909375
O O13 0.732058 0.351419 0.924173
O O14 0.171173 0.350900 0.528998
O O15 0.260764 0.546131 0.960455
O O16 0.000000 0.000000 0.000000
O O17 0.011490 0.899022 0.910521
#
# Coordination Sequence:
#
# PCOD9005706 Si02
#       8
#     2   2   2   2   2   2   2   2
#     4  10  21  38  63  91 116 156 210 263 297 346
#     4  10  24  41  58  88 130 172 195 247 319 369
#     4  12  19  36  64  96 116 155 204 255 301 356
#     4  10  22  41  62  88 123 163 215 251 302 366
#     4  11  21  38  65  94 117 157 213 262 299 351
#     4  11  22  39  62  92 128 159 202 253 308 370
#     4  11  20  35  61  94 119 149 199 256 307 350
#     4  11  22  39  61  90 127 157 200 252 308 366
#
# _framework density 23.653368
#
# number of rings (size 3 to 8) (size 9 to 14) (size 15 to 20)
#    0.000    1.250    3.750    2.625    0.000    6.000 
#    0.000   11.250    0.000    0.000    0.000    0.000 
#    0.000    0.000    0.000    0.000    0.000    0.000 
#
# Total GULP energy -89441.323593 kJ/mol
# GULP energy per Si atom -5590.082725 kJ/mol
# Density = 2.359953 g / cm^3
# Si number density = 23.653368 Si / 1000 Ang^3
#
#
#
# Elastic Constant Matrix: (Units=GPa)
#
#
# Indices 1 2 3 4 5 6 
#
# 1 158.4299 19.7883 31.0068 -10.7931 18.7736 6.4499
# 2 19.7883 43.5835 17.6610 1.8087 4.7413 5.5027
# 3 31.0068 17.6610 86.1231 2.5706 18.9318 -6.7115
# 4 -10.7931 1.8087 2.5706 33.5800 -0.3274 -5.2290
# 5 18.7736 4.7413 18.9318 -0.3274 36.6937 -3.5902
# 6 6.4499 5.5027 -6.7115 -5.2290 -3.5902 33.6630
#
#
#
# Elastic Compliance Matrix: (Units=1/GPa)
#
#
# Indices 1 2 3 4 5 6 
#
# 1 0.007495 -0.002310 -0.001805 0.002438 -0.002714 -0.001329
# 2 -0.002310 0.026815 -0.004945 -0.002647 -0.000280 -0.005368
# 3 -0.001805 -0.004945 0.014834 -0.000985 -0.005773 0.003343
# 4 0.002438 -0.002647 -0.000985 0.031517 0.000344 0.004701
# 5 -0.002714 -0.000280 -0.005773 0.000344 0.031940 0.002875
# 6 -0.001329 -0.005368 0.003343 0.004701 0.002875 0.032542
#
#
# Mechanical properties :
#
#
# Convention : Reuss Voigt Hill
#
# Bulk Modulus (GPa) = 32.23172 47.22761 39.72967
# Shear Modulus (GPa) = 28.80121 35.43271 32.11696
#
# Velocity S-wave (km/s) = 3.49325 3.87460 3.68886
# Velocity P-wave (km/s) = 5.47053 6.32666 5.91410
#
# Compressibility (1/GPa) = 0.03102533
#
# Stress axis : x y z
#
# Youngs Moduli (GPa) = 133.41436 37.29245 67.41280
#
# Poissons Ratio (x) = 0.08615 0.12166
# Poissons Ratio (y) = 0.30820 0.33334
# Poissons Ratio (z) = 0.24077 0.18440
#
# Static dielectric constant tensor:
#      x y z
#    x 2.011150 -0.031990 -0.053910 
#    y -0.031990 1.872580 0.050050 
#    z -0.053910 0.050050 1.928520 
# 
# From -- ./inp_files/337467.got.cif
#   From: 2010.05.17/outbox.cif.g08.bks.cpg/sg2_169_cif.got.tgz:337467.got - 2010.06.03 11:33:40.
