data_PCOD9005014
_publ_section_title
;
Structure prediction by ZEFSAII (Michael W. Deem and Ramdas Pophale) SiO2 
 PCOD9005014
Probable space group: P -1
;
_chemical_formula_sum "Si O2"
_cell_formula_units_Z 14
_cell_length_a 7.116058
_cell_length_b 14.311424
_cell_length_c 9.229208
_cell_angle_alpha 70.690303
_cell_angle_beta 130.255673
_cell_angle_gamma 126.239155
_cell_volume 576.536243
_symmetry_space_group_name_H-M "P -1"
_symmetry_group_IT_number 2
_symmetry_cell_setting 'triclinic'
loop_
_space_group_symop_operation_xyz
x,y,z
-x,-y,-z
loop_
_atom_site_type_symbol
_atom_site_label
_atom_site_fract_x
_atom_site_fract_y
_atom_site_fract_z
Si Si1 0.227470 0.809913 0.672453
Si Si2 0.500201 0.616307 0.922185
Si Si3 0.170721 0.010527 0.433064
Si Si4 0.397556 0.720446 0.551596
Si Si5 0.940461 0.605852 0.803884
Si Si6 0.318425 0.643427 0.232335
Si Si7 0.276073 0.178655 0.887526
O O1 0.300729 0.932993 0.586631
O O2 0.185604 0.734334 0.547257
O O3 0.953882 0.717422 0.682276
O O4 0.496200 0.836725 0.896183
O O5 0.500419 0.650897 0.738124
O O6 0.205558 0.600525 0.856921
O O7 0.500000 0.500000 0.000000
O O8 0.753617 0.729810 0.074567
O O9 0.984306 0.943640 0.232522
O O10 0.364379 0.145246 0.426420
O O11 0.000000 0.000000 0.500000
O O12 0.284079 0.660860 0.372935
O O13 0.677658 0.474712 0.725903
O O14 0.051821 0.629483 0.011418
O O15 0.585922 0.752998 0.230020
#
# Coordination Sequence:
#
# PCOD9005014 Si02
#       7
#     2   2   2   2   2   2   2
#     4   9  22  40  60  85 121 160 195 249 303 349
#     4   9  20  38  57  88 120 153 194 249 304 356
#     4  12  23  40  61  91 120 159 209 247 290 353
#     4  10  21  38  60  87 118 157 207 242 294 363
#     4   8  18  36  57  82 120 157 195 239 310 359
#     4   9  16  36  57  84 116 151 197 248 288 357
#     4   9  21  41  59  85 129 155 199 250 292 358
#
# _framework density 24.28295
#
# number of rings (size 3 to 8) (size 9 to 14) (size 15 to 20)
#    0.000    3.143    1.429    0.429    0.000    7.429 
#   10.286    3.571    0.000    0.000    0.000    0.000 
#    0.000    0.000    0.000    0.000    0.000    0.000 
#
# Total GULP energy -78167.161826 kJ/mol
# GULP energy per Si atom -5583.368702 kJ/mol
# Density = 2.422768 g / cm^3
# Si number density = 24.282950 Si / 1000 Ang^3
#
#
#
# Elastic Constant Matrix: (Units=GPa)
#
#
# Indices 1 2 3 4 5 6 
#
# 1 42.3586 3.2550 36.4704 -3.5033 -18.3370 -7.9448
# 2 3.2550 134.5480 61.6083 -5.9712 -5.1732 -15.0487
# 3 36.4704 61.6083 185.8696 -3.9610 -41.6361 -21.0694
# 4 -3.5033 -5.9712 -3.9610 53.1170 -6.7356 -3.6630
# 5 -18.3370 -5.1732 -41.6361 -6.7356 41.7524 -4.6742
# 6 -7.9448 -15.0487 -21.0694 -3.6630 -4.6742 36.1936
#
#
#
# Elastic Compliance Matrix: (Units=1/GPa)
#
#
# Indices 1 2 3 4 5 6 
#
# 1 0.034307 0.002429 -0.003354 0.004640 0.013761 0.008835
# 2 0.002429 0.009217 -0.003411 0.001010 -0.000763 0.002384
# 3 -0.003354 -0.003411 0.009634 0.001514 0.008483 0.004703
# 4 0.004640 0.001010 0.001514 0.020697 0.007616 0.005398
# 5 0.013761 -0.000763 0.008483 0.007616 0.041124 0.013723
# 6 0.008835 0.002384 0.004703 0.005398 0.013723 0.035616
#
#
# Mechanical properties :
#
#
# Convention : Reuss Voigt Hill
#
# Bulk Modulus (GPa) = 22.47844 62.82706 42.65275
# Shear Modulus (GPa) = 28.71990 43.64210 36.18100
#
# Velocity S-wave (km/s) = 3.44280 4.24398 3.86421
# Velocity P-wave (km/s) = 5.00807 7.06712 6.12474
#
# Compressibility (1/GPa) = 0.04448707
#
# Stress axis : x y z
#
# Youngs Moduli (GPa) = 29.14872 108.48960 103.79631
#
# Poissons Ratio (x) = -0.26350 0.34808
# Poissons Ratio (y) = -0.07080 0.35405
# Poissons Ratio (z) = 0.09775 0.37006
#
# Static dielectric constant tensor:
#      x y z
#    x 2.119590 -0.021200 0.071590 
#    y -0.021200 1.953780 -0.034660 
#    z 0.071590 -0.034660 1.942800 
# 
# From -- ./inp_files/196333.got.cif
#   From: 2010.05.17/outbox.cif.g08.bks.cpg/sg2_99_cif.got.tgz:196333.got - 2010.06.03 11:33:40.
