data_PCOD9005769
_publ_section_title
;
Structure prediction by ZEFSAII (Michael W. Deem and Ramdas Pophale) SiO2 
 PCOD9005769
Probable space group: P -1
;
_chemical_formula_sum "Si O2"
_cell_formula_units_Z 15
_cell_length_a 11.386433
_cell_length_b 14.508752
_cell_length_c 11.525011
_cell_angle_alpha 152.285947
_cell_angle_beta 65.071593
_cell_angle_gamma 130.405356
_cell_volume 608.675700
_symmetry_space_group_name_H-M "P -1"
_symmetry_group_IT_number 2
_symmetry_cell_setting 'triclinic'
loop_
_space_group_symop_operation_xyz
x,y,z
-x,-y,-z
loop_
_atom_site_type_symbol
_atom_site_label
_atom_site_fract_x
_atom_site_fract_y
_atom_site_fract_z
Si Si1 0.324807 0.888811 0.893638
Si Si2 0.901512 0.701395 0.069156
Si Si3 0.500482 0.881726 0.609645
Si Si4 0.190420 0.505852 0.863943
Si Si5 0.164629 0.939135 0.602468
Si Si6 0.285581 0.184012 0.406405
Si Si7 0.500000 0.000000 0.500000
Si Si8 0.017778 0.575422 0.442100
O O1 0.184427 0.615407 0.711394
O O2 0.359672 0.869033 0.724077
O O3 0.500000 0.000000 0.000000
O O4 0.286768 0.073159 0.158340
O O5 0.818134 0.554810 0.062563
O O6 0.826587 0.830027 0.191774
O O7 0.104208 0.952697 0.286185
O O8 0.914612 0.542751 0.791231
O O9 0.558059 0.746497 0.505916
O O10 0.441987 0.803605 0.416297
O O11 0.678489 0.183177 0.858162
O O12 0.282689 0.415306 0.660776
O O13 0.995882 0.322787 0.693871
O O14 0.339092 0.994117 0.582583
O O15 0.104057 0.857586 0.670682
O O16 0.000000 0.500000 0.500000
#
# Coordination Sequence:
#
# PCOD9005769 Si02
#       8
#     2   2   2   2   2   2   1   2
#     4   9  19  37  59  85 115 150 198 251 293 341
#     4  10  21  38  63  93 119 154 209 255 295 357
#     4  11  22  38  59  88 125 158 197 249 299 355
#     4  11  21  38  67  92 114 160 209 245 301 361
#     4  11  23  41  64  90 123 159 201 256 305 357
#     4   9  19  37  61  86 117 154 203 256 294 347
#     4  12  24  38  58  88 128 160 188 246 314 354
#     4  11  23  41  63  87 121 168 205 236 300 372
#
# _framework density 24.643666
#
# number of rings (size 3 to 8) (size 9 to 14) (size 15 to 20)
#    0.000    1.600    0.000    7.200    0.000    2.667 
#    0.000   14.000    0.000    0.000    0.000    0.000 
#    0.000    0.000    0.000    0.000    0.000    0.000 
#
# Total GULP energy -83596.874090 kJ/mol
# GULP energy per Si atom -5573.124939 kJ/mol
# Density = 2.458758 g / cm^3
# Si number density = 24.643666 Si / 1000 Ang^3
#
#
#
# Elastic Constant Matrix: (Units=GPa)
#
#
# Indices 1 2 3 4 5 6 
#
# 1 135.8096 54.3972 19.9133 -5.5745 -32.6498 1.3310
# 2 54.3972 144.9261 19.8110 -18.1326 -7.0320 4.7468
# 3 19.9133 19.8110 44.2684 -7.2929 -17.3603 -5.7395
# 4 -5.5745 -18.1326 -7.2929 35.3402 -2.9691 1.3059
# 5 -32.6498 -7.0320 -17.3603 -2.9691 30.0459 -5.8389
# 6 1.3310 4.7468 -5.7395 1.3059 -5.8389 47.2509
#
#
#
# Elastic Compliance Matrix: (Units=1/GPa)
#
#
# Indices 1 2 3 4 5 6 
#
# 1 0.012064 -0.004065 0.002426 0.001426 0.014103 0.002066
# 2 -0.004065 0.009159 -0.003820 0.002958 -0.004560 -0.001915
# 3 0.002426 -0.003820 0.034764 0.007341 0.023972 0.007298
# 4 0.001426 0.002958 0.007341 0.032349 0.009851 0.000878
# 5 0.014103 -0.004560 0.023972 0.009851 0.064436 0.010663
# 6 0.002066 -0.001915 0.007298 0.000878 0.010663 0.023478
#
#
# Mechanical properties :
#
#
# Convention : Reuss Voigt Hill
#
# Bulk Modulus (GPa) = 22.18795 57.02747 39.60771
# Shear Modulus (GPa) = 24.72889 37.91957 31.32423
#
# Velocity S-wave (km/s) = 3.17118 3.92690 3.56910
# Velocity P-wave (km/s) = 4.73620 6.61451 5.75254
#
# Compressibility (1/GPa) = 0.04506951
#
# Stress axis : x y z
#
# Youngs Moduli (GPa) = 82.88840 109.17677 28.76523
#
# Poissons Ratio (x) = 0.44378 -0.06977
# Poissons Ratio (y) = 0.33693 0.10988
# Poissons Ratio (z) = -0.20105 0.41705
#
# Static dielectric constant tensor:
#      x y z
#    x 2.286640 0.040380 0.246140 
#    y 0.040380 2.034220 -0.029270 
#    z 0.246140 -0.029270 2.159010 
# 
# From -- ./inp_files/432046.got.cif
#   From: 2010.05.17/outbox.cif.g08.bks.cpg/sg2_217_cif.got.tgz:432046.got - 2010.06.03 11:33:40.
