data_PCOD9005990
_publ_section_title
;
Structure prediction by ZEFSAII (Michael W. Deem and Ramdas Pophale) SiO2 
 PCOD9005990
Probable space group: P -1
;
_chemical_formula_sum "Si O2"
_cell_formula_units_Z 16
_cell_length_a 14.587515
_cell_length_b 24.794772
_cell_length_c 17.834495
_cell_angle_alpha 18.943528
_cell_angle_beta 21.197486
_cell_angle_gamma 27.676676
_cell_volume 756.810810
_symmetry_space_group_name_H-M "P -1"
_symmetry_group_IT_number 2
_symmetry_cell_setting 'triclinic'
loop_
_space_group_symop_operation_xyz
x,y,z
-x,-y,-z
loop_
_atom_site_type_symbol
_atom_site_label
_atom_site_fract_x
_atom_site_fract_y
_atom_site_fract_z
Si Si1 0.208456 0.399369 0.174099
Si Si2 0.932999 0.669514 0.472344
Si Si3 0.703819 0.623184 0.260393
Si Si4 0.811479 0.859664 0.164020
Si Si5 0.625184 0.150393 0.012807
Si Si6 0.755164 0.584217 0.115219
Si Si7 0.349306 0.381783 0.519756
Si Si8 0.311594 0.027010 0.539491
O O1 0.263323 0.377274 0.250570
O O2 0.209344 0.217238 0.377092
O O3 0.923352 0.477627 0.289420
O O4 0.402741 0.514742 0.829590
O O5 0.820094 0.754266 0.372964
O O6 0.109078 0.510255 0.524620
O O7 0.131499 0.792791 0.199870
O O8 0.794331 0.692228 0.019397
O O9 0.417795 0.571791 0.529367
O O10 0.674729 0.682712 0.290810
O O11 0.670650 0.766198 0.329122
O O12 0.703298 0.044571 0.020346
O O13 0.100528 0.891692 0.879328
O O14 0.472174 0.024893 0.345113
O O15 0.433981 0.303650 0.938987
O O16 0.000000 0.500000 0.000000
O O17 0.500000 0.000000 0.500000
#
# Coordination Sequence:
#
# PCOD9005990 Si02
#       8
#     2   2   2   2   2   2   2   2
#     4  11  20  38  65  87 124 166 215 259 306 372
#     4  11  21  39  64  90 126 171 216 252 302 380
#     4  10  21  38  64  91 123 159 213 262 315 370
#     4  12  25  39  60  95 137 166 207 262 316 371
#     4  12  22  39  62  95 124 162 213 264 313 371
#     4  11  21  38  67  99 118 159 216 270 313 372
#     4  11  23  40  61  94 132 170 207 257 314 377
#     4  12  21  35  62  90 124 170 207 254 312 369
#
# _framework density 21.141347
#
# number of rings (size 3 to 8) (size 9 to 14) (size 15 to 20)
#    0.000    0.750    6.250    3.000    0.000    3.500 
#    0.000    0.625    0.000    3.750    0.000    0.000 
#    0.000    0.000    0.000    0.000    0.000    0.000 
#
# Total GULP energy -89183.761421 kJ/mol
# GULP energy per Si atom -5573.985089 kJ/mol
# Density = 2.109323 g / cm^3
# Si number density = 21.141347 Si / 1000 Ang^3
#
#
#
# Elastic Constant Matrix: (Units=GPa)
#
#
# Indices 1 2 3 4 5 6 
#
# 1 119.0732 30.1569 28.2776 9.1340 3.1479 27.0532
# 2 30.1569 80.6396 16.2636 14.5976 -10.4509 24.0494
# 3 28.2776 16.2636 59.5376 14.5577 4.0925 17.2572
# 4 9.1340 14.5976 14.5577 28.0478 13.5676 -0.9713
# 5 3.1479 -10.4509 4.0925 13.5676 26.1027 1.6388
# 6 27.0532 24.0494 17.2572 -0.9713 1.6388 31.3973
#
#
#
# Elastic Compliance Matrix: (Units=1/GPa)
#
#
# Indices 1 2 3 4 5 6 
#
# 1 0.011088 -0.000871 -0.002190 -0.002508 0.000450 -0.007784
# 2 -0.000871 0.030580 0.007095 -0.035609 0.031586 -0.029323
# 3 -0.002190 0.007095 0.026371 -0.023285 0.012292 -0.019404
# 4 -0.002508 -0.035609 -0.023285 0.100516 -0.065612 0.048769
# 5 0.000450 0.031586 0.012292 -0.065612 0.085453 -0.037827
# 6 -0.007784 -0.029323 -0.019404 0.048769 -0.037827 0.075166
#
#
# Mechanical properties :
#
#
# Convention : Reuss Voigt Hill
#
# Bulk Modulus (GPa) = 13.13921 45.40518 29.27219
# Shear Modulus (GPa) = 14.43107 29.41305 21.92206
#
# Velocity S-wave (km/s) = 2.61549 3.73400 3.22363
# Velocity P-wave (km/s) = 3.91785 6.33356 5.26609
#
# Compressibility (1/GPa) = 0.07610810
#
# Stress axis : x y z
#
# Youngs Moduli (GPa) = 90.18885 32.70065 37.92068
#
# Poissons Ratio (x) = 0.02849 0.08304
# Poissons Ratio (y) = 0.07858 -0.26906
# Poissons Ratio (z) = 0.19749 -0.23203
#
# Static dielectric constant tensor:
#      x y z
#    x 1.856600 0.008640 0.055240 
#    y 0.008640 1.798190 0.014090 
#    z 0.055240 0.014090 1.770050 
# 
# From -- ./inp_files/313295.got.cif
#   From: 2010.05.17/outbox.cif.g08.bks.cpg/sg2_157_cif.got.tgz:313295.got - 2010.06.03 11:33:40.
