data_PCOD9005335
_publ_section_title
;
Structure prediction by ZEFSAII (Michael W. Deem and Ramdas Pophale) SiO2 
 PCOD9005335
Probable space group: P -1
;
_chemical_formula_sum "Si O2"
_cell_formula_units_Z 16
_cell_length_a 9.692874
_cell_length_b 20.357523
_cell_length_c 5.971536
_cell_angle_alpha 118.720109
_cell_angle_beta 49.445710
_cell_angle_gamma 120.156879
_cell_volume 752.561164
_symmetry_space_group_name_H-M "P -1"
_symmetry_group_IT_number 2
_symmetry_cell_setting 'triclinic'
loop_
_space_group_symop_operation_xyz
x,y,z
-x,-y,-z
loop_
_atom_site_type_symbol
_atom_site_label
_atom_site_fract_x
_atom_site_fract_y
_atom_site_fract_z
Si Si1 0.442087 0.463319 0.747947
Si Si2 0.685951 0.972279 0.245294
Si Si3 0.237326 0.699390 0.382964
Si Si4 0.518408 0.693921 0.429333
Si Si5 0.390612 0.194744 0.090674
Si Si6 0.092363 0.514759 0.175339
Si Si7 0.953779 0.934976 0.246825
Si Si8 0.120636 0.234168 0.090618
O O1 0.500000 0.500000 0.500000
O O2 0.509877 0.386539 0.547392
O O3 0.500000 0.500000 0.000000
O O4 0.222140 0.456409 0.958432
O O5 0.761732 0.943072 0.346096
O O6 0.500000 0.000000 0.500000
O O7 0.633189 0.896203 0.020953
O O8 0.867233 0.036576 0.063394
O O9 0.324996 0.699202 0.535909
O O10 0.194521 0.608475 0.211238
O O11 0.053189 0.730446 0.625690
O O12 0.413981 0.758012 0.161669
O O13 0.593766 0.766844 0.625532
O O14 0.692807 0.700034 0.085437
O O15 0.206384 0.205037 0.173753
O O16 0.000000 0.500000 0.500000
O O17 0.000000 0.500000 0.000000
O O18 0.000000 0.000000 0.500000
O O19 0.934754 0.842612 0.138463
#
# Coordination Sequence:
#
# PCOD9005335 Si02
#       8
#     2   2   2   2   2   2   2   2
#     4  12  25  45  70  96 134 177 222 279 340 395
#     4  10  21  38  61  93 126 165 213 261 321 387
#     4  11  24  42  64  90 129 165 216 271 326 394
#     4  11  24  41  65  91 126 168 215 268 328 394
#     4  10  23  40  63  92 126 168 212 265 327 392
#     4  12  27  44  68  99 131 173 227 276 334 404
#     4  10  21  38  62  90 129 165 209 265 319 387
#     4  10  23  41  61  94 126 167 213 264 328 389
#
# _framework density 21.260729000000001
#
# number of rings (size 3 to 8) (size 9 to 14) (size 15 to 20)
#    0.000    1.250    1.250    3.750    5.250    2.500 
#    0.000    0.000    0.000    0.000    0.000    0.000 
#    0.000    0.000    0.000    0.000    0.000    0.000 
#
# Total GULP energy -89120.850734 kJ/mol
# GULP energy per Si atom -5570.053171 kJ/mol
# Density = 2.121234 g / cm^3
# Si number density = 21.260729 Si / 1000 Ang^3
#
#
#
# Elastic Constant Matrix: (Units=GPa)
#
#
# Indices 1 2 3 4 5 6 
#
# 1 126.3510 13.8863 48.1023 9.0619 -15.1153 5.0657
# 2 13.8863 83.2081 0.9970 8.3714 3.9670 -1.7049
# 3 48.1023 0.9970 69.5013 -0.2507 -12.3853 -2.2944
# 4 9.0619 8.3714 -0.2507 35.6270 4.4825 9.8877
# 5 -15.1153 3.9670 -12.3853 4.4825 51.5400 13.2214
# 6 5.0657 -1.7049 -2.2944 9.8877 13.2214 29.6701
#
#
#
# Elastic Compliance Matrix: (Units=1/GPa)
#
#
# Indices 1 2 3 4 5 6 
#
# 1 0.011629 -0.001840 -0.007652 -0.002028 0.002715 -0.003217
# 2 -0.001840 0.012776 0.000855 -0.003122 -0.001805 0.002959
# 3 -0.007652 0.000855 0.020086 0.001185 0.001997 0.001624
# 4 -0.002028 -0.003122 0.001185 0.032237 -0.000208 -0.010392
# 5 0.002715 -0.001805 0.001997 -0.000208 0.023624 -0.010871
# 6 -0.003217 0.002959 0.001624 -0.010392 -0.010871 0.042856
#
#
# Mechanical properties :
#
#
# Convention : Reuss Voigt Hill
#
# Bulk Modulus (GPa) = 36.74251 45.00351 40.87301
# Shear Modulus (GPa) = 29.48922 37.77241 33.63081
#
# Velocity S-wave (km/s) = 3.72832 4.21958 3.98153
# Velocity P-wave (km/s) = 5.98776 6.70471 6.35635
#
# Compressibility (1/GPa) = 0.02721643
#
# Stress axis : x y z
#
# Youngs Moduli (GPa) = 85.99174 78.27335 49.78683
#
# Poissons Ratio (x) = 0.14405 0.38096
# Poissons Ratio (y) = 0.15826 -0.04258
# Poissons Ratio (z) = 0.65799 -0.06694
#
# Static dielectric constant tensor:
#      x y z
#    x 1.767500 -0.011500 0.061000 
#    y -0.011500 1.817240 -0.067350 
#    z 0.061000 -0.067350 1.829220 
# 
# From -- ./inp_files/47653.got.cif
#   From: 2010.05.17/outbox.cif.g08.bks.cpg/sg2_24_cif.got.tgz:47653.got - 2010.06.03 11:33:40.
