data_PCOD9005804
_publ_section_title
;
Structure prediction by ZEFSAII (Michael W. Deem and Ramdas Pophale) SiO2 
 PCOD9005804
Probable space group: P -1
;
_chemical_formula_sum "Si O2"
_cell_formula_units_Z 16
_cell_length_a 9.453399
_cell_length_b 8.392857
_cell_length_c 9.051935
_cell_angle_alpha 95.684853
_cell_angle_beta 91.296186
_cell_angle_gamma 104.786865
_cell_volume 690.132556
_symmetry_space_group_name_H-M "P -1"
_symmetry_group_IT_number 2
_symmetry_cell_setting 'triclinic'
loop_
_space_group_symop_operation_xyz
x,y,z
-x,-y,-z
loop_
_atom_site_type_symbol
_atom_site_label
_atom_site_fract_x
_atom_site_fract_y
_atom_site_fract_z
Si Si1 0.181211 0.385632 0.653422
Si Si2 0.490959 0.095029 0.184790
Si Si3 0.930737 0.145374 0.461574
Si Si4 0.428149 0.648586 0.546782
Si Si5 0.842188 0.537018 0.995813
Si Si6 0.986756 0.156745 0.111895
Si Si7 0.642866 0.901315 0.383150
Si Si8 0.298474 0.804933 0.056715
O O1 0.261791 0.547822 0.573576
O O2 0.189192 0.438093 0.830444
O O3 0.267018 0.239127 0.640338
O O4 0.019803 0.303178 0.573916
O O5 0.504117 0.256449 0.295566
O O6 0.593876 0.985620 0.246089
O O7 0.331258 0.968381 0.171491
O O8 0.556254 0.162258 0.035459
O O9 0.965639 0.158373 0.287740
O O10 0.757406 0.062509 0.472334
O O11 0.000000 0.000000 0.500000
O O12 0.500000 0.500000 0.500000
O O13 0.492189 0.797559 0.446374
O O14 0.733669 0.380033 0.901139
O O15 0.000000 0.500000 0.000000
O O16 0.868725 0.702430 0.917230
O O17 0.838772 0.194083 0.048887
O O18 0.000000 0.000000 0.000000
#
# Coordination Sequence:
#
# PCOD9005804 Si02
#       8
#     2   2   2   2   2   2   2   2
#     4  10  21  41  64  90 133 167 214 275 323 388
#     4  11  21  41  63  87 127 166 215 257 320 391
#     4  10  21  38  63  94 126 165 212 263 327 377
#     4  10  22  39  65  92 127 168 212 268 326 388
#     4  10  22  41  63  93 131 170 214 271 330 381
#     4  11  22  40  67  98 129 167 218 271 321 392
#     4  10  21  38  64  93 122 169 215 262 325 388
#     4  10  23  40  62  89 126 174 208 260 325 381
#
# _framework density 23.183952999999999
#
# number of rings (size 3 to 8) (size 9 to 14) (size 15 to 20)
#    0.000    1.750    2.500    1.875    0.000    6.000 
#    0.000    7.500    0.000    0.000    0.000    0.000 
#    0.000    0.000    0.000    0.000    0.000    0.000 
#
# Total GULP energy -89137.197371 kJ/mol
# GULP energy per Si atom -5571.074836 kJ/mol
# Density = 2.313119 g / cm^3
# Si number density = 23.183953 Si / 1000 Ang^3
#
#
#
# Elastic Constant Matrix: (Units=GPa)
#
#
# Indices 1 2 3 4 5 6 
#
# 1 54.8962 34.0530 25.7355 3.5271 0.9089 13.4767
# 2 34.0530 192.6960 36.0161 18.5450 -3.5356 50.0677
# 3 25.7355 36.0161 40.2135 14.1631 -1.0486 9.9756
# 4 3.5271 18.5450 14.1631 41.6522 3.6353 1.5503
# 5 0.9089 -3.5356 -1.0486 3.6353 37.6056 5.3095
# 6 13.4767 50.0677 9.9756 1.5503 5.3095 34.5275
#
#
#
# Elastic Compliance Matrix: (Units=1/GPa)
#
#
# Indices 1 2 3 4 5 6 
#
# 1 0.027771 -0.000909 -0.017338 0.004205 -0.001005 -0.004547
# 2 -0.000909 0.009782 -0.003914 -0.002719 0.002935 -0.013029
# 3 -0.017338 -0.003914 0.043717 -0.011865 0.002421 -0.000028
# 4 0.004205 -0.002719 -0.011865 0.029076 -0.004215 0.005072
# 5 -0.001005 0.002935 0.002421 -0.004215 0.028606 -0.008773
# 6 -0.004547 -0.013029 -0.000028 0.005072 -0.008773 0.050760
#
#
# Mechanical properties :
#
#
# Convention : Reuss Voigt Hill
#
# Bulk Modulus (GPa) = 27.06403 53.26833 40.16618
# Shear Modulus (GPa) = 20.29641 35.55713 27.92677
#
# Velocity S-wave (km/s) = 2.96201 3.92049 3.47446
# Velocity P-wave (km/s) = 4.83704 6.59696 5.78433
#
# Compressibility (1/GPa) = 0.03694941
#
# Stress axis : x y z
#
# Youngs Moduli (GPa) = 36.00919 102.22378 22.87440
#
# Poissons Ratio (x) = 0.09291 0.39660
# Poissons Ratio (y) = 0.03273 0.08952
# Poissons Ratio (z) = 0.62433 0.40005
#
# Static dielectric constant tensor:
#      x y z
#    x 1.927420 0.060470 -0.033770 
#    y 0.060470 1.966450 0.043260 
#    z -0.033770 0.043260 1.970460 
# 
# From -- ./inp_files/239784.got.cif
#   From: 2010.05.17/outbox.cif.g08.bks.cpg/sg2_120_cif.got.tgz:239784.got - 2010.06.03 11:33:40.
