data_PCOD9005154
_publ_section_title
;
Structure prediction by ZEFSAII (Michael W. Deem and Ramdas Pophale) SiO2 
 PCOD9005154
Probable space group: P -1
;
_chemical_formula_sum "Si O2"
_cell_formula_units_Z 12
_cell_length_a 5.839236
_cell_length_b 12.330251
_cell_length_c 15.328610
_cell_angle_alpha 27.845636
_cell_angle_beta 98.640677
_cell_angle_gamma 103.449830
_cell_volume 497.620598
_symmetry_space_group_name_H-M "P -1"
_symmetry_group_IT_number 2
_symmetry_cell_setting 'triclinic'
loop_
_space_group_symop_operation_xyz
x,y,z
-x,-y,-z
loop_
_atom_site_type_symbol
_atom_site_label
_atom_site_fract_x
_atom_site_fract_y
_atom_site_fract_z
Si Si1 0.458793 0.861185 0.722548
Si Si2 0.085444 0.450834 0.905356
Si Si3 0.897288 0.723420 0.304515
Si Si4 0.704574 0.794115 0.058253
Si Si5 0.769005 0.794697 0.638570
Si Si6 0.677951 0.041451 0.172587
O O1 0.240003 0.638795 0.846678
O O2 0.670651 0.783021 0.739232
O O3 0.487162 0.926873 0.778018
O O4 0.415656 0.102314 0.503627
O O5 0.252414 0.397072 0.875566
O O6 0.869715 0.570176 0.776700
O O7 0.932861 0.197236 0.106386
O O8 0.754431 0.694210 0.226144
O O9 0.000000 0.500000 0.500000
O O10 0.730878 0.794038 0.320800
O O11 0.105094 0.959309 0.128534
O O12 0.449439 0.859836 0.986135
O O13 0.000000 0.000000 0.500000
#
# Coordination Sequence:
#
# PCOD9005154 Si02
#       6
#     2   2   2   2   2   2
#     4  10  21  38  60  97 134 174 219 257 330 394
#     4  10  21  38  63  93 136 175 209 272 323 392
#     4  10  24  46  68  93 128 177 224 279 337 392
#     4  10  23  43  65  98 133 166 227 278 331 392
#     4   9  20  37  57  88 133 174 216 268 308 388
#     4  11  23  40  66  99 130 173 219 274 326 395
#
# _framework density 24.11476
#
# number of rings (size 3 to 8) (size 9 to 14) (size 15 to 20)
#    0.000    2.000    0.000    2.000    2.333    8.667 
#    9.000    0.000    0.000    0.000    0.000    0.000 
#    0.000    0.000    0.000    0.000    0.000    0.000 
#
# Total GULP energy -67023.988715 kJ/mol
# GULP energy per Si atom -5585.332393 kJ/mol
# Density = 2.405987 g / cm^3
# Si number density = 24.114760 Si / 1000 Ang^3
#
#
#
# Elastic Constant Matrix: (Units=GPa)
#
#
# Indices 1 2 3 4 5 6 
#
# 1 86.6339 30.4026 30.8339 -4.4697 23.4015 -8.8782
# 2 30.4026 136.5356 59.0429 3.2099 27.7670 -20.6118
# 3 30.8339 59.0429 118.5747 6.3826 46.7137 -12.5513
# 4 -4.4697 3.2099 6.3826 26.9816 -8.3325 13.1665
# 5 23.4015 27.7670 46.7137 -8.3325 47.2677 -4.7135
# 6 -8.8782 -20.6118 -12.5513 13.1665 -4.7135 28.6701
#
#
#
# Elastic Compliance Matrix: (Units=1/GPa)
#
#
# Indices 1 2 3 4 5 6 
#
# 1 0.013895 -0.001441 -0.000601 -0.000060 -0.005233 0.002171
# 2 -0.001441 0.010840 -0.002377 -0.006257 -0.003551 0.008596
# 3 -0.000601 -0.002377 0.019112 -0.015213 -0.018843 0.010360
# 4 -0.000060 -0.006257 -0.015213 0.068331 0.026984 -0.038121
# 5 -0.005233 -0.003551 -0.018843 0.026984 0.047516 -0.017003
# 6 0.002171 0.008596 0.010360 -0.038121 -0.017003 0.060979
#
#
# Mechanical properties :
#
#
# Convention : Reuss Voigt Hill
#
# Bulk Modulus (GPa) = 28.56423 64.70032 46.63227
# Shear Modulus (GPa) = 20.73130 35.34820 28.03975
#
# Velocity S-wave (km/s) = 2.93523 3.83277 3.41363
# Velocity P-wave (km/s) = 4.83304 6.81728 5.90904
#
# Compressibility (1/GPa) = 0.03500883
#
# Stress axis : x y z
#
# Youngs Moduli (GPa) = 71.96662 92.25220 52.32192
#
# Poissons Ratio (x) = 0.13291 0.03147
# Poissons Ratio (y) = 0.10368 0.12439
# Poissons Ratio (z) = 0.04328 0.21931
#
# Static dielectric constant tensor:
#      x y z
#    x 1.943470 0.006880 -0.015700 
#    y 0.006880 1.933430 -0.004440 
#    z -0.015700 -0.004440 1.995200 
# 
# From -- ./inp_files/481365.got.cif
#   From: 2010.05.17/outbox.cif.g08.bks.cpg/sg2_241_cif.got.tgz:481365.got - 2010.06.03 11:33:40.
