data_PCOD9005854
_publ_section_title
;
Structure prediction by ZEFSAII (Michael W. Deem and Ramdas Pophale) SiO2 
 PCOD9005854
Probable space group: P -1
;
_chemical_formula_sum "Si O2"
_cell_formula_units_Z 16
_cell_length_a 8.351970
_cell_length_b 18.407548
_cell_length_c 21.827451
_cell_angle_alpha 23.444026
_cell_angle_beta 31.214649
_cell_angle_gamma 34.045582
_cell_volume 675.995253
_symmetry_space_group_name_H-M "P -1"
_symmetry_group_IT_number 2
_symmetry_cell_setting 'triclinic'
loop_
_space_group_symop_operation_xyz
x,y,z
-x,-y,-z
loop_
_atom_site_type_symbol
_atom_site_label
_atom_site_fract_x
_atom_site_fract_y
_atom_site_fract_z
Si Si1 0.860167 0.097416 0.625739
Si Si2 0.345821 0.921745 0.972789
Si Si3 0.396841 0.651882 0.060084
Si Si4 0.350759 0.373499 0.822173
Si Si5 0.695613 0.223249 0.444084
Si Si6 0.186040 0.503483 0.637773
Si Si7 0.569398 0.861148 0.731222
Si Si8 0.754724 0.285135 0.160332
O O1 0.729792 0.142350 0.565004
O O2 0.977586 0.278296 0.469500
O O3 0.563408 0.071569 0.784146
O O4 0.113027 0.905066 0.698736
O O5 0.507766 0.761971 0.994403
O O6 0.379483 0.810325 0.111301
O O7 0.000000 0.000000 0.000000
O O8 0.619831 0.460292 0.112303
O O9 0.064931 0.604635 0.223450
O O10 0.365684 0.792071 0.904148
O O11 0.447487 0.557489 0.676717
O O12 0.277655 0.420334 0.739423
O O13 0.031877 0.336840 0.987013
O O14 0.062112 0.203891 0.319938
O O15 0.524394 0.085208 0.569404
O O16 0.500000 0.500000 0.500000
O O17 0.499874 0.762369 0.768121
#
# Coordination Sequence:
#
# PCOD9005854 Si02
#       8
#     2   2   2   2   2   2   2   2
#     4  10  23  42  63  96 137 169 216 286 327 394
#     4  11  25  46  66  95 132 182 228 272 328 400
#     4  12  23  41  70  96 135 174 221 275 337 405
#     4  10  22  43  71  93 134 175 220 282 336 396
#     4  10  21  38  63  96 135 170 209 270 338 390
#     4  11  24  45  68  97 134 181 229 275 324 393
#     4  11  21  37  63 100 139 167 212 268 334 407
#     4  11  22  40  67 103 133 173 218 273 354 393
#
# _framework density 23.668804999999999
#
# number of rings (size 3 to 8) (size 9 to 14) (size 15 to 20)
#    0.000    1.250    3.750    2.625    0.000    7.000 
#    2.250    7.500    0.000    0.000    0.000    0.000 
#    0.000    0.000    0.000    0.000    0.000    0.000 
#
# Total GULP energy -89542.286985 kJ/mol
# GULP energy per Si atom -5596.392937 kJ/mol
# Density = 2.361493 g / cm^3
# Si number density = 23.668805 Si / 1000 Ang^3
#
#
#
# Elastic Constant Matrix: (Units=GPa)
#
#
# Indices 1 2 3 4 5 6 
#
# 1 55.2296 13.8832 31.8349 -12.0782 -8.5647 3.1920
# 2 13.8832 53.6596 34.3620 3.0796 3.9707 -3.4408
# 3 31.8349 34.3620 143.5736 -7.0158 -1.0841 -5.0982
# 4 -12.0782 3.0796 -7.0158 33.0810 3.4751 -1.5869
# 5 -8.5647 3.9707 -1.0841 3.4751 37.7297 -1.5175
# 6 3.1920 -3.4408 -5.0982 -1.5869 -1.5175 26.3392
#
#
#
# Elastic Compliance Matrix: (Units=1/GPa)
#
#
# Indices 1 2 3 4 5 6 
#
# 1 0.024274 -0.004805 -0.003941 0.007773 0.005043 -0.003574
# 2 -0.004805 0.023553 -0.004735 -0.004505 -0.003199 0.002287
# 3 -0.003941 -0.004735 0.009080 0.001025 -0.000163 0.001669
# 4 0.007773 -0.004505 0.001025 0.033821 -0.000821 0.000658
# 5 0.005043 -0.003199 -0.000163 -0.000821 0.028077 0.000508
# 6 -0.003574 0.002287 0.001669 0.000658 0.000508 0.039090
#
#
# Mechanical properties :
#
#
# Convention : Reuss Voigt Hill
#
# Bulk Modulus (GPa) = 33.39386 45.84699 39.62043
# Shear Modulus (GPa) = 25.66204 30.92215 28.29209
#
# Velocity S-wave (km/s) = 3.29631 3.61841 3.46111
# Velocity P-wave (km/s) = 5.35042 6.07202 5.72261
#
# Compressibility (1/GPa) = 0.02994563
#
# Stress axis : x y z
#
# Youngs Moduli (GPa) = 41.19557 42.45733 110.12855
#
# Poissons Ratio (x) = 0.20400 0.43406
# Poissons Ratio (y) = 0.19794 0.52143
# Poissons Ratio (z) = 0.16237 0.20102
#
# Static dielectric constant tensor:
#      x y z
#    x 1.870160 0.004640 0.018410 
#    y 0.004640 1.956180 -0.012450 
#    z 0.018410 -0.012450 1.891690 
# 
# From -- ./inp_files/608620.got.cif
#   From: 2010.05.17/outbox.cif.g08.bks.cpg/sg2_305_cif.got.tgz:608620.got - 2010.06.03 11:33:40.
