data_PCOD9005649
_publ_section_title
;
Structure prediction by ZEFSAII (Michael W. Deem and Ramdas Pophale) SiO2 
 PCOD9005649
Probable space group: P -1
;
_chemical_formula_sum "Si O2"
_cell_formula_units_Z 16
_cell_length_a 23.194902
_cell_length_b 20.004595
_cell_length_c 5.344613
_cell_angle_alpha 108.716764
_cell_angle_beta 110.924197
_cell_angle_gamma 16.923612
_cell_volume 672.319645
_symmetry_space_group_name_H-M "P -1"
_symmetry_group_IT_number 2
_symmetry_cell_setting 'triclinic'
loop_
_space_group_symop_operation_xyz
x,y,z
-x,-y,-z
loop_
_atom_site_type_symbol
_atom_site_label
_atom_site_fract_x
_atom_site_fract_y
_atom_site_fract_z
Si Si1 0.458363 0.929647 0.878008
Si Si2 0.295447 0.232636 0.702917
Si Si3 0.362819 0.926311 0.372955
Si Si4 0.714916 0.370876 0.474863
Si Si5 0.140513 0.025873 0.217647
Si Si6 0.666272 0.508386 0.060668
Si Si7 0.128245 0.302778 0.183831
Si Si8 0.191890 0.886553 0.630503
O O1 0.504612 0.807495 0.660996
O O2 0.450635 0.003178 0.759018
O O3 0.597070 0.808771 0.170481
O O4 0.234145 0.168742 0.929006
O O5 0.199617 0.301978 0.391900
O O6 0.109695 0.441163 0.856967
O O7 0.227841 0.009001 0.359413
O O8 0.502747 0.746228 0.149527
O O9 0.217284 0.146818 0.320278
O O10 0.648776 0.475526 0.234583
O O11 0.685985 0.318632 0.389631
O O12 0.632908 0.502083 0.745763
O O13 0.955660 0.122261 0.556614
O O14 0.217801 0.894463 0.410805
O O15 0.215079 0.913278 0.933299
O O16 0.896116 0.287708 0.152394
#
# Coordination Sequence:
#
# PCOD9005649 Si02
#       8
#     2   2   2   2   2   2   2   2
#     4  10  21  38  63  87 122 157 201 254 304 366
#     4   9  20  40  62  94 113 152 208 254 307 356
#     4  11  26  38  55  90 125 168 204 246 311 384
#     4   9  18  37  65  90 117 162 213 264 316 366
#     4  10  22  39  60  88 128 164 208 259 313 376
#     4  10  22  39  60  88 128 164 208 259 313 376
#     4  10  21  38  63  87 122 157 201 254 304 366
#     4   9  18  37  65  90 117 162 213 264 316 366
#
# _framework density 23.798206
#
# number of rings (size 3 to 8) (size 9 to 14) (size 15 to 20)
#    0.000    2.250    0.000    1.500    3.500    5.000 
#    2.250    6.250    0.000    0.000    0.000    0.000 
#    0.000    0.000    0.000    0.000    0.000    0.000 
#
# Total GULP energy -89482.993569 kJ/mol
# GULP energy per Si atom -5592.687098 kJ/mol
# Density = 2.374404 g / cm^3
# Si number density = 23.798206 Si / 1000 Ang^3
#
#
#
# Elastic Constant Matrix: (Units=GPa)
#
#
# Indices 1 2 3 4 5 6 
#
# 1 94.9450 13.4694 29.1107 -7.2385 14.8383 7.5286
# 2 13.4694 80.7612 15.6687 -0.1546 8.6931 -10.3393
# 3 29.1107 15.6687 83.2474 13.0158 -1.4456 3.9491
# 4 -7.2385 -0.1546 13.0158 29.5224 -3.0876 -0.0339
# 5 14.8383 8.6931 -1.4456 -3.0876 39.9204 4.1708
# 6 7.5286 -10.3393 3.9491 -0.0339 4.1708 27.1613
#
#
#
# Elastic Compliance Matrix: (Units=1/GPa)
#
#
# Indices 1 2 3 4 5 6 
#
# 1 0.013609 -0.001118 -0.005308 0.005217 -0.004316 -0.002757
# 2 -0.001118 0.014343 -0.002793 0.000678 -0.003457 0.006707
# 3 -0.005308 -0.002793 0.015803 -0.007996 0.002778 -0.002326
# 4 0.005217 0.000678 -0.007996 0.038746 0.000628 -0.000073
# 5 -0.004316 -0.003457 0.002778 0.000628 0.028061 -0.004832
# 6 -0.002757 0.006707 -0.002326 -0.000073 -0.004832 0.041215
#
#
# Mechanical properties :
#
#
# Convention : Reuss Voigt Hill
#
# Bulk Modulus (GPa) = 39.50050 41.71681 40.60865
# Shear Modulus (GPa) = 27.98703 32.70113 30.34408
#
# Velocity S-wave (km/s) = 3.43303 3.71091 3.57467
# Velocity P-wave (km/s) = 5.68756 5.99404 5.84281
#
# Compressibility (1/GPa) = 0.02531613
#
# Stress axis : x y z
#
# Youngs Moduli (GPa) = 73.47815 69.72218 63.27899
#
# Poissons Ratio (x) = 0.07797 0.33591
# Poissons Ratio (y) = 0.08217 0.17672
# Poissons Ratio (z) = 0.39005 0.19472
#
# Static dielectric constant tensor:
#      x y z
#    x 1.917140 -0.000480 -0.027180 
#    y -0.000480 1.919540 -0.042970 
#    z -0.027180 -0.042970 1.929160 
# 
# From -- ./inp_files/120122.got.cif
#   From: 2010.05.17/outbox.cif.g08.bks.cpg/sg2_61_cif.got.tgz:120122.got - 2010.06.03 11:33:40.
