data_PCOD9005341
_publ_section_title
;
Structure prediction by ZEFSAII (Michael W. Deem and Ramdas Pophale) SiO2 
 PCOD9005341
Probable space group: P -1
;
_chemical_formula_sum "Si O2"
_cell_formula_units_Z 11
_cell_length_a 17.568812
_cell_length_b 4.971370
_cell_length_c 5.081125
_cell_angle_alpha 97.800026
_cell_angle_beta 71.079567
_cell_angle_gamma 102.183440
_cell_volume 409.269424
_symmetry_space_group_name_H-M "P -1"
_symmetry_group_IT_number 2
_symmetry_cell_setting 'triclinic'
loop_
_space_group_symop_operation_xyz
x,y,z
-x,-y,-z
loop_
_atom_site_type_symbol
_atom_site_label
_atom_site_fract_x
_atom_site_fract_y
_atom_site_fract_z
Si Si1 0.693703 0.350563 0.196534
Si Si2 0.982400 0.264932 0.709673
Si Si3 0.500000 0.000000 0.000000
Si Si4 0.851323 0.708527 0.319115
Si Si5 0.412753 0.184061 0.598653
Si Si6 0.181639 0.762561 0.301652
O O1 0.777979 0.547940 0.208714
O O2 0.654517 0.099646 0.390990
O O3 0.630209 0.554256 0.260771
O O4 0.725507 0.196180 0.892075
O O5 0.053232 0.299203 0.858569
O O6 0.000000 0.500000 0.500000
O O7 0.884843 0.210719 0.849490
O O8 0.000000 0.000000 0.500000
O O9 0.464684 0.128768 0.788108
O O10 0.541361 0.792545 0.727886
O O11 0.838178 0.536276 0.582874
O O12 0.835350 0.012065 0.438843
#
# Coordination Sequence:
#
# PCOD9005341 Si02
#       6
#     2   2   1   2   2   2
#     4  12  26  40  70 110 132 184 226 290 354 408
#     4   8  16  33  56  85 128 187 233 274 334 395
#     4  10  28  56  76 108 138 184 224 282 356 442
#     4  10  21  38  61  93 139 183 231 287 338 400
#     4  11  28  48  80 105 142 180 230 283 354 438
#     4  10  21  38  61  93 139 183 231 287 338 400
#
# _framework density 26.877158999999999
#
# number of rings (size 3 to 8) (size 9 to 14) (size 15 to 20)
#    0.000    1.818    0.000    2.182    7.636    5.091 
#    0.000    0.000    0.000   15.273    0.000    0.000 
#    0.000    0.000    0.000    0.000    0.000    0.000 
#
# Total GULP energy -61287.511786 kJ/mol
# GULP energy per Si atom -5571.591981 kJ/mol
# Density = 2.681598 g / cm^3
# Si number density = 26.877159 Si / 1000 Ang^3
#
#
#
# Elastic Constant Matrix: (Units=GPa)
#
#
# Indices 1 2 3 4 5 6 
#
# 1 92.0784 29.7470 76.5701 6.6107 -2.8944 -10.8994
# 2 29.7470 142.9818 27.1814 11.1888 -14.8385 -7.6724
# 3 76.5701 27.1814 152.6931 3.0506 8.4512 -24.7507
# 4 6.6107 11.1888 3.0506 18.5216 -12.0350 -10.7229
# 5 -2.8944 -14.8385 8.4512 -12.0350 48.4779 15.8050
# 6 -10.8994 -7.6724 -24.7507 -10.7229 15.8050 47.6471
#
#
#
# Elastic Compliance Matrix: (Units=1/GPa)
#
#
# Indices 1 2 3 4 5 6 
#
# 1 0.019963 -0.001785 -0.010169 -0.004543 0.002187 -0.002751
# 2 -0.001785 0.007905 -0.000692 -0.003292 0.001899 -0.000865
# 3 -0.010169 -0.000692 0.013009 0.002691 -0.004512 0.006422
# 4 -0.004543 -0.003292 0.002691 0.072043 0.012230 0.011985
# 5 0.002187 0.001899 -0.004512 0.012230 0.027770 -0.007997
# 6 -0.002751 -0.000865 0.006422 0.011985 -0.007997 0.028905
#
#
# Mechanical properties :
#
#
# Convention : Reuss Voigt Hill
#
# Bulk Modulus (GPa) = 64.16552 72.75004 68.45778
# Shear Modulus (GPa) = 24.98998 39.87964 32.43481
#
# Velocity S-wave (km/s) = 3.05255 3.85616 3.47764
# Velocity P-wave (km/s) = 6.02905 6.85222 6.45378
#
# Compressibility (1/GPa) = 0.01558469
#
# Stress axis : x y z
#
# Youngs Moduli (GPa) = 50.09375 126.50329 76.87225
#
# Poissons Ratio (x) = 0.22582 0.78171
# Poissons Ratio (y) = 0.08942 0.05316
# Poissons Ratio (z) = 0.50940 0.08749
#
# Static dielectric constant tensor:
#      x y z
#    x 2.186170 0.288630 -0.107320 
#    y 0.288630 1.612520 0.376700 
#    z -0.107320 0.376700 1.817180 
# 
# From -- ./inp_files/4829.got.cif
#   From: 2010.05.17/outbox.cif.g08.bks.cpg/sg2_3_cif.got.tgz:4829.got - 2010.06.03 11:33:40.
