data_PCOD9005193
_publ_section_title
;
Structure prediction by ZEFSAII (Michael W. Deem and Ramdas Pophale) SiO2 
 PCOD9005193
Probable space group: P -1
;
_chemical_formula_sum "Si O2"
_cell_formula_units_Z 16
_cell_length_a 13.421474
_cell_length_b 8.833347
_cell_length_c 11.931438
_cell_angle_alpha 116.608541
_cell_angle_beta 61.161783
_cell_angle_gamma 149.216159
_cell_volume 632.410428
_symmetry_space_group_name_H-M "P -1"
_symmetry_group_IT_number 2
_symmetry_cell_setting 'triclinic'
loop_
_space_group_symop_operation_xyz
x,y,z
-x,-y,-z
loop_
_atom_site_type_symbol
_atom_site_label
_atom_site_fract_x
_atom_site_fract_y
_atom_site_fract_z
Si Si1 0.456970 0.627289 0.014119
Si Si2 0.882752 0.229810 0.054099
Si Si3 0.073666 0.216094 0.800493
Si Si4 0.705364 0.304588 0.724052
Si Si5 0.133123 0.897741 0.599902
Si Si6 0.522142 0.171252 0.141071
Si Si7 0.018075 0.824788 0.402963
Si Si8 0.705756 0.156047 0.341068
O O1 0.448931 0.626646 0.884639
O O2 0.500000 0.500000 0.000000
O O3 0.291125 0.525464 0.139537
O O4 0.658910 0.970121 0.048496
O O5 0.861330 0.254386 0.202256
O O6 0.000000 0.500000 0.000000
O O7 0.968547 0.149832 0.950047
O O8 0.280031 0.573806 0.806747
O O9 0.941291 0.120947 0.735020
O O10 0.121816 0.077717 0.710964
O O11 0.914542 0.553451 0.631415
O O12 0.655428 0.092218 0.767113
O O13 0.514872 0.094351 0.674698
O O14 0.158336 0.935969 0.465207
O O15 0.291701 0.970888 0.598561
O O16 0.500000 0.000000 0.000000
O O17 0.814397 0.467230 0.408195
O O18 0.000000 0.000000 0.500000
#
# Coordination Sequence:
#
# PCOD9005193 Si02
#       8
#     2   2   2   2   2   2   2   2
#     4  10  22  36  56  92 134 164 207 270 319 389
#     4  11  21  36  65  94 127 171 211 266 331 395
#     4  11  22  42  65  97 134 174 219 273 335 396
#     4  10  22  42  60  97 130 170 222 265 327 397
#     4  11  26  40  72  95 132 182 221 272 331 389
#     4  10  21  38  61  86 137 170 212 264 329 393
#     4  10  22  45  68  93 131 176 227 275 324 390
#     4  11  23  42  67  98 133 170 222 278 334 390
#
# _framework density 25.300027
#
# number of rings (size 3 to 8) (size 9 to 14) (size 15 to 20)
#    0.000    1.500    2.500    2.625    8.750    1.000 
#    0.000    0.000    0.000    3.000    0.000    0.000 
#    0.000    0.000    0.000    0.000    0.000    0.000 
#
# Total GULP energy -89393.168804 kJ/mol
# GULP energy per Si atom -5587.073050 kJ/mol
# Density = 2.524244 g / cm^3
# Si number density = 25.300027 Si / 1000 Ang^3
#
#
#
# Elastic Constant Matrix: (Units=GPa)
#
#
# Indices 1 2 3 4 5 6 
#
# 1 114.1640 25.3099 63.6945 0.1774 19.4189 -34.7124
# 2 25.3099 68.6243 37.3489 18.2095 -7.1545 -10.5162
# 3 63.6945 37.3489 132.5590 9.8499 -5.1783 -13.3395
# 4 0.1774 18.2095 9.8499 32.4711 1.3061 -0.0188
# 5 19.4189 -7.1545 -5.1783 1.3061 57.1743 -1.9741
# 6 -34.7124 -10.5162 -13.3395 -0.0188 -1.9741 35.9093
#
#
#
# Elastic Compliance Matrix: (Units=1/GPa)
#
#
# Indices 1 2 3 4 5 6 
#
# 1 0.019216 -0.002463 -0.007634 0.003886 -0.007110 0.014630
# 2 -0.002463 0.021061 -0.003539 -0.010862 0.003491 0.002658
# 3 -0.007634 -0.003539 0.012086 -0.001769 0.003155 -0.003753
# 4 0.003886 -0.010862 -0.001769 0.037552 -0.003706 -0.000265
# 5 -0.007110 0.003491 0.003155 -0.003706 0.020590 -0.003548
# 6 0.014630 0.002658 -0.003753 -0.000265 -0.003548 0.041179
#
#
# Mechanical properties :
#
#
# Convention : Reuss Voigt Hill
#
# Bulk Modulus (GPa) = 39.85619 63.11711 51.48665
# Shear Modulus (GPa) = 26.69246 37.71054 32.20150
#
# Velocity S-wave (km/s) = 3.25166 3.86493 3.57148
# Velocity P-wave (km/s) = 5.46675 6.70213 6.11571
#
# Compressibility (1/GPa) = 0.02509020
#
# Stress axis : x y z
#
# Youngs Moduli (GPa) = 52.04038 47.48222 82.74110
#
# Poissons Ratio (x) = 0.11696 0.63161
# Poissons Ratio (y) = 0.12819 0.29285
# Poissons Ratio (z) = 0.39725 0.16805
#
# Static dielectric constant tensor:
#      x y z
#    x 2.478160 -0.375540 0.280660 
#    y -0.375540 2.257190 -0.222820 
#    z 0.280660 -0.222820 2.331350 
# 
# From -- ./inp_files/379982.got.cif
#   From: 2010.05.17/outbox.cif.g08.bks.cpg/sg2_190_cif.got.tgz:379982.got - 2010.06.03 11:33:40.
