data_PCOD9005849
_publ_section_title
;
Structure prediction by ZEFSAII (Michael W. Deem and Ramdas Pophale) SiO2 
 PCOD9005849
Probable space group: P -1
;
_chemical_formula_sum "Si O2"
_cell_formula_units_Z 16
_cell_length_a 15.909601
_cell_length_b 19.259872
_cell_length_c 6.981015
_cell_angle_alpha 117.948335
_cell_angle_beta 125.075081
_cell_angle_gamma 19.293874
_cell_volume 556.536652
_symmetry_space_group_name_H-M "P -1"
_symmetry_group_IT_number 2
_symmetry_cell_setting 'triclinic'
loop_
_space_group_symop_operation_xyz
x,y,z
-x,-y,-z
loop_
_atom_site_type_symbol
_atom_site_label
_atom_site_fract_x
_atom_site_fract_y
_atom_site_fract_z
Si Si1 0.370775 0.772982 0.607208
Si Si2 0.005279 0.359338 0.414724
Si Si3 0.869672 0.181284 0.933797
Si Si4 0.206803 0.410559 0.266716
Si Si5 0.867521 0.907175 0.119154
Si Si6 0.721777 0.901435 0.261451
Si Si7 0.570368 0.318139 0.021521
Si Si8 0.449571 0.157254 0.553749
O O1 0.290363 0.772583 0.332571
O O2 0.621404 0.651492 0.721056
O O3 0.424423 0.683678 0.747655
O O4 0.141575 0.001859 0.667962
O O5 0.778482 0.603742 0.482992
O O6 0.257387 0.105934 0.466048
O O7 0.210447 0.259362 0.406610
O O8 0.734708 0.497117 0.196477
O O9 0.893552 0.243055 0.922582
O O10 0.710793 0.293717 0.073608
O O11 0.196011 0.917204 0.038497
O O12 0.487293 0.144790 0.330883
O O13 0.957787 0.659767 0.322966
O O14 0.000000 0.500000 0.000000
O O15 0.891218 0.826393 0.213314
O O16 0.585958 0.088153 0.852899
O O17 0.500000 0.000000 0.000000
#
# Coordination Sequence:
#
# PCOD9005849 Si02
#       8
#     2   2   2   2   2   2   2   2
#     4  11  21  40  68 100 133 176 219 278 336 392
#     4  12  24  42  65 100 137 172 221 279 336 395
#     4  10  22  41  69  98 135 175 225 277 339 394
#     4  12  22  38  65 104 136 166 219 286 337 390
#     4  11  23  41  70  96 128 183 229 267 329 407
#     4  12  26  47  67  96 138 186 224 265 341 416
#     4  10  21  38  63  96 130 169 218 272 334 383
#     4  12  25  44  68  96 138 176 224 275 342 400
#
# _framework density 28.749229
#
# number of rings (size 3 to 8) (size 9 to 14) (size 15 to 20)
#    0.000    0.750    3.750    6.000    1.750    1.000 
#    0.000    0.625    0.000    5.250    0.000    0.000 
#    0.000    0.000    0.000    0.000    0.000    0.000 
#
# Total GULP energy -89530.968999 kJ/mol
# GULP energy per Si atom -5595.685562 kJ/mol
# Density = 2.868379 g / cm^3
# Si number density = 28.749229 Si / 1000 Ang^3
#
#
#
# Elastic Constant Matrix: (Units=GPa)
#
#
# Indices 1 2 3 4 5 6 
#
# 1 259.1295 60.2646 90.1694 -29.4317 -19.4254 -13.1507
# 2 60.2646 187.7566 47.0723 -10.0387 -15.0968 18.0674
# 3 90.1694 47.0723 152.4309 -17.6956 -13.2336 -5.3159
# 4 -29.4317 -10.0387 -17.6956 60.3270 7.4628 -9.2167
# 5 -19.4254 -15.0968 -13.2336 7.4628 53.0393 -22.8561
# 6 -13.1507 18.0674 -5.3159 -9.2167 -22.8561 72.6493
#
#
#
# Elastic Compliance Matrix: (Units=1/GPa)
#
#
# Indices 1 2 3 4 5 6 
#
# 1 0.005367 -0.001060 -0.002440 0.001804 0.001568 0.001779
# 2 -0.001060 0.006186 -0.001339 -0.000187 0.000308 -0.001755
# 3 -0.002440 -0.001339 0.008690 0.001149 0.001182 0.001045
# 4 0.001804 -0.000187 0.001149 0.018227 -0.000552 0.002596
# 5 0.001568 0.000308 0.001182 -0.000552 0.023119 0.007497
# 6 0.001779 -0.001755 0.001045 0.002596 0.007497 0.017288
#
#
# Mechanical properties :
#
#
# Convention : Reuss Voigt Hill
#
# Bulk Modulus (GPa) = 94.65827 110.48109 102.56968
# Shear Modulus (GPa) = 54.30234 63.99051 59.14642
#
# Velocity S-wave (km/s) = 4.35078 4.72297 4.54069
# Velocity P-wave (km/s) = 7.63125 8.26164 7.95269
#
# Compressibility (1/GPa) = 0.01056432
#
# Stress axis : x y z
#
# Youngs Moduli (GPa) = 186.31153 161.66454 115.07610
#
# Poissons Ratio (x) = 0.17130 0.28081
# Poissons Ratio (y) = 0.19742 0.15414
# Poissons Ratio (z) = 0.45464 0.21655
#
# Static dielectric constant tensor:
#      x y z
#    x 2.162320 0.032720 -0.143850 
#    y 0.032720 2.509860 -0.060660 
#    z -0.143850 -0.060660 2.097420 
# 
# From -- ./inp_files/317208.got.cif
#   From: 2010.05.17/outbox.cif.g08.bks.cpg/sg2_159_cif.got.tgz:317208.got - 2010.06.03 11:33:40.
