data_PCOD9005720
_publ_section_title
;
Structure prediction by ZEFSAII (Michael W. Deem and Ramdas Pophale) SiO2 
 PCOD9005720
Probable space group: P -1
;
_chemical_formula_sum "Si O2"
_cell_formula_units_Z 14
_cell_length_a 8.496532
_cell_length_b 7.107847
_cell_length_c 13.029643
_cell_angle_alpha 98.492127
_cell_angle_beta 72.719624
_cell_angle_gamma 54.842473
_cell_volume 560.769673
_symmetry_space_group_name_H-M "P -1"
_symmetry_group_IT_number 2
_symmetry_cell_setting 'triclinic'
loop_
_space_group_symop_operation_xyz
x,y,z
-x,-y,-z
loop_
_atom_site_type_symbol
_atom_site_label
_atom_site_fract_x
_atom_site_fract_y
_atom_site_fract_z
Si Si1 0.588122 0.641714 0.026163
Si Si2 0.479367 0.104450 0.143772
Si Si3 0.027175 0.188209 0.964618
Si Si4 0.203742 0.905336 0.381271
Si Si5 0.072878 0.107343 0.708431
Si Si6 0.455728 0.379240 0.373531
Si Si7 0.738369 0.777835 0.482564
O O1 0.432463 0.915151 0.133757
O O2 0.500000 0.500000 0.000000
O O3 0.637353 0.698665 0.910304
O O4 0.795858 0.465209 0.047556
O O5 0.453738 0.241028 0.263904
O O6 0.739728 0.916111 0.051519
O O7 0.045041 0.176860 0.837360
O O8 0.000000 0.000000 0.000000
O O9 0.403938 0.627272 0.362376
O O10 0.121549 0.881188 0.288983
O O11 0.237508 0.099039 0.415280
O O12 0.000000 0.000000 0.500000
O O13 0.096408 0.271708 0.640867
O O14 0.307231 0.820748 0.636383
O O15 0.274762 0.426451 0.489403
O O16 0.500000 0.000000 0.500000
#
# Coordination Sequence:
#
# PCOD9005720 Si02
#       7
#     2   2   2   2   2   2   2
#     4  11  22  40  65  90 129 163 220 264 317 377
#     4  10  23  40  62  94 124 173 206 264 322 374
#     4  11  21  40  64  90 128 170 208 265 317 374
#     4  10  21  38  63  91 125 162 205 259 306 371
#     4   9  21  38  60  89 124 161 207 249 311 368
#     4  10  21  40  62  88 129 159 207 253 316 375
#     4   9  20  39  62  90 123 160 201 251 312 372
#
# _framework density 24.965688
#
# number of rings (size 3 to 8) (size 9 to 14) (size 15 to 20)
#    0.000    2.000    1.429    1.286    0.000    9.714 
#    0.000    1.429    9.429    0.000    0.000    0.000 
#    0.000    0.000    0.000    0.000    0.000    0.000 
#
# Total GULP energy -78239.613143 kJ/mol
# GULP energy per Si atom -5588.543796 kJ/mol
# Density = 2.490887 g / cm^3
# Si number density = 24.965688 Si / 1000 Ang^3
#
#
#
# Elastic Constant Matrix: (Units=GPa)
#
#
# Indices 1 2 3 4 5 6 
#
# 1 91.1521 21.7386 11.8267 -14.1582 2.0158 0.0113
# 2 21.7386 120.0284 5.1249 -9.7594 -14.0389 -8.1893
# 3 11.8267 5.1249 70.0333 -12.4907 11.3957 12.3187
# 4 -14.1582 -9.7594 -12.4907 25.5712 2.7390 4.4306
# 5 2.0158 -14.0389 11.3957 2.7390 37.7452 -5.0366
# 6 0.0113 -8.1893 12.3187 4.4306 -5.0366 44.8249
#
#
#
# Elastic Compliance Matrix: (Units=1/GPa)
#
#
# Indices 1 2 3 4 5 6 
#
# 1 0.012538 -0.002043 -0.000302 0.006424 -0.001958 -0.001148
# 2 -0.002043 0.009509 -0.001318 0.000962 0.004306 0.002489
# 3 -0.000302 -0.001318 0.018932 0.010711 -0.007954 -0.007396
# 4 0.006424 0.000962 0.010711 0.050628 -0.008051 -0.008678
# 5 -0.001958 0.004306 -0.007954 -0.008051 0.032170 0.007384
# 6 -0.001148 0.002489 -0.007396 -0.008678 0.007384 0.026484
#
#
# Mechanical properties :
#
#
# Convention : Reuss Voigt Hill
#
# Bulk Modulus (GPa) = 29.71346 39.84379 34.77863
# Shear Modulus (GPa) = 29.62001 37.79651 33.70826
#
# Velocity S-wave (km/s) = 3.44819 3.89516 3.67847
# Velocity P-wave (km/s) = 5.27076 6.01862 5.65706
#
# Compressibility (1/GPa) = 0.03365479
#
# Stress axis : x y z
#
# Youngs Moduli (GPa) = 79.75593 105.16011 52.82119
#
# Poissons Ratio (x) = 0.21484 0.01593
# Poissons Ratio (y) = 0.16294 0.06960
# Poissons Ratio (z) = 0.02405 0.13857
#
# Static dielectric constant tensor:
#      x y z
#    x 2.016300 -0.025790 -0.002760 
#    y -0.025790 2.052510 0.028080 
#    z -0.002760 0.028080 2.049510 
# 
# From -- ./inp_files/89663.got.cif
#   From: 2010.05.17/outbox.cif.g08.bks.cpg/sg2_45_cif.got.tgz:89663.got - 2010.06.03 11:33:40.
