data_PCOD9005319
_publ_section_title
;
Structure prediction by ZEFSAII (Michael W. Deem and Ramdas Pophale) SiO2 
 PCOD9005319
Probable space group: P -1
;
_chemical_formula_sum "Si O2"
_cell_formula_units_Z 14
_cell_length_a 16.022903
_cell_length_b 11.913057
_cell_length_c 9.954141
_cell_angle_alpha 37.881914
_cell_angle_beta 143.803020
_cell_angle_gamma 129.966070
_cell_volume 688.938412
_symmetry_space_group_name_H-M "P -1"
_symmetry_group_IT_number 2
_symmetry_cell_setting 'triclinic'
loop_
_space_group_symop_operation_xyz
x,y,z
-x,-y,-z
loop_
_atom_site_type_symbol
_atom_site_label
_atom_site_fract_x
_atom_site_fract_y
_atom_site_fract_z
Si Si1 0.763205 0.006283 0.525135
Si Si2 0.009095 0.927227 0.730696
Si Si3 0.228499 0.031668 0.127850
Si Si4 0.485739 0.266518 0.574592
Si Si5 0.400351 0.353817 0.932203
Si Si6 0.747982 0.316417 0.669702
Si Si7 0.408955 0.668676 0.050914
O O1 0.822991 0.969988 0.785113
O O2 0.610133 0.908291 0.414960
O O3 0.858842 0.922043 0.612938
O O4 0.733502 0.219856 0.261047
O O5 0.097244 0.739749 0.026036
O O6 0.000000 0.000000 0.500000
O O7 0.106436 0.054125 0.836078
O O8 0.345635 0.187383 0.108092
O O9 0.283543 0.829020 0.353870
O O10 0.270643 0.477790 0.596486
O O11 0.630138 0.276337 0.667807
O O12 0.398960 0.448642 0.251831
O O13 0.484619 0.287071 0.974606
O O14 0.500000 0.500000 0.000000
O O15 0.524609 0.273784 0.774731
#
# Coordination Sequence:
#
# PCOD9005319 Si02
#       7
#     2   2   2   2   2   2   2
#     4  12  22  39  63  90 121 162 200 252 304 357
#     4  10  24  43  62  85 125 165 205 245 305 364
#     4  10  23  39  61  89 121 162 200 250 302 358
#     4  10  21  38  61  92 122 154 208 252 300 357
#     4  11  21  38  63  93 122 156 203 250 305 362
#     4   9  21  40  61  88 124 156 202 251 296 363
#     4  10  22  35  61  92 123 156 202 255 303 355
#
# _framework density 20.321121000000002
#
# number of rings (size 3 to 8) (size 9 to 14) (size 15 to 20)
#    0.857    0.857    0.000    5.143    2.000    1.714 
#    2.571    1.429    0.000    0.000    0.000    0.000 
#    0.000    0.000    0.000    0.000    0.000    0.000 
#
# Total GULP energy -78121.922997 kJ/mol
# GULP energy per Si atom -5580.137357 kJ/mol
# Density = 2.027487 g / cm^3
# Si number density = 20.321121 Si / 1000 Ang^3
#
#
#
# Elastic Constant Matrix: (Units=GPa)
#
#
# Indices 1 2 3 4 5 6 
#
# 1 108.3439 5.9174 44.7230 -8.2433 -12.5672 -20.1493
# 2 5.9174 33.7162 2.8968 -5.5804 -7.1020 -6.1827
# 3 44.7230 2.8968 96.8612 -4.2289 1.0763 -12.3544
# 4 -8.2433 -5.5804 -4.2289 19.5663 -16.1896 -2.2439
# 5 -12.5672 -7.1020 1.0763 -16.1896 38.4614 2.9293
# 6 -20.1493 -6.1827 -12.3544 -2.2439 2.9293 23.7936
#
#
#
# Elastic Compliance Matrix: (Units=1/GPa)
#
#
# Indices 1 2 3 4 5 6 
#
# 1 0.017183 0.006900 -0.005597 0.022298 0.015392 0.013646
# 2 0.006900 0.043010 -0.000948 0.037296 0.024626 0.017013
# 3 -0.005597 -0.000948 0.013125 -0.002529 -0.003591 0.002032
# 4 0.022298 0.037296 -0.002529 0.128881 0.066111 0.031276
# 5 0.015392 0.024626 -0.003591 0.066111 0.062276 0.016137
# 6 0.013646 0.017013 0.002032 0.031276 0.016137 0.060023
#
#
# Mechanical properties :
#
#
# Convention : Reuss Voigt Hill
#
# Bulk Modulus (GPa) = 13.50824 38.44396 25.97610
# Shear Modulus (GPa) = 14.34867 28.72321 21.53594
#
# Velocity S-wave (km/s) = 2.66013 3.76369 3.25896
# Velocity P-wave (km/s) = 4.01209 6.15194 5.19342
#
# Compressibility (1/GPa) = 0.07402891
#
# Stress axis : x y z
#
# Youngs Moduli (GPa) = 58.19646 23.25063 76.18787
#
# Poissons Ratio (x) = -0.16043 0.42644
# Poissons Ratio (y) = -0.40157 0.07220
# Poissons Ratio (z) = 0.32574 0.02203
#
# Static dielectric constant tensor:
#      x y z
#    x 1.698090 -0.013210 0.021940 
#    y -0.013210 1.704610 0.014320 
#    z 0.021940 0.014320 1.777410 
# 
# From -- ./inp_files/300280.got.cif
#   From: 2010.05.17/outbox.cif.g08.bks.cpg/sg2_151_cif.got.tgz:300280.got - 2010.06.03 11:33:40.
