data_PCOD9005957
_publ_section_title
;
Structure prediction by ZEFSAII (Michael W. Deem and Ramdas Pophale) SiO2 
 PCOD9005957
Probable space group: P -1
;
_chemical_formula_sum "Si O2"
_cell_formula_units_Z 16
_cell_length_a 11.861986
_cell_length_b 12.876268
_cell_length_c 8.425381
_cell_angle_alpha 145.399855
_cell_angle_beta 107.735482
_cell_angle_gamma 57.723274
_cell_volume 592.926543
_symmetry_space_group_name_H-M "P -1"
_symmetry_group_IT_number 2
_symmetry_cell_setting 'triclinic'
loop_
_space_group_symop_operation_xyz
x,y,z
-x,-y,-z
loop_
_atom_site_type_symbol
_atom_site_label
_atom_site_fract_x
_atom_site_fract_y
_atom_site_fract_z
Si Si1 0.594945 0.537057 0.965604
Si Si2 0.088348 0.341849 0.027668
Si Si3 0.671578 0.088408 0.735068
Si Si4 0.219715 0.344994 0.594287
Si Si5 0.947489 0.951373 0.578279
Si Si6 0.630171 0.011362 0.257418
Si Si7 0.792242 0.343360 0.536443
Si Si8 0.610465 0.664586 0.636020
O O1 0.474302 0.715007 0.025695
O O2 0.681172 0.618080 0.201128
O O3 0.500000 0.500000 0.000000
O O4 0.714703 0.355693 0.680876
O O5 0.161965 0.478579 0.212727
O O6 0.941516 0.479153 0.224009
O O7 0.066066 0.251592 0.738480
O O8 0.206792 0.121205 0.884411
O O9 0.741536 0.893265 0.641951
O O10 0.793958 0.131589 0.794199
O O11 0.631347 0.030810 0.473214
O O12 0.269442 0.357265 0.456860
O O13 0.060957 0.877566 0.672034
O O14 0.000000 0.000000 0.500000
O O15 0.526458 0.233055 0.402772
O O16 0.577860 0.854463 0.983727
O O17 0.679588 0.435100 0.463449
#
# Coordination Sequence:
#
# PCOD9005957 Si02
#       8
#     2   2   2   2   2   2   2   2
#     4  12  25  40  62  91 126 162 207 258 305 362
#     4  10  21  38  64  90 120 160 204 255 302 355
#     4  11  23  38  64  95 117 160 216 258 302 350
#     4  12  22  39  65  93 124 159 211 257 303 364
#     4  11  21  38  64  91 123 159 205 255 309 360
#     4   9  20  36  57  90 123 154 203 249 307 351
#     4  11  22  42  64  90 126 158 206 254 310 366
#     4  10  22  36  61  93 125 162 196 257 314 362
#
# _framework density 26.984793
#
# number of rings (size 3 to 8) (size 9 to 14) (size 15 to 20)
#    0.000    1.250    3.750    3.750    5.250    2.000 
#    0.000    0.625    0.000    0.750    0.000    0.000 
#    0.000    0.000    0.000    0.000    0.000    0.000 
#
# Total GULP energy -89544.164856 kJ/mol
# GULP energy per Si atom -5596.510303 kJ/mol
# Density = 2.692337 g / cm^3
# Si number density = 26.984793 Si / 1000 Ang^3
#
#
#
# Elastic Constant Matrix: (Units=GPa)
#
#
# Indices 1 2 3 4 5 6 
#
# 1 156.4925 38.1623 22.3354 11.9322 -21.6424 -11.3159
# 2 38.1623 164.2263 7.5362 6.6805 -22.9845 -29.1809
# 3 22.3354 7.5362 47.0038 4.8464 -9.2337 -13.3499
# 4 11.9322 6.6805 4.8464 30.5443 -10.9476 -9.0228
# 5 -21.6424 -22.9845 -9.2337 -10.9476 41.2882 12.7018
# 6 -11.3159 -29.1809 -13.3499 -9.0228 12.7018 54.9187
#
#
#
# Elastic Compliance Matrix: (Units=1/GPa)
#
#
# Indices 1 2 3 4 5 6 
#
# 1 0.007529 -0.001344 -0.002934 -0.001541 0.002340 -0.000670
# 2 -0.001344 0.007301 0.000867 0.000747 0.002736 0.003303
# 3 -0.002934 0.000867 0.024570 -0.000445 0.002746 0.005120
# 4 -0.001541 0.000747 -0.000445 0.037413 0.008124 0.004239
# 5 0.002340 0.002736 0.002746 0.008124 0.030711 -0.003165
# 6 -0.000670 0.003303 0.005120 0.004239 -0.003165 0.022499
#
#
# Mechanical properties :
#
#
# Convention : Reuss Voigt Hill
#
# Bulk Modulus (GPa) = 30.69637 55.97673 43.33655
# Shear Modulus (GPa) = 33.85127 45.32948 39.59037
#
# Velocity S-wave (km/s) = 3.54567 4.10300 3.83448
# Velocity P-wave (km/s) = 5.30684 6.57533 5.97484
#
# Compressibility (1/GPa) = 0.03257714
#
# Stress axis : x y z
#
# Youngs Moduli (GPa) = 132.81587 136.96565 40.70051
#
# Poissons Ratio (x) = 0.18407 0.11942
# Poissons Ratio (y) = 0.17849 -0.03527
# Poissons Ratio (z) = 0.38970 -0.11869
#
# Static dielectric constant tensor:
#      x y z
#    x 2.088470 0.012930 0.053370 
#    y 0.012930 2.192210 0.066950 
#    z 0.053370 0.066950 2.157240 
# 
# From -- ./inp_files/263497.got.cif
#   From: 2010.05.17/outbox.cif.g08.bks.cpg/sg2_132_cif.got.tgz:263497.got - 2010.06.03 11:33:40.
