data_PCOD9005442
_publ_section_title
;
Structure prediction by ZEFSAII (Michael W. Deem and Ramdas Pophale) SiO2 
 PCOD9005442
Probable space group: P -1
;
_chemical_formula_sum "Si O2"
_cell_formula_units_Z 16
_cell_length_a 15.890263
_cell_length_b 13.449965
_cell_length_c 15.381143
_cell_angle_alpha 51.649321
_cell_angle_beta 128.554675
_cell_angle_gamma 162.373803
_cell_volume 773.549864
_symmetry_space_group_name_H-M "P -1"
_symmetry_group_IT_number 2
_symmetry_cell_setting 'triclinic'
loop_
_space_group_symop_operation_xyz
x,y,z
-x,-y,-z
loop_
_atom_site_type_symbol
_atom_site_label
_atom_site_fract_x
_atom_site_fract_y
_atom_site_fract_z
Si Si1 0.533049 0.161778 0.989556
Si Si2 0.854826 0.999351 0.584912
Si Si3 0.899940 0.266598 0.611348
Si Si4 0.598227 0.508388 0.786019
Si Si5 0.556028 0.270415 0.250891
Si Si6 0.139975 0.846967 0.050274
Si Si7 0.252219 0.311281 0.556316
Si Si8 0.620117 0.630275 0.104234
O O1 0.819421 0.461288 0.066834
O O2 0.274483 0.916206 0.018832
O O3 0.582093 0.340263 0.864963
O O4 0.500000 0.000000 0.000000
O O5 0.839317 0.846705 0.707213
O O6 0.557399 0.679487 0.514961
O O7 0.848288 0.102271 0.595129
O O8 0.127325 0.291199 0.542973
O O9 0.165988 0.507409 0.707836
O O10 0.000000 0.500000 0.500000
O O11 0.626958 0.981907 0.650044
O O12 0.331765 0.281646 0.687708
O O13 0.586079 0.543051 0.859150
O O14 0.661449 0.526861 0.203830
O O15 0.345886 0.050561 0.153546
O O16 0.148444 0.006928 0.946284
O O17 0.000000 0.000000 0.500000
O O18 0.500000 0.500000 0.000000
#
# Coordination Sequence:
#
# PCOD9005442 Si02
#       8
#     2   2   2   2   2   2   2   2
#     4  11  23  40  60  87 124 162 205 245 302 370
#     4  10  21  38  63  86 120 154 206 251 304 356
#     4  12  24  40  63  90 123 167 203 243 310 375
#     4   9  21  35  63  87 119 159 202 246 307 356
#     4  11  22  40  63  90 128 157 199 253 306 369
#     4  10  23  39  62  92 124 158 204 249 305 372
#     4  10  21  38  62  89 117 152 211 264 307 343
#     4   9  18  35  62  97 122 155 197 251 307 366
#
# _framework density 20.683862000000001
#
# number of rings (size 3 to 8) (size 9 to 14) (size 15 to 20)
#    0.750    1.000    1.250    3.375    5.250    0.000 
#    0.000    8.750    0.000    0.000    0.000    0.000 
#    0.000    0.000    0.000    0.000    0.000    0.000 
#
# Total GULP energy -89226.078742 kJ/mol
# GULP energy per Si atom -5576.629921 kJ/mol
# Density = 2.063679 g / cm^3
# Si number density = 20.683862 Si / 1000 Ang^3
#
#
#
# Elastic Constant Matrix: (Units=GPa)
#
#
# Indices 1 2 3 4 5 6 
#
# 1 67.6542 19.4733 20.4662 -3.0930 8.0273 -8.8394
# 2 19.4733 80.8519 27.2254 17.7785 7.5884 1.8722
# 3 20.4662 27.2254 47.3516 -3.8867 9.2854 -5.4443
# 4 -3.0930 17.7785 -3.8867 33.6383 -1.6679 3.8592
# 5 8.0273 7.5884 9.2854 -1.6679 22.0166 -2.2503
# 6 -8.8394 1.8722 -5.4443 3.8592 -2.2503 30.1497
#
#
#
# Elastic Compliance Matrix: (Units=1/GPa)
#
#
# Indices 1 2 3 4 5 6 
#
# 1 0.018101 -0.002987 -0.004888 0.002059 -0.002931 0.004127
# 2 -0.002987 0.019555 -0.010777 -0.011656 -0.002266 -0.002713
# 3 -0.004888 -0.010777 0.031860 0.008189 -0.006970 0.003421
# 4 0.002059 -0.011656 0.008189 0.037352 0.002459 -0.001791
# 5 -0.002931 -0.002266 -0.006970 0.002459 0.050547 0.001481
# 6 0.004127 -0.002713 0.003421 -0.001791 0.001481 0.035504
#
#
# Mechanical properties :
#
#
# Convention : Reuss Voigt Hill
#
# Bulk Modulus (GPa) = 31.04387 36.68751 33.86569
# Shear Modulus (GPa) = 20.75043 25.74044 23.24544
#
# Velocity S-wave (km/s) = 3.17080 3.53153 3.35602
# Velocity P-wave (km/s) = 5.33354 5.86555 5.60586
#
# Compressibility (1/GPa) = 0.03221248
#
# Stress axis : x y z
#
# Youngs Moduli (GPa) = 55.24691 51.13717 31.38758
#
# Poissons Ratio (x) = 0.15275 0.15341
# Poissons Ratio (y) = 0.16503 0.33826
# Poissons Ratio (z) = 0.27003 0.55110
#
# Static dielectric constant tensor:
#      x y z
#    x 1.709600 0.005060 0.011980 
#    y 0.005060 1.764120 0.042490 
#    z 0.011980 0.042490 1.731820 
# 
# From -- ./inp_files/573587.got.cif
#   From: 2010.05.17/outbox.cif.g08.bks.cpg/sg2_287_cif.got.tgz:573587.got - 2010.06.03 11:33:40.
