data_PCOD9005796
_publ_section_title
;
Structure prediction by ZEFSAII (Michael W. Deem and Ramdas Pophale) SiO2 
 PCOD9005796
Probable space group: P -1
;
_chemical_formula_sum "Si O2"
_cell_formula_units_Z 16
_cell_length_a 24.125614
_cell_length_b 12.810827
_cell_length_c 15.234759
_cell_angle_alpha 144.170999
_cell_angle_beta 24.637616
_cell_angle_gamma 156.236833
_cell_volume 784.683566
_symmetry_space_group_name_H-M "P -1"
_symmetry_group_IT_number 2
_symmetry_cell_setting 'triclinic'
loop_
_space_group_symop_operation_xyz
x,y,z
-x,-y,-z
loop_
_atom_site_type_symbol
_atom_site_label
_atom_site_fract_x
_atom_site_fract_y
_atom_site_fract_z
Si Si1 0.572957 0.542293 0.019083
Si Si2 0.203884 0.788506 0.584706
Si Si3 0.991725 0.057866 0.336458
Si Si4 0.881651 0.218525 0.748341
Si Si5 0.056295 0.357495 0.286673
Si Si6 0.504213 0.816341 0.418619
Si Si7 0.536961 0.166457 0.902222
Si Si8 0.949654 0.647903 0.208377
O O1 0.572589 0.723693 0.195558
O O2 0.500000 0.500000 0.000000
O O3 0.457979 0.274833 0.050010
O O4 0.784888 0.669855 0.788768
O O5 0.051972 0.761491 0.731115
O O6 0.348072 0.834628 0.337521
O O7 0.064026 0.516566 0.654193
O O8 0.347462 0.025715 0.606758
O O9 0.992833 0.848734 0.213749
O O10 0.875966 0.047868 0.571693
O O11 0.962624 0.116066 0.321698
O O12 0.940429 0.225437 0.769127
O O13 0.675239 0.122149 0.966813
O O14 0.000000 0.500000 0.500000
O O15 0.293522 0.603982 0.116914
O O16 0.281368 0.564265 0.591829
O O17 0.500000 0.000000 0.500000
O O18 0.000000 0.500000 0.000000
#
# Coordination Sequence:
#
# PCOD9005796 Si02
#       8
#     2   2   2   2   2   2   2   2
#     4  11  20  37  61  88 124 163 209 261 314 379
#     4  11  22  43  63  94 129 167 214 266 320 381
#     4  11  22  40  64  92 129 164 215 270 316 374
#     4  12  21  39  68  95 127 166 214 266 325 382
#     4   9  19  42  65  91 130 168 211 274 311 373
#     4  12  23  39  62  88 127 171 208 257 333 380
#     4  10  21  38  63  94 120 165 215 259 317 371
#     4  12  25  40  61  97 131 164 214 270 323 389
#
# _framework density 20.390384000000001
#
# number of rings (size 3 to 8) (size 9 to 14) (size 15 to 20)
#    0.000    1.000    5.000    4.875    0.000    0.500 
#    0.000    3.125    0.000    0.000    0.000    0.000 
#    0.000    0.000    0.000    0.000    0.000    0.000 
#
# Total GULP energy -89135.804665 kJ/mol
# GULP energy per Si atom -5570.987792 kJ/mol
# Density = 2.034397 g / cm^3
# Si number density = 20.390384 Si / 1000 Ang^3
#
#
#
# Elastic Constant Matrix: (Units=GPa)
#
#
# Indices 1 2 3 4 5 6 
#
# 1 126.9995 43.9777 29.1958 7.7576 -23.4818 21.0997
# 2 43.9777 76.6983 35.3478 -13.2745 -2.6411 15.7097
# 3 29.1958 35.3478 98.2302 -18.0666 7.6661 15.1883
# 4 7.7576 -13.2745 -18.0666 40.1371 -1.0619 -4.9919
# 5 -23.4818 -2.6411 7.6661 -1.0619 24.6557 -2.3514
# 6 21.0997 15.7097 15.1883 -4.9919 -2.3514 49.0050
#
#
#
# Elastic Compliance Matrix: (Units=1/GPa)
#
#
# Indices 1 2 3 4 5 6 
#
# 1 0.014462 -0.006647 -0.003744 -0.006686 0.013655 -0.002961
# 2 -0.006647 0.019787 -0.003519 0.005924 -0.003046 -0.001934
# 3 -0.003744 -0.003519 0.014498 0.005668 -0.008356 -0.001577
# 4 -0.006686 0.005924 0.005668 0.030818 -0.005970 0.002075
# 5 0.013655 -0.003046 -0.008356 -0.005970 0.055554 -0.000255
# 6 -0.002961 -0.001934 -0.001577 0.002075 -0.000255 0.022989
#
#
# Mechanical properties :
#
#
# Convention : Reuss Voigt Hill
#
# Bulk Modulus (GPa) = 47.78319 57.66341 52.72330
# Shear Modulus (GPa) = 25.92000 35.65333 30.78667
#
# Velocity S-wave (km/s) = 3.56924 4.18609 3.88991
# Velocity P-wave (km/s) = 6.36168 7.19066 6.78883
#
# Compressibility (1/GPa) = 0.02092786
#
# Stress axis : x y z
#
# Youngs Moduli (GPa) = 69.14909 50.53705 68.97730
#
# Poissons Ratio (x) = 0.33592 0.25823
# Poissons Ratio (y) = 0.45964 0.24270
# Poissons Ratio (z) = 0.25887 0.17782
#
# Static dielectric constant tensor:
#      x y z
#    x 1.693320 -0.027380 0.040320 
#    y -0.027380 1.797680 -0.074080 
#    z 0.040320 -0.074080 1.866770 
# 
# From -- ./inp_files/579845.got.cif
#   From: 2010.05.17/outbox.cif.g08.bks.cpg/sg2_290_cif.got.tgz:579845.got - 2010.06.03 11:33:40.
