data_PCOD9005928
_publ_section_title
;
Structure prediction by ZEFSAII (Michael W. Deem and Ramdas Pophale) SiO2 
 PCOD9005928
Probable space group: P -1
;
_chemical_formula_sum "Si O2"
_cell_formula_units_Z 14
_cell_length_a 6.562665
_cell_length_b 20.211239
_cell_length_c 9.213375
_cell_angle_alpha 144.971636
_cell_angle_beta 57.801241
_cell_angle_gamma 126.814316
_cell_volume 559.189498
_symmetry_space_group_name_H-M "P -1"
_symmetry_group_IT_number 2
_symmetry_cell_setting 'triclinic'
loop_
_space_group_symop_operation_xyz
x,y,z
-x,-y,-z
loop_
_atom_site_type_symbol
_atom_site_label
_atom_site_fract_x
_atom_site_fract_y
_atom_site_fract_z
Si Si1 0.771821 0.399431 0.733810
Si Si2 0.941631 0.360461 0.313840
Si Si3 0.423195 0.033523 0.302438
Si Si4 0.279376 0.745439 0.233671
Si Si5 0.188960 0.324099 0.865643
Si Si6 0.077549 0.935613 0.995905
Si Si7 0.484063 0.211225 0.065126
O O1 0.952876 0.360695 0.483458
O O2 0.823387 0.363585 0.810849
O O3 0.466024 0.324243 0.716435
O O4 0.801066 0.538694 0.935218
O O5 0.000000 0.500000 0.500000
O O6 0.637139 0.292066 0.283303
O O7 0.101342 0.310289 0.045090
O O8 0.490670 0.139680 0.586883
O O9 0.668389 0.086359 0.197316
O O10 0.446817 0.913509 0.158843
O O11 0.175549 0.998677 0.229072
O O12 0.381630 0.709897 0.982472
O O13 0.028805 0.773097 0.322175
O O14 0.813933 0.826590 0.915299
O O15 0.000000 0.000000 0.000000
#
# Coordination Sequence:
#
# PCOD9005928 Si02
#       7
#     2   2   2   2   2   2   2
#     4  10  21  38  64  88 122 167 208 252 311 360
#     4   9  20  39  64  90 120 161 206 252 305 364
#     4  10  22  38  59  88 121 162 203 254 307 361
#     4  11  23  36  60  92 121 161 209 251 305 372
#     4   9  21  42  59  89 127 160 205 263 304 363
#     4   9  21  38  58  84 119 156 205 250 300 362
#     4  10  22  39  60  86 128 160 199 257 305 366
#
# _framework density 25.036235000000001
#
# number of rings (size 3 to 8) (size 9 to 14) (size 15 to 20)
#    0.000    2.286    0.000    0.857    8.000    4.000 
#    0.000    0.000    0.000   10.286    0.000    0.000 
#    0.000    0.000    0.000    0.000    0.000    0.000 
#
# Total GULP energy -78027.913565 kJ/mol
# GULP energy per Si atom -5573.422398 kJ/mol
# Density = 2.497925 g / cm^3
# Si number density = 25.036235 Si / 1000 Ang^3
#
#
#
# Elastic Constant Matrix: (Units=GPa)
#
#
# Indices 1 2 3 4 5 6 
#
# 1 93.7289 36.6301 21.5869 7.8213 -5.7208 2.1039
# 2 36.6301 139.3240 25.2072 -20.2179 -5.3998 -6.0773
# 3 21.5869 25.2072 45.4060 -2.1385 -5.3905 -15.9219
# 4 7.8213 -20.2179 -2.1385 45.9291 2.0050 11.3416
# 5 -5.7208 -5.3998 -5.3905 2.0050 19.9249 4.0849
# 6 2.1039 -6.0773 -15.9219 11.3416 4.0849 46.2434
#
#
#
# Elastic Compliance Matrix: (Units=1/GPa)
#
#
# Indices 1 2 3 4 5 6 
#
# 1 0.013622 -0.003113 -0.005415 -0.003492 0.002415 -0.002250
# 2 -0.003113 0.009342 -0.003842 0.004731 0.000357 -0.001145
# 3 -0.005415 -0.003842 0.030769 -0.002099 0.003783 0.010516
# 4 -0.003492 0.004731 -0.002099 0.025945 -0.001636 -0.006161
# 5 0.002415 0.000357 0.003783 -0.001636 0.052787 -0.003022
# 6 -0.002250 -0.001145 0.010516 -0.006161 -0.003022 0.026975
#
#
# Mechanical properties :
#
#
# Convention : Reuss Voigt Hill
#
# Bulk Modulus (GPa) = 34.49247 49.47859 41.98553
# Shear Modulus (GPa) = 25.79410 35.42181 30.60795
#
# Velocity S-wave (km/s) = 3.21327 3.76549 3.50029
# Velocity P-wave (km/s) = 5.25107 6.22181 5.75694
#
# Compressibility (1/GPa) = 0.02899183
#
# Stress axis : x y z
#
# Youngs Moduli (GPa) = 73.41035 107.04911 32.50062
#
# Poissons Ratio (x) = 0.33325 0.17598
# Poissons Ratio (y) = 0.22853 0.12488
# Poissons Ratio (z) = 0.39750 0.41133
#
# Static dielectric constant tensor:
#      x y z
#    x 2.110210 -0.004820 -0.036260 
#    y -0.004820 1.999270 -0.029750 
#    z -0.036260 -0.029750 2.088990 
# 
# From -- ./inp_files/117231.got.cif
#   From: 2010.05.17/outbox.cif.g08.bks.cpg/sg2_59_cif.got.tgz:117231.got - 2010.06.03 11:33:40.
