data_PCOD9005688
_publ_section_title
;
Structure prediction by ZEFSAII (Michael W. Deem and Ramdas Pophale) SiO2 
 PCOD9005688
Probable space group: P -1
;
_chemical_formula_sum "Si O2"
_cell_formula_units_Z 14
_cell_length_a 14.472651
_cell_length_b 5.138809
_cell_length_c 9.046759
_cell_angle_alpha 114.574015
_cell_angle_beta 102.141875
_cell_angle_gamma 100.292421
_cell_volume 570.767167
_symmetry_space_group_name_H-M "P -1"
_symmetry_group_IT_number 2
_symmetry_cell_setting 'triclinic'
loop_
_space_group_symop_operation_xyz
x,y,z
-x,-y,-z
loop_
_atom_site_type_symbol
_atom_site_label
_atom_site_fract_x
_atom_site_fract_y
_atom_site_fract_z
Si Si1 0.276568 0.467066 0.597943
Si Si2 0.294553 0.489364 0.085960
Si Si3 0.818144 0.006771 0.309480
Si Si4 0.013324 0.931871 0.232010
Si Si5 0.566815 0.315108 0.051246
Si Si6 0.104276 0.433475 0.176835
Si Si7 0.570123 0.343621 0.568023
O O1 0.213971 0.150843 0.578507
O O2 0.371841 0.527025 0.751416
O O3 0.333011 0.582438 0.489458
O O4 0.209274 0.688102 0.647197
O O5 0.210831 0.568474 0.171322
O O6 0.381452 0.486199 0.226730
O O7 0.244009 0.208434 0.895483
O O8 0.351511 0.734635 0.046167
O O9 0.931962 0.030771 0.319746
O O10 0.053488 0.683261 0.262439
O O11 0.957592 0.760483 0.025728
O O12 0.098918 0.211407 0.259636
O O13 0.500000 0.500000 0.000000
O O14 0.500000 0.000000 0.000000
O O15 0.500000 0.500000 0.500000
O O16 0.500000 0.000000 0.500000
#
# Coordination Sequence:
#
# PCOD9005688 Si02
#       7
#     2   2   2   2   2   2   2
#     4  11  22  38  59  85 117 155 194 238 297 348
#     4  10  23  39  62  88 117 154 201 243 288 345
#     4  10  21  38  63  90 117 152 194 241 289 349
#     4   9  17  32  55  86 117 144 182 235 293 341
#     4  11  21  35  55  80 108 142 190 242 283 330
#     4   9  18  31  54  86 116 145 184 238 288 340
#     4  12  26  43  60  84 120 160 198 243 295 346
#
# _framework density 24.528390000000002
#
# number of rings (size 3 to 8) (size 9 to 14) (size 15 to 20)
#    0.000    1.714    0.000    5.143    0.000   11.429 
#    0.000    0.000    0.000    5.143    0.000    0.000 
#    0.000    0.000    0.000    0.000    0.000    0.000 
#
# Total GULP energy -78201.811780 kJ/mol
# GULP energy per Si atom -5585.843699 kJ/mol
# Density = 2.447256 g / cm^3
# Si number density = 24.528390 Si / 1000 Ang^3
#
#
#
# Elastic Constant Matrix: (Units=GPa)
#
#
# Indices 1 2 3 4 5 6 
#
# 1 116.1816 47.3679 15.4970 -0.9787 -16.9567 12.6317
# 2 47.3679 128.7036 11.0405 -25.8472 -0.5674 2.0029
# 3 15.4970 11.0405 95.3661 -11.8193 -5.3922 5.7419
# 4 -0.9787 -25.8472 -11.8193 27.8407 6.2137 -0.7431
# 5 -16.9567 -0.5674 -5.3922 6.2137 20.0633 -11.6426
# 6 12.6317 2.0029 5.7419 -0.7431 -11.6426 56.3182
#
#
#
# Elastic Compliance Matrix: (Units=1/GPa)
#
#
# Indices 1 2 3 4 5 6 
#
# 1 0.013481 -0.006664 -0.001833 -0.009554 0.013738 0.000114
# 2 -0.006664 0.013018 0.000853 0.014432 -0.010052 -0.000943
# 3 -0.001833 0.000853 0.011403 0.005707 -0.000725 -0.000856
# 4 -0.009554 0.014432 0.005707 0.057083 -0.025870 -0.003547
# 5 0.013738 -0.010052 -0.000725 -0.025870 0.076417 0.012806
# 6 0.000114 -0.000943 -0.000856 -0.003547 0.012806 0.020452
#
#
# Mechanical properties :
#
#
# Convention : Reuss Voigt Hill
#
# Bulk Modulus (GPa) = 44.22350 54.22913 49.22632
# Shear Modulus (GPa) = 23.29033 38.60085 30.94559
#
# Velocity S-wave (km/s) = 3.08478 3.97132 3.55579
# Velocity P-wave (km/s) = 5.54585 6.57155 6.08037
#
# Compressibility (1/GPa) = 0.02261241
#
# Stress axis : x y z
#
# Youngs Moduli (GPa) = 74.17882 76.81670 87.69635
#
# Poissons Ratio (x) = 0.51193 0.16078
# Poissons Ratio (y) = 0.49435 -0.07480
# Poissons Ratio (z) = 0.13600 -0.06552
#
# Static dielectric constant tensor:
#      x y z
#    x 1.979940 0.098060 -0.014640 
#    y 0.098060 1.950690 0.002050 
#    z -0.014640 0.002050 2.033810 
# 
# From -- ./inp_files/288017.got.cif
#   From: 2010.05.17/outbox.cif.g08.bks.cpg/sg2_145_cif.got.tgz:288017.got - 2010.06.03 11:33:40.
