data_PCOD9005346
_publ_section_title
;
Structure prediction by ZEFSAII (Michael W. Deem and Ramdas Pophale) SiO2 
 PCOD9005346
Probable space group: P -1
;
_chemical_formula_sum "Si O2"
_cell_formula_units_Z 14
_cell_length_a 27.480968
_cell_length_b 11.737039
_cell_length_c 4.982954
_cell_angle_alpha 62.135523
_cell_angle_beta 102.529109
_cell_angle_gamma 153.440127
_cell_volume 546.939842
_symmetry_space_group_name_H-M "P -1"
_symmetry_group_IT_number 2
_symmetry_cell_setting 'triclinic'
loop_
_space_group_symop_operation_xyz
x,y,z
-x,-y,-z
loop_
_atom_site_type_symbol
_atom_site_label
_atom_site_fract_x
_atom_site_fract_y
_atom_site_fract_z
Si Si1 0.441750 0.220076 0.740081
Si Si2 0.309726 0.316344 0.508346
Si Si3 0.905702 0.275667 0.388646
Si Si4 0.203127 0.795509 0.006563
Si Si5 0.246914 0.425287 0.531772
Si Si6 0.968106 0.783701 0.808799
Si Si7 0.279684 0.686937 0.768247
O O1 0.500000 0.500000 0.500000
O O2 0.555832 0.400615 0.768166
O O3 0.307619 0.935061 0.028956
O O4 0.396988 0.056872 0.580133
O O5 0.316989 0.456701 0.549157
O O6 0.201371 0.083679 0.409777
O O7 0.255542 0.058460 0.884762
O O8 0.822169 0.207994 0.327390
O O9 0.000000 0.500000 0.500000
O O10 0.000000 0.500000 0.000000
O O11 0.073563 0.406866 0.281770
O O12 0.292197 0.628730 0.590312
O O13 0.267304 0.555256 0.142176
O O14 0.096921 0.039503 0.811469
O O15 0.847928 0.530493 0.131699
O O16 0.000000 0.000000 0.500000
#
# Coordination Sequence:
#
# PCOD9005346 Si02
#       7
#     2   2   2   2   2   2   2
#     4   9  18  43  70  91 129 170 224 259 324 376
#     4   9  21  36  66  94 131 172 214 266 323 381
#     4  10  21  38  61  94 128 159 205 262 322 374
#     4   8  18  37  64  94 131 169 215 271 313 386
#     4  11  22  39  61  95 128 168 210 264 322 382
#     4   9  18  36  64  91 128 168 214 260 324 381
#     4  10  23  40  64  90 128 168 214 262 315 385
#
# _framework density 25.596962999999999
#
# number of rings (size 3 to 8) (size 9 to 14) (size 15 to 20)
#    0.857    1.714    0.000    1.286    0.000    3.429 
#    0.000   13.571    0.000    0.000    0.000    0.000 
#    0.000    0.000    0.000    0.000    0.000    0.000 
#
# Total GULP energy -77997.652025 kJ/mol
# GULP energy per Si atom -5571.260859 kJ/mol
# Density = 2.553870 g / cm^3
# Si number density = 25.596963 Si / 1000 Ang^3
#
#
#
# Elastic Constant Matrix: (Units=GPa)
#
#
# Indices 1 2 3 4 5 6 
#
# 1 174.4103 51.9102 27.0393 -6.9552 -5.8008 -26.6597
# 2 51.9102 135.8928 38.2626 -14.2006 -3.6609 -2.9646
# 3 27.0393 38.2626 54.7051 6.0902 -2.3123 -1.7455
# 4 -6.9552 -14.2006 6.0902 44.0115 2.1617 1.7357
# 5 -5.8008 -3.6609 -2.3123 2.1617 23.5481 -20.4836
# 6 -26.6597 -2.9646 -1.7455 1.7357 -20.4836 54.0178
#
#
#
# Elastic Compliance Matrix: (Units=1/GPa)
#
#
# Indices 1 2 3 4 5 6 
#
# 1 0.007865 -0.002107 -0.001949 0.000246 0.006879 0.006304
# 2 -0.002107 0.010453 -0.006802 0.004075 -0.000965 -0.001183
# 3 -0.001949 -0.006802 0.024754 -0.006024 0.001714 0.000308
# 4 0.000246 0.004075 -0.006024 0.025201 -0.004155 -0.002235
# 5 0.006879 -0.000965 0.001714 -0.004155 0.071078 0.030484
# 6 0.006304 -0.001183 0.000308 -0.002235 0.030484 0.033200
#
#
# Mechanical properties :
#
#
# Convention : Reuss Voigt Hill
#
# Bulk Modulus (GPa) = 46.82651 66.60358 56.71505
# Shear Modulus (GPa) = 24.82811 40.83521 32.83166
#
# Velocity S-wave (km/s) = 3.11780 3.99847 3.58528
# Velocity P-wave (km/s) = 5.59414 6.88430 6.27248
#
# Compressibility (1/GPa) = 0.02135542
#
# Stress axis : x y z
#
# Youngs Moduli (GPa) = 127.14325 95.66859 40.39797
#
# Poissons Ratio (x) = 0.20157 0.07875
# Poissons Ratio (y) = 0.26789 0.27478
# Poissons Ratio (z) = 0.24785 0.65072
#
# Static dielectric constant tensor:
#      x y z
#    x 2.138380 -0.030580 -0.051780 
#    y -0.030580 2.098500 -0.003860 
#    z -0.051780 -0.003860 2.152080 
# 
# From -- ./inp_files/128376.got.cif
#   From: 2010.05.17/outbox.cif.g08.bks.cpg/sg2_65_cif.got.tgz:128376.got - 2010.06.03 11:33:40.
