data_PCOD9005244
_publ_section_title
;
Structure prediction by ZEFSAII (Michael W. Deem and Ramdas Pophale) SiO2 
 PCOD9005244
Probable space group: P -1
;
_chemical_formula_sum "Si O2"
_cell_formula_units_Z 16
_cell_length_a 11.463987
_cell_length_b 11.406816
_cell_length_c 11.530213
_cell_angle_alpha 147.476571
_cell_angle_beta 110.572168
_cell_angle_gamma 65.078699
_cell_volume 735.143418
_symmetry_space_group_name_H-M "P -1"
_symmetry_group_IT_number 2
_symmetry_cell_setting 'triclinic'
loop_
_space_group_symop_operation_xyz
x,y,z
-x,-y,-z
loop_
_atom_site_type_symbol
_atom_site_label
_atom_site_fract_x
_atom_site_fract_y
_atom_site_fract_z
Si Si1 0.578705 0.333350 0.127345
Si Si2 0.067431 0.646823 0.370295
Si Si3 0.831006 0.002966 0.635358
Si Si4 0.641422 0.702561 0.317580
Si Si5 0.543523 0.974437 0.297254
Si Si6 0.158304 0.760412 0.746102
Si Si7 0.976250 0.230522 0.056529
Si Si8 0.312245 0.695260 0.362776
O O1 0.634931 0.453449 0.140505
O O2 0.688656 0.311706 0.243409
O O3 0.437780 0.488694 0.236878
O O4 0.553744 0.097607 0.883396
O O5 0.113895 0.663122 0.532623
O O6 0.007374 0.432953 0.164480
O O7 0.190110 0.630635 0.319974
O O8 0.957175 0.875317 0.501272
O O9 0.733419 0.191438 0.683573
O O10 0.763158 0.801546 0.471450
O O11 0.880852 0.112941 0.854773
O O12 0.610839 0.759412 0.219807
O O13 0.534179 0.852103 0.490065
O O14 0.645956 0.098617 0.384861
O O15 0.087003 0.691485 0.776277
O O16 0.105073 0.031405 0.951812
#
# Coordination Sequence:
#
# PCOD9005244 Si02
#       8
#     2   2   2   2   2   2   2   2
#     4  11  21  35  59  85 116 156 189 230 287 341
#     4  11  23  41  60  80 116 159 194 233 282 335
#     4  10  21  38  61  89 117 144 187 244 291 337
#     4   9  18  33  56  88 116 144 185 235 290 342
#     4   9  19  35  55  83 120 150 183 232 285 342
#     4  10  23  39  59  87 113 147 196 244 282 329
#     4  10  22  40  63  87 111 148 196 240 287 340
#     4  10  24  39  56  88 120 151 191 232 282 348
#
# _framework density 21.764462000000002
#
# number of rings (size 3 to 8) (size 9 to 14) (size 15 to 20)
#    0.000    2.000    0.000    3.375    0.000   10.000 
#    0.000    1.250    0.000    0.000    0.000    0.000 
#    0.000    0.000    0.000    0.000    0.000    0.000 
#
# Total GULP energy -89333.391921 kJ/mol
# GULP energy per Si atom -5583.336995 kJ/mol
# Density = 2.171493 g / cm^3
# Si number density = 21.764462 Si / 1000 Ang^3
#
#
#
# Elastic Constant Matrix: (Units=GPa)
#
#
# Indices 1 2 3 4 5 6 
#
# 1 87.2760 25.8037 10.0318 6.0056 2.7398 -19.2343
# 2 25.8037 51.4040 6.6169 5.5546 -0.3761 -25.4341
# 3 10.0318 6.6169 39.4908 -6.3195 20.1308 -0.1374
# 4 6.0056 5.5546 -6.3195 22.3533 -11.2409 3.4537
# 5 2.7398 -0.3761 20.1308 -11.2409 30.7404 7.2949
# 6 -19.2343 -25.4341 -0.1374 3.4537 7.2949 39.2895
#
#
#
# Elastic Compliance Matrix: (Units=1/GPa)
#
#
# Indices 1 2 3 4 5 6 
#
# 1 0.014657 -0.003208 -0.002295 -0.006689 -0.003804 0.006385
# 2 -0.003208 0.035473 -0.002947 -0.017418 -0.009579 0.024692
# 3 -0.002295 -0.002947 0.039967 -0.001275 -0.027001 0.002234
# 4 -0.006689 -0.017418 -0.001275 0.071742 0.033896 -0.027154
# 5 -0.003804 -0.009579 -0.027001 0.033896 0.068489 -0.023853
# 6 0.006385 0.024692 0.002234 -0.027154 -0.023853 0.051386
#
#
# Mechanical properties :
#
#
# Convention : Reuss Voigt Hill
#
# Bulk Modulus (GPa) = 13.66189 29.23064 21.44626
# Shear Modulus (GPa) = 15.47925 27.52454 21.50190
#
# Velocity S-wave (km/s) = 2.66976 3.56006 3.14655
# Velocity P-wave (km/s) = 3.97420 5.50983 4.80378
#
# Compressibility (1/GPa) = 0.07319630
#
# Stress axis : x y z
#
# Youngs Moduli (GPa) = 68.22703 28.19045 25.02080
#
# Poissons Ratio (x) = 0.09043 0.05742
# Poissons Ratio (y) = 0.21887 0.07374
# Poissons Ratio (z) = 0.15658 0.08308
#
# Static dielectric constant tensor:
#      x y z
#    x 1.818760 -0.029630 -0.003790 
#    y -0.029630 1.827340 0.034180 
#    z -0.003790 0.034180 1.793740 
# 
# From -- ./inp_files/363829.got.cif
#   From: 2010.05.17/outbox.cif.g08.bks.cpg/sg2_182_cif.got.tgz:363829.got - 2010.06.03 11:33:40.
