data_PCOD9005474
_publ_section_title
;
Structure prediction by ZEFSAII (Michael W. Deem and Ramdas Pophale) SiO2 
 PCOD9005474
Probable space group: P -1
;
_chemical_formula_sum "Si O2"
_cell_formula_units_Z 16
_cell_length_a 9.114271
_cell_length_b 14.341288
_cell_length_c 14.199567
_cell_angle_alpha 46.469090
_cell_angle_beta 91.546610
_cell_angle_gamma 54.724826
_cell_volume 765.079012
_symmetry_space_group_name_H-M "P -1"
_symmetry_group_IT_number 2
_symmetry_cell_setting 'triclinic'
loop_
_space_group_symop_operation_xyz
x,y,z
-x,-y,-z
loop_
_atom_site_type_symbol
_atom_site_label
_atom_site_fract_x
_atom_site_fract_y
_atom_site_fract_z
Si Si1 0.284116 0.539230 0.177068
Si Si2 0.952730 0.383740 0.079999
Si Si3 0.955499 0.615288 0.514557
Si Si4 0.122859 0.049694 0.779890
Si Si5 0.537323 0.825040 0.093164
Si Si6 0.805394 0.053838 0.843505
Si Si7 0.498862 0.408482 0.973745
Si Si8 0.443445 0.867510 0.406310
O O1 0.476261 0.517663 0.167679
O O2 0.422750 0.332100 0.384654
O O3 0.178021 0.558958 0.062652
O O4 0.037600 0.784274 0.050889
O O5 0.758072 0.487519 0.088424
O O6 0.216770 0.113011 0.279357
O O7 0.000000 0.500000 0.000000
O O8 0.666878 0.798431 0.417581
O O9 0.000000 0.500000 0.500000
O O10 0.159790 0.419809 0.731119
O O11 0.000833 0.732332 0.413088
O O12 0.374583 0.914481 0.935625
O O13 0.244597 0.864333 0.834799
O O14 0.932886 0.102752 0.805364
O O15 0.411141 0.821422 0.171096
O O16 0.500000 0.000000 0.000000
O O17 0.684146 0.112612 0.698503
O O18 0.500000 0.500000 0.000000
#
# Coordination Sequence:
#
# PCOD9005474 Si02
#       8
#     2   2   2   2   2   2   2   2
#     4   9  21  38  62  89 121 166 208 255 315 382
#     4  10  21  38  62  90 124 161 209 268 314 368
#     4  12  24  41  61  92 132 173 206 257 314 376
#     4  11  24  41  65  95 125 165 216 261 317 383
#     4  12  23  40  64  90 129 174 211 256 315 379
#     4  10  22  40  61  89 126 164 208 261 310 370
#     4   9  20  43  65  88 125 163 205 263 322 363
#     4  11  22  40  63  90 125 167 214 255 314 381
#
# _framework density 20.912873000000001
#
# number of rings (size 3 to 8) (size 9 to 14) (size 15 to 20)
#    0.000    1.500    2.500    2.625    0.000    6.500 
#    0.000    2.500    0.000    0.000    0.000    0.000 
#    0.000    0.000    0.000    0.000    0.000    0.000 
#
# Total GULP energy -89427.746006 kJ/mol
# GULP energy per Si atom -5589.234125 kJ/mol
# Density = 2.086527 g / cm^3
# Si number density = 20.912873 Si / 1000 Ang^3
#
#
#
# Elastic Constant Matrix: (Units=GPa)
#
#
# Indices 1 2 3 4 5 6 
#
# 1 110.8848 11.3002 29.0070 -12.5860 -9.9433 -11.2033
# 2 11.3002 45.8162 6.9573 -11.9784 -5.1958 -9.2635
# 3 29.0070 6.9573 128.9125 -13.3310 -12.0136 1.5264
# 4 -12.5860 -11.9784 -13.3310 16.0641 6.1810 3.4789
# 5 -9.9433 -5.1958 -12.0136 6.1810 39.4888 -4.1438
# 6 -11.2033 -9.2635 1.5264 3.4789 -4.1438 37.9854
#
#
#
# Elastic Compliance Matrix: (Units=1/GPa)
#
#
# Indices 1 2 3 4 5 6 
#
# 1 0.010522 -0.000152 -0.001676 0.005540 0.001546 0.002795
# 2 -0.000152 0.028116 0.000620 0.019754 0.001295 0.005119
# 3 -0.001676 0.000620 0.008881 0.006281 0.001259 -0.001138
# 4 0.005540 0.019754 0.006281 0.090488 -0.008576 -0.003024
# 5 0.001546 0.001295 0.001259 -0.008576 0.028088 0.004571
# 6 0.002795 0.005119 -0.001138 -0.003024 0.004571 0.029220
#
#
# Mechanical properties :
#
#
# Convention : Reuss Voigt Hill
#
# Bulk Modulus (GPa) = 22.17124 42.23804 32.20464
# Shear Modulus (GPa) = 23.50003 34.59760 29.04881
#
# Velocity S-wave (km/s) = 3.35582 4.07181 3.73103
# Velocity P-wave (km/s) = 5.06360 6.50747 5.83040
#
# Compressibility (1/GPa) = 0.04510349
#
# Stress axis : x y z
#
# Youngs Moduli (GPa) = 95.03920 35.56683 112.59821
#
# Poissons Ratio (x) = 0.00540 0.18866
# Poissons Ratio (y) = 0.01444 -0.06976
# Poissons Ratio (z) = 0.15924 -0.02204
#
# Static dielectric constant tensor:
#      x y z
#    x 1.803680 -0.003590 0.008760 
#    y -0.003590 1.778790 0.002160 
#    z 0.008760 0.002160 1.717930 
# 
# From -- ./inp_files/84947.got.cif
#   From: 2010.05.17/outbox.cif.g08.bks.cpg/sg2_43_cif.got.tgz:84947.got - 2010.06.03 11:33:40.
