data_PCOD9005390
_publ_section_title
;
Structure prediction by ZEFSAII (Michael W. Deem and Ramdas Pophale) SiO2 
 PCOD9005390
Probable space group: P -1
;
_chemical_formula_sum "Si O2"
_cell_formula_units_Z 16
_cell_length_a 14.098185
_cell_length_b 9.602951
_cell_length_c 14.814949
_cell_angle_alpha 96.663872
_cell_angle_beta 147.180666
_cell_angle_gamma 106.641989
_cell_volume 756.901123
_symmetry_space_group_name_H-M "P -1"
_symmetry_group_IT_number 2
_symmetry_cell_setting 'triclinic'
loop_
_space_group_symop_operation_xyz
x,y,z
-x,-y,-z
loop_
_atom_site_type_symbol
_atom_site_label
_atom_site_fract_x
_atom_site_fract_y
_atom_site_fract_z
Si Si1 0.940546 0.975814 0.058494
Si Si2 0.112865 0.357229 0.028879
Si Si3 0.628148 0.270170 0.437177
Si Si4 0.796444 0.507715 0.425765
Si Si5 0.681746 0.168073 0.231491
Si Si6 0.004774 0.597208 0.878602
Si Si7 0.556384 0.940288 0.297539
Si Si8 0.323497 0.290146 0.536072
O O1 0.966298 0.828582 0.097672
O O2 0.650386 0.851165 0.824904
O O3 0.112332 0.161249 0.279236
O O4 0.000000 0.000000 0.000000
O O5 0.411707 0.532085 0.286581
O O6 0.992544 0.298049 0.026958
O O7 0.038844 0.457385 0.928761
O O8 0.830507 0.425334 0.533556
O O9 0.725787 0.428340 0.604317
O O10 0.623979 0.101788 0.435439
O O11 0.623604 0.300569 0.214696
O O12 0.711801 0.604568 0.411492
O O13 0.040481 0.675017 0.575232
O O14 0.659658 0.059498 0.294948
O O15 0.500000 0.000000 0.000000
O O16 0.254209 0.766774 0.034161
O O17 0.651017 0.843901 0.400410
#
# Coordination Sequence:
#
# PCOD9005390 Si02
#       8
#     2   2   2   2   2   2   2   2
#     4  12  25  36  61  93 127 169 216 258 306 357
#     4  10  22  39  56  90 124 168 208 257 312 363
#     4  11  22  37  62  88 121 163 213 251 313 363
#     4  10  23  39  64  92 123 162 201 259 318 368
#     4  10  22  42  68  95 122 154 209 263 317 380
#     4  10  21  38  62  83 127 166 211 258 306 372
#     4  10  23  41  64  93 120 172 206 252 321 371
#     4  11  24  42  62  90 135 165 208 256 310 377
#
# _framework density 21.138824
#
# number of rings (size 3 to 8) (size 9 to 14) (size 15 to 20)
#    0.000    1.500    1.250    3.000    7.000    1.500 
#    0.000    5.625    0.000    0.000    0.000    0.000 
#    0.000    0.000    0.000    0.000    0.000    0.000 
#
# Total GULP energy -89175.616582 kJ/mol
# GULP energy per Si atom -5573.476036 kJ/mol
# Density = 2.109071 g / cm^3
# Si number density = 21.138824 Si / 1000 Ang^3
#
#
#
# Elastic Constant Matrix: (Units=GPa)
#
#
# Indices 1 2 3 4 5 6 
#
# 1 103.4049 51.3649 35.4589 15.3888 9.9531 -4.5479
# 2 51.3649 126.9820 32.5433 11.2242 -0.2973 -26.9651
# 3 35.4589 32.5433 104.1902 16.8410 -3.8725 -3.2968
# 4 15.3888 11.2242 16.8410 26.2455 -9.2894 -0.8320
# 5 9.9531 -0.2973 -3.8725 -9.2894 26.4776 16.4883
# 6 -4.5479 -26.9651 -3.2968 -0.8320 16.4883 49.1666
#
#
#
# Elastic Compliance Matrix: (Units=1/GPa)
#
#
# Indices 1 2 3 4 5 6 
#
# 1 0.015178 -0.004138 -0.002719 -0.009161 -0.010888 0.002448
# 2 -0.004138 0.011767 -0.001755 -0.002675 -0.004028 0.007259
# 3 -0.002719 -0.001755 0.011857 -0.004668 0.001781 -0.001095
# 4 -0.009161 -0.002675 -0.004668 0.058024 0.030478 -0.011867
# 5 -0.010888 -0.004028 0.001781 0.030478 0.068729 -0.025630
# 6 0.002448 0.007259 -0.001095 -0.011867 -0.025630 0.032867
#
#
# Mechanical properties :
#
#
# Convention : Reuss Voigt Hill
#
# Bulk Modulus (GPa) = 46.34369 63.70124 55.02246
# Shear Modulus (GPa) = 22.43757 34.72530 28.58144
#
# Velocity S-wave (km/s) = 3.26151 4.05745 3.68106
# Velocity P-wave (km/s) = 6.01285 7.22154 6.64474
#
# Compressibility (1/GPa) = 0.02157791
#
# Stress axis : x y z
#
# Youngs Moduli (GPa) = 65.88466 84.98131 84.33534
#
# Poissons Ratio (x) = 0.35169 0.22934
# Poissons Ratio (y) = 0.27266 0.14797
# Poissons Ratio (z) = 0.17916 0.14911
#
# Static dielectric constant tensor:
#      x y z
#    x 1.809730 -0.008430 -0.056550 
#    y -0.008430 1.802590 -0.010090 
#    z -0.056550 -0.010090 1.805410 
# 
# From -- ./inp_files/99948.got.cif
#   From: 2010.05.17/outbox.cif.g08.bks.cpg/sg2_50_cif.got.tgz:99948.got - 2010.06.03 11:33:40.
