data_PCOD9005619
_publ_section_title
;
Structure prediction by ZEFSAII (Michael W. Deem and Ramdas Pophale) SiO2 
 PCOD9005619
Probable space group: P -1
;
_chemical_formula_sum "Si O2"
_cell_formula_units_Z 14
_cell_length_a 9.245740
_cell_length_b 14.617942
_cell_length_c 14.291765
_cell_angle_alpha 151.161872
_cell_angle_beta 50.165495
_cell_angle_gamma 110.086548
_cell_volume 578.815211
_symmetry_space_group_name_H-M "P -1"
_symmetry_group_IT_number 2
_symmetry_cell_setting 'triclinic'
loop_
_space_group_symop_operation_xyz
x,y,z
-x,-y,-z
loop_
_atom_site_type_symbol
_atom_site_label
_atom_site_fract_x
_atom_site_fract_y
_atom_site_fract_z
Si Si1 0.295532 0.169652 0.374428
Si Si2 0.580649 0.781858 0.060252
Si Si3 0.657624 0.087292 0.539857
Si Si4 0.146572 0.004937 0.814603
Si Si5 0.338874 0.832515 0.903538
Si Si6 0.913635 0.418594 0.045870
Si Si7 0.588722 0.459854 0.624143
O O1 0.515766 0.149364 0.220858
O O2 0.107426 0.434673 0.722245
O O3 0.377261 0.012561 0.293559
O O4 0.236195 0.051570 0.214196
O O5 0.472906 0.752457 0.172288
O O6 0.765565 0.835946 0.056534
O O7 0.668529 0.576036 0.766212
O O8 0.500000 0.000000 0.500000
O O9 0.709066 0.154105 0.479715
O O10 0.905974 0.857387 0.262970
O O11 0.221464 0.815949 0.694940
O O12 0.879195 0.153418 0.030864
O O13 0.517904 0.601455 0.683289
O O14 0.657447 0.487708 0.196118
O O15 0.000000 0.500000 0.000000
#
# Coordination Sequence:
#
# PCOD9005619 Si02
#       7
#     2   2   2   2   2   2   2
#     4  10  22  44  68 100 135 174 226 280 326 398
#     4  10  22  42  66  95 140 172 222 280 326 397
#     4  10  21  38  62  98 133 168 222 273 329 392
#     4  11  22  44  65  98 135 174 227 274 329 397
#     4  10  24  44  69  98 136 178 225 273 332 395
#     4  12  21  40  70  98 130 176 219 271 336 393
#     4  11  24  43  67 101 133 178 224 266 340 396
#
# _framework density 24.187338
#
# number of rings (size 3 to 8) (size 9 to 14) (size 15 to 20)
#    0.000    1.429    4.286    0.857    0.000    5.714 
#    0.000    7.857    0.000    0.000    0.000    0.000 
#    0.000    0.000    0.000    0.000    0.000    0.000 
#
# Total GULP energy -78371.492973 kJ/mol
# GULP energy per Si atom -5597.963784 kJ/mol
# Density = 2.413229 g / cm^3
# Si number density = 24.187338 Si / 1000 Ang^3
#
#
#
# Elastic Constant Matrix: (Units=GPa)
#
#
# Indices 1 2 3 4 5 6 
#
# 1 119.3302 33.0620 66.8890 -3.7121 11.4168 -7.8664
# 2 33.0620 86.5178 18.3234 -2.6636 17.4901 -15.0754
# 3 66.8890 18.3234 83.8766 -5.7707 7.0006 8.7545
# 4 -3.7121 -2.6636 -5.7707 32.1838 -8.0183 5.0196
# 5 11.4168 17.4901 7.0006 -8.0183 26.6621 -0.8611
# 6 -7.8664 -15.0754 8.7545 5.0196 -0.8611 32.5410
#
#
#
# Elastic Compliance Matrix: (Units=1/GPa)
#
#
# Indices 1 2 3 4 5 6 
#
# 1 0.017699 -0.001818 -0.014436 -0.002676 -0.003153 0.007649
# 2 -0.001818 0.015952 -0.002232 -0.002921 -0.009728 0.007744
# 3 -0.014436 -0.002232 0.025357 0.005113 0.002136 -0.012078
# 4 -0.002676 -0.002921 0.005113 0.035819 0.012215 -0.008578
# 5 -0.003153 -0.009728 0.002136 0.012215 0.048143 -0.006454
# 6 0.007649 0.007744 -0.012078 -0.008578 -0.006454 0.040569
#
#
# Mechanical properties :
#
#
# Convention : Reuss Voigt Hill
#
# Bulk Modulus (GPa) = 45.38484 58.47481 51.92983
# Shear Modulus (GPa) = 21.94373 29.70737 25.82555
#
# Velocity S-wave (km/s) = 3.01531 3.50840 3.27116
# Velocity P-wave (km/s) = 5.56124 6.37496 5.98195
#
# Compressibility (1/GPa) = 0.02203379
#
# Stress axis : x y z
#
# Youngs Moduli (GPa) = 56.50187 62.68826 39.43760
#
# Poissons Ratio (x) = 0.11397 0.56933
# Poissons Ratio (y) = 0.10272 0.08804
# Poissons Ratio (z) = 0.81567 0.13995
#
# Static dielectric constant tensor:
#      x y z
#    x 2.004570 -0.060230 -0.000910 
#    y -0.060230 1.936020 0.005680 
#    z -0.000910 0.005680 1.979540 
# 
# From -- ./inp_files/341186.got.cif
#   From: 2010.05.17/outbox.cif.g08.bks.cpg/sg2_171_cif.got.tgz:341186.got - 2010.06.03 11:33:40.
