data_PCOD9005410
_publ_section_title
;
Structure prediction by ZEFSAII (Michael W. Deem and Ramdas Pophale) SiO2 
 PCOD9005410
Probable space group: P -1
;
_chemical_formula_sum "Si O2"
_cell_formula_units_Z 14
_cell_length_a 7.645415
_cell_length_b 11.118426
_cell_length_c 12.631550
_cell_angle_alpha 139.823604
_cell_angle_beta 92.356787
_cell_angle_gamma 112.310785
_cell_volume 533.147934
_symmetry_space_group_name_H-M "P -1"
_symmetry_group_IT_number 2
_symmetry_cell_setting 'triclinic'
loop_
_space_group_symop_operation_xyz
x,y,z
-x,-y,-z
loop_
_atom_site_type_symbol
_atom_site_label
_atom_site_fract_x
_atom_site_fract_y
_atom_site_fract_z
Si Si1 0.828827 0.089115 0.775850
Si Si2 0.446582 0.494938 0.802085
Si Si3 0.256858 0.782691 0.790248
Si Si4 0.387478 0.051355 0.773452
Si Si5 0.272597 0.969308 0.490616
Si Si6 0.078567 0.241140 0.098450
Si Si7 0.318310 0.432164 0.541526
O O1 0.885401 0.177249 0.713940
O O2 0.785678 0.839195 0.618573
O O3 0.601288 0.053791 0.773331
O O4 0.009972 0.234231 0.970047
O O5 0.333026 0.228512 0.656713
O O6 0.316544 0.515467 0.720158
O O7 0.512325 0.673575 0.019873
O O8 0.653017 0.576379 0.782183
O O9 0.242198 0.578010 0.591275
O O10 0.248279 0.927621 0.792991
O O11 0.049782 0.684841 0.794801
O O12 0.500000 0.000000 0.000000
O O13 0.227853 0.915296 0.576703
O O14 0.500000 0.000000 0.500000
O O15 0.000000 0.000000 0.000000
O O16 0.500000 0.500000 0.500000
#
# Coordination Sequence:
#
# PCOD9005410 Si02
#       7
#     2   2   2   2   2   2   2
#     4  10  21  38  62  86 122 157 198 249 293 354
#     4  11  22  37  64  90 120 157 201 252 297 348
#     4  12  20  36  62  89 121 160 200 242 298 371
#     4  11  19  39  63  88 114 163 208 238 285 367
#     4   9  22  41  63  87 115 162 213 244 284 353
#     4  12  22  38  59  96 126 153 192 251 310 353
#     4  11  19  35  59  89 115 158 199 241 298 358
#
# _framework density 26.259128
#
# number of rings (size 3 to 8) (size 9 to 14) (size 15 to 20)
#    0.000    1.143    5.714    1.286    0.000    0.000 
#    0.000   10.714    0.000    0.000    0.000    0.000 
#    0.000    0.000    0.000    0.000    0.000    0.000 
#
# Total GULP energy -78089.097077 kJ/mol
# GULP energy per Si atom -5577.792648 kJ/mol
# Density = 2.619936 g / cm^3
# Si number density = 26.259128 Si / 1000 Ang^3
#
#
#
# Elastic Constant Matrix: (Units=GPa)
#
#
# Indices 1 2 3 4 5 6 
#
# 1 103.9431 -1.6645 26.8784 10.7486 -36.0116 -2.9801
# 2 -1.6645 58.4847 27.5697 -38.6966 14.7506 -17.2494
# 3 26.8784 27.5697 94.0922 -34.0093 -20.2199 -7.1307
# 4 10.7486 -38.6966 -34.0093 59.9100 -14.4957 1.5822
# 5 -36.0116 14.7506 -20.2199 -14.4957 40.3040 -2.7641
# 6 -2.9801 -17.2494 -7.1307 1.5822 -2.7641 29.6704
#
#
#
# Elastic Compliance Matrix: (Units=1/GPa)
#
#
# Indices 1 2 3 4 5 6 
#
# 1 0.014668 -0.004133 -0.001199 -0.002839 0.013006 0.000145
# 2 -0.004133 0.043598 -0.004208 0.023041 -0.011993 0.021574
# 3 -0.001199 -0.004208 0.020356 0.012713 0.015465 0.003088
# 4 -0.002839 0.023041 0.012713 0.041668 0.011424 0.015008
# 5 0.013006 -0.011993 0.015465 0.011424 0.052851 0.002365
# 6 0.000145 0.021574 0.003088 0.015008 0.002365 0.046423
#
#
# Mechanical properties :
#
#
# Convention : Reuss Voigt Hill
#
# Bulk Modulus (GPa) = 16.79514 40.23193 28.51353
# Shear Modulus (GPa) = 19.34300 39.55931 29.45115
#
# Velocity S-wave (km/s) = 2.71702 3.88557 3.35260
# Velocity P-wave (km/s) = 4.03147 5.95690 5.08613
#
# Compressibility (1/GPa) = 0.05954103
#
# Stress axis : x y z
#
# Youngs Moduli (GPa) = 68.17406 22.93699 49.12612
#
# Poissons Ratio (x) = 0.09480 0.05892
# Poissons Ratio (y) = 0.28176 0.20672
# Poissons Ratio (z) = 0.08177 0.09652
#
# Static dielectric constant tensor:
#      x y z
#    x 2.513780 -0.102890 0.467020 
#    y -0.102890 2.059110 -0.077830 
#    z 0.467020 -0.077830 2.561940 
# 
# From -- ./inp_files/199426.got.cif
#   From: 2010.05.17/outbox.cif.g08.bks.cpg/sg2_100_cif.got.tgz:199426.got - 2010.06.03 11:33:40.
