data_PCOD9005228
_publ_section_title
;
Structure prediction by ZEFSAII (Michael W. Deem and Ramdas Pophale) SiO2 
 PCOD9005228
Probable space group: P -1
;
_chemical_formula_sum "Si O2"
_cell_formula_units_Z 16
_cell_length_a 9.601047
_cell_length_b 14.305330
_cell_length_c 8.916290
_cell_angle_alpha 101.877106
_cell_angle_beta 134.718238
_cell_angle_gamma 82.335495
_cell_volume 851.438847
_symmetry_space_group_name_H-M "P -1"
_symmetry_group_IT_number 2
_symmetry_cell_setting 'triclinic'
loop_
_space_group_symop_operation_xyz
x,y,z
-x,-y,-z
loop_
_atom_site_type_symbol
_atom_site_label
_atom_site_fract_x
_atom_site_fract_y
_atom_site_fract_z
Si Si1 0.183984 0.458465 0.217352
Si Si2 0.061728 0.094931 0.991491
Si Si3 0.429099 0.650038 0.030716
Si Si4 0.504973 0.903866 0.575113
Si Si5 0.441709 0.519626 0.706800
Si Si6 0.677143 0.805306 0.409181
Si Si7 0.004739 0.719114 0.828534
Si Si8 0.852709 0.015487 0.528337
O O1 0.260381 0.508449 0.447928
O O2 0.368645 0.460603 0.246511
O O3 0.115297 0.353729 0.181815
O O4 0.000000 0.500000 0.000000
O O5 0.291869 0.106208 0.188739
O O6 0.958887 0.184116 0.018803
O O7 0.992815 0.071043 0.768186
O O8 0.000000 0.000000 0.000000
O O9 0.518473 0.576642 0.197636
O O10 0.563496 0.745723 0.176594
O O11 0.424911 0.600593 0.848272
O O12 0.206952 0.674076 0.914990
O O13 0.521483 0.821499 0.433702
O O14 0.500000 0.000000 0.500000
O O15 0.337323 0.917164 0.576492
O O16 0.860929 0.747393 0.593271
O O17 0.766482 0.909538 0.468937
O O18 0.000000 0.000000 0.500000
#
# Coordination Sequence:
#
# PCOD9005228 Si02
#       8
#     2   2   2   2   2   2   2   2
#     4  11  22  43  63  91 127 163 201 256 314 366
#     4  11  20  38  63  89 119 162 213 243 295 377
#     4  11  22  39  63  94 122 160 207 260 305 370
#     4   9  18  35  61  84 112 166 199 248 293 360
#     4  10  24  40  62  92 127 158 202 258 316 367
#     4  10  21  38  61  88 122 160 215 250 297 383
#     4  11  22  37  67  91 117 166 210 247 307 376
#     4  11  23  38  59  91 127 160 204 264 310 349
#
# _framework density 18.791719000000001
#
# number of rings (size 3 to 8) (size 9 to 14) (size 15 to 20)
#    0.000    1.500    6.250    0.750    1.750    3.000 
#    0.000    2.500    0.000    0.000    0.000    0.000 
#    0.000    0.000    0.000    0.000    0.000    0.000 
#
# Total GULP energy -89099.403665 kJ/mol
# GULP energy per Si atom -5568.712729 kJ/mol
# Density = 1.874895 g / cm^3
# Si number density = 18.791719 Si / 1000 Ang^3
#
#
#
# Elastic Constant Matrix: (Units=GPa)
#
#
# Indices 1 2 3 4 5 6 
#
# 1 103.0141 32.2643 47.4063 9.5706 -1.9991 -24.7007
# 2 32.2643 78.8558 53.2068 16.3681 0.1587 -14.5816
# 3 47.4063 53.2068 127.2692 13.2633 2.3613 -25.5301
# 4 9.5706 16.3681 13.2633 34.0909 -9.2894 1.7530
# 5 -1.9991 0.1587 2.3613 -9.2894 17.9105 2.8872
# 6 -24.7007 -14.5816 -25.5301 1.7530 2.8872 34.7806
#
#
#
# Elastic Compliance Matrix: (Units=1/GPa)
#
#
# Indices 1 2 3 4 5 6 
#
# 1 0.013360 -0.002022 -0.002483 -0.002304 -0.000483 0.006974
# 2 -0.002022 0.019787 -0.005964 -0.007938 -0.004253 0.003235
# 3 -0.002483 -0.005964 0.012783 -0.002875 -0.004307 0.005622
# 4 -0.002304 -0.007938 -0.002875 0.041956 0.023752 -0.011161
# 5 -0.000483 -0.004253 -0.004307 0.023752 0.070695 -0.012353
# 6 0.006974 0.003235 0.005622 -0.011161 -0.012353 0.040775
#
#
# Mechanical properties :
#
#
# Convention : Reuss Voigt Hill
#
# Bulk Modulus (GPa) = 40.01310 63.87708 51.94509
# Shear Modulus (GPa) = 21.86968 29.10718 25.48843
#
# Velocity S-wave (km/s) = 3.41514 3.93992 3.68688
# Velocity P-wave (km/s) = 6.07372 7.40022 6.76954
#
# Compressibility (1/GPa) = 0.02499181
#
# Stress axis : x y z
#
# Youngs Moduli (GPa) = 74.84794 50.53737 78.22923
#
# Poissons Ratio (x) = 0.10220 0.19425
# Poissons Ratio (y) = 0.15136 0.46656
# Poissons Ratio (z) = 0.18586 0.30141
#
# Static dielectric constant tensor:
#      x y z
#    x 1.654560 0.002940 -0.000740 
#    y 0.002940 1.665190 -0.001240 
#    z -0.000740 -0.001240 1.649580 
# 
# From -- ./inp_files/203352.got.cif
#   From: 2010.05.17/outbox.cif.g08.bks.cpg/sg2_102_cif.got.tgz:203352.got - 2010.06.03 11:33:40.
