data_PCOD9005886
_publ_section_title
;
Structure prediction by ZEFSAII (Michael W. Deem and Ramdas Pophale) SiO2 
 PCOD9005886
Probable space group: P -1
;
_chemical_formula_sum "Si O2"
_cell_formula_units_Z 16
_cell_length_a 11.332855
_cell_length_b 11.891223
_cell_length_c 10.369848
_cell_angle_alpha 117.669220
_cell_angle_beta 39.850810
_cell_angle_gamma 125.798719
_cell_volume 725.986052
_symmetry_space_group_name_H-M "P -1"
_symmetry_group_IT_number 2
_symmetry_cell_setting 'triclinic'
loop_
_space_group_symop_operation_xyz
x,y,z
-x,-y,-z
loop_
_atom_site_type_symbol
_atom_site_label
_atom_site_fract_x
_atom_site_fract_y
_atom_site_fract_z
Si Si1 0.740813 0.510780 0.448023
Si Si2 0.063257 0.623468 0.616828
Si Si3 0.886318 0.947473 0.198920
Si Si4 0.773728 0.977588 0.646826
Si Si5 0.306179 0.083301 0.038869
Si Si6 0.328035 0.378347 0.155516
Si Si7 0.312804 0.289895 0.593703
Si Si8 0.353990 0.901876 0.406643
O O1 0.892427 0.439041 0.321367
O O2 0.703950 0.572370 0.648446
O O3 0.532681 0.394469 0.508617
O O4 0.794743 0.630572 0.358436
O O5 0.263268 0.752042 0.469729
O O6 0.000000 0.500000 0.500000
O O7 0.876652 0.667923 0.782537
O O8 0.706526 0.997536 0.398085
O O9 0.068161 0.022309 0.184676
O O10 0.803692 0.786967 0.221107
O O11 0.000000 0.000000 0.000000
O O12 0.667728 0.963479 0.865589
O O13 0.678773 0.833733 0.569201
O O14 0.762783 0.098228 0.629815
O O15 0.000000 0.000000 0.500000
O O16 0.385769 0.248500 0.054572
O O17 0.420232 0.043557 0.806581
O O18 0.500000 0.500000 0.000000
#
# Coordination Sequence:
#
# PCOD9005886 Si02
#       8
#     2   2   2   2   2   2   2   2
#     4  10  22  40  69  95 139 180 225 278 344 405
#     4  10  21  38  64 100 129 174 223 280 331 396
#     4  11  26  44  68  97 136 175 224 280 346 404
#     4  11  20  42  67  96 136 174 229 280 335 404
#     4  12  22  41  68 100 128 178 226 281 343 400
#     4  11  22  39  66 101 135 177 227 283 339 406
#     4  10  22  42  68  98 135 186 220 283 345 400
#     4  11  24  41  66 100 131 169 225 280 340 402
#
# _framework density 22.038990999999999
#
# number of rings (size 3 to 8) (size 9 to 14) (size 15 to 20)
#    0.000    1.250    5.000    1.875    5.250    0.500 
#    2.250    0.000    0.000    2.250    0.000    0.000 
#    0.000    0.000    0.000    0.000    0.000    0.000 
#
# Total GULP energy -89322.035369 kJ/mol
# GULP energy per Si atom -5582.627211 kJ/mol
# Density = 2.198883 g / cm^3
# Si number density = 22.038991 Si / 1000 Ang^3
#
#
#
# Elastic Constant Matrix: (Units=GPa)
#
#
# Indices 1 2 3 4 5 6 
#
# 1 105.1518 19.5573 24.2102 8.7186 11.5393 -16.9137
# 2 19.5573 78.5336 11.5461 -12.6031 9.0331 -20.9570
# 3 24.2102 11.5461 108.8965 -5.8678 10.5912 -13.6611
# 4 8.7186 -12.6031 -5.8678 25.6026 -6.3866 3.4160
# 5 11.5393 9.0331 10.5912 -6.3866 35.6800 -7.2970
# 6 -16.9137 -20.9570 -13.6611 3.4160 -7.2970 36.2774
#
#
#
# Elastic Compliance Matrix: (Units=1/GPa)
#
#
# Indices 1 2 3 4 5 6 
#
# 1 0.011918 -0.002536 -0.002029 -0.007012 -0.003180 0.003348
# 2 -0.002536 0.016730 0.000236 0.008005 -0.000473 0.007722
# 3 -0.002029 0.000236 0.010199 0.002441 -0.001482 0.002503
# 4 -0.007012 0.008005 0.002441 0.048023 0.007981 -0.000642
# 5 -0.003180 -0.000473 -0.001482 0.007981 0.031722 0.003315
# 6 0.003348 0.007722 0.002503 -0.000642 0.003315 0.035257
#
#
# Mechanical properties :
#
#
# Convention : Reuss Voigt Hill
#
# Bulk Modulus (GPa) = 33.12462 44.80100 38.96281
# Shear Modulus (GPa) = 28.97395 35.32989 32.15192
#
# Velocity S-wave (km/s) = 3.62977 4.00817 3.82365
# Velocity P-wave (km/s) = 5.71223 6.46473 6.10010
#
# Compressibility (1/GPa) = 0.03018903
#
# Stress axis : x y z
#
# Youngs Moduli (GPa) = 83.90811 59.77307 98.05052
#
# Poissons Ratio (x) = 0.15156 0.19897
# Poissons Ratio (y) = 0.21275 -0.02314
# Poissons Ratio (z) = 0.17027 -0.01411
#
# Static dielectric constant tensor:
#      x y z
#    x 1.886750 -0.053120 0.012300 
#    y -0.053120 1.833960 0.018220 
#    z 0.012300 0.018220 1.844780 
# 
# From -- ./inp_files/426301.got.cif
#   From: 2010.05.17/outbox.cif.g08.bks.cpg/sg2_214_cif.got.tgz:426301.got - 2010.06.03 11:33:40.
