data_PCOD9005644
_publ_section_title
;
Structure prediction by ZEFSAII (Michael W. Deem and Ramdas Pophale) SiO2 
 PCOD9005644
Probable space group: P -1
;
_chemical_formula_sum "Si O2"
_cell_formula_units_Z 16
_cell_length_a 12.614915
_cell_length_b 8.410803
_cell_length_c 14.691894
_cell_angle_alpha 57.482578
_cell_angle_beta 139.825642
_cell_angle_gamma 101.029815
_cell_volume 775.931555
_symmetry_space_group_name_H-M "P -1"
_symmetry_group_IT_number 2
_symmetry_cell_setting 'triclinic'
loop_
_space_group_symop_operation_xyz
x,y,z
-x,-y,-z
loop_
_atom_site_type_symbol
_atom_site_label
_atom_site_fract_x
_atom_site_fract_y
_atom_site_fract_z
Si Si1 0.450216 0.742824 0.388673
Si Si2 0.807257 0.023454 0.017105
Si Si3 0.494865 0.089921 0.105126
Si Si4 0.223876 0.801249 0.388366
Si Si5 0.344869 0.697622 0.996170
Si Si6 0.080657 0.751322 0.642599
Si Si7 0.268962 0.332065 0.543145
Si Si8 0.650335 0.269467 0.316315
O O1 0.500000 0.500000 0.500000
O O2 0.366509 0.829718 0.404528
O O3 0.632473 0.745125 0.466004
O O4 0.295640 0.857788 0.177195
O O5 0.754584 0.181261 0.018018
O O6 0.021019 0.918940 0.183432
O O7 0.712500 0.867103 0.028524
O O8 0.548284 0.188458 0.023582
O O9 0.574048 0.163792 0.222100
O O10 0.600800 0.842159 0.249712
O O11 0.258184 0.558794 0.485609
O O12 0.251023 0.858895 0.491481
O O13 0.201400 0.692971 0.829439
O O14 0.482929 0.468539 0.179054
O O15 0.209028 0.664920 0.666496
O O16 0.921892 0.677326 0.570353
O O17 0.000000 0.000000 0.500000
#
# Coordination Sequence:
#
# PCOD9005644 Si02
#       8
#     2   2   2   2   2   2   2   2
#     4   9  20  43  64  84 119 157 200 254 301 346
#     4  11  23  38  64  91 115 159 207 246 293 359
#     4  10  21  39  58  87 128 160 194 243 304 360
#     4  11  24  39  65  89 119 157 210 249 292 355
#     4  11  22  37  59  85 130 163 195 241 305 362
#     4  11  20  37  61  90 130 154 197 251 300 356
#     4  10  21  38  63  87 119 161 200 240 307 350
#     4  11  23  38  60  90 128 163 192 245 310 355
#
# _framework density 20.620374999999999
#
# number of rings (size 3 to 8) (size 9 to 14) (size 15 to 20)
#    0.000    1.500    2.500    5.250    3.500    0.500 
#    0.000    2.500    2.750    2.250    0.000    0.000 
#    0.000    0.000    0.000    0.000    0.000    0.000 
#
# Total GULP energy -89356.629351 kJ/mol
# GULP energy per Si atom -5584.789334 kJ/mol
# Density = 2.057344 g / cm^3
# Si number density = 20.620375 Si / 1000 Ang^3
#
#
#
# Elastic Constant Matrix: (Units=GPa)
#
#
# Indices 1 2 3 4 5 6 
#
# 1 91.8412 23.2088 12.5066 25.1526 4.1782 -19.5675
# 2 23.2088 37.2622 8.5118 -1.4136 -1.3253 -9.1105
# 3 12.5066 8.5118 76.9341 8.2366 5.1517 -10.2329
# 4 25.1526 -1.4136 8.2366 34.7665 -1.5885 -4.6938
# 5 4.1782 -1.3253 5.1517 -1.5885 37.8121 1.3846
# 6 -19.5675 -9.1105 -10.2329 -4.6938 1.3846 21.0695
#
#
#
# Elastic Compliance Matrix: (Units=1/GPa)
#
#
# Indices 1 2 3 4 5 6 
#
# 1 0.019695 -0.010343 0.001186 -0.013551 -0.003695 0.011619
# 2 -0.010343 0.036090 -0.002741 0.010660 0.002978 0.006847
# 3 0.001186 -0.002741 0.014516 -0.003674 -0.002591 0.006318
# 4 -0.013551 0.010660 -0.003674 0.039904 0.004090 -0.001139
# 5 -0.003695 0.002978 -0.002591 0.004090 0.027642 -0.004308
# 6 0.011619 0.006847 0.006318 -0.001139 -0.004308 0.064311
#
#
# Mechanical properties :
#
#
# Convention : Reuss Voigt Hill
#
# Bulk Modulus (GPa) = 21.50329 32.72131 27.11230
# Shear Modulus (GPa) = 20.70779 29.51698 25.11238
#
# Velocity S-wave (km/s) = 3.17241 3.78755 3.49355
# Velocity P-wave (km/s) = 4.88567 5.91864 5.42679
#
# Compressibility (1/GPa) = 0.04650450
#
# Stress axis : x y z
#
# Youngs Moduli (GPa) = 50.77363 27.70886 68.89067
#
# Poissons Ratio (x) = 0.28659 -0.08172
# Poissons Ratio (y) = 0.52514 0.18886
# Poissons Ratio (z) = -0.06023 0.07596
#
# Static dielectric constant tensor:
#      x y z
#    x 1.748000 -0.006350 0.003420 
#    y -0.006350 1.757170 -0.002160 
#    z 0.003420 -0.002160 1.746660 
# 
# From -- ./inp_files/187394.got.cif
#   From: 2010.05.17/outbox.cif.g08.bks.cpg/sg2_94_cif.got.tgz:187394.got - 2010.06.03 11:33:40.
