data_PCOD9005185
_publ_section_title
;
Structure prediction by ZEFSAII (Michael W. Deem and Ramdas Pophale) SiO2 
 PCOD9005185
Probable space group: P -1
;
_chemical_formula_sum "Si O2"
_cell_formula_units_Z 16
_cell_length_a 8.296691
_cell_length_b 7.132896
_cell_length_c 15.210910
_cell_angle_alpha 98.105550
_cell_angle_beta 72.506193
_cell_angle_gamma 129.213746
_cell_volume 663.723368
_symmetry_space_group_name_H-M "P -1"
_symmetry_group_IT_number 2
_symmetry_cell_setting 'triclinic'
loop_
_space_group_symop_operation_xyz
x,y,z
-x,-y,-z
loop_
_atom_site_type_symbol
_atom_site_label
_atom_site_fract_x
_atom_site_fract_y
_atom_site_fract_z
Si Si1 0.265327 0.805962 0.432008
Si Si2 0.342247 0.345615 0.738504
Si Si3 0.267549 0.875275 0.643574
Si Si4 0.676920 0.918911 0.874317
Si Si5 0.828374 0.645387 0.666377
Si Si6 0.971517 0.167353 0.676903
Si Si7 0.781920 0.248563 0.050504
Si Si8 0.962133 0.043944 0.106551
O O1 0.252518 0.848531 0.538487
O O2 0.235318 0.558610 0.408096
O O3 0.495316 0.048582 0.372944
O O4 0.082037 0.764688 0.398464
O O5 0.591779 0.547959 0.731015
O O6 0.319055 0.120226 0.686199
O O7 0.208315 0.376646 0.692565
O O8 0.194757 0.217295 0.839401
O O9 0.013690 0.672650 0.698061
O O10 0.800715 0.085346 0.778902
O O11 0.418774 0.754141 0.894089
O O12 0.809563 0.819098 0.870939
O O13 0.716598 0.074752 0.965338
O O14 0.939568 0.922310 0.642797
O O15 0.841775 0.158971 0.118753
O O16 0.000000 0.500000 0.000000
O O17 0.000000 0.000000 0.000000
#
# Coordination Sequence:
#
# PCOD9005185 Si02
#       8
#     2   2   2   2   2   2   2   2
#     4  10  21  39  62  85 124 162 197 259 302 356
#     4   9  20  38  58  88 118 156 204 253 302 366
#     4   9  20  39  58  89 121 156 209 250 301 366
#     4   9  21  40  55  88 125 150 205 256 295 368
#     4  10  21  38  61  86 120 158 203 246 304 370
#     4  10  22  39  59  88 122 159 201 252 304 363
#     4  10  21  38  62  89 116 159 205 245 307 376
#     4   9  19  38  62  81 123 160 189 257 305 346
#
# _framework density 24.10643
#
# number of rings (size 3 to 8) (size 9 to 14) (size 15 to 20)
#    0.000    2.500    0.000    0.375    3.500    6.500 
#    6.750    6.250    0.000    0.000    0.000    0.000 
#    0.000    0.000    0.000    0.000    0.000    0.000 
#
# Total GULP energy -89120.622095 kJ/mol
# GULP energy per Si atom -5570.038881 kJ/mol
# Density = 2.405156 g / cm^3
# Si number density = 24.106430 Si / 1000 Ang^3
#
#
#
# Elastic Constant Matrix: (Units=GPa)
#
#
# Indices 1 2 3 4 5 6 
#
# 1 127.5866 50.6216 44.6014 -7.8725 -5.9383 43.8301
# 2 50.6216 91.2565 15.7231 -3.4260 -5.0024 29.1767
# 3 44.6014 15.7231 68.8116 14.9616 1.9987 12.0693
# 4 -7.8725 -3.4260 14.9616 26.1246 5.7015 -9.9469
# 5 -5.9383 -5.0024 1.9987 5.7015 44.0839 -1.4802
# 6 43.8301 29.1767 12.0693 -9.9469 -1.4802 51.1251
#
#
#
# Elastic Compliance Matrix: (Units=1/GPa)
#
#
# Indices 1 2 3 4 5 6 
#
# 1 0.015992 -0.004513 -0.009449 0.006531 0.000970 -0.007605
# 2 -0.004513 0.014980 0.000859 -0.002144 0.001153 -0.005266
# 3 -0.009449 0.000859 0.024505 -0.017338 -0.000096 -0.001551
# 4 0.006531 -0.002144 -0.017338 0.054966 -0.005342 0.010257
# 5 0.000970 0.001153 -0.000096 -0.005342 0.023580 -0.001824
# 6 -0.007605 -0.005266 -0.001551 0.010257 -0.001824 0.031394
#
#
# Mechanical properties :
#
#
# Convention : Reuss Voigt Hill
#
# Bulk Modulus (GPa) = 34.16286 56.61633 45.38959
# Shear Modulus (GPa) = 24.82848 36.04728 30.43788
#
# Velocity S-wave (km/s) = 3.21277 3.87116 3.55723
# Velocity P-wave (km/s) = 5.28819 6.59683 5.97842
#
# Compressibility (1/GPa) = 0.02927155
#
# Stress axis : x y z
#
# Youngs Moduli (GPa) = 62.52941 66.75444 40.80768
#
# Poissons Ratio (x) = 0.30128 0.38558
# Poissons Ratio (y) = 0.28222 -0.03505
# Poissons Ratio (z) = 0.59083 -0.05734
#
# Static dielectric constant tensor:
#      x y z
#    x 2.078170 0.010550 -0.060510 
#    y 0.010550 1.960840 -0.016410 
#    z -0.060510 -0.016410 1.939950 
# 
# From -- ./inp_files/494881.got.cif
#   From: 2010.05.17/outbox.cif.g08.bks.cpg/sg2_248_cif.got.tgz:494881.got - 2010.06.03 11:33:40.
