data_PCOD9005356
_publ_section_title
;
Structure prediction by ZEFSAII (Michael W. Deem and Ramdas Pophale) SiO2 
 PCOD9005356
Probable space group: P -1
;
_chemical_formula_sum "Si O2"
_cell_formula_units_Z 16
_cell_length_a 19.631949
_cell_length_b 8.223824
_cell_length_c 11.346354
_cell_angle_alpha 137.567344
_cell_angle_beta 128.976338
_cell_angle_gamma 81.031251
_cell_volume 777.314713
_symmetry_space_group_name_H-M "P -1"
_symmetry_group_IT_number 2
_symmetry_cell_setting 'triclinic'
loop_
_space_group_symop_operation_xyz
x,y,z
-x,-y,-z
loop_
_atom_site_type_symbol
_atom_site_label
_atom_site_fract_x
_atom_site_fract_y
_atom_site_fract_z
Si Si1 0.004303 0.755033 0.806605
Si Si2 0.458595 0.661277 0.369907
Si Si3 0.198051 0.819402 0.137323
Si Si4 0.243765 0.750768 0.780353
Si Si5 0.675595 0.212752 0.533158
Si Si6 0.785131 0.841448 0.871978
Si Si7 0.326547 0.685238 0.055416
Si Si8 0.581498 0.910429 0.040671
O O1 0.883362 0.487533 0.502323
O O2 0.071011 0.675129 0.918462
O O3 0.084262 0.919233 0.869288
O O4 0.000000 0.000000 0.000000
O O5 0.403784 0.741997 0.452243
O O6 0.375506 0.545139 0.106446
O O7 0.574865 0.964847 0.635130
O O8 0.470823 0.396304 0.252369
O O9 0.253717 0.838197 0.329422
O O10 0.223909 0.631743 0.982190
O O11 0.246355 0.125261 0.278144
O O12 0.309115 0.862245 0.791003
O O13 0.294307 0.626207 0.853140
O O14 0.258230 0.026233 0.014377
O O15 0.747390 0.521072 0.702456
O O16 0.611516 0.941981 0.227737
O O17 0.500000 0.000000 0.000000
#
# Coordination Sequence:
#
# PCOD9005356 Si02
#       8
#     2   2   2   2   2   2   2   2
#     4  10  21  38  61  95 128 160 212 264 317 382
#     4  10  22  43  60  93 127 167 217 262 324 374
#     4   8  21  38  63  90 120 169 206 260 317 377
#     4  11  21  40  63  92 124 168 213 255 324 378
#     4  11  21  44  64  91 131 170 210 264 322 371
#     4   9  20  39  68  87 124 171 205 262 313 380
#     4   9  20  39  68  85 123 172 212 268 317 378
#     4  12  27  37  63 100 128 165 218 261 316 392
#
# _framework density 20.583683000000001
#
# number of rings (size 3 to 8) (size 9 to 14) (size 15 to 20)
#    0.750    1.250    1.250    1.875    3.500    2.000 
#    0.000   10.625    0.000    0.000    0.000    0.000 
#    0.000    0.000    0.000    0.000    0.000    0.000 
#
# Total GULP energy -89138.127819 kJ/mol
# GULP energy per Si atom -5571.132989 kJ/mol
# Density = 2.053683 g / cm^3
# Si number density = 20.583683 Si / 1000 Ang^3
#
#
#
# Elastic Constant Matrix: (Units=GPa)
#
#
# Indices 1 2 3 4 5 6 
#
# 1 99.0096 26.4593 34.4336 1.5252 -2.2994 -12.4113
# 2 26.4593 74.8171 23.6692 -20.1312 -3.0757 -2.9639
# 3 34.4336 23.6692 53.3909 -15.0521 -11.0952 -9.5869
# 4 1.5252 -20.1312 -15.0521 30.7887 2.7131 1.6582
# 5 -2.2994 -3.0757 -11.0952 2.7131 29.1875 -8.8696
# 6 -12.4113 -2.9639 -9.5869 1.6582 -8.8696 26.2360
#
#
#
# Elastic Compliance Matrix: (Units=1/GPa)
#
#
# Indices 1 2 3 4 5 6 
#
# 1 0.015278 -0.004492 -0.009999 -0.008638 -0.001304 0.003172
# 2 -0.004492 0.018772 -0.002868 0.011315 -0.001176 -0.002165
# 3 -0.009999 -0.002868 0.035687 0.014106 0.014846 0.012114
# 4 -0.008638 0.011315 0.014106 0.047081 0.001456 -0.000137
# 5 -0.001304 -0.001176 0.014846 0.001456 0.045622 0.020007
# 6 0.003172 -0.002165 0.012114 -0.000137 0.020007 0.050570
#
#
# Mechanical properties :
#
#
# Convention : Reuss Voigt Hill
#
# Bulk Modulus (GPa) = 28.55567 44.03799 36.29683
# Shear Modulus (GPa) = 19.27508 26.75281 23.01395
#
# Velocity S-wave (km/s) = 3.06343 3.60906 3.34738
# Velocity P-wave (km/s) = 5.13964 6.22962 5.71069
#
# Compressibility (1/GPa) = 0.03501932
#
# Stress axis : x y z
#
# Youngs Moduli (GPa) = 65.45230 53.26960 28.02150
#
# Poissons Ratio (x) = 0.23930 0.28018
# Poissons Ratio (y) = 0.29403 0.08037
# Poissons Ratio (z) = 0.65444 0.15278
#
# Static dielectric constant tensor:
#      x y z
#    x 1.747030 0.005030 -0.014460 
#    y 0.005030 1.830700 -0.009870 
#    z -0.014460 -0.009870 1.759770 
# 
# From -- ./inp_files/469665.got.cif
#   From: 2010.05.17/outbox.cif.g08.bks.cpg/sg2_235_cif.got.tgz:469665.got - 2010.06.03 11:33:40.
