data_PCOD9005555
_publ_section_title
;
Structure prediction by ZEFSAII (Michael W. Deem and Ramdas Pophale) SiO2 
 PCOD9005555
Probable space group: P -1
;
_chemical_formula_sum "Si O2"
_cell_formula_units_Z 12
_cell_length_a 8.772000
_cell_length_b 16.227476
_cell_length_c 7.532706
_cell_angle_alpha 57.387535
_cell_angle_beta 144.398231
_cell_angle_gamma 133.789365
_cell_volume 449.896068
_symmetry_space_group_name_H-M "P -1"
_symmetry_group_IT_number 2
_symmetry_cell_setting 'triclinic'
loop_
_space_group_symop_operation_xyz
x,y,z
-x,-y,-z
loop_
_atom_site_type_symbol
_atom_site_label
_atom_site_fract_x
_atom_site_fract_y
_atom_site_fract_z
Si Si1 0.168126 0.327409 0.743241
Si Si2 0.862282 0.526634 0.167753
Si Si3 0.838905 0.607065 0.703943
Si Si4 0.923151 0.068770 0.707184
Si Si5 0.227295 0.179927 0.495883
Si Si6 0.627424 0.089186 0.856666
O O1 0.144702 0.366422 0.872422
O O2 0.024875 0.362752 0.401067
O O3 0.021410 0.193075 0.735391
O O4 0.531167 0.412819 0.958643
O O5 0.000000 0.500000 0.500000
O O6 0.002696 0.576329 0.049773
O O7 0.500000 0.500000 0.500000
O O8 0.780877 0.708766 0.583436
O O9 0.109687 0.102869 0.654565
O O10 0.572311 0.985056 0.411113
O O11 0.000000 0.000000 0.000000
O O12 0.521450 0.179024 0.702933
O O13 0.982830 0.134466 0.157046
O O14 0.500000 0.000000 0.000000
#
# Coordination Sequence:
#
# PCOD9005555 Si02
#       6
#     2   2   2   2   2   2
#     4   9  21  42  58  88 131 156 214 264 318 389
#     4  10  21  40  64  90 122 164 212 268 325 379
#     4   9  20  42  63  94 122 171 213 262 332 382
#     4  10  21  38  62  93 125 167 212 265 322 380
#     4  10  22  44  65  91 133 171 216 265 321 395
#     4  10  21  42  63  89 128 173 213 261 321 387
#
# _framework density 26.672825
#
# number of rings (size 3 to 8) (size 9 to 14) (size 15 to 20)
#    0.000    2.333    0.000    2.000    2.333    2.000 
#   36.000    7.500    0.000    0.000    0.000    0.000 
#    0.000    0.000    0.000    0.000    0.000    0.000 
#
# Total GULP energy -67049.282674 kJ/mol
# GULP energy per Si atom -5587.440223 kJ/mol
# Density = 2.661212 g / cm^3
# Si number density = 26.672825 Si / 1000 Ang^3
#
#
#
# Elastic Constant Matrix: (Units=GPa)
#
#
# Indices 1 2 3 4 5 6 
#
# 1 103.3278 28.4889 45.0197 0.6792 -22.8095 -2.6115
# 2 28.4889 167.7445 70.7276 6.5532 -20.8537 -3.1925
# 3 45.0197 70.7276 190.9315 -17.0861 -37.2735 16.8783
# 4 0.6792 6.5532 -17.0861 47.7853 0.1077 -19.9621
# 5 -22.8095 -20.8537 -37.2735 0.1077 50.0361 -12.1922
# 6 -2.6115 -3.1925 16.8783 -19.9621 -12.1922 34.0686
#
#
#
# Elastic Compliance Matrix: (Units=1/GPa)
#
#
# Indices 1 2 3 4 5 6 
#
# 1 0.011805 -0.000565 -0.001936 0.000877 0.004676 0.003998
# 2 -0.000565 0.007402 -0.002616 -0.001244 0.001290 0.001679
# 3 -0.001936 -0.002616 0.007679 0.002481 0.003367 -0.001539
# 4 0.000877 -0.001244 0.002481 0.029578 0.006110 0.018239
# 5 0.004676 0.001290 0.003367 0.006110 0.028190 0.012480
# 6 0.003998 0.001679 -0.001539 0.018239 0.012480 0.045732
#
#
# Mechanical properties :
#
#
# Convention : Reuss Voigt Hill
#
# Bulk Modulus (GPa) = 60.06383 83.38624 71.72504
# Shear Modulus (GPa) = 34.20659 47.56252 40.88456
#
# Velocity S-wave (km/s) = 3.58502 4.22736 3.91937
# Velocity P-wave (km/s) = 6.30112 7.42683 6.88702
#
# Compressibility (1/GPa) = 0.01664895
#
# Stress axis : x y z
#
# Youngs Moduli (GPa) = 84.71068 135.10648 130.23296
#
# Poissons Ratio (x) = 0.07639 0.25215
# Poissons Ratio (y) = 0.04790 0.34075
# Poissons Ratio (z) = 0.16401 0.35350
#
# Static dielectric constant tensor:
#      x y z
#    x 2.204390 -0.081020 0.006460 
#    y -0.081020 2.165280 -0.050770 
#    z 0.006460 -0.050770 2.140860 
# 
# From -- ./inp_files/139637.got.cif
#   From: 2010.05.17/outbox.cif.g08.bks.cpg/sg2_70_cif.got.tgz:139637.got - 2010.06.03 11:33:40.
