data_PCOD9005940
_publ_section_title
;
Structure prediction by ZEFSAII (Michael W. Deem and Ramdas Pophale) SiO2 
 PCOD9005940
Probable space group: P -1
;
_chemical_formula_sum "Si O2"
_cell_formula_units_Z 15
_cell_length_a 11.107332
_cell_length_b 10.788153
_cell_length_c 16.806223
_cell_angle_alpha 33.103267
_cell_angle_beta 139.105159
_cell_angle_gamma 118.111637
_cell_volume 641.873688
_symmetry_space_group_name_H-M "P -1"
_symmetry_group_IT_number 2
_symmetry_cell_setting 'triclinic'
loop_
_space_group_symop_operation_xyz
x,y,z
-x,-y,-z
loop_
_atom_site_type_symbol
_atom_site_label
_atom_site_fract_x
_atom_site_fract_y
_atom_site_fract_z
Si Si1 0.635897 0.199383 0.920754
Si Si2 0.521022 0.990208 0.420590
Si Si3 0.902627 0.501082 0.865267
Si Si4 0.985640 0.843095 0.393270
Si Si5 0.758660 0.272064 0.572133
Si Si6 0.000000 0.000000 0.500000
Si Si7 0.152746 0.265969 0.832610
Si Si8 0.745144 0.573990 0.037682
O O1 0.772945 0.343975 0.889055
O O2 0.405712 0.431197 0.684625
O O3 0.677488 0.979217 0.995921
O O4 0.752579 0.029466 0.147227
O O5 0.745096 0.791597 0.611930
O O6 0.370295 0.869279 0.384682
O O7 0.500000 0.000000 0.500000
O O8 0.455972 0.260436 0.203264
O O9 0.074188 0.414105 0.931472
O O10 0.000000 0.500000 0.000000
O O11 0.132103 0.856900 0.387856
O O12 0.061893 0.539590 0.596199
O O13 0.003203 0.920902 0.449230
O O14 0.942635 0.233472 0.744989
O O15 0.805244 0.281660 0.233887
O O16 0.247540 0.300646 0.942938
#
# Coordination Sequence:
#
# PCOD9005940 Si02
#       8
#     2   2   2   2   2   1   2   2
#     4  10  21  38  64  89 121 162 209 259 305 365
#     4  11  24  38  64  97 120 160 213 260 306 367
#     4  11  22  38  63  91 121 164 207 259 313 364
#     4  10  21  40  61  90 123 166 208 252 305 369
#     4  10  22  39  64  93 121 160 209 258 308 363
#     4  10  24  40  62  88 128 168 198 254 314 370
#     4  10  23  39  61  91 125 168 205 250 310 371
#     4  11  23  43  62  89 132 161 208 257 314 373
#
# _framework density 23.369083
#
# number of rings (size 3 to 8) (size 9 to 14) (size 15 to 20)
#    0.000    1.600    1.333    4.000    3.733    5.333 
#    0.000    8.000    0.000    0.000    0.000    0.000 
#    0.000    0.000    0.000    0.000    0.000    0.000 
#
# Total GULP energy -83614.865588 kJ/mol
# GULP energy per Si atom -5574.324373 kJ/mol
# Density = 2.331589 g / cm^3
# Si number density = 23.369083 Si / 1000 Ang^3
#
#
#
# Elastic Constant Matrix: (Units=GPa)
#
#
# Indices 1 2 3 4 5 6 
#
# 1 32.2509 19.1967 13.0734 -1.6936 19.1542 -18.4912
# 2 19.1967 59.9350 14.4057 -22.1246 10.3638 -28.1405
# 3 13.0734 14.4057 205.9075 -28.4753 18.7002 -31.7720
# 4 -1.6936 -22.1246 -28.4753 29.9993 -4.4931 3.2559
# 5 19.1542 10.3638 18.7002 -4.4931 36.6642 -1.5756
# 6 -18.4912 -28.1405 -31.7720 3.2559 -1.5756 46.5798
#
#
#
# Elastic Compliance Matrix: (Units=1/GPa)
#
#
# Indices 1 2 3 4 5 6 
#
# 1 0.068258 -0.009417 0.001536 -0.009101 -0.033953 0.021943
# 2 -0.009417 0.042775 0.006451 0.033744 -0.005296 0.023966
# 3 0.001536 0.006451 0.007523 0.010312 -0.004823 0.008754
# 4 -0.009101 0.033744 0.010312 0.065227 -0.001225 0.019206
# 5 -0.033953 -0.005296 -0.004823 -0.001225 0.048035 -0.018258
# 6 0.021943 0.023966 0.008754 0.019206 -0.018258 0.048669
#
#
# Mechanical properties :
#
#
# Convention : Reuss Voigt Hill
#
# Bulk Modulus (GPa) = 8.64349 43.49387 26.06868
# Shear Modulus (GPa) = 15.53221 39.40984 27.47103
#
# Velocity S-wave (km/s) = 2.58087 4.11105 3.43232
# Velocity P-wave (km/s) = 3.54795 6.41766 5.18528
#
# Compressibility (1/GPa) = 0.11569394
#
# Stress axis : x y z
#
# Youngs Moduli (GPa) = 14.65028 23.37824 132.93343
#
# Poissons Ratio (x) = 0.22016 -0.20418
# Poissons Ratio (y) = 0.13797 -0.85751
# Poissons Ratio (z) = -0.02250 -0.15081
#
# Static dielectric constant tensor:
#      x y z
#    x 2.002660 0.041920 0.010110 
#    y 0.041920 1.909390 0.021300 
#    z 0.010110 0.021300 2.032600 
# 
# From -- ./inp_files/568519.got.cif
#   From: 2010.05.17/outbox.cif.g08.bks.cpg/sg2_285_cif.got.tgz:568519.got - 2010.06.03 11:33:40.
