data_PCOD9005245
_publ_section_title
;
Structure prediction by ZEFSAII (Michael W. Deem and Ramdas Pophale) SiO2 
 PCOD9005245
Probable space group: P -1
;
_chemical_formula_sum "Si O2"
_cell_formula_units_Z 16
_cell_length_a 6.671613
_cell_length_b 16.452325
_cell_length_c 10.736179
_cell_angle_alpha 78.219441
_cell_angle_beta 54.742086
_cell_angle_gamma 108.663562
_cell_volume 788.106412
_symmetry_space_group_name_H-M "P -1"
_symmetry_group_IT_number 2
_symmetry_cell_setting 'triclinic'
loop_
_space_group_symop_operation_xyz
x,y,z
-x,-y,-z
loop_
_atom_site_type_symbol
_atom_site_label
_atom_site_fract_x
_atom_site_fract_y
_atom_site_fract_z
Si Si1 0.328742 0.197704 0.458052
Si Si2 0.350399 0.562296 0.375956
Si Si3 0.673101 0.276819 0.802283
Si Si4 0.299469 0.158429 0.191275
Si Si5 0.304028 0.886978 0.556954
Si Si6 0.890403 0.033190 0.835505
Si Si7 0.630915 0.615413 0.530163
Si Si8 0.563655 0.921981 0.206955
O O1 0.314923 0.162844 0.332720
O O2 0.564182 0.178314 0.439891
O O3 0.405050 0.308618 0.399988
O O4 0.046410 0.135003 0.671337
O O5 0.446489 0.657103 0.226205
O O6 0.448651 0.594342 0.474179
O O7 0.455703 0.487099 0.339443
O O8 0.000000 0.500000 0.500000
O O9 0.519449 0.177301 0.804532
O O10 0.023771 0.333188 0.643355
O O11 0.577516 0.242589 0.989028
O O12 0.018759 0.163089 0.258186
O O13 0.219036 0.053709 0.198284
O O14 0.310738 0.897887 0.401814
O O15 0.500000 0.000000 0.500000
O O16 0.340800 0.996200 0.960232
O O17 0.157696 0.040107 0.814913
#
# Coordination Sequence:
#
# PCOD9005245 Si02
#       8
#     2   2   2   2   2   2   2   2
#     4  11  22  37  57  85 121 156 196 246 294 348
#     4   9  19  39  69  90 114 141 185 249 303 354
#     4  10  21  38  61  89 117 155 195 248 289 351
#     4  11  22  38  55  84 124 161 206 233 292 342
#     4  11  21  36  56  78 116 169 198 241 287 336
#     4   9  18  33  53  79 113 159 199 248 274 332
#     4  10  21  39  63  94 113 145 194 243 301 355
#     4   9  17  33  54  82 112 149 207 237 280 333
#
# _framework density 20.301825000000001
#
# number of rings (size 3 to 8) (size 9 to 14) (size 15 to 20)
#    0.000    2.000    2.500    2.625    0.000    2.000 
#    2.250    2.500    0.000    7.500    0.000    0.000 
#    0.000    0.000    0.000    0.000    0.000    0.000 
#
# Total GULP energy -89231.360270 kJ/mol
# GULP energy per Si atom -5576.960017 kJ/mol
# Density = 2.025562 g / cm^3
# Si number density = 20.301825 Si / 1000 Ang^3
#
#
#
# Elastic Constant Matrix: (Units=GPa)
#
#
# Indices 1 2 3 4 5 6 
#
# 1 101.2180 30.0370 13.3253 4.7969 14.7305 -4.3969
# 2 30.0370 75.3869 16.2392 19.0933 2.6264 -2.3271
# 3 13.3253 16.2392 65.0889 22.4403 3.6170 1.1489
# 4 4.7969 19.0933 22.4403 18.0476 4.5442 2.7133
# 5 14.7305 2.6264 3.6170 4.5442 29.3602 7.3149
# 6 -4.3969 -2.3271 1.1489 2.7133 7.3149 30.9659
#
#
#
# Elastic Compliance Matrix: (Units=1/GPa)
#
#
# Indices 1 2 3 4 5 6 
#
# 1 0.013121 -0.006579 -0.004198 0.010258 -0.007672 0.002438
# 2 -0.006579 0.022327 0.006196 -0.031108 0.004832 0.002098
# 3 -0.004198 0.006196 0.029297 -0.043168 0.004234 0.001565
# 4 0.010258 -0.031108 -0.043168 0.144856 -0.017514 -0.007835
# 5 -0.007672 0.004832 0.004234 -0.017514 0.041974 -0.009264
# 6 0.002438 0.002098 0.001565 -0.007835 -0.009264 0.035614
#
#
# Mechanical properties :
#
#
# Convention : Reuss Voigt Hill
#
# Bulk Modulus (GPa) = 17.99132 40.09964 29.04548
# Shear Modulus (GPa) = 15.87912 27.81424 21.84668
#
# Velocity S-wave (km/s) = 2.79973 3.70542 3.28395
# Velocity P-wave (km/s) = 4.39687 6.17264 5.35882
#
# Compressibility (1/GPa) = 0.05558236
#
# Stress axis : x y z
#
# Youngs Moduli (GPa) = 76.21328 44.78937 34.13292
#
# Poissons Ratio (x) = 0.29467 0.14329
# Poissons Ratio (y) = 0.50142 -0.21148
# Poissons Ratio (z) = 0.31994 -0.27751
#
# Static dielectric constant tensor:
#      x y z
#    x 1.795280 0.004860 -0.038120 
#    y 0.004860 1.720680 -0.025490 
#    z -0.038120 -0.025490 1.755700 
# 
# From -- ./inp_files/367723.got.cif
#   From: 2010.05.17/outbox.cif.g08.bks.cpg/sg2_184_cif.got.tgz:367723.got - 2010.06.03 11:33:40.
