data_PCOD9005674
_publ_section_title
;
Structure prediction by ZEFSAII (Michael W. Deem and Ramdas Pophale) SiO2 
 PCOD9005674
Probable space group: P -1
;
_chemical_formula_sum "Si O2"
_cell_formula_units_Z 16
_cell_length_a 21.513695
_cell_length_b 19.103364
_cell_length_c 12.096229
_cell_angle_alpha 26.169439
_cell_angle_beta 34.546602
_cell_angle_gamma 18.661100
_cell_volume 688.915621
_symmetry_space_group_name_H-M "P -1"
_symmetry_group_IT_number 2
_symmetry_cell_setting 'triclinic'
loop_
_space_group_symop_operation_xyz
x,y,z
-x,-y,-z
loop_
_atom_site_type_symbol
_atom_site_label
_atom_site_fract_x
_atom_site_fract_y
_atom_site_fract_z
Si Si1 0.372484 0.469048 0.127296
Si Si2 0.412926 0.483267 0.306241
Si Si3 0.083881 0.584713 0.377362
Si Si4 0.035240 0.874842 0.449514
Si Si5 0.885634 0.362243 0.098292
Si Si6 0.870903 0.669033 0.127450
Si Si7 0.765876 0.904075 0.726474
Si Si8 0.281944 0.175213 0.459882
O O1 0.381963 0.501171 0.196233
O O2 0.149045 0.686643 0.119302
O O3 0.505763 0.152159 0.364089
O O4 0.474723 0.484687 0.887177
O O5 0.206873 0.715669 0.340297
O O6 0.568797 0.169898 0.570356
O O7 0.168551 0.425360 0.597490
O O8 0.178914 0.370189 0.442936
O O9 0.854749 0.810546 0.396815
O O10 0.142911 0.669200 0.691926
O O11 0.886387 0.921411 0.553683
O O12 0.921083 0.167666 0.245333
O O13 0.732494 0.668450 0.832033
O O14 0.086419 0.227044 0.007898
O O15 0.079500 0.383224 0.165063
O O16 0.726504 0.872739 0.948275
#
# Coordination Sequence:
#
# PCOD9005674 Si02
#       8
#     2   2   2   2   2   2   2   2
#     4  11  25  41  55  93 127 155 206 253 287 366
#     4  11  25  39  61  88 126 163 199 244 307 363
#     4  10  21  38  63  89 116 160 199 250 305 343
#     4  10  22  41  63  88 126 159 197 253 308 357
#     4   9  20  40  63  92 119 155 205 254 299 359
#     4   9  19  39  65  89 119 153 209 255 293 358
#     4  10  21  41  63  89 121 160 201 253 303 360
#     4  10  22  39  65  87 119 160 205 249 299 358
#
# _framework density 23.224905
#
# number of rings (size 3 to 8) (size 9 to 14) (size 15 to 20)
#    0.000    2.000    0.000    2.625    7.000    1.000 
#    0.000   15.625    0.000    0.000    0.000    0.000 
#    0.000    0.000    0.000    0.000    0.000    0.000 
#
# Total GULP energy -89451.124380 kJ/mol
# GULP energy per Si atom -5590.695274 kJ/mol
# Density = 2.317204 g / cm^3
# Si number density = 23.224905 Si / 1000 Ang^3
#
#
#
# Elastic Constant Matrix: (Units=GPa)
#
#
# Indices 1 2 3 4 5 6 
#
# 1 68.4024 20.6953 11.5401 5.2547 -9.3316 -2.5748
# 2 20.6953 47.9917 12.4022 10.4991 7.7749 -8.5704
# 3 11.5401 12.4022 67.4477 -3.9689 12.0822 -6.2987
# 4 5.2547 10.4991 -3.9689 31.0422 3.6951 -0.1248
# 5 -9.3316 7.7749 12.0822 3.6951 41.5184 6.3246
# 6 -2.5748 -8.5704 -6.2987 -0.1248 6.3246 29.0613
#
#
#
# Elastic Compliance Matrix: (Units=1/GPa)
#
#
# Indices 1 2 3 4 5 6 
#
# 1 0.018838 -0.008704 -0.003360 -0.001578 0.007479 -0.003260
# 2 -0.008704 0.029764 -0.002244 -0.007943 -0.007561 0.009131
# 3 -0.003360 -0.002244 0.017639 0.004375 -0.006513 0.004300
# 4 -0.001578 -0.007943 0.004375 0.036112 -0.003252 -0.000671
# 5 0.007479 -0.007561 -0.006513 -0.003252 0.030846 -0.009706
# 6 -0.003260 0.009131 0.004300 -0.000671 -0.009706 0.039855
#
#
# Mechanical properties :
#
#
# Convention : Reuss Voigt Hill
#
# Bulk Modulus (GPa) = 26.57734 30.34632 28.46183
# Shear Modulus (GPa) = 23.34143 29.60466 26.47304
#
# Velocity S-wave (km/s) = 3.17364 3.57416 3.37984
# Velocity P-wave (km/s) = 4.98975 5.48885 5.24524
#
# Compressibility (1/GPa) = 0.03762604
#
# Stress axis : x y z
#
# Youngs Moduli (GPa) = 53.08316 33.59815 56.69124
#
# Poissons Ratio (x) = 0.29244 0.19047
# Poissons Ratio (y) = 0.46204 0.12721
# Poissons Ratio (z) = 0.17835 0.07539
#
# Static dielectric constant tensor:
#      x y z
#    x 1.895860 -0.023580 -0.002640 
#    y -0.023580 1.803840 0.020720 
#    z -0.002640 0.020720 1.926140 
# 
# From -- ./inp_files/456016.got.cif
#   From: 2010.05.17/outbox.cif.g08.bks.cpg/sg2_229_cif.got.tgz:456016.got - 2010.06.03 11:33:40.
