data_PCOD9005265
_publ_section_title
;
Structure prediction by ZEFSAII (Michael W. Deem and Ramdas Pophale) SiO2 
 PCOD9005265
Probable space group: P -1
;
_chemical_formula_sum "Si O2"
_cell_formula_units_Z 14
_cell_length_a 7.997355
_cell_length_b 21.549529
_cell_length_c 5.260215
_cell_angle_alpha 89.818186
_cell_angle_beta 92.498630
_cell_angle_gamma 145.382906
_cell_volume 513.651931
_symmetry_space_group_name_H-M "P -1"
_symmetry_group_IT_number 2
_symmetry_cell_setting 'triclinic'
loop_
_space_group_symop_operation_xyz
x,y,z
-x,-y,-z
loop_
_atom_site_type_symbol
_atom_site_label
_atom_site_fract_x
_atom_site_fract_y
_atom_site_fract_z
Si Si1 0.118489 0.105177 0.950574
Si Si2 0.884610 0.602632 0.730549
Si Si3 0.471302 0.607737 0.137103
Si Si4 0.246504 0.825294 0.759731
Si Si5 0.986803 0.429288 0.764851
Si Si6 0.862806 0.144224 0.751598
Si Si7 0.296060 0.129956 0.456997
O O1 0.357540 0.175288 0.739440
O O2 0.868299 0.074281 0.830703
O O3 0.229236 0.159974 0.234157
O O4 0.000000 0.000000 0.000000
O O5 0.564411 0.473325 0.753808
O O6 0.940542 0.692475 0.746684
O O7 0.007370 0.611605 0.479286
O O8 0.056806 0.625149 0.982176
O O9 0.243083 0.584556 0.264457
O O10 0.797589 0.731573 0.186919
O O11 0.314386 0.556670 0.850611
O O12 0.225404 0.871346 0.543013
O O13 0.468667 0.843061 0.655236
O O14 0.308056 0.868031 0.047032
O O15 0.000000 0.000000 0.500000
#
# Coordination Sequence:
#
# PCOD9005265 Si02
#       7
#     2   2   2   2   2   2   2
#     4  10  23  47  74 101 124 174 229 278 337 407
#     4  10  21  38  61  89 137 181 224 268 322 386
#     4   9  23  36  64  92 140 176 237 264 336 364
#     4  12  27  43  65 105 144 176 219 280 351 401
#     4   9  20  37  60  96 122 187 236 282 300 380
#     4  12  27  42  66 105 144 174 221 285 343 406
#     4  10  23  47  75  99 126 175 232 273 339 413
#
# _framework density 27.255814000000001
#
# number of rings (size 3 to 8) (size 9 to 14) (size 15 to 20)
#    0.857    0.857    0.000    3.000    6.000    1.143 
#    0.000   17.143    0.000    0.000    0.000    0.000 
#    0.000    0.000    0.000    0.000    0.000    0.000 
#
# Total GULP energy -78378.231540 kJ/mol
# GULP energy per Si atom -5598.445110 kJ/mol
# Density = 2.719378 g / cm^3
# Si number density = 27.255814 Si / 1000 Ang^3
#
#
#
# Elastic Constant Matrix: (Units=GPa)
#
#
# Indices 1 2 3 4 5 6 
#
# 1 81.1572 0.3489 15.1953 -15.4957 -5.1547 -3.6232
# 2 0.3489 98.4169 -12.8448 -6.8719 0.9700 0.1848
# 3 15.1953 -12.8448 184.1447 -9.8636 -0.4089 -10.0589
# 4 -15.4957 -6.8719 -9.8636 32.6258 -6.5288 3.2621
# 5 -5.1547 0.9700 -0.4089 -6.5288 52.0980 -4.5773
# 6 -3.6232 0.1848 -10.0589 3.2621 -4.5773 52.6461
#
#
#
# Elastic Compliance Matrix: (Units=1/GPa)
#
#
# Indices 1 2 3 4 5 6 
#
# 1 0.013938 0.000312 -0.000723 0.006864 0.002280 0.000593
# 2 0.000312 0.010453 0.000845 0.002640 0.000174 -0.000002
# 3 -0.000723 0.000845 0.005683 0.001503 0.000230 0.000960
# 4 0.006864 0.002640 0.001503 0.036039 0.005066 -0.001042
# 5 0.002280 0.000174 0.000230 0.005066 0.020198 0.001642
# 6 0.000593 -0.000002 0.000960 -0.001042 0.001642 0.019426
#
#
# Mechanical properties :
#
#
# Convention : Reuss Voigt Hill
#
# Bulk Modulus (GPa) = 32.32043 41.01309 36.66676
# Shear Modulus (GPa) = 43.40952 51.54196 47.47574
#
# Velocity S-wave (km/s) = 3.99516 4.35333 4.17808
# Velocity P-wave (km/s) = 5.75896 6.35207 6.06277
#
# Compressibility (1/GPa) = 0.03094019
#
# Stress axis : x y z
#
# Youngs Moduli (GPa) = 71.74831 95.66919 175.97680
#
# Poissons Ratio (x) = -0.02984 0.12728
# Poissons Ratio (y) = -0.02238 -0.14871
# Poissons Ratio (z) = 0.05189 -0.08085
#
# Static dielectric constant tensor:
#      x y z
#    x 2.100360 0.000350 0.008290 
#    y 0.000350 2.288080 0.070110 
#    z 0.008290 0.070110 2.174540 
# 
# From -- ./inp_files/54470.got.cif
#   From: 2010.05.17/outbox.cif.g08.bks.cpg/sg2_28_cif.got.tgz:54470.got - 2010.06.03 11:33:40.
