data_PCOD9005535
_publ_section_title
;
Structure prediction by ZEFSAII (Michael W. Deem and Ramdas Pophale) SiO2 
 PCOD9005535
Probable space group: P -1
;
_chemical_formula_sum "Si O2"
_cell_formula_units_Z 14
_cell_length_a 16.960788
_cell_length_b 4.965618
_cell_length_c 9.902218
_cell_angle_alpha 76.253216
_cell_angle_beta 137.714745
_cell_angle_gamma 116.298570
_cell_volume 497.389930
_symmetry_space_group_name_H-M "P -1"
_symmetry_group_IT_number 2
_symmetry_cell_setting 'triclinic'
loop_
_space_group_symop_operation_xyz
x,y,z
-x,-y,-z
loop_
_atom_site_type_symbol
_atom_site_label
_atom_site_fract_x
_atom_site_fract_y
_atom_site_fract_z
Si Si1 0.780381 0.835236 0.753280
Si Si2 0.325543 0.433070 0.983861
Si Si3 0.178734 0.061249 0.502237
Si Si4 0.522407 0.286252 0.397753
Si Si5 0.138717 0.767387 0.742774
Si Si6 0.640643 0.272716 0.267505
Si Si7 0.100463 0.605268 0.995099
O O1 0.861036 0.964681 0.701263
O O2 0.644262 0.585261 0.563352
O O3 0.848970 0.650900 0.936709
O O4 0.786432 0.105861 0.824946
O O5 0.410274 0.404542 0.217569
O O6 0.215281 0.554763 0.850895
O O7 0.252526 0.094407 0.877789
O O8 0.411365 0.645993 0.946627
O O9 0.236305 0.413144 0.575066
O O10 0.299357 0.966632 0.657903
O O11 0.086058 0.833223 0.525270
O O12 0.551346 0.197221 0.293982
O O13 0.500000 0.000000 0.500000
O O14 0.058578 0.692804 0.788839
O O15 0.000000 0.500000 0.000000
#
# Coordination Sequence:
#
# PCOD9005535 Si02
#       7
#     2   2   2   2   2   2   2
#     4  11  24  44  66  96 132 165 212 270 320 375
#     4  10  21  38  62  92 129 174 210 248 302 373
#     4   9  19  39  64  90 124 168 208 262 313 361
#     4  11  23  39  62  97 135 175 211 254 310 376
#     4  10  22  41  65  93 128 167 214 255 305 383
#     4   9  19  36  58  87 129 174 215 246 293 367
#     4  12  26  47  70  93 123 167 214 271 336 387
#
# _framework density 28.146930000000001
#
# number of rings (size 3 to 8) (size 9 to 14) (size 15 to 20)
#    0.000    1.714    0.000    4.286    0.000    4.571 
#    0.000   20.714    0.000    1.714    0.000    0.000 
#    0.000    0.000    0.000    0.000    0.000    0.000 
#
# Total GULP energy -78536.481632 kJ/mol
# GULP energy per Si atom -5609.748688 kJ/mol
# Density = 2.808287 g / cm^3
# Si number density = 28.146930 Si / 1000 Ang^3
#
#
#
# Elastic Constant Matrix: (Units=GPa)
#
#
# Indices 1 2 3 4 5 6 
#
# 1 106.0506 56.8333 37.6728 -13.8783 -25.2109 14.2798
# 2 56.8333 114.9813 76.4808 -19.2808 -1.6087 -2.2747
# 3 37.6728 76.4808 131.4009 -28.7530 -27.1039 25.3024
# 4 -13.8783 -19.2808 -28.7530 54.1538 20.2564 -18.8875
# 5 -25.2109 -1.6087 -27.1039 20.2564 67.7383 -20.7372
# 6 14.2798 -2.2747 25.3024 -18.8875 -20.7372 52.6598
#
#
#
# Elastic Compliance Matrix: (Units=1/GPa)
#
#
# Indices 1 2 3 4 5 6 
#
# 1 0.015451 -0.009957 0.003054 -0.001697 0.005906 -0.004370
# 2 -0.009957 0.022735 -0.012465 0.004485 -0.006869 0.008575
# 3 0.003054 -0.012465 0.016565 0.000783 0.005078 -0.007045
# 4 -0.001697 0.004485 0.000783 0.024485 -0.005413 0.006928
# 5 0.005906 -0.006869 0.005078 -0.005413 0.021065 0.002016
# 6 -0.004370 0.008575 -0.007045 0.006928 0.002016 0.027209
#
#
# Mechanical properties :
#
#
# Convention : Reuss Voigt Hill
#
# Bulk Modulus (GPa) = 62.43932 77.15628 69.79780
# Shear Modulus (GPa) = 29.14009 47.00678 38.07344
#
# Velocity S-wave (km/s) = 3.22108 4.09106 3.68185
# Velocity P-wave (km/s) = 6.00544 7.05600 6.55181
#
# Compressibility (1/GPa) = 0.01601555
#
# Stress axis : x y z
#
# Youngs Moduli (GPa) = 64.72151 43.98447 60.36681
#
# Poissons Ratio (x) = 0.43794 -0.18435
# Poissons Ratio (y) = 0.64442 0.75247
# Poissons Ratio (z) = -0.19765 0.54827
#
# Static dielectric constant tensor:
#      x y z
#    x 2.230530 0.091390 -0.061910 
#    y 0.091390 2.156320 -0.021920 
#    z -0.061910 -0.021920 2.171690 
# 
# From -- ./inp_files/44713.got.cif
#   From: 2010.05.17/outbox.cif.g08.bks.cpg/sg2_23_cif.got.tgz:44713.got - 2010.06.03 11:33:40.
