data_PCOD9005450
_publ_section_title
;
Structure prediction by ZEFSAII (Michael W. Deem and Ramdas Pophale) SiO2 
 PCOD9005450
Probable space group: P -1
;
_chemical_formula_sum "Si O2"
_cell_formula_units_Z 12
_cell_length_a 17.023961
_cell_length_b 9.801338
_cell_length_c 5.303500
_cell_angle_alpha 98.769647
_cell_angle_beta 111.613539
_cell_angle_gamma 137.357316
_cell_volume 412.572144
_symmetry_space_group_name_H-M "P -1"
_symmetry_group_IT_number 2
_symmetry_cell_setting 'triclinic'
loop_
_space_group_symop_operation_xyz
x,y,z
-x,-y,-z
loop_
_atom_site_type_symbol
_atom_site_label
_atom_site_fract_x
_atom_site_fract_y
_atom_site_fract_z
Si Si1 0.729441 0.391232 0.564947
Si Si2 0.511843 0.841586 0.145049
Si Si3 0.796824 0.268556 0.229618
Si Si4 0.145166 0.161879 0.018035
Si Si5 0.042697 0.776658 0.446789
Si Si6 0.650024 0.766966 0.430820
O O1 0.573122 0.077805 0.368907
O O2 0.844883 0.441709 0.569159
O O3 0.781661 0.583692 0.871507
O O4 0.670819 0.401955 0.251942
O O5 0.619234 0.973826 0.050120
O O6 0.575867 0.815435 0.404040
O O7 0.879819 0.236364 0.293186
O O8 0.858249 0.447466 0.115298
O O9 0.297352 0.275626 0.320066
O O10 0.062633 0.952455 0.646990
O O11 0.000000 0.000000 0.000000
O O12 0.171045 0.960202 0.418716
O O13 0.500000 0.500000 0.000000
#
# Coordination Sequence:
#
# PCOD9005450 Si02
#       6
#     2   2   2   2   2   2
#     4   9  16  34  64  84 120 160 199 244 302 352
#     4   8  16  35  61  83 113 169 195 232 305 365
#     4   8  16  36  59  87 119 162 196 242 304 362
#     4  12  23  39  62  95 123 155 205 260 299 353
#     4  10  21  38  62  89 122 163 202 246 308 363
#     4  11  23  40  61  91 126 161 201 250 308 361
#
# _framework density 29.085823000000001
#
# number of rings (size 3 to 8) (size 9 to 14) (size 15 to 20)
#    1.000    1.333    3.333    0.000    0.000    1.333 
#    0.000   13.333    0.000    2.000    0.000    0.000 
#    0.000    0.000    0.000    0.000    0.000    0.000 
#
# Total GULP energy -66893.480591 kJ/mol
# GULP energy per Si atom -5574.456716 kJ/mol
# Density = 2.901962 g / cm^3
# Si number density = 29.085823 Si / 1000 Ang^3
#
#
#
# Elastic Constant Matrix: (Units=GPa)
#
#
# Indices 1 2 3 4 5 6 
#
# 1 193.8102 37.9750 38.2678 -21.8707 -2.8159 -37.4823
# 2 37.9750 101.9825 6.1266 1.0366 -10.8703 -18.1175
# 3 38.2678 6.1266 143.3805 4.3254 4.6911 -9.4226
# 4 -21.8707 1.0366 4.3254 22.0183 -4.0834 -3.6641
# 5 -2.8159 -10.8703 4.6911 -4.0834 42.7084 -1.2989
# 6 -37.4823 -18.1175 -9.4226 -3.6641 -1.2989 79.7392
#
#
#
# Elastic Compliance Matrix: (Units=1/GPa)
#
#
# Indices 1 2 3 4 5 6 
#
# 1 0.007621 -0.002100 -0.002031 0.008825 0.001135 0.003289
# 2 -0.002100 0.011138 0.000159 -0.001918 0.002542 0.001515
# 3 -0.002031 0.000159 0.007653 -0.003806 -0.001304 -0.000211
# 4 0.008825 -0.001918 -0.003806 0.057160 0.006159 0.005990
# 5 0.001135 0.002542 -0.001304 0.006159 0.024919 0.001646
# 6 0.003289 0.001515 -0.000211 0.005990 0.001646 0.014708
#
#
# Mechanical properties :
#
#
# Convention : Reuss Voigt Hill
#
# Bulk Modulus (GPa) = 54.15168 67.10134 60.62651
# Shear Modulus (GPa) = 36.41666 52.68010 44.54838
#
# Velocity S-wave (km/s) = 3.54226 4.26043 3.91784
# Velocity P-wave (km/s) = 5.94882 6.87909 6.43080
#
# Compressibility (1/GPa) = 0.01846665
#
# Stress axis : x y z
#
# Youngs Moduli (GPa) = 131.21993 89.78509 130.65919
#
# Poissons Ratio (x) = 0.18856 0.26543
# Poissons Ratio (y) = 0.27558 -0.02076
# Poissons Ratio (z) = 0.26657 -0.01427
#
# Static dielectric constant tensor:
#      x y z
#    x 2.306630 0.125610 0.196900 
#    y 0.125610 2.522120 0.112800 
#    z 0.196900 0.112800 2.524860 
# 
# From -- ./inp_files/118762.got.cif
#   From: 2010.05.17/outbox.cif.g08.bks.cpg/sg2_60_cif.got.tgz:118762.got - 2010.06.03 11:33:40.
