data_PCOD9005164
_publ_section_title
;
Structure prediction by ZEFSAII (Michael W. Deem and Ramdas Pophale) SiO2 
 PCOD9005164
Probable space group: P -1
;
_chemical_formula_sum "Si O2"
_cell_formula_units_Z 16
_cell_length_a 11.389555
_cell_length_b 11.982440
_cell_length_c 23.794720
_cell_angle_alpha 153.017454
_cell_angle_beta 140.857054
_cell_angle_gamma 54.984509
_cell_volume 848.439251
_symmetry_space_group_name_H-M "P -1"
_symmetry_group_IT_number 2
_symmetry_cell_setting 'triclinic'
loop_
_space_group_symop_operation_xyz
x,y,z
-x,-y,-z
loop_
_atom_site_type_symbol
_atom_site_label
_atom_site_fract_x
_atom_site_fract_y
_atom_site_fract_z
Si Si1 0.293651 0.280099 0.922509
Si Si2 0.836282 0.754273 0.023187
Si Si3 0.831617 0.008564 0.021054
Si Si4 0.782185 0.549774 0.234451
Si Si5 0.605461 0.184777 0.432070
Si Si6 0.267023 0.755017 0.179081
Si Si7 0.101182 0.025353 0.621398
Si Si8 0.274800 0.204657 0.230731
O O1 0.223453 0.137728 0.893124
O O2 0.190307 0.098146 0.749338
O O3 0.539039 0.419682 0.076617
O O4 0.226639 0.531278 0.014340
O O5 0.079566 0.840193 0.150942
O O6 0.768772 0.849449 0.984381
O O7 0.739682 0.429959 0.852476
O O8 0.843351 0.308247 0.165406
O O9 0.052197 0.022861 0.090995
O O10 0.693603 0.878177 0.857291
O O11 0.877283 0.786981 0.422731
O O12 0.879658 0.702351 0.280893
O O13 0.753745 0.076000 0.407031
O O14 0.439436 0.180278 0.322497
O O15 0.710510 0.492391 0.628508
O O16 0.479219 0.994686 0.350560
#
# Coordination Sequence:
#
# PCOD9005164 Si02
#       8
#     2   2   2   2   2   2   2   2
#     4  10  21  38  61  81 116 163 193 234 293 341
#     4   9  20  39  59  84 112 160 201 232 282 359
#     4  11  21  38  55  86 120 152 189 242 300 345
#     4  11  23  36  57  90 123 151 193 248 287 353
#     4  11  19  40  58  89 116 146 198 246 293 346
#     4   9  19  37  64  80 111 158 197 239 283 342
#     4  11  22  37  59  92 118 151 201 240 292 349
#     4  10  23  33  62  86 114 152 188 248 306 338
#
# _framework density 18.858156000000001
#
# number of rings (size 3 to 8) (size 9 to 14) (size 15 to 20)
#    0.750    1.000    3.750    1.125    1.750    0.500 
#    0.000    2.500    0.000    0.000    0.000    0.000 
#    0.000    0.000    0.000    0.000    0.000    0.000 
#
# Total GULP energy -89138.261297 kJ/mol
# GULP energy per Si atom -5571.141331 kJ/mol
# Density = 1.881523 g / cm^3
# Si number density = 18.858156 Si / 1000 Ang^3
#
#
#
# Elastic Constant Matrix: (Units=GPa)
#
#
# Indices 1 2 3 4 5 6 
#
# 1 63.1122 26.9227 30.8894 -8.1647 -2.3923 19.4408
# 2 26.9227 81.7495 21.4407 6.2490 0.4287 17.6697
# 3 30.8894 21.4407 74.8675 -15.0074 -3.9086 16.4036
# 4 -8.1647 6.2490 -15.0074 26.7455 0.0228 0.6021
# 5 -2.3923 0.4287 -3.9086 0.0228 9.9073 -0.6791
# 6 19.4408 17.6697 16.4036 0.6021 -0.6791 29.4334
#
#
#
# Elastic Compliance Matrix: (Units=1/GPa)
#
#
# Indices 1 2 3 4 5 6 
#
# 1 0.024578 -0.004997 -0.005011 0.006092 0.003441 -0.010486
# 2 -0.004997 0.016262 -0.003162 -0.006992 -0.003460 -0.004637
# 3 -0.005011 -0.003162 0.020129 0.010635 0.006427 -0.006080
# 4 0.006092 -0.006992 0.010635 0.046994 0.005410 -0.006590
# 5 0.003441 -0.003460 0.006427 0.005410 0.104338 -0.001481
# 6 -0.010486 -0.004637 -0.006080 -0.006590 -0.001481 0.047174
#
#
# Mechanical properties :
#
#
# Convention : Reuss Voigt Hill
#
# Bulk Modulus (GPa) = 28.87696 42.02610 35.45153
# Shear Modulus (GPa) = 16.81472 22.58234 19.69853
#
# Velocity S-wave (km/s) = 2.98928 3.46422 3.23548
# Velocity P-wave (km/s) = 5.22114 6.19152 5.72692
#
# Compressibility (1/GPa) = 0.03462969
#
# Stress axis : x y z
#
# Youngs Moduli (GPa) = 40.68722 61.49208 49.67865
#
# Poissons Ratio (x) = 0.30729 0.24894
# Poissons Ratio (y) = 0.20332 0.15707
# Poissons Ratio (z) = 0.20388 0.19442
#
# Static dielectric constant tensor:
#      x y z
#    x 1.669390 -0.014050 0.017050 
#    y -0.014050 1.673280 0.001150 
#    z 0.017050 0.001150 1.666290 
# 
# From -- ./inp_files/574985.got.cif
#   From: 2010.05.17/outbox.cif.g08.bks.cpg/sg2_288_cif.got.tgz:574985.got - 2010.06.03 11:33:40.
