data_PCOD9005810
_publ_section_title
;
Structure prediction by ZEFSAII (Michael W. Deem and Ramdas Pophale) SiO2 
 PCOD9005810
Probable space group: P -1
;
_chemical_formula_sum "Si O2"
_cell_formula_units_Z 14
_cell_length_a 14.497621
_cell_length_b 14.366190
_cell_length_c 22.537123
_cell_angle_alpha 18.228365
_cell_angle_beta 25.245973
_cell_angle_gamma 33.444745
_cell_volume 615.425109
_symmetry_space_group_name_H-M "P -1"
_symmetry_group_IT_number 2
_symmetry_cell_setting 'triclinic'
loop_
_space_group_symop_operation_xyz
x,y,z
-x,-y,-z
loop_
_atom_site_type_symbol
_atom_site_label
_atom_site_fract_x
_atom_site_fract_y
_atom_site_fract_z
Si Si1 0.877319 0.413001 0.686744
Si Si2 0.670753 0.604248 0.140189
Si Si3 0.601429 0.848400 0.902861
Si Si4 0.132354 0.932180 0.707524
Si Si5 0.744227 0.504708 0.378312
Si Si6 0.755854 0.775363 0.329182
Si Si7 0.806414 0.308424 0.057436
O O1 0.000000 0.500000 0.500000
O O2 0.044033 0.305330 0.700051
O O3 0.812442 0.729195 0.553143
O O4 0.653893 0.176208 0.950350
O O5 0.765098 0.306097 0.246344
O O6 0.455847 0.483837 0.376063
O O7 0.616073 0.764298 0.014480
O O8 0.868973 0.822098 0.925529
O O9 0.740018 0.174655 0.609231
O O10 0.694352 0.590617 0.968012
O O11 0.217014 0.905451 0.741290
O O12 0.500000 0.500000 0.500000
O O13 0.795557 0.751499 0.251161
O O14 0.935810 0.570776 0.178391
O O15 0.716035 0.096947 0.182631
#
# Coordination Sequence:
#
# PCOD9005810 Si02
#       7
#     2   2   2   2   2   2   2
#     4  12  22  37  65  98 127 155 202 264 319 365
#     4  10  21  38  64  95 124 164 201 265 315 377
#     4  11  24  43  65  92 127 168 210 256 316 371
#     4  10  21  38  63  94 129 160 208 252 323 370
#     4  12  27  44  65  91 126 170 214 259 305 367
#     4  12  24  40  67  94 128 159 212 259 319 362
#     4  11  23  44  64  90 129 172 210 251 305 380
#
# _framework density 22.748504000000001
#
# number of rings (size 3 to 8) (size 9 to 14) (size 15 to 20)
#    0.000    0.857    2.857    4.286    2.000    3.429 
#    0.000    5.714    0.000    0.000    0.000    0.000 
#    0.000    0.000    0.000    0.000    0.000    0.000 
#
# Total GULP energy -78451.848466 kJ/mol
# GULP energy per Si atom -5603.703462 kJ/mol
# Density = 2.269673 g / cm^3
# Si number density = 22.748504 Si / 1000 Ang^3
#
#
#
# Elastic Constant Matrix: (Units=GPa)
#
#
# Indices 1 2 3 4 5 6 
#
# 1 71.8315 24.1411 -3.1544 9.7711 -11.5453 6.4259
# 2 24.1411 74.4257 9.0946 -1.0433 2.2500 6.4565
# 3 -3.1544 9.0946 86.6219 8.6560 0.3334 -4.6533
# 4 9.7711 -1.0433 8.6560 49.2824 -2.7644 -5.6891
# 5 -11.5453 2.2500 0.3334 -2.7644 35.7770 -0.8546
# 6 6.4259 6.4565 -4.6533 -5.6891 -0.8546 28.4073
#
#
#
# Elastic Compliance Matrix: (Units=1/GPa)
#
#
# Indices 1 2 3 4 5 6 
#
# 1 0.017680 -0.005877 0.001468 -0.003919 0.005686 -0.003037
# 2 -0.005877 0.015922 -0.002150 0.001440 -0.002825 -0.002438
# 3 0.001468 -0.002150 0.012139 -0.002251 0.000362 0.001705
# 4 -0.003919 0.001440 -0.002251 0.022055 0.000480 0.004622
# 5 0.005686 -0.002825 0.000362 0.000480 0.030007 0.000414
# 6 -0.003037 -0.002438 0.001705 0.004622 0.000414 0.037661
#
#
# Mechanical properties :
#
#
# Convention : Reuss Voigt Hill
#
# Bulk Modulus (GPa) = 30.65440 32.56017 31.60729
# Shear Modulus (GPa) = 31.35647 36.21320 33.78484
#
# Velocity S-wave (km/s) = 3.71670 3.99418 3.85794
# Velocity P-wave (km/s) = 5.65006 5.96787 5.81114
#
# Compressibility (1/GPa) = 0.03262174
#
# Stress axis : x y z
#
# Youngs Moduli (GPa) = 56.56147 62.80445 82.38079
#
# Poissons Ratio (x) = 0.36913 -0.12090
# Poissons Ratio (y) = 0.33244 0.17710
# Poissons Ratio (z) = -0.08301 0.13501
#
# Static dielectric constant tensor:
#      x y z
#    x 1.794310 0.008450 -0.010890 
#    y 0.008450 1.875460 -0.013410 
#    z -0.010890 -0.013410 1.856190 
# 
# From -- ./inp_files/158606.got.cif
#   From: 2010.05.17/outbox.cif.g08.bks.cpg/sg2_80_cif.got.tgz:158606.got - 2010.06.03 11:33:40.
