data_PCOD9005984
_publ_section_title
;
Structure prediction by ZEFSAII (Michael W. Deem and Ramdas Pophale) SiO2 
 PCOD9005984
Probable space group: P -1
;
_chemical_formula_sum "Si O2"
_cell_formula_units_Z 16
_cell_length_a 9.842288
_cell_length_b 7.187996
_cell_length_c 11.690358
_cell_angle_alpha 78.936230
_cell_angle_beta 124.276661
_cell_angle_gamma 75.786298
_cell_volume 603.592152
_symmetry_space_group_name_H-M "P -1"
_symmetry_group_IT_number 2
_symmetry_cell_setting 'triclinic'
loop_
_space_group_symop_operation_xyz
x,y,z
-x,-y,-z
loop_
_atom_site_type_symbol
_atom_site_label
_atom_site_fract_x
_atom_site_fract_y
_atom_site_fract_z
Si Si1 0.074913 0.851999 0.230476
Si Si2 0.513637 0.226434 0.253459
Si Si3 0.705036 0.107426 0.132489
Si Si4 0.653310 0.680901 0.183168
Si Si5 0.367004 0.518558 0.575118
Si Si6 0.684424 0.815484 0.525636
Si Si7 0.048330 0.499383 0.826580
Si Si8 0.196088 0.160843 0.172748
O O1 0.221511 0.710753 0.410555
O O2 0.992282 0.704394 0.151902
O O3 0.157277 0.959419 0.167004
O O4 0.911107 0.037170 0.200070
O O5 0.620340 0.241376 0.190403
O O6 0.487921 0.410393 0.308929
O O7 0.323519 0.212887 0.140418
O O8 0.645870 0.005463 0.400538
O O9 0.692732 0.886902 0.178243
O O10 0.563265 0.226411 0.950575
O O11 0.711452 0.551364 0.342611
O O12 0.763052 0.553829 0.139620
O O13 0.428375 0.314993 0.547643
O O14 0.894787 0.639189 0.643299
O O15 0.323701 0.117258 0.354098
O O16 0.986602 0.645030 0.891668
#
# Coordination Sequence:
#
# PCOD9005984 Si02
#       8
#     2   2   2   2   2   2   2   2
#     4  10  21  38  64  91 119 158 201 245 304 354
#     4  12  23  37  60  95 123 158 201 246 304 357
#     4  10  24  41  64  89 122 160 203 249 302 356
#     4  10  21  43  63  86 125 159 200 254 301 348
#     4  11  22  35  64  94 117 157 202 249 300 354
#     4   9  20  36  55  89 126 153 192 247 298 355
#     4   8  20  36  60  85 118 159 199 238 300 355
#     4  10  22  39  59  91 129 158 191 253 302 357
#
# _framework density 26.507966
#
# number of rings (size 3 to 8) (size 9 to 14) (size 15 to 20)
#    0.750    1.250    2.500    0.375    3.500    4.000 
#    0.000    0.625    0.000    2.250    0.000    0.000 
#    0.000    0.000    0.000    0.000    0.000    0.000 
#
# Total GULP energy -89540.460037 kJ/mol
# GULP energy per Si atom -5596.278752 kJ/mol
# Density = 2.644763 g / cm^3
# Si number density = 26.507966 Si / 1000 Ang^3
#
#
#
# Elastic Constant Matrix: (Units=GPa)
#
#
# Indices 1 2 3 4 5 6 
#
# 1 125.5676 39.4516 37.9225 -13.0532 -7.3874 10.2238
# 2 39.4516 118.2119 21.6041 -0.8875 2.1098 16.7296
# 3 37.9225 21.6041 78.9595 -2.9291 -8.7231 10.2625
# 4 -13.0532 -0.8875 -2.9291 30.8233 0.6567 0.8626
# 5 -7.3874 2.1098 -8.7231 0.6567 35.5091 0.4637
# 6 10.2238 16.7296 10.2625 0.8626 0.4637 47.9452
#
#
#
# Elastic Compliance Matrix: (Units=1/GPa)
#
#
# Indices 1 2 3 4 5 6 
#
# 1 0.010550 -0.002714 -0.003960 0.004000 0.001316 -0.000540
# 2 -0.002714 0.009986 -0.001280 -0.000880 -0.001422 -0.002602
# 3 -0.003960 -0.001280 0.015517 -0.000248 0.003095 -0.002056
# 4 0.004000 -0.000880 -0.000248 0.034115 0.000207 -0.001109
# 5 0.001316 -0.001422 0.003095 0.000207 0.029286 -0.000734
# 6 -0.000540 -0.002602 -0.002056 -0.001109 -0.000734 0.022347
#
#
# Mechanical properties :
#
#
# Convention : Reuss Voigt Hill
#
# Bulk Modulus (GPa) = 49.64396 57.85504 53.74950
# Shear Modulus (GPa) = 34.61991 37.77291 36.19641
#
# Velocity S-wave (km/s) = 3.61781 3.77897 3.69927
# Velocity P-wave (km/s) = 6.01830 6.39638 6.21022
#
# Compressibility (1/GPa) = 0.02014344
#
# Stress axis : x y z
#
# Youngs Moduli (GPa) = 94.78799 100.13791 64.44537
#
# Poissons Ratio (x) = 0.27179 0.25522
# Poissons Ratio (y) = 0.25727 0.08251
# Poissons Ratio (z) = 0.37539 0.12821
#
# Static dielectric constant tensor:
#      x y z
#    x 2.095750 -0.005770 0.012110 
#    y -0.005770 2.134780 0.009150 
#    z 0.012110 0.009150 2.085410 
# 
# From -- ./inp_files/513144.got.cif
#   From: 2010.05.17/outbox.cif.g08.bks.cpg/sg2_257_cif.got.tgz:513144.got - 2010.06.03 11:33:40.
