data_PCOD9005504
_publ_section_title
;
Structure prediction by ZEFSAII (Michael W. Deem and Ramdas Pophale) SiO2 
 PCOD9005504
Probable space group: P -1
;
_chemical_formula_sum "Si O2"
_cell_formula_units_Z 16
_cell_length_a 11.259891
_cell_length_b 9.160217
_cell_length_c 12.043702
_cell_angle_alpha 136.717507
_cell_angle_beta 89.033620
_cell_angle_gamma 66.865057
_cell_volume 686.873032
_symmetry_space_group_name_H-M "P -1"
_symmetry_group_IT_number 2
_symmetry_cell_setting 'triclinic'
loop_
_space_group_symop_operation_xyz
x,y,z
-x,-y,-z
loop_
_atom_site_type_symbol
_atom_site_label
_atom_site_fract_x
_atom_site_fract_y
_atom_site_fract_z
Si Si1 0.349133 0.592729 0.316273
Si Si2 0.069439 0.719051 0.521662
Si Si3 0.393746 0.299476 0.920565
Si Si4 0.104290 0.529570 0.654990
Si Si5 0.422079 0.915189 0.868926
Si Si6 0.613598 0.020802 0.578258
Si Si7 0.084421 0.272073 0.040273
Si Si8 0.068348 0.708598 0.157021
O O1 0.212745 0.627562 0.398923
O O2 0.490259 0.393501 0.280849
O O3 0.323612 0.865367 0.441036
O O4 0.379260 0.450112 0.117442
O O5 0.105183 0.676792 0.629226
O O6 0.007745 0.549425 0.407498
O O7 0.948359 0.027312 0.666615
O O8 0.518964 0.229153 0.793965
O O9 0.431287 0.020734 0.808012
O O10 0.228490 0.489546 0.980560
O O11 0.035736 0.700694 0.861596
O O12 0.260302 0.258563 0.526908
O O13 0.500000 0.000000 0.000000
O O14 0.247749 0.073718 0.976000
O O15 0.500000 0.000000 0.500000
O O16 0.055754 0.554381 0.172145
O O17 0.059915 0.202782 0.879981
#
# Coordination Sequence:
#
# PCOD9005504 Si02
#       8
#     2   2   2   2   2   2   2   2
#     4  11  23  41  66  90 121 163 208 249 302 368
#     4  11  24  41  65  93 120 161 207 257 304 356
#     4  10  21  40  63  88 120 160 202 251 303 362
#     4  11  24  42  63  91 127 159 205 257 304 358
#     4   9  19  36  62  90 120 157 204 250 297 361
#     4  12  26  41  61  92 129 162 200 253 306 362
#     4  10  21  38  62  91 123 162 200 252 306 361
#     4  10  21  38  62  91 123 159 205 248 305 365
#
# _framework density 23.293970999999999
#
# number of rings (size 3 to 8) (size 9 to 14) (size 15 to 20)
#    0.000    1.500    0.000    5.625    0.000    9.000 
#    0.000    1.875    0.000    0.000    0.000    0.000 
#    0.000    0.000    0.000    0.000    0.000    0.000 
#
# Total GULP energy -89466.978051 kJ/mol
# GULP energy per Si atom -5591.686128 kJ/mol
# Density = 2.324095 g / cm^3
# Si number density = 23.293971 Si / 1000 Ang^3
#
#
#
# Elastic Constant Matrix: (Units=GPa)
#
#
# Indices 1 2 3 4 5 6 
#
# 1 83.8663 51.5393 27.9595 -2.6795 -27.9803 1.1086
# 2 51.5393 125.0766 40.1133 14.8133 -16.9468 -0.2655
# 3 27.9595 40.1133 49.0430 -2.1085 -28.7848 6.1243
# 4 -2.6795 14.8133 -2.1085 39.1006 5.5733 -6.4217
# 5 -27.9803 -16.9468 -28.7848 5.5733 38.6129 4.8863
# 6 1.1086 -0.2655 6.1243 -6.4217 4.8863 46.8638
#
#
#
# Elastic Compliance Matrix: (Units=1/GPa)
#
#
# Indices 1 2 3 4 5 6 
#
# 1 0.020291 -0.007791 0.003090 0.002248 0.013520 -0.002029
# 2 -0.007791 0.014946 -0.013248 -0.005352 -0.008461 0.002149
# 3 0.003090 -0.013248 0.052349 0.001079 0.036643 -0.010662
# 4 0.002248 -0.005352 0.001079 0.029179 -0.004666 0.004260
# 5 0.013520 -0.008461 0.036643 -0.004666 0.061516 -0.012210
# 6 -0.002029 0.002149 -0.010662 0.004260 -0.012210 0.024649
#
#
# Mechanical properties :
#
#
# Convention : Reuss Voigt Hill
#
# Bulk Modulus (GPa) = 19.34680 55.24555 37.29618
# Shear Modulus (GPa) = 19.52693 34.14039 26.83366
#
# Velocity S-wave (km/s) = 2.89845 3.83251 3.39773
# Velocity P-wave (km/s) = 4.41870 6.58425 5.60702
#
# Compressibility (1/GPa) = 0.05168814
#
# Stress axis : x y z
#
# Youngs Moduli (GPa) = 49.28392 66.90790 19.10257
#
# Poissons Ratio (x) = 0.52125 -0.05902
# Poissons Ratio (y) = 0.38395 0.25306
# Poissons Ratio (z) = -0.15226 0.88637
#
# Static dielectric constant tensor:
#      x y z
#    x 1.897600 -0.009540 0.053550 
#    y -0.009540 1.858120 -0.010010 
#    z 0.053550 -0.010010 1.921910 
# 
# From -- ./inp_files/420022.got.cif
#   From: 2010.05.17/outbox.cif.g08.bks.cpg/sg2_211_cif.got.tgz:420022.got - 2010.06.03 11:33:40.
