data_PCOD9005552
_publ_section_title
;
Structure prediction by ZEFSAII (Michael W. Deem and Ramdas Pophale) SiO2 
 PCOD9005552
Probable space group: P -1
;
_chemical_formula_sum "Si O2"
_cell_formula_units_Z 16
_cell_length_a 15.610069
_cell_length_b 11.320268
_cell_length_c 9.701722
_cell_angle_alpha 107.304254
_cell_angle_beta 144.884605
_cell_angle_gamma 57.069242
_cell_volume 788.284522
_symmetry_space_group_name_H-M "P -1"
_symmetry_group_IT_number 2
_symmetry_cell_setting 'triclinic'
loop_
_space_group_symop_operation_xyz
x,y,z
-x,-y,-z
loop_
_atom_site_type_symbol
_atom_site_label
_atom_site_fract_x
_atom_site_fract_y
_atom_site_fract_z
Si Si1 0.514455 0.714589 0.087259
Si Si2 0.509970 0.196434 0.228806
Si Si3 0.291992 0.139129 0.553749
Si Si4 0.345990 0.587906 0.968327
Si Si5 0.022146 0.321121 0.052168
Si Si6 0.626911 0.403110 0.509191
Si Si7 0.986251 0.654926 0.521896
Si Si8 0.878962 0.634682 0.094673
O O1 0.603225 0.781662 0.316752
O O2 0.635966 0.538548 0.154416
O O3 0.483353 0.789975 0.923230
O O4 0.352071 0.717771 0.947767
O O5 0.632062 0.252507 0.462047
O O6 0.312906 0.307978 0.070787
O O7 0.577510 0.033069 0.307835
O O8 0.185275 0.218605 0.580819
O O9 0.145511 0.178894 0.258406
O O10 0.156981 0.645231 0.806998
O O11 0.514303 0.498444 0.260312
O O12 0.824151 0.366870 0.768677
O O13 0.990191 0.459151 0.150591
O O14 0.125131 0.303692 0.040099
O O15 0.500000 0.500000 0.500000
O O16 0.000000 0.500000 0.500000
O O17 0.969268 0.680854 0.344323
#
# Coordination Sequence:
#
# PCOD9005552 Si02
#       8
#     2   2   2   2   2   2   2   2
#     4  10  21  38  62  93 125 163 210 267 311 371
#     4  11  24  43  64  93 130 173 208 258 331 383
#     4  12  24  41  67  93 131 172 211 257 325 390
#     4  10  22  36  64  98 122 160 215 270 312 356
#     4  11  25  39  64  97 126 165 217 268 309 375
#     4  11  22  41  65  90 130 167 211 263 317 382
#     4  12  20  39  67  97 126 163 217 262 312 378
#     4  11  23  40  64  95 128 161 217 269 312 376
#
# _framework density 20.297239000000001
#
# number of rings (size 3 to 8) (size 9 to 14) (size 15 to 20)
#    0.000    1.000    5.000    1.875    8.750    1.000 
#    0.000    1.875    0.000    0.000    0.000    0.000 
#    0.000    0.000    0.000    0.000    0.000    0.000 
#
# Total GULP energy -89299.620388 kJ/mol
# GULP energy per Si atom -5581.226274 kJ/mol
# Density = 2.025104 g / cm^3
# Si number density = 20.297239 Si / 1000 Ang^3
#
#
#
# Elastic Constant Matrix: (Units=GPa)
#
#
# Indices 1 2 3 4 5 6 
#
# 1 89.2134 21.4799 32.5431 -3.8938 -5.7808 14.9547
# 2 21.4799 60.8963 24.1016 -6.0371 -2.0156 12.4705
# 3 32.5431 24.1016 84.3744 5.4937 -0.1515 17.7647
# 4 -3.8938 -6.0371 5.4937 25.3581 5.2310 1.5282
# 5 -5.7808 -2.0156 -0.1515 5.2310 30.4149 9.6864
# 6 14.9547 12.4705 17.7647 1.5282 9.6864 23.4261
#
#
#
# Elastic Compliance Matrix: (Units=1/GPa)
#
#
# Indices 1 2 3 4 5 6 
#
# 1 0.014667 -0.001776 -0.003644 0.002104 0.004761 -0.007760
# 2 -0.001776 0.020978 -0.003836 0.005487 0.002848 -0.008660
# 3 -0.003644 -0.003836 0.016607 -0.005124 0.002914 -0.009096
# 4 0.002104 0.005487 -0.005124 0.043565 -0.006598 -0.000493
# 5 0.004761 0.002848 0.002914 -0.006598 0.042771 -0.024020
# 6 -0.007760 -0.008660 -0.009096 -0.000493 -0.024020 0.069113
#
#
# Mechanical properties :
#
#
# Convention : Reuss Voigt Hill
#
# Bulk Modulus (GPa) = 29.63891 43.41481 36.52686
# Shear Modulus (GPa) = 21.05604 26.26380 23.65992
#
# Velocity S-wave (km/s) = 3.22434 3.60107 3.41790
# Velocity P-wave (km/s) = 5.33816 6.22304 5.79751
#
# Compressibility (1/GPa) = 0.03373943
#
# Stress axis : x y z
#
# Youngs Moduli (GPa) = 68.17893 47.66975 60.21440
#
# Poissons Ratio (x) = 0.08465 0.21945
# Poissons Ratio (y) = 0.12107 0.23100
# Poissons Ratio (z) = 0.24848 0.18287
#
# Static dielectric constant tensor:
#      x y z
#    x 1.784460 0.015940 -0.005650 
#    y 0.015940 1.692440 0.028910 
#    z -0.005650 0.028910 1.775390 
# 
# From -- ./inp_files/307828.got.cif
#   From: 2010.05.17/outbox.cif.g08.bks.cpg/sg2_154_cif.got.tgz:307828.got - 2010.06.03 11:33:40.
