data_PCOD9005394
_publ_section_title
;
Structure prediction by ZEFSAII (Michael W. Deem and Ramdas Pophale) SiO2 
 PCOD9005394
Probable space group: P -1
;
_chemical_formula_sum "Si O2"
_cell_formula_units_Z 16
_cell_length_a 15.791467
_cell_length_b 9.387144
_cell_length_c 10.963915
_cell_angle_alpha 52.556079
_cell_angle_beta 112.075584
_cell_angle_gamma 144.460632
_cell_volume 724.722887
_symmetry_space_group_name_H-M "P -1"
_symmetry_group_IT_number 2
_symmetry_cell_setting 'triclinic'
loop_
_space_group_symop_operation_xyz
x,y,z
-x,-y,-z
loop_
_atom_site_type_symbol
_atom_site_label
_atom_site_fract_x
_atom_site_fract_y
_atom_site_fract_z
Si Si1 0.866861 0.169071 0.408625
Si Si2 0.551278 0.784099 0.865740
Si Si3 0.833856 0.717818 0.670386
Si Si4 0.435744 0.709650 0.074302
Si Si5 0.711801 0.904230 0.211400
Si Si6 0.872882 0.373097 0.858366
Si Si7 0.658078 0.068768 0.514949
Si Si8 0.668499 0.437303 0.466963
O O1 0.788830 0.151777 0.486026
O O2 0.004817 0.483969 0.252571
O O3 0.914248 0.037136 0.534971
O O4 0.741148 0.965158 0.339621
O O5 0.710316 0.090539 0.852845
O O6 0.578322 0.863153 0.698692
O O7 0.500000 0.500000 0.000000
O O8 0.431839 0.700084 0.930679
O O9 0.720030 0.564837 0.800134
O O10 0.906808 0.635575 0.771680
O O11 0.746017 0.554779 0.579585
O O12 0.554590 0.747640 0.167889
O O13 0.500000 0.000000 0.000000
O O14 0.709268 0.689769 0.296705
O O15 0.843263 0.211025 0.048325
O O16 0.715005 0.348807 0.449105
O O17 0.512590 0.861655 0.456536
#
# Coordination Sequence:
#
# PCOD9005394 Si02
#       8
#     2   2   2   2   2   2   2   2
#     4  11  24  37  64  86 121 162 203 235 299 358
#     4  11  22  37  60  88 122 155 194 248 304 342
#     4  11  20  40  61  92 116 157 199 252 294 348
#     4  11  19  36  64  92 119 147 200 256 298 337
#     4  10  21  39  61  87 115 157 199 251 295 344
#     4  11  22  41  60  87 124 158 199 247 291 356
#     4  11  21  39  58  90 122 158 195 245 297 355
#     4  10  21  38  62  84 122 155 196 250 301 342
#
# _framework density 22.077404000000001
#
# number of rings (size 3 to 8) (size 9 to 14) (size 15 to 20)
#    0.000    1.250    3.750    4.500    0.000    3.500 
#    0.000    0.625    0.000    0.000    0.000    0.000 
#    0.000    0.000    0.000    0.000    0.000    0.000 
#
# Total GULP energy -89353.737373 kJ/mol
# GULP energy per Si atom -5584.608586 kJ/mol
# Density = 2.202715 g / cm^3
# Si number density = 22.077404 Si / 1000 Ang^3
#
#
#
# Elastic Constant Matrix: (Units=GPa)
#
#
# Indices 1 2 3 4 5 6 
#
# 1 128.8750 28.7932 74.7781 -11.5404 -8.8643 -27.1353
# 2 28.7932 23.8294 2.3324 -1.8966 -2.4216 -11.3251
# 3 74.7781 2.3324 138.2655 -7.4298 -0.8740 -20.0426
# 4 -11.5404 -1.8966 -7.4298 28.1100 -1.2093 6.1036
# 5 -8.8643 -2.4216 -0.8740 -1.2093 47.9638 -7.0925
# 6 -27.1353 -11.3251 -20.0426 6.1036 -7.0925 32.0694
#
#
#
# Elastic Compliance Matrix: (Units=1/GPa)
#
#
# Indices 1 2 3 4 5 6 
#
# 1 0.018478 -0.019401 -0.009014 0.003334 0.002819 0.003139
# 2 -0.019401 0.072778 0.011681 -0.003737 0.002859 0.017929
# 3 -0.009014 0.011681 0.012513 -0.000565 -0.000215 0.004379
# 4 0.003334 -0.003737 -0.000565 0.037854 0.000492 -0.005948
# 5 0.002819 0.002859 -0.000215 0.000492 0.022735 0.008195
# 6 0.003139 0.017929 0.004379 -0.005948 0.008195 0.045851
#
#
# Mechanical properties :
#
#
# Convention : Reuss Voigt Hill
#
# Bulk Modulus (GPa) = 14.22447 55.86415 35.04431
# Shear Modulus (GPa) = 18.71888 33.96638 26.34263
#
# Velocity S-wave (km/s) = 2.91499 3.92664 3.45801
# Velocity P-wave (km/s) = 4.21741 6.77619 5.64373
#
# Compressibility (1/GPa) = 0.07030141
#
# Stress axis : x y z
#
# Youngs Moduli (GPa) = 54.11949 13.74046 79.91408
#
# Poissons Ratio (x) = 0.26658 0.72035
# Poissons Ratio (y) = 1.04996 -0.93348
# Poissons Ratio (z) = 0.48783 -0.16050
#
# Static dielectric constant tensor:
#      x y z
#    x 1.825390 0.018520 0.032650 
#    y 0.018520 1.877300 0.038220 
#    z 0.032650 0.038220 1.852200 
# 
# From -- ./inp_files/175352.got.cif
#   From: 2010.05.17/outbox.cif.g08.bks.cpg/sg2_88_cif.got.tgz:175352.got - 2010.06.03 11:33:40.
