data_PCOD9005240
_publ_section_title
;
Structure prediction by ZEFSAII (Michael W. Deem and Ramdas Pophale) SiO2 
 PCOD9005240
Probable space group: P -1
;
_chemical_formula_sum "Si O2"
_cell_formula_units_Z 15
_cell_length_a 6.728537
_cell_length_b 17.780957
_cell_length_c 14.242417
_cell_angle_alpha 155.881953
_cell_angle_beta 110.372320
_cell_angle_gamma 65.155292
_cell_volume 628.949072
_symmetry_space_group_name_H-M "P -1"
_symmetry_group_IT_number 2
_symmetry_cell_setting 'triclinic'
loop_
_space_group_symop_operation_xyz
x,y,z
-x,-y,-z
loop_
_atom_site_type_symbol
_atom_site_label
_atom_site_fract_x
_atom_site_fract_y
_atom_site_fract_z
Si Si1 0.303832 0.934834 0.632186
Si Si2 0.249949 0.261771 0.238175
Si Si3 0.636270 0.768858 0.146619
Si Si4 0.000000 0.500000 0.000000
Si Si5 0.701142 0.657221 0.296505
Si Si6 0.795500 0.004315 0.606336
Si Si7 0.022451 0.436352 0.587279
Si Si8 0.736329 0.144257 0.246964
O O1 0.446084 0.755725 0.390561
O O2 0.326200 0.872361 0.672741
O O3 0.047301 0.997308 0.634929
O O4 0.382169 0.122117 0.830912
O O5 0.154020 0.372554 0.255018
O O6 0.512518 0.211871 0.227754
O O7 0.167848 0.378855 0.452265
O O8 0.162557 0.073955 0.014795
O O9 0.729458 0.906696 0.390630
O O10 0.387980 0.800455 0.179622
O O11 0.820686 0.572003 0.964670
O O12 0.210104 0.463623 0.919184
O O13 0.782345 0.848756 0.506279
O O14 0.821236 0.554230 0.290109
O O15 0.892463 0.279784 0.411293
#
# Coordination Sequence:
#
# PCOD9005240 Si02
#       8
#     2   2   2   1   2   2   2   2
#     4  11  20  36  64  88 122 170 217 259 324 392
#     4  10  24  40  65  98 129 168 220 272 323 392
#     4   9  20  35  59  84 118 160 210 265 316 380
#     4  10  22  40  58  86 132 162 206 272 324 368
#     4  10  21  38  61  88 127 172 208 269 326 378
#     4   9  18  38  59  84 113 163 213 255 318 385
#     4  11  21  42  67  91 134 171 214 272 328 385
#     4  11  22  40  66  96 128 172 216 271 327 392
#
# _framework density 23.849305999999999
#
# number of rings (size 3 to 8) (size 9 to 14) (size 15 to 20)
#    0.000    1.867    2.667    2.000    1.867    0.000 
#    0.000    6.000    5.867    0.000    0.000    0.000 
#    0.000    0.000    0.000    0.000    0.000    0.000 
#
# Total GULP energy -83536.852725 kJ/mol
# GULP energy per Si atom -5569.123515 kJ/mol
# Density = 2.379502 g / cm^3
# Si number density = 23.849306 Si / 1000 Ang^3
#
#
#
# Elastic Constant Matrix: (Units=GPa)
#
#
# Indices 1 2 3 4 5 6 
#
# 1 97.2493 26.8391 25.9314 24.5742 -26.3363 -10.4105
# 2 26.8391 139.6320 25.0224 31.3187 -18.3751 -4.8104
# 3 25.9314 25.0224 45.6055 5.5183 -16.1507 -5.5763
# 4 24.5742 31.3187 5.5183 37.0703 0.3240 -4.8204
# 5 -26.3363 -18.3751 -16.1507 0.3240 41.8225 -3.1228
# 6 -10.4105 -4.8104 -5.5763 -4.8204 -3.1228 32.6692
#
#
#
# Elastic Compliance Matrix: (Units=1/GPa)
#
#
# Indices 1 2 3 4 5 6 
#
# 1 0.017337 0.001704 -0.005335 -0.011693 0.010002 0.004096
# 2 0.001704 0.010130 -0.003920 -0.009086 0.004111 0.000418
# 3 -0.005335 -0.003920 0.029567 0.002887 0.006600 0.003826
# 4 -0.011693 -0.009086 0.002887 0.042149 -0.010519 0.000643
# 5 0.010002 0.004111 0.006600 -0.010519 0.035148 0.006727
# 6 0.004096 0.000418 0.003826 0.000643 0.006727 0.033367
#
#
# Mechanical properties :
#
#
# Convention : Reuss Voigt Hill
#
# Bulk Modulus (GPa) = 23.84858 48.67472 36.26165
# Shear Modulus (GPa) = 25.40928 35.95866 30.68397
#
# Velocity S-wave (km/s) = 3.26760 3.88718 3.59078
# Velocity P-wave (km/s) = 4.92521 6.37185 5.69466
#
# Compressibility (1/GPa) = 0.04193122
#
# Stress axis : x y z
#
# Youngs Moduli (GPa) = 57.67988 98.71615 33.82125
#
# Poissons Ratio (x) = -0.16817 0.18043
# Poissons Ratio (y) = -0.09826 0.13259
# Poissons Ratio (z) = 0.30771 0.38700
#
# Static dielectric constant tensor:
#      x y z
#    x 1.902730 0.014350 -0.013230 
#    y 0.014350 1.943550 0.049400 
#    z -0.013230 0.049400 2.004070 
# 
# From -- ./inp_files/335376.got.cif
#   From: 2010.05.17/outbox.cif.g08.bks.cpg/sg2_168_cif.got.tgz:335376.got - 2010.06.03 11:33:40.
