data_PCOD9005963
_publ_section_title
;
Structure prediction by ZEFSAII (Michael W. Deem and Ramdas Pophale) SiO2 
 PCOD9005963
Probable space group: P -1
;
_chemical_formula_sum "Si O2"
_cell_formula_units_Z 16
_cell_length_a 6.749221
_cell_length_b 21.336843
_cell_length_c 7.785659
_cell_angle_alpha 48.888354
_cell_angle_beta 120.984249
_cell_angle_gamma 89.546500
_cell_volume 611.242711
_symmetry_space_group_name_H-M "P -1"
_symmetry_group_IT_number 2
_symmetry_cell_setting 'triclinic'
loop_
_space_group_symop_operation_xyz
x,y,z
-x,-y,-z
loop_
_atom_site_type_symbol
_atom_site_label
_atom_site_fract_x
_atom_site_fract_y
_atom_site_fract_z
Si Si1 0.379976 0.342381 0.151722
Si Si2 0.415180 0.528118 0.126991
Si Si3 0.671536 0.035276 0.413484
Si Si4 0.805814 0.667639 0.543122
Si Si5 0.626496 0.237895 0.107327
Si Si6 0.311436 0.132549 0.751140
Si Si7 0.814332 0.356412 0.828443
Si Si8 0.842573 0.020811 0.069298
O O1 0.371478 0.323300 0.384678
O O2 0.435527 0.430214 0.993841
O O3 0.588778 0.265054 0.242505
O O4 0.087395 0.358949 0.935443
O O5 0.627977 0.415577 0.476847
O O6 0.346981 0.584174 0.179596
O O7 0.105162 0.569213 0.854571
O O8 0.988476 0.961798 0.740220
O O9 0.500000 0.000000 0.500000
O O10 0.630864 0.138401 0.265770
O O11 0.540320 0.057878 0.126483
O O12 0.645163 0.683523 0.267035
O O13 0.839477 0.760678 0.424685
O O14 0.851427 0.251519 0.080184
O O15 0.152388 0.080748 0.725482
O O16 0.532173 0.113730 0.738690
O O17 0.000000 0.000000 0.000000
#
# Coordination Sequence:
#
# PCOD9005963 Si02
#       8
#     2   2   2   2   2   2   2   2
#     4  10  21  38  64  90 122 168 202 252 310 367
#     4   9  19  37  65  90 125 163 203 256 305 366
#     4  11  23  44  63  91 128 165 207 262 315 368
#     4  10  23  40  60  92 127 161 205 256 307 367
#     4  10  24  41  61  91 127 160 207 259 305 371
#     4  10  24  42  60  94 126 161 210 259 311 374
#     4   9  19  39  61  94 122 162 209 250 308 371
#     4  11  23  39  67  89 120 166 209 257 314 377
#
# _framework density 26.176179999999999
#
# number of rings (size 3 to 8) (size 9 to 14) (size 15 to 20)
#    0.000    2.000    1.250    0.750    7.000    2.500 
#    4.500    1.250    0.000    0.000    0.000    0.000 
#    0.000    0.000    0.000    0.000    0.000    0.000 
#
# Total GULP energy -89397.401347 kJ/mol
# GULP energy per Si atom -5587.337584 kJ/mol
# Density = 2.611660 g / cm^3
# Si number density = 26.176180 Si / 1000 Ang^3
#
#
#
# Elastic Constant Matrix: (Units=GPa)
#
#
# Indices 1 2 3 4 5 6 
#
# 1 149.3128 32.6011 35.3854 -5.2880 -11.2944 27.3658
# 2 32.6011 77.2247 4.1079 5.0058 3.0163 13.5841
# 3 35.3854 4.1079 72.2213 7.8316 -1.6527 17.3451
# 4 -5.2880 5.0058 7.8316 42.9233 7.6473 -0.9445
# 5 -11.2944 3.0163 -1.6527 7.6473 37.0817 4.8503
# 6 27.3658 13.5841 17.3451 -0.9445 4.8503 56.1979
#
#
#
# Elastic Compliance Matrix: (Units=1/GPa)
#
#
# Indices 1 2 3 4 5 6 
#
# 1 0.009086 -0.003384 -0.003725 0.001619 0.002893 -0.002679
# 2 -0.003384 0.014910 0.001590 -0.002248 -0.001400 -0.002363
# 3 -0.003725 0.001590 0.016980 -0.003977 0.000830 -0.003949
# 4 0.001619 -0.002248 -0.003977 0.025413 -0.004983 0.001840
# 5 0.002893 -0.001400 0.000830 -0.004983 0.029545 -0.003960
# 6 -0.002679 -0.002363 -0.003949 0.001840 -0.003960 0.021262
#
#
# Mechanical properties :
#
#
# Convention : Reuss Voigt Hill
#
# Bulk Modulus (GPa) = 33.40523 49.21642 41.31082
# Shear Modulus (GPa) = 36.17555 42.35154 39.26355
#
# Velocity S-wave (km/s) = 3.72156 4.02673 3.87715
# Velocity P-wave (km/s) = 5.59072 6.36099 5.98825
#
# Compressibility (1/GPa) = 0.02993544
#
# Stress axis : x y z
#
# Youngs Moduli (GPa) = 110.05402 67.07095 58.89302
#
# Poissons Ratio (x) = 0.22700 0.21940
# Poissons Ratio (y) = 0.37247 -0.09361
# Poissons Ratio (z) = 0.41000 -0.10661
#
# Static dielectric constant tensor:
#      x y z
#    x 2.598770 -0.100040 0.141020 
#    y -0.100040 2.104100 -0.052270 
#    z 0.141020 -0.052270 2.195000 
# 
# From -- ./inp_files/116433.got.cif
#   From: 2010.05.17/outbox.cif.g08.bks.cpg/sg2_59_cif.got.tgz:116433.got - 2010.06.03 11:33:40.
