data_PCOD9005779
_publ_section_title
;
Structure prediction by ZEFSAII (Michael W. Deem and Ramdas Pophale) SiO2 
 PCOD9005779
Probable space group: P -1
;
_chemical_formula_sum "Si O2"
_cell_formula_units_Z 14
_cell_length_a 12.136969
_cell_length_b 13.166957
_cell_length_c 10.576744
_cell_angle_alpha 120.453919
_cell_angle_beta 46.470987
_cell_angle_gamma 147.715507
_cell_volume 642.021585
_symmetry_space_group_name_H-M "P -1"
_symmetry_group_IT_number 2
_symmetry_cell_setting 'triclinic'
loop_
_space_group_symop_operation_xyz
x,y,z
-x,-y,-z
loop_
_atom_site_type_symbol
_atom_site_label
_atom_site_fract_x
_atom_site_fract_y
_atom_site_fract_z
Si Si1 0.810556 0.210510 0.026530
Si Si2 0.099854 0.007735 0.632943
Si Si3 0.751992 0.183094 0.337608
Si Si4 0.239558 0.363944 0.191566
Si Si5 0.317484 0.594047 0.788399
Si Si6 0.195631 0.998379 0.284927
Si Si7 0.649514 0.386760 0.515779
O O1 0.708585 0.116782 0.185233
O O2 0.738207 0.299894 0.107577
O O3 0.731657 0.071639 0.893653
O O4 0.113176 0.402027 0.910539
O O5 0.877656 0.828641 0.783504
O O6 0.144634 0.946084 0.440353
O O7 0.034730 0.088051 0.663356
O O8 0.354611 0.175846 0.613932
O O9 0.785086 0.345519 0.408311
O O10 0.006257 0.279411 0.247090
O O11 0.500000 0.000000 0.500000
O O12 0.290839 0.481423 0.343378
O O13 0.500000 0.500000 0.000000
O O14 0.297923 0.540523 0.624550
O O15 0.595201 0.769346 0.733645
#
# Coordination Sequence:
#
# PCOD9005779 Si02
#       7
#     2   2   2   2   2   2   2
#     4  10  21  38  63  93 125 159 215 267 306 371
#     4  10  23  41  62  95 128 166 210 257 325 383
#     4  11  24  46  65  93 130 174 213 255 316 385
#     4  12  27  42  67  95 127 171 220 259 309 378
#     4   9  20  39  63  95 122 159 213 265 315 378
#     4  10  21  38  65  92 125 165 203 268 326 365
#     4  10  22  45  68  88 131 169 209 263 322 372
#
# _framework density 21.80612
#
# number of rings (size 3 to 8) (size 9 to 14) (size 15 to 20)
#    0.000    1.714    1.429    1.714    4.000    1.714 
#    7.714    4.286    0.000    0.000    0.000    0.000 
#    0.000    0.000    0.000    0.000    0.000    0.000 
#
# Total GULP energy -78187.674772 kJ/mol
# GULP energy per Si atom -5584.833912 kJ/mol
# Density = 2.175649 g / cm^3
# Si number density = 21.806120 Si / 1000 Ang^3
#
#
#
# Elastic Constant Matrix: (Units=GPa)
#
#
# Indices 1 2 3 4 5 6 
#
# 1 64.1135 17.4031 7.4655 -9.1465 -8.3646 19.4089
# 2 17.4031 57.7572 34.8398 -12.4796 3.1732 9.1912
# 3 7.4655 34.8398 106.7346 -11.1079 4.3158 -1.7252
# 4 -9.1465 -12.4796 -11.1079 54.3396 -4.7367 1.8037
# 5 -8.3646 3.1732 4.3158 -4.7367 27.3436 -11.7047
# 6 19.4089 9.1912 -1.7252 1.8037 -11.7047 20.2429
#
#
#
# Elastic Compliance Matrix: (Units=1/GPa)
#
#
# Indices 1 2 3 4 5 6 
#
# 1 0.023572 -0.001932 -0.000914 0.003963 -0.001618 -0.023091
# 2 -0.001932 0.026708 -0.008084 0.003938 -0.008738 -0.016367
# 3 -0.000914 -0.008084 0.012154 0.000397 0.001573 0.006456
# 4 0.003963 0.003938 0.000397 0.020397 0.001423 -0.006548
# 5 -0.001618 -0.008738 0.001573 0.001423 0.052432 0.035844
# 6 -0.023091 -0.016367 0.006456 -0.006548 0.035844 0.100830
#
#
# Mechanical properties :
#
#
# Convention : Reuss Voigt Hill
#
# Bulk Modulus (GPa) = 24.64583 38.66911 31.65747
# Shear Modulus (GPa) = 18.41777 31.64502 25.03139
#
# Velocity S-wave (km/s) = 2.90938 3.81359 3.39175
# Velocity P-wave (km/s) = 4.75529 6.09614 5.46698
#
# Compressibility (1/GPa) = 0.04057482
#
# Stress axis : x y z
#
# Youngs Moduli (GPa) = 42.42234 37.44216 82.27893
#
# Poissons Ratio (x) = 0.07234 0.07517
# Poissons Ratio (y) = 0.08196 0.66515
# Poissons Ratio (z) = 0.03875 0.30269
#
# Static dielectric constant tensor:
#      x y z
#    x 1.837560 0.031640 -0.055040 
#    y 0.031640 1.817420 -0.053140 
#    z -0.055040 -0.053140 1.842200 
# 
# From -- ./inp_files/187562.got.cif
#   From: 2010.05.17/outbox.cif.g08.bks.cpg/sg2_94_cif.got.tgz:187562.got - 2010.06.03 11:33:40.
