data_PCOD9005286
_publ_section_title
;
Structure prediction by ZEFSAII (Michael W. Deem and Ramdas Pophale) SiO2 
 PCOD9005286
Probable space group: P -1
;
_chemical_formula_sum "Si O2"
_cell_formula_units_Z 16
_cell_length_a 24.682386
_cell_length_b 7.923855
_cell_length_c 25.116875
_cell_angle_alpha 135.614260
_cell_angle_beta 11.518236
_cell_angle_gamma 135.003767
_cell_volume 685.285854
_symmetry_space_group_name_H-M "P -1"
_symmetry_group_IT_number 2
_symmetry_cell_setting 'triclinic'
loop_
_space_group_symop_operation_xyz
x,y,z
-x,-y,-z
loop_
_atom_site_type_symbol
_atom_site_label
_atom_site_fract_x
_atom_site_fract_y
_atom_site_fract_z
Si Si1 0.159976 0.008353 0.672756
Si Si2 0.112846 0.308397 0.676249
Si Si3 0.558037 0.018662 0.130172
Si Si4 0.380231 0.245707 0.877633
Si Si5 0.679364 0.246294 0.370256
Si Si6 0.206088 0.749290 0.194235
Si Si7 0.848472 0.691332 0.153919
Si Si8 0.298389 0.924547 0.254052
O O1 0.339915 0.791195 0.430624
O O2 0.145372 0.192480 0.678310
O O3 0.268184 0.127970 0.649372
O O4 0.850792 0.928136 0.965003
O O5 0.348428 0.217691 0.392233
O O6 0.156653 0.596066 0.707000
O O7 0.838949 0.175193 0.887325
O O8 0.429930 0.862491 0.169662
O O9 0.583711 0.849174 0.118387
O O10 0.253312 0.502384 0.063311
O O11 0.424974 0.409109 0.634778
O O12 0.500000 0.000000 0.500000
O O13 0.915293 0.209408 0.091202
O O14 0.947110 0.898308 0.462718
O O15 0.206819 0.726054 0.253107
O O16 0.463224 0.914734 0.966428
O O17 0.000000 0.500000 0.000000
#
# Coordination Sequence:
#
# PCOD9005286 Si02
#       8
#     2   2   2   2   2   2   2   2
#     4  10  21  38  63  93 121 159 216 260 308 372
#     4  10  21  39  63  87 127 164 203 260 321 370
#     4  10  21  38  63  90 119 164 210 250 307 381
#     4  10  21  38  61  90 127 156 203 268 307 351
#     4  12  26  44  64  95 133 164 209 274 328 372
#     4  10  21  39  62  89 127 163 198 259 304 360
#     4  12  24  42  72  92 120 174 220 259 315 394
#     4  10  21  39  62  90 124 166 206 239 310 384
#
# _framework density 23.347919999999998
#
# number of rings (size 3 to 8) (size 9 to 14) (size 15 to 20)
#    0.000    1.500    1.250    3.750    3.500    0.500 
#    9.000    0.000    0.000    9.000    0.000    0.000 
#    0.000    0.000    0.000    0.000    0.000    0.000 
#
# Total GULP energy -89347.733483 kJ/mol
# GULP energy per Si atom -5584.233343 kJ/mol
# Density = 2.329478 g / cm^3
# Si number density = 23.347920 Si / 1000 Ang^3
#
#
#
# Elastic Constant Matrix: (Units=GPa)
#
#
# Indices 1 2 3 4 5 6 
#
# 1 63.1930 -19.3772 8.0156 -0.0148 -8.0496 4.9898
# 2 -19.3772 25.8085 3.2701 8.4277 7.2383 -5.3999
# 3 8.0156 3.2701 144.3525 -2.1440 -5.6411 -8.0047
# 4 -0.0148 8.4277 -2.1440 28.7762 8.2903 -1.7501
# 5 -8.0496 7.2383 -5.6411 8.2903 32.5289 -0.9397
# 6 4.9898 -5.3999 -8.0047 -1.7501 -0.9397 14.2255
#
#
#
# Elastic Compliance Matrix: (Units=1/GPa)
#
#
# Indices 1 2 3 4 5 6 
#
# 1 0.021931 0.017371 -0.001742 -0.006160 0.002753 -0.002655
# 2 0.017371 0.061601 -0.002035 -0.015805 -0.005334 0.013849
# 3 -0.001742 -0.002035 0.007363 0.001068 0.001147 0.004189
# 4 -0.006160 -0.015805 0.001068 0.041983 -0.008483 0.001367
# 5 0.002753 -0.005334 0.001147 -0.008483 0.034940 -0.001080
# 6 -0.002655 0.013849 0.004189 0.001367 -0.001080 0.078938
#
#
# Mechanical properties :
#
#
# Convention : Reuss Voigt Hill
#
# Bulk Modulus (GPa) = 8.46875 24.13014 16.29944
# Shear Modulus (GPa) = 19.31014 31.20249 25.25632
#
# Velocity S-wave (km/s) = 2.87899 3.65967 3.29255
# Velocity P-wave (km/s) = 3.83229 5.31178 4.63149
#
# Compressibility (1/GPa) = 0.11808121
#
# Stress axis : x y z
#
# Youngs Moduli (GPa) = 45.59782 16.23343 135.80772
#
# Poissons Ratio (x) = -0.28198 0.23664
# Poissons Ratio (y) = -0.79206 0.27641
# Poissons Ratio (z) = 0.07945 0.03304
#
# Static dielectric constant tensor:
#      x y z
#    x 2.006860 -0.008040 -0.032750 
#    y -0.008040 1.919980 0.028390 
#    z -0.032750 0.028390 1.808740 
# 
# From -- ./inp_files/621164.got.cif
#   From: 2010.05.17/outbox.cif.g08.bks.cpg/sg2_311_cif.got.tgz:621164.got - 2010.06.03 11:33:40.
