data_PCOD9005163
_publ_section_title
;
Structure prediction by ZEFSAII (Michael W. Deem and Ramdas Pophale) SiO2 
 PCOD9005163
Probable space group: P -1
;
_chemical_formula_sum "Si O2"
_cell_formula_units_Z 12
_cell_length_a 13.657058
_cell_length_b 20.607315
_cell_length_c 16.283904
_cell_angle_alpha 163.251773
_cell_angle_beta 24.397052
_cell_angle_gamma 153.493569
_cell_volume 535.384788
_symmetry_space_group_name_H-M "P -1"
_symmetry_group_IT_number 2
_symmetry_cell_setting 'triclinic'
loop_
_space_group_symop_operation_xyz
x,y,z
-x,-y,-z
loop_
_atom_site_type_symbol
_atom_site_label
_atom_site_fract_x
_atom_site_fract_y
_atom_site_fract_z
Si Si1 0.427638 0.358641 0.968214
Si Si2 0.564295 0.290138 0.482130
Si Si3 0.357922 0.203894 0.182160
Si Si4 0.814883 0.098761 0.633132
Si Si5 0.151645 0.852220 0.528416
Si Si6 0.637583 0.786139 0.624505
O O1 0.669757 0.291706 0.740329
O O2 0.245384 0.117389 0.802783
O O3 0.500000 0.500000 0.000000
O O4 0.325562 0.510059 0.298650
O O5 0.492148 0.352260 0.521229
O O6 0.318603 0.159947 0.557631
O O7 0.703890 0.078488 0.108860
O O8 0.364064 0.298622 0.384014
O O9 0.128936 0.252938 0.366879
O O10 0.627304 0.245209 0.990880
O O11 0.828067 0.145894 0.583643
O O12 0.078152 0.144717 0.527311
O O13 0.500000 0.000000 0.000000
#
# Coordination Sequence:
#
# PCOD9005163 Si02
#       6
#     2   2   2   2   2   2
#     4  11  21  39  59  85 112 151 195 239 285 337
#     4   9  18  32  56  83 115 148 190 231 276 335
#     4   8  18  34  57  84 117 151 186 232 289 337
#     4   9  17  34  57  84 116 149 185 233 281 334
#     4  10  21  38  61  80 117 152 186 241 289 331
#     4   9  16  29  57  90 115 150 188 229 283 339
#
# _framework density 22.413786000000002
#
# number of rings (size 3 to 8) (size 9 to 14) (size 15 to 20)
#    1.000    1.667    1.667    0.500    0.000    0.667 
#    0.000   12.500    0.000    2.000    0.000    0.000 
#    0.000    0.000    0.000    0.000    0.000    0.000 
#
# Total GULP energy -66881.880978 kJ/mol
# GULP energy per Si atom -5573.490082 kJ/mol
# Density = 2.236277 g / cm^3
# Si number density = 22.413786 Si / 1000 Ang^3
#
#
#
# Elastic Constant Matrix: (Units=GPa)
#
#
# Indices 1 2 3 4 5 6 
#
# 1 122.2954 40.0915 49.3490 2.8680 8.1660 19.6892
# 2 40.0915 79.5913 26.2977 -22.3448 -12.4929 -2.9353
# 3 49.3490 26.2977 81.9034 0.8254 17.4918 -6.5384
# 4 2.8680 -22.3448 0.8254 34.5906 3.4982 -17.9157
# 5 8.1660 -12.4929 17.4918 3.4982 43.1330 -6.4248
# 6 19.6892 -2.9353 -6.5384 -17.9157 -6.4248 11.5367
#
#
#
# Elastic Compliance Matrix: (Units=1/GPa)
#
#
# Indices 1 2 3 4 5 6 
#
# 1 0.001977 0.006446 -0.002376 0.017389 0.005026 0.026723
# 2 0.006446 0.007935 -0.009076 -0.011914 0.000943 -0.032103
# 3 -0.002376 -0.009076 0.018197 -0.008724 -0.009893 -0.006997
# 4 0.017389 -0.011914 -0.008724 -0.008017 -0.010924 -0.056186
# 5 0.005026 0.000943 -0.009893 -0.010924 0.024862 -0.017065
# 6 0.026723 -0.032103 -0.006997 -0.056186 -0.017065 -0.067819
#
#
# Mechanical properties :
#
#
# Convention : Reuss Voigt Hill
#
# Bulk Modulus (GPa) = 55.25667 57.25183 56.25425
# Shear Modulus (GPa) = -733.19245 29.05550 -352.06847
#
# Velocity S-wave (km/s) = -18.10599 3.60435 -12.54662
# Velocity P-wave (km/s) = 20.30754 6.55137 13.59183
#
# Compressibility (1/GPa) = 0.01809736
#
# Stress axis : x y z
#
# Youngs Moduli (GPa) = 505.86270 126.02003 54.95285
#
# Poissons Ratio (x) = -0.81230 0.13057
# Poissons Ratio (y) = -3.26068 0.49874
# Poissons Ratio (z) = 1.20198 1.14373
#
# Static dielectric constant tensor:
#      x y z
#    x 1.807820 -0.024830 -0.016750 
#    y -0.024830 1.896850 0.036130 
#    z -0.016750 0.036130 1.841420 
# 
# From -- ./inp_files/523660.got.cif
#   From: 2010.05.17/outbox.cif.g08.bks.cpg/sg2_262_cif.got.tgz:523660.got - 2010.06.03 11:33:40.
