data_PCOD9005876
_publ_section_title
;
Structure prediction by ZEFSAII (Michael W. Deem and Ramdas Pophale) SiO2 
 PCOD9005876
Probable space group: P -1
;
_chemical_formula_sum "Si O2"
_cell_formula_units_Z 14
_cell_length_a 9.475691
_cell_length_b 9.660793
_cell_length_c 15.478959
_cell_angle_alpha 61.823361
_cell_angle_beta 31.107649
_cell_angle_gamma 56.345070
_cell_volume 609.369404
_symmetry_space_group_name_H-M "P -1"
_symmetry_group_IT_number 2
_symmetry_cell_setting 'triclinic'
loop_
_space_group_symop_operation_xyz
x,y,z
-x,-y,-z
loop_
_atom_site_type_symbol
_atom_site_label
_atom_site_fract_x
_atom_site_fract_y
_atom_site_fract_z
Si Si1 0.685561 0.107260 0.327431
Si Si2 0.858656 0.754212 0.760332
Si Si3 0.832299 0.873396 0.170681
Si Si4 0.537504 0.320158 0.495859
Si Si5 0.238302 0.421834 0.970870
Si Si6 0.468580 0.634279 0.900461
Si Si7 0.674828 0.920053 0.038907
O O1 0.559518 0.282980 0.392142
O O2 0.034518 0.069832 0.163982
O O3 0.500000 0.000000 0.500000
O O4 0.687534 0.049348 0.243856
O O5 0.752414 0.686733 0.749244
O O6 0.591728 0.913762 0.878937
O O7 0.155853 0.791491 0.590877
O O8 0.899161 0.618006 0.855902
O O9 0.708469 0.743861 0.319808
O O10 0.177736 0.789416 0.025187
O O11 0.756026 0.884773 0.107327
O O12 0.500000 0.500000 0.500000
O O13 0.409370 0.238188 0.901827
O O14 0.413832 0.543821 0.869525
O O15 0.000000 0.500000 0.000000
O O16 0.500000 0.500000 0.000000
#
# Coordination Sequence:
#
# PCOD9005876 Si02
#       7
#     2   2   2   2   2   2   2
#     4  10  23  41  65  95 133 179 224 273 339 405
#     4  11  24  42  67  98 140 180 227 284 343 404
#     4  11  23  41  66 102 135 180 229 279 338 413
#     4  11  24  43  66  95 140 185 226 277 347 409
#     4  11  22  38  65 100 132 173 226 280 333 403
#     4  10  21  38  63  98 132 173 226 280 330 394
#     4  12  23  40  73 102 135 172 240 276 342 407
#
# _framework density 22.974568000000001
#
# number of rings (size 3 to 8) (size 9 to 14) (size 15 to 20)
#    0.000    1.143    4.286    2.571    0.000    0.571 
#    0.000    0.000    0.000    1.714    0.000    0.000 
#    0.000    0.000    0.000    0.000    0.000    0.000 
#
# Total GULP energy -78089.090876 kJ/mol
# GULP energy per Si atom -5577.792205 kJ/mol
# Density = 2.292228 g / cm^3
# Si number density = 22.974568 Si / 1000 Ang^3
#
#
#
# Elastic Constant Matrix: (Units=GPa)
#
#
# Indices 1 2 3 4 5 6 
#
# 1 110.9030 27.7190 9.3216 17.4422 13.6061 17.7603
# 2 27.7190 159.1107 24.2813 22.0654 13.0715 37.4121
# 3 9.3216 24.2813 78.4249 12.4931 3.5177 3.6532
# 4 17.4422 22.0654 12.4931 26.4505 6.6538 -4.1482
# 5 13.6061 13.0715 3.5177 6.6538 21.6648 0.4927
# 6 17.7603 37.4121 3.6532 -4.1482 0.4927 49.3468
#
#
#
# Elastic Compliance Matrix: (Units=1/GPa)
#
#
# Indices 1 2 3 4 5 6 
#
# 1 0.011541 0.000731 0.000127 -0.007809 -0.005190 -0.005321
# 2 0.000731 0.009727 -0.001216 -0.008471 -0.003341 -0.008226
# 3 0.000127 -0.001216 0.014069 -0.005865 0.000186 -0.000660
# 4 -0.007809 -0.008471 -0.005865 0.056778 -0.006801 0.014508
# 5 -0.005190 -0.003341 0.000186 -0.006801 0.053417 0.003282
# 6 -0.005321 -0.008226 -0.000660 0.014508 0.003282 0.029652
#
#
# Mechanical properties :
#
#
# Convention : Reuss Voigt Hill
#
# Bulk Modulus (GPa) = 28.88555 52.34249 40.61402
# Shear Modulus (GPa) = 26.67508 38.63354 32.65431
#
# Velocity S-wave (km/s) = 3.41114 4.10515 3.77414
# Velocity P-wave (km/s) = 5.30233 6.73067 6.05874
#
# Compressibility (1/GPa) = 0.03461939
#
# Stress axis : x y z
#
# Youngs Moduli (GPa) = 86.65026 102.81035 71.07780
#
# Poissons Ratio (x) = -0.07512 -0.00900
# Poissons Ratio (y) = -0.06331 0.08642
# Poissons Ratio (z) = -0.01097 0.12500
#
# Static dielectric constant tensor:
#      x y z
#    x 1.903020 0.027720 0.019660 
#    y 0.027720 1.961240 -0.012890 
#    z 0.019660 -0.012890 1.863740 
# 
# From -- ./inp_files/565332.got.cif
#   From: 2010.05.17/outbox.cif.g08.bks.cpg/sg2_283_cif.got.tgz:565332.got - 2010.06.03 11:33:40.
