data_PCOD9005766
_publ_section_title
;
Structure prediction by ZEFSAII (Michael W. Deem and Ramdas Pophale) SiO2 
 PCOD9005766
Probable space group: P -1
;
_chemical_formula_sum "Si O2"
_cell_formula_units_Z 8
_cell_length_a 9.141197
_cell_length_b 13.811366
_cell_length_c 8.254519
_cell_angle_alpha 42.242939
_cell_angle_beta 30.230731
_cell_angle_gamma 44.134789
_cell_volume 343.233952
_symmetry_space_group_name_H-M "P -1"
_symmetry_group_IT_number 2
_symmetry_cell_setting 'triclinic'
loop_
_space_group_symop_operation_xyz
x,y,z
-x,-y,-z
loop_
_atom_site_type_symbol
_atom_site_label
_atom_site_fract_x
_atom_site_fract_y
_atom_site_fract_z
Si Si1 0.628394 0.147734 0.309999
Si Si2 0.084146 0.162848 0.599453
Si Si3 0.301028 0.531021 0.493706
Si Si4 0.152552 0.574439 0.114984
O O1 0.287152 0.185249 0.532788
O O2 0.739667 0.983260 0.481461
O O3 0.741237 0.275795 0.135188
O O4 0.790889 0.129506 0.002356
O O5 0.950569 0.315985 0.447688
O O6 0.500000 0.500000 0.500000
O O7 0.109042 0.410511 0.786693
O O8 0.541771 0.530132 0.119564
O O9 0.000000 0.500000 0.500000
#
# Coordination Sequence:
#
# PCOD9005766 Si02
#       4
#     2   2   2   2
#     4  10  21  38  63  98 119 164 217 276 304 365
#     4  10  21  38  63  92 131 160 213 264 326 368
#     4  12  26  42  62  96 138 171 204 262 334 386
#     4  12  24  41  67  97 127 165 228 264 305 379
#
# _framework density 23.307717
#
# number of rings (size 3 to 8) (size 9 to 14) (size 15 to 20)
#    0.000    1.000    2.500    4.500    0.000    0.000 
#    0.000    2.500    0.000    0.000    0.000    0.000 
#    0.000    0.000    0.000    0.000    0.000    0.000 
#
# Total GULP energy -44632.239566 kJ/mol
# GULP energy per Si atom -5579.029946 kJ/mol
# Density = 2.325467 g / cm^3
# Si number density = 23.307717 Si / 1000 Ang^3
#
#
#
# Elastic Constant Matrix: (Units=GPa)
#
#
# Indices 1 2 3 4 5 6 
#
# 1 136.3774 84.8994 40.2121 -19.3398 -48.2082 -9.2863
# 2 84.8994 197.9090 41.9206 -17.4161 -25.2809 -4.0193
# 3 40.2121 41.9206 101.6173 5.5121 -34.0114 4.7108
# 4 -19.3398 -17.4161 5.5121 38.9304 7.8542 -16.7664
# 5 -48.2082 -25.2809 -34.0114 7.8542 49.1148 1.5947
# 6 -9.2863 -4.0193 4.7108 -16.7664 1.5947 26.4847
#
#
#
# Elastic Compliance Matrix: (Units=1/GPa)
#
#
# Indices 1 2 3 4 5 6 
#
# 1 0.016280 -0.004186 -0.002137 0.008876 0.010587 0.010435
# 2 -0.004186 0.007359 -0.002524 0.003039 -0.002625 0.002180
# 3 -0.002137 -0.002524 0.016340 -0.011776 0.010194 -0.012107
# 4 0.008876 0.003039 -0.011776 0.051184 -0.007314 0.038511
# 5 0.010587 -0.002625 0.010194 -0.007314 0.037805 -0.005406
# 6 0.010435 0.002180 -0.012107 0.038511 -0.005406 0.068606
#
#
# Mechanical properties :
#
#
# Convention : Reuss Voigt Hill
#
# Bulk Modulus (GPa) = 44.87316 85.55198 65.21257
# Shear Modulus (GPa) = 22.45189 40.83075 31.64132
#
# Velocity S-wave (km/s) = 3.10704 4.19001 3.68849
# Velocity P-wave (km/s) = 5.67150 7.75844 6.79556
#
# Compressibility (1/GPa) = 0.02228503
#
# Stress axis : x y z
#
# Youngs Moduli (GPa) = 61.42431 135.87895 61.19939
#
# Poissons Ratio (x) = 0.56877 0.13081
# Poissons Ratio (y) = 0.25711 0.15448
# Poissons Ratio (z) = 0.13129 0.34298
#
# Static dielectric constant tensor:
#      x y z
#    x 1.933300 0.033660 0.019560 
#    y 0.033660 2.086820 -0.047110 
#    z 0.019560 -0.047110 1.895570 
# 
# From -- ./inp_files/892.got.cif
#   From: 2010.05.17/outbox.cif.g08.bks.cpg/sg2_1_cif.got.tgz:892.got - 2010.06.03 11:33:40.
