data_PCOD9005853
_publ_section_title
;
Structure prediction by ZEFSAII (Michael W. Deem and Ramdas Pophale) SiO2 
 PCOD9005853
Probable space group: P -1
;
_chemical_formula_sum "Si O2"
_cell_formula_units_Z 15
_cell_length_a 9.513756
_cell_length_b 11.544692
_cell_length_c 9.143723
_cell_angle_alpha 69.003058
_cell_angle_beta 135.974110
_cell_angle_gamma 116.124081
_cell_volume 625.257870
_symmetry_space_group_name_H-M "P -1"
_symmetry_group_IT_number 2
_symmetry_cell_setting 'triclinic'
loop_
_space_group_symop_operation_xyz
x,y,z
-x,-y,-z
loop_
_atom_site_type_symbol
_atom_site_label
_atom_site_fract_x
_atom_site_fract_y
_atom_site_fract_z
Si Si1 0.694199 0.603882 0.898970
Si Si2 0.934072 0.597439 0.514399
Si Si3 0.500000 0.000000 0.500000
Si Si4 0.117774 0.586165 0.181952
Si Si5 0.749259 0.897067 0.266643
Si Si6 0.537062 0.669062 0.045558
Si Si7 0.202296 0.876841 0.600112
Si Si8 0.432216 0.245373 0.519169
O O1 0.638403 0.450353 0.961004
O O2 0.639617 0.650826 0.679789
O O3 0.557951 0.653626 0.895186
O O4 0.946358 0.655174 0.084064
O O5 0.845326 0.514065 0.626770
O O6 0.750614 0.641484 0.279228
O O7 0.000000 0.500000 0.500000
O O8 0.126032 0.722941 0.636975
O O9 0.366337 0.913474 0.575038
O O10 0.545940 0.870065 0.516834
O O11 0.338855 0.687861 0.271366
O O12 0.000000 0.500000 0.000000
O O13 0.574159 0.814867 0.061698
O O14 0.719944 0.812479 0.433235
O O15 0.983493 0.911216 0.375287
O O16 0.732334 0.034397 0.247371
#
# Coordination Sequence:
#
# PCOD9005853 Si02
#       8
#     2   2   1   2   2   2   2   2
#     4  11  24  39  65 102 133 180 229 279 338 403
#     4  11  20  39  65  96 134 176 217 284 332 394
#     4  10  22  42  72  96 132 182 230 278 340 408
#     4  12  26  40  65 104 139 174 228 279 338 409
#     4   9  20  40  65  94 132 179 223 275 337 404
#     4  10  21  38  63  96 134 176 225 272 337 404
#     4   9  20  36  66  98 126 180 227 269 345 400
#     4  11  24  45  68  99 140 180 223 284 341 399
#
# _framework density 23.990103000000001
#
# number of rings (size 3 to 8) (size 9 to 14) (size 15 to 20)
#    0.000    1.600    2.667    1.600    5.600    1.067 
#    0.000    2.000    0.000    4.000    0.000    0.000 
#    0.000    0.000    0.000    0.000    0.000    0.000 
#
# Total GULP energy -83677.019532 kJ/mol
# GULP energy per Si atom -5578.467969 kJ/mol
# Density = 2.393550 g / cm^3
# Si number density = 23.990103 Si / 1000 Ang^3
#
#
#
# Elastic Constant Matrix: (Units=GPa)
#
#
# Indices 1 2 3 4 5 6 
#
# 1 101.4613 20.7149 5.4898 -7.7965 -12.9521 -8.2913
# 2 20.7149 126.6291 11.2491 4.8903 0.5725 -8.4513
# 3 5.4898 11.2491 50.2502 -4.5370 6.1564 2.5310
# 4 -7.7965 4.8903 -4.5370 26.5177 -4.4473 0.8987
# 5 -12.9521 0.5725 6.1564 -4.4473 30.7823 3.4806
# 6 -8.2913 -8.4513 2.5310 0.8987 3.4806 42.6706
#
#
#
# Elastic Compliance Matrix: (Units=1/GPa)
#
#
# Indices 1 2 3 4 5 6 
#
# 1 0.011466 -0.001873 -0.001189 0.004402 0.005577 0.001380
# 2 -0.001873 0.008589 -0.001903 -0.002706 -0.001139 0.001600
# 3 -0.001189 -0.001903 0.021313 0.003013 -0.004111 -0.001600
# 4 0.004402 -0.002706 0.003013 0.041309 0.007419 -0.001334
# 5 0.005577 -0.001139 -0.004111 0.007419 0.036982 -0.002071
# 6 0.001380 0.001600 -0.001600 -0.001334 -0.002071 0.024312
#
#
# Mechanical properties :
#
#
# Convention : Reuss Voigt Hill
#
# Bulk Modulus (GPa) = 31.80977 39.24982 35.52980
# Shear Modulus (GPa) = 30.41741 36.05324 33.23532
#
# Velocity S-wave (km/s) = 3.56464 3.88085 3.72610
# Velocity P-wave (km/s) = 5.49823 6.03968 5.77530
#
# Compressibility (1/GPa) = 0.03143688
#
# Stress axis : x y z
#
# Youngs Moduli (GPa) = 87.21735 116.42775 46.92051
#
# Poissons Ratio (x) = 0.21809 0.05577
# Poissons Ratio (y) = 0.16337 0.08931
# Poissons Ratio (z) = 0.10367 0.22161
#
# Static dielectric constant tensor:
#      x y z
#    x 1.945370 -0.062900 0.047380 
#    y -0.062900 1.964440 0.024630 
#    z 0.047380 0.024630 1.942400 
# 
# From -- ./inp_files/185580.got.cif
#   From: 2010.05.17/outbox.cif.g08.bks.cpg/sg2_93_cif.got.tgz:185580.got - 2010.06.03 11:33:40.
