data_PCOD9005122
_publ_section_title
;
Structure prediction by ZEFSAII (Michael W. Deem and Ramdas Pophale) SiO2 
 PCOD9005122
Probable space group: P -1
;
_chemical_formula_sum "Si O2"
_cell_formula_units_Z 14
_cell_length_a 24.302556
_cell_length_b 12.406241
_cell_length_c 5.175841
_cell_angle_alpha 86.063210
_cell_angle_beta 80.212918
_cell_angle_gamma 21.851604
_cell_volume 555.231288
_symmetry_space_group_name_H-M "P -1"
_symmetry_group_IT_number 2
_symmetry_cell_setting 'triclinic'
loop_
_space_group_symop_operation_xyz
x,y,z
-x,-y,-z
loop_
_atom_site_type_symbol
_atom_site_label
_atom_site_fract_x
_atom_site_fract_y
_atom_site_fract_z
Si Si1 0.520662 0.388833 0.753536
Si Si2 0.434887 0.303191 0.818065
Si Si3 0.737004 0.463684 0.590613
Si Si4 0.934858 0.721423 0.666337
Si Si5 0.231755 0.234157 0.335729
Si Si6 0.003916 0.896933 0.800296
Si Si7 0.940815 0.794703 0.149820
O O1 0.500000 0.500000 0.500000
O O2 0.416201 0.467852 0.839390
O O3 0.689480 0.026896 0.684813
O O4 0.500000 0.500000 0.000000
O O5 0.364490 0.399054 0.583724
O O6 0.620220 0.957227 0.734677
O O7 0.362268 0.363413 0.096181
O O8 0.825731 0.407653 0.411325
O O9 0.885502 0.126798 0.620488
O O10 0.874019 0.830902 0.985695
O O11 0.000000 0.500000 0.500000
O O12 0.102589 0.477853 0.617937
O O13 0.854935 0.935172 0.470753
O O14 0.120003 0.452432 0.146021
O O15 0.939119 0.913890 0.007880
O O16 0.000000 0.000000 0.000000
#
# Coordination Sequence:
#
# PCOD9005122 Si02
#       7
#     2   2   2   2   2   2   2
#     4  10  21  38  60  92 128 171 209 258 324 378
#     4  10  22  40  62  96 126 169 210 267 329 382
#     4  11  23  40  66  90 129 163 215 270 317 398
#     4  10  22  43  63  95 132 171 218 256 322 393
#     4   8  24  38  68  84 144 152 219 255 332 371
#     4  11  25  46  68  94 131 170 224 275 336 379
#     4  10  24  42  67  93 129 174 211 277 325 380
#
# _framework density 25.214715999999999
#
# number of rings (size 3 to 8) (size 9 to 14) (size 15 to 20)
#    1.714    0.286    1.429    1.286    8.000    0.000 
#    7.714    1.429    0.000    0.000    0.000    0.000 
#    0.000    0.000    0.000    0.000    0.000    0.000 
#
# Total GULP energy -78060.159873 kJ/mol
# GULP energy per Si atom -5575.725705 kJ/mol
# Density = 2.515733 g / cm^3
# Si number density = 25.214716 Si / 1000 Ang^3
#
#
#
# Elastic Constant Matrix: (Units=GPa)
#
#
# Indices 1 2 3 4 5 6 
#
# 1 72.2827 26.9549 12.3615 -9.9606 0.8829 -13.8493
# 2 26.9549 53.9854 39.6689 -13.3679 4.5961 -13.6253
# 3 12.3615 39.6689 148.7112 -30.5016 19.7033 -20.0530
# 4 -9.9606 -13.3679 -30.5016 39.8732 -10.0833 6.0986
# 5 0.8829 4.5961 19.7033 -10.0833 48.6483 -3.7675
# 6 -13.8493 -13.6253 -20.0530 6.0986 -3.7675 33.5955
#
#
#
# Elastic Compliance Matrix: (Units=1/GPa)
#
#
# Indices 1 2 3 4 5 6 
#
# 1 0.017942 -0.008589 0.001850 0.002461 0.000606 0.004638
# 2 -0.008589 0.028830 -0.005996 0.002467 0.000697 0.004203
# 3 0.001850 -0.005996 0.009904 0.004998 -0.002203 0.003088
# 4 0.002461 0.002467 0.004998 0.031443 0.004196 -0.000239
# 5 0.000606 0.000697 -0.002203 0.004196 0.022315 0.000958
# 6 0.004638 0.004203 0.003088 -0.000239 0.000958 0.035376
#
#
# Mechanical properties :
#
#
# Convention : Reuss Voigt Hill
#
# Bulk Modulus (GPa) = 32.04670 48.10553 40.07612
# Shear Modulus (GPa) = 27.52061 37.48967 32.50514
#
# Velocity S-wave (km/s) = 3.30729 3.86011 3.59435
# Velocity P-wave (km/s) = 5.22699 6.24396 5.75797
#
# Compressibility (1/GPa) = 0.03120446
#
# Stress axis : x y z
#
# Youngs Moduli (GPa) = 55.73669 34.68571 100.97297
#
# Poissons Ratio (x) = 0.29791 -0.18676
# Poissons Ratio (y) = 0.47872 0.60546
# Poissons Ratio (z) = -0.10309 0.20798
#
# Static dielectric constant tensor:
#      x y z
#    x 2.218490 0.034150 -0.047230 
#    y 0.034150 2.047330 0.043040 
#    z -0.047230 0.043040 2.037340 
# 
# From -- ./inp_files/123286.got.cif
#   From: 2010.05.17/outbox.cif.g08.bks.cpg/sg2_62_cif.got.tgz:123286.got - 2010.06.03 11:33:40.
