data_PCOD9005960
_publ_section_title
;
Structure prediction by ZEFSAII (Michael W. Deem and Ramdas Pophale) SiO2 
 PCOD9005960
Probable space group: P -1
;
_chemical_formula_sum "Si O2"
_cell_formula_units_Z 16
_cell_length_a 21.096065
_cell_length_b 10.328945
_cell_length_c 15.821416
_cell_angle_alpha 135.027990
_cell_angle_beta 158.437359
_cell_angle_gamma 34.995575
_cell_volume 702.017992
_symmetry_space_group_name_H-M "P -1"
_symmetry_group_IT_number 2
_symmetry_cell_setting 'triclinic'
loop_
_space_group_symop_operation_xyz
x,y,z
-x,-y,-z
loop_
_atom_site_type_symbol
_atom_site_label
_atom_site_fract_x
_atom_site_fract_y
_atom_site_fract_z
Si Si1 0.479525 0.208997 0.874418
Si Si2 0.993354 0.370326 0.513966
Si Si3 0.522552 0.421187 0.178824
Si Si4 0.947576 0.112338 0.203822
Si Si5 0.233771 0.147880 0.086360
Si Si6 0.751463 0.539686 0.630623
Si Si7 0.589412 0.807523 0.941040
Si Si8 0.397780 0.681122 0.530383
O O1 0.242910 0.423938 0.646303
O O2 0.467455 0.058915 0.862455
O O3 0.562593 0.326989 0.088947
O O4 0.619484 0.032399 0.890183
O O5 0.990758 0.170006 0.376920
O O6 0.000000 0.500000 0.500000
O O7 0.187116 0.280054 0.778024
O O8 0.650763 0.521319 0.411020
O O9 0.553983 0.221605 0.185313
O O10 0.262234 0.633402 0.969751
O O11 0.854767 0.969523 0.027440
O O12 0.181839 0.950669 0.371645
O O13 0.015697 0.382478 0.882258
O O14 0.330804 0.227115 0.311963
O O15 0.689583 0.411111 0.554961
O O16 0.600876 0.661986 0.810209
O O17 0.500000 0.500000 0.500000
#
# Coordination Sequence:
#
# PCOD9005960 Si02
#       8
#     2   2   2   2   2   2   2   2
#     4  11  23  38  64  92 128 161 209 252 307 365
#     4  11  22  38  61  98 127 155 203 256 318 370
#     4  10  22  38  61  95 118 160 205 256 314 371
#     4  10  22  39  63  85 130 161 196 259 313 354
#     4  10  22  42  61  83 122 170 203 257 296 369
#     4   9  21  41  59  84 120 162 214 242 313 365
#     4  11  22  38  64  92 125 164 194 258 321 360
#     4  10  21  38  64  90 121 163 208 254 305 372
#
# _framework density 22.791440000000001
#
# number of rings (size 3 to 8) (size 9 to 14) (size 15 to 20)
#    0.000    1.750    2.500    1.875    5.250    3.000 
#    4.500    1.250    0.000    0.000    0.000    0.000 
#    0.000    0.000    0.000    0.000    0.000    0.000 
#
# Total GULP energy -89175.603108 kJ/mol
# GULP energy per Si atom -5573.475194 kJ/mol
# Density = 2.273957 g / cm^3
# Si number density = 22.791440 Si / 1000 Ang^3
#
#
#
# Elastic Constant Matrix: (Units=GPa)
#
#
# Indices 1 2 3 4 5 6 
#
# 1 41.2079 34.1539 27.0023 -5.1069 -3.1849 -24.3334
# 2 34.1539 135.8099 79.6352 11.9963 -17.5923 -43.0362
# 3 27.0023 79.6352 145.3607 18.3031 -25.0800 -21.7769
# 4 -5.1069 11.9963 18.3031 55.2435 -7.7555 -2.8118
# 5 -3.1849 -17.5923 -25.0800 -7.7555 22.5960 5.4270
# 6 -24.3334 -43.0362 -21.7769 -2.8118 5.4270 58.9422
#
#
#
# Elastic Compliance Matrix: (Units=1/GPa)
#
#
# Indices 1 2 3 4 5 6 
#
# 1 0.037964 -0.004366 -0.004298 0.005971 -0.003533 0.011508
# 2 -0.004366 0.013959 -0.005364 -0.000997 0.002484 0.006132
# 3 -0.004298 -0.005364 0.012003 -0.002150 0.008313 -0.002124
# 4 0.005971 -0.000997 -0.002150 0.020259 0.004268 0.001516
# 5 -0.003533 0.002484 0.008313 0.004268 0.056767 -0.001596
# 6 0.011508 0.006132 -0.002124 0.001516 -0.001596 0.025628
#
#
# Mechanical properties :
#
#
# Convention : Reuss Voigt Hill
#
# Bulk Modulus (GPa) = 27.87689 67.10680 47.49184
# Shear Modulus (GPa) = 24.20219 39.46214 31.83217
#
# Velocity S-wave (km/s) = 3.26221 4.16558 3.74126
# Velocity P-wave (km/s) = 5.14269 7.25561 6.28852
#
# Compressibility (1/GPa) = 0.03587200
#
# Stress axis : x y z
#
# Youngs Moduli (GPa) = 26.34071 71.63691 83.31095
#
# Poissons Ratio (x) = 0.31274 0.35807
# Poissons Ratio (y) = 0.11499 0.44686
# Poissons Ratio (z) = 0.11321 0.38424
#
# Static dielectric constant tensor:
#      x y z
#    x 1.938970 -0.038400 -0.033270 
#    y -0.038400 1.945790 0.008350 
#    z -0.033270 0.008350 1.922500 
# 
# From -- ./inp_files/579178.got.cif
#   From: 2010.05.17/outbox.cif.g08.bks.cpg/sg2_290_cif.got.tgz:579178.got - 2010.06.03 11:33:40.
