data_PCOD9005966
_publ_section_title
;
Structure prediction by ZEFSAII (Michael W. Deem and Ramdas Pophale) SiO2 
 PCOD9005966
Probable space group: P -1
;
_chemical_formula_sum "Si O2"
_cell_formula_units_Z 16
_cell_length_a 10.340980
_cell_length_b 10.315283
_cell_length_c 8.812619
_cell_angle_alpha 53.516498
_cell_angle_beta 75.774051
_cell_angle_gamma 60.174906
_cell_volume 654.025820
_symmetry_space_group_name_H-M "P -1"
_symmetry_group_IT_number 2
_symmetry_cell_setting 'triclinic'
loop_
_space_group_symop_operation_xyz
x,y,z
-x,-y,-z
loop_
_atom_site_type_symbol
_atom_site_label
_atom_site_fract_x
_atom_site_fract_y
_atom_site_fract_z
Si Si1 0.628505 0.297746 0.006267
Si Si2 0.882290 0.954594 0.150531
Si Si3 0.123545 0.344094 0.824284
Si Si4 0.774335 0.577955 0.766406
Si Si5 0.409147 0.606210 0.706110
Si Si6 0.674949 0.897058 0.796405
Si Si7 0.388337 0.268569 0.607887
Si Si8 0.842489 0.070506 0.427828
O O1 0.728163 0.411277 0.895379
O O2 0.490048 0.400400 0.865625
O O3 0.581291 0.305338 0.191251
O O4 0.720218 0.103678 0.044168
O O5 0.910419 0.758695 0.233715
O O6 0.871564 0.002979 0.295216
O O7 0.000000 0.000000 0.000000
O O8 0.262644 0.371636 0.699095
O O9 0.954838 0.499511 0.796971
O O10 0.206534 0.194594 0.036191
O O11 0.690209 0.722772 0.820528
O O12 0.708035 0.688891 0.551479
O O13 0.500603 0.644803 0.522872
O O14 0.234453 0.714842 0.666297
O O15 0.743277 0.994123 0.595858
O O16 0.504703 0.057792 0.758083
O O17 0.000000 0.000000 0.500000
#
# Coordination Sequence:
#
# PCOD9005966 Si02
#       8
#     2   2   2   2   2   2   2   2
#     4   9  18  36  63  89 119 156 209 246 307 367
#     4  11  21  38  63  90 124 163 205 255 314 364
#     4  12  24  40  65  94 130 163 207 264 318 367
#     4  11  22  40  68  92 124 164 215 257 307 378
#     4   8  18  36  60  89 120 156 202 256 297 371
#     4  11  24  42  63  94 126 168 211 253 316 376
#     4  10  22  41  64  93 125 165 208 260 318 368
#     4  10  21  38  64  90 124 164 208 254 304 377
#
# _framework density 24.463864999999998
#
# number of rings (size 3 to 8) (size 9 to 14) (size 15 to 20)
#    0.000    1.750    1.250    3.000    1.750    5.000 
#    0.000    0.000    2.750    3.750    0.000    0.000 
#    0.000    0.000    0.000    0.000    0.000    0.000 
#
# Total GULP energy -89229.655539 kJ/mol
# GULP energy per Si atom -5576.853471 kJ/mol
# Density = 2.440818 g / cm^3
# Si number density = 24.463865 Si / 1000 Ang^3
#
#
#
# Elastic Constant Matrix: (Units=GPa)
#
#
# Indices 1 2 3 4 5 6 
#
# 1 88.4279 39.3143 33.0355 -1.4345 8.6678 -32.2520
# 2 39.3143 95.9167 24.5106 -12.4232 11.9927 -24.1580
# 3 33.0355 24.5106 92.6874 12.0393 7.1762 -29.6851
# 4 -1.4345 -12.4232 12.0393 33.0323 -18.1948 9.8190
# 5 8.6678 11.9927 7.1762 -18.1948 39.1359 -7.9246
# 6 -32.2520 -24.1580 -29.6851 9.8190 -7.9246 42.1124
#
#
#
# Elastic Compliance Matrix: (Units=1/GPa)
#
#
# Indices 1 2 3 4 5 6 
#
# 1 0.017988 -0.004742 -0.000496 -0.005789 -0.002797 0.011529
# 2 -0.004742 0.014038 -0.002207 0.005393 -0.000014 0.001605
# 3 -0.000496 -0.002207 0.018504 -0.015560 -0.007067 0.013695
# 4 -0.005789 0.005393 -0.015560 0.057803 0.025091 -0.021064
# 5 -0.002797 -0.000014 -0.007067 0.025091 0.037954 -0.005840
# 6 0.011529 0.001605 0.013695 -0.021064 -0.005840 0.046962
#
#
# Mechanical properties :
#
#
# Convention : Reuss Voigt Hill
#
# Bulk Modulus (GPa) = 28.05995 52.30587 40.18291
# Shear Modulus (GPa) = 22.72514 34.86758 28.79636
#
# Velocity S-wave (km/s) = 3.05114 3.77937 3.43461
# Velocity P-wave (km/s) = 4.88952 6.36177 5.67360
#
# Compressibility (1/GPa) = 0.03563798
#
# Stress axis : x y z
#
# Youngs Moduli (GPa) = 55.59384 71.23453 54.04253
#
# Poissons Ratio (x) = 0.33782 0.02681
# Poissons Ratio (y) = 0.26364 0.11930
# Poissons Ratio (z) = 0.02758 0.15725
#
# Static dielectric constant tensor:
#      x y z
#    x 2.078750 -0.054030 0.000960 
#    y -0.054030 1.926080 -0.033750 
#    z 0.000960 -0.033750 2.002820 
# 
# From -- ./inp_files/261549.got.cif
#   From: 2010.05.17/outbox.cif.g08.bks.cpg/sg2_131_cif.got.tgz:261549.got - 2010.06.03 11:33:40.
