data_PCOD9005551
_publ_section_title
;
Structure prediction by ZEFSAII (Michael W. Deem and Ramdas Pophale) SiO2 
 PCOD9005551
Probable space group: P -1
;
_chemical_formula_sum "Si O2"
_cell_formula_units_Z 14
_cell_length_a 8.561783
_cell_length_b 10.126762
_cell_length_c 19.388491
_cell_angle_alpha 144.593207
_cell_angle_beta 51.027207
_cell_angle_gamma 116.076994
_cell_volume 747.174180
_symmetry_space_group_name_H-M "P -1"
_symmetry_group_IT_number 2
_symmetry_cell_setting 'triclinic'
loop_
_space_group_symop_operation_xyz
x,y,z
-x,-y,-z
loop_
_atom_site_type_symbol
_atom_site_label
_atom_site_fract_x
_atom_site_fract_y
_atom_site_fract_z
Si Si1 0.035715 0.166085 0.624081
Si Si2 0.310881 0.888211 0.536382
Si Si3 0.648308 0.501801 0.286095
Si Si4 0.635131 0.545835 0.916314
Si Si5 0.121188 0.117253 0.822724
Si Si6 0.723615 0.426657 0.071427
Si Si7 0.788411 0.020641 0.107270
O O1 0.585420 0.376091 0.602557
O O2 0.828770 0.342316 0.771590
O O3 0.119137 0.984787 0.583684
O O4 0.000000 0.000000 0.500000
O O5 0.210856 0.333163 0.644002
O O6 0.242931 0.973641 0.667204
O O7 0.500000 0.000000 0.500000
O O8 0.729237 0.468159 0.170026
O O9 0.664124 0.261191 0.218520
O O10 0.501507 0.562640 0.890938
O O11 0.500000 0.500000 0.000000
O O12 0.697907 0.794099 0.015986
O O13 0.196939 0.365281 0.902888
O O14 0.172098 0.994514 0.828712
O O15 0.877947 0.191201 0.912449
O O16 0.000000 0.000000 0.000000
#
# Coordination Sequence:
#
# PCOD9005551 Si02
#       7
#     2   2   2   2   2   2   2
#     4  11  22  38  64  97 127 163 216 271 315 379
#     4  10  21  38  62  93 124 173 215 256 320 391
#     4  11  23  43  65  91 133 174 214 261 331 387
#     4  12  24  38  67 101 127 163 226 268 313 385
#     4  11  21  39  66  92 130 172 212 262 323 386
#     4  11  21  38  66  96 123 170 220 264 313 385
#     4  12  24  44  64  98 136 172 208 272 332 375
#
# _framework density 18.737264
#
# number of rings (size 3 to 8) (size 9 to 14) (size 15 to 20)
#    0.000    0.857    7.143    1.714    2.000    1.143 
#    0.000    0.000    0.000    2.571    0.000    0.000 
#    0.000    0.000    0.000    0.000    0.000    0.000 
#
# Total GULP energy -78088.829940 kJ/mol
# GULP energy per Si atom -5577.773567 kJ/mol
# Density = 1.869462 g / cm^3
# Si number density = 18.737264 Si / 1000 Ang^3
#
#
#
# Elastic Constant Matrix: (Units=GPa)
#
#
# Indices 1 2 3 4 5 6 
#
# 1 107.1298 54.1628 49.1271 5.2622 -7.5926 -15.6188
# 2 54.1628 119.5194 59.2915 15.1935 1.1579 -26.1606
# 3 49.1271 59.2915 151.6769 15.5052 -23.5631 -16.5220
# 4 5.2622 15.1935 15.5052 36.5396 -11.8145 -0.0955
# 5 -7.5926 1.1579 -23.5631 -11.8145 37.1920 5.1439
# 6 -15.6188 -26.1606 -16.5220 -0.0955 5.1439 36.9440
#
#
#
# Elastic Compliance Matrix: (Units=1/GPa)
#
#
# Indices 1 2 3 4 5 6 
#
# 1 0.012921 -0.004881 -0.002062 0.001659 0.001896 0.000824
# 2 -0.004881 0.015084 -0.003920 -0.006143 -0.006983 0.007821
# 3 -0.002062 -0.003920 0.009711 -0.000330 0.005763 -0.000108
# 4 0.001659 -0.006143 -0.000330 0.033603 0.011734 -0.005343
# 5 0.001896 -0.006983 0.005763 0.011734 0.035772 -0.006516
# 6 0.000824 0.007821 -0.000108 -0.005343 -0.006516 0.033799
#
#
# Mechanical properties :
#
#
# Convention : Reuss Voigt Hill
#
# Bulk Modulus (GPa) = 62.54657 78.16544 70.35600
# Shear Modulus (GPa) = 29.77116 36.51810 33.14463
#
# Velocity S-wave (km/s) = 3.99039 4.41949 4.21041
# Velocity P-wave (km/s) = 7.39488 8.23709 7.82732
#
# Compressibility (1/GPa) = 0.01598809
#
# Stress axis : x y z
#
# Youngs Moduli (GPa) = 77.39270 66.29475 102.97955
#
# Poissons Ratio (x) = 0.32361 0.21236
# Poissons Ratio (y) = 0.37779 0.40372
# Poissons Ratio (z) = 0.15959 0.25990
#
# Static dielectric constant tensor:
#      x y z
#    x 1.692390 -0.008520 -0.006060 
#    y -0.008520 1.631090 -0.003930 
#    z -0.006060 -0.003930 1.692240 
# 
# From -- ./inp_files/586953.got.cif
#   From: 2010.05.17/outbox.cif.g08.bks.cpg/sg2_294_cif.got.tgz:586953.got - 2010.06.03 11:33:40.
