data_PCOD9005002
_publ_section_title
;
Structure prediction by ZEFSAII (Michael W. Deem and Ramdas Pophale) SiO2 
 PCOD9005002
Probable space group: P -1
;
_chemical_formula_sum "Si O2"
_cell_formula_units_Z 16
_cell_length_a 12.712527
_cell_length_b 8.857845
_cell_length_c 7.380416
_cell_angle_alpha 86.043432
_cell_angle_beta 123.560527
_cell_angle_gamma 88.108539
_cell_volume 688.351938
_symmetry_space_group_name_H-M "P -1"
_symmetry_group_IT_number 2
_symmetry_cell_setting 'triclinic'
loop_
_space_group_symop_operation_xyz
x,y,z
-x,-y,-z
loop_
_atom_site_type_symbol
_atom_site_label
_atom_site_fract_x
_atom_site_fract_y
_atom_site_fract_z
Si Si1 0.016141 0.172294 0.471624
Si Si2 0.292226 0.656926 0.323723
Si Si3 0.972273 0.176736 0.005686
Si Si4 0.522599 0.826903 0.606465
Si Si5 0.210697 0.341438 0.194860
Si Si6 0.226266 0.631907 0.678522
Si Si7 0.745104 0.693420 0.336938
Si Si8 0.522332 0.311878 0.031528
O O1 0.985877 0.201908 0.230113
O O2 0.910749 0.280990 0.464904
O O3 0.161103 0.190820 0.656871
O O4 0.000000 0.000000 0.500000
O O5 0.428038 0.721431 0.415782
O O6 0.253375 0.510801 0.186979
O O7 0.288288 0.618754 0.538082
O O8 0.173177 0.779338 0.182997
O O9 0.075965 0.284183 0.010777
O O10 0.000000 0.000000 0.000000
O O11 0.670528 0.773533 0.735584
O O12 0.491361 0.785383 0.788879
O O13 0.500000 0.000000 0.500000
O O14 0.209600 0.335940 0.413104
O O15 0.222971 0.456891 0.741141
O O16 0.330888 0.713606 0.885426
O O17 0.595724 0.735177 0.192860
O O18 0.500000 0.500000 0.000000
#
# Coordination Sequence:
#
# PCOD9005002 Si02
#       8
#     2   2   2   2   2   2   2   2
#     4  11  23  36  55  84 116 154 194 237 298 361
#     4  10  21  38  60  86 119 158 200 251 300 361
#     4  11  23  39  58  85 120 156 200 256 309 358
#     4  11  23  38  61  93 126 163 203 251 308 361
#     4  10  22  40  61  87 119 160 208 251 302 368
#     4   9  19  38  60  84 114 149 195 245 293 350
#     4   9  20  38  60  85 116 152 195 248 295 348
#     4   9  20  39  62  88 118 156 199 245 297 359
#
# _framework density 23.243924
#
# number of rings (size 3 to 8) (size 9 to 14) (size 15 to 20)
#    0.000    2.000    0.000    3.375    0.000    9.000 
#    0.000    1.250    0.000    0.000    0.000    0.000 
#    0.000    0.000    0.000    0.000    0.000    0.000 
#
# Total GULP energy -89227.794899 kJ/mol
# GULP energy per Si atom -5576.737181 kJ/mol
# Density = 2.319102 g / cm^3
# Si number density = 23.243924 Si / 1000 Ang^3
#
#
#
# Elastic Constant Matrix: (Units=GPa)
#
#
# Indices 1 2 3 4 5 6 
#
# 1 64.6714 22.5922 5.4389 11.2870 14.8102 17.3409
# 2 22.5922 90.1635 3.2442 -2.0115 5.6705 26.5738
# 3 5.4389 3.2442 78.0907 9.0794 19.0907 17.9506
# 4 11.2870 -2.0115 9.0794 37.0140 8.5372 11.8377
# 5 14.8102 5.6705 19.0907 8.5372 42.6963 8.0030
# 6 17.3409 26.5738 17.9506 11.8377 8.0030 34.3032
#
#
#
# Elastic Compliance Matrix: (Units=1/GPa)
#
#
# Indices 1 2 3 4 5 6 
#
# 1 0.019871 -0.002906 0.001937 -0.003391 -0.005504 -0.006353
# 2 -0.002906 0.016029 0.002234 0.005832 -0.000666 -0.013975
# 3 0.001937 0.002234 0.016408 0.000148 -0.006492 -0.009832
# 4 -0.003391 0.005832 0.000148 0.033554 -0.003831 -0.013567
# 5 -0.005504 -0.000666 -0.006492 -0.003831 0.028846 0.001288
# 6 -0.006353 -0.013975 -0.009832 -0.013567 0.001288 0.052716
#
#
# Mechanical properties :
#
#
# Convention : Reuss Voigt Hill
#
# Bulk Modulus (GPa) = 18.23553 32.83069 25.53311
# Shear Modulus (GPa) = 27.29652 36.24603 31.77128
#
# Velocity S-wave (km/s) = 3.43060 3.95318 3.70112
# Velocity P-wave (km/s) = 4.85328 5.91540 5.41046
#
# Compressibility (1/GPa) = 0.05483801
#
# Stress axis : x y z
#
# Youngs Moduli (GPa) = 50.32505 62.38512 60.94659
#
# Poissons Ratio (x) = 0.18127 -0.11805
# Poissons Ratio (y) = 0.14623 -0.13613
# Poissons Ratio (z) = -0.09748 -0.13934
#
# Static dielectric constant tensor:
#      x y z
#    x 1.869660 -0.084640 -0.388270 
#    y -0.084640 1.614600 -0.671560 
#    z -0.388270 -0.671560 -0.051520 
# 
# From -- ./inp_files/190927.got.cif
#   From: 2010.05.17/outbox.cif.g08.bks.cpg/sg2_96_cif.got.tgz:190927.got - 2010.06.03 11:33:40.
