data_PCOD9005291
_publ_section_title
;
Structure prediction by ZEFSAII (Michael W. Deem and Ramdas Pophale) SiO2 
 PCOD9005291
Probable space group: P -1
;
_chemical_formula_sum "Si O2"
_cell_formula_units_Z 14
_cell_length_a 10.864714
_cell_length_b 9.533338
_cell_length_c 8.530579
_cell_angle_alpha 70.795366
_cell_angle_beta 136.987293
_cell_angle_gamma 89.871510
_cell_volume 527.230780
_symmetry_space_group_name_H-M "P -1"
_symmetry_group_IT_number 2
_symmetry_cell_setting 'triclinic'
loop_
_space_group_symop_operation_xyz
x,y,z
-x,-y,-z
loop_
_atom_site_type_symbol
_atom_site_label
_atom_site_fract_x
_atom_site_fract_y
_atom_site_fract_z
Si Si1 0.611411 0.489698 0.268025
Si Si2 0.994495 0.320444 0.552056
Si Si3 0.706698 0.795519 0.887294
Si Si4 0.100977 0.806853 0.824181
Si Si5 0.711443 0.531086 0.795329
Si Si6 0.700765 0.003308 0.501382
Si Si7 0.463401 0.219725 0.741210
O O1 0.473111 0.482124 0.282597
O O2 0.632305 0.660861 0.249437
O O3 0.813506 0.344782 0.491729
O O4 0.500000 0.500000 0.000000
O O5 0.000000 0.500000 0.500000
O O6 0.946533 0.258885 0.362670
O O7 0.181498 0.196226 0.856562
O O8 0.803003 0.617724 0.971355
O O9 0.718815 0.915661 0.719258
O O10 0.478915 0.830931 0.695993
O O11 0.918071 0.959275 0.656351
O O12 0.144608 0.650353 0.035722
O O13 0.304741 0.832010 0.003712
O O14 0.628534 0.659609 0.535087
O O15 0.607045 0.921733 0.313466
#
# Coordination Sequence:
#
# PCOD9005291 Si02
#       7
#     2   2   2   2   2   2   2
#     4  11  19  35  58  91 123 150 194 258 301 348
#     4  12  22  37  61  92 121 157 203 249 304 361
#     4  10  23  43  60  90 120 161 208 241 306 362
#     4  11  21  39  62  92 119 160 203 250 309 352
#     4  10  21  38  61  91 121 155 204 256 294 359
#     4  10  24  43  63  85 128 164 198 253 296 367
#     4  10  22  38  61  93 123 155 205 250 302 359
#
# _framework density 26.553837999999999
#
# number of rings (size 3 to 8) (size 9 to 14) (size 15 to 20)
#    0.000    1.429    4.286    2.571    4.000    1.714 
#    2.571    2.857    0.000    0.000    0.000    0.000 
#    0.000    0.000    0.000    0.000    0.000    0.000 
#
# Total GULP energy -78337.439725 kJ/mol
# GULP energy per Si atom -5595.531409 kJ/mol
# Density = 2.649340 g / cm^3
# Si number density = 26.553838 Si / 1000 Ang^3
#
#
#
# Elastic Constant Matrix: (Units=GPa)
#
#
# Indices 1 2 3 4 5 6 
#
# 1 87.2108 6.5726 37.8995 -7.6785 23.3371 -21.2890
# 2 6.5726 82.2747 24.4903 0.5870 -4.0427 -10.8812
# 3 37.8995 24.4903 145.6105 8.4486 20.2279 -11.6283
# 4 -7.6785 0.5870 8.4486 39.6890 -15.8058 6.5784
# 5 23.3371 -4.0427 20.2279 -15.8058 36.1984 -5.0932
# 6 -21.2890 -10.8812 -11.6283 6.5784 -5.0932 29.0232
#
#
#
# Elastic Compliance Matrix: (Units=1/GPa)
#
#
# Indices 1 2 3 4 5 6 
#
# 1 0.017347 0.000302 -0.002385 -0.001474 -0.008963 0.010643
# 2 0.000302 0.013731 -0.002639 0.001232 0.004018 0.004738
# 3 -0.002385 -0.002639 0.009100 -0.004839 -0.005816 0.000983
# 4 -0.001474 0.001232 -0.004839 0.034163 0.017696 -0.007196
# 5 -0.008963 0.004018 -0.005816 0.017696 0.044319 -0.003632
# 6 0.010643 0.004738 0.000983 -0.007196 -0.003632 0.045426
#
#
# Mechanical properties :
#
#
# Convention : Reuss Voigt Hill
#
# Bulk Modulus (GPa) = 32.53884 50.33565 41.43724
# Shear Modulus (GPa) = 27.20715 37.39103 32.29909
#
# Velocity S-wave (km/s) = 3.20442 3.75657 3.49142
# Velocity P-wave (km/s) = 5.09623 6.14922 5.64732
#
# Compressibility (1/GPa) = 0.03073250
#
# Stress axis : x y z
#
# Youngs Moduli (GPa) = 57.64653 72.82673 109.89466
#
# Poissons Ratio (x) = -0.02199 0.26212
# Poissons Ratio (y) = -0.01740 0.29006
# Poissons Ratio (z) = 0.13750 0.19222
#
# Static dielectric constant tensor:
#      x y z
#    x 2.146460 0.010980 -0.042390 
#    y 0.010980 2.177890 0.086670 
#    z -0.042390 0.086670 2.268200 
# 
# From -- ./inp_files/150850.got.cif
#   From: 2010.05.17/outbox.cif.g08.bks.cpg/sg2_76_cif.got.tgz:150850.got - 2010.06.03 11:33:40.
