data_PCOD9005306
_publ_section_title
;
Structure prediction by ZEFSAII (Michael W. Deem and Ramdas Pophale) SiO2 
 PCOD9005306
Probable space group: P -1
;
_chemical_formula_sum "Si O2"
_cell_formula_units_Z 16
_cell_length_a 5.489481
_cell_length_b 11.655387
_cell_length_c 12.977256
_cell_angle_alpha 88.269332
_cell_angle_beta 109.788367
_cell_angle_gamma 103.029517
_cell_volume 760.201936
_symmetry_space_group_name_H-M "P -1"
_symmetry_group_IT_number 2
_symmetry_cell_setting 'triclinic'
loop_
_space_group_symop_operation_xyz
x,y,z
-x,-y,-z
loop_
_atom_site_type_symbol
_atom_site_label
_atom_site_fract_x
_atom_site_fract_y
_atom_site_fract_z
Si Si1 0.214601 0.544901 0.260837
Si Si2 0.885598 0.741891 0.213214
Si Si3 0.857986 0.376255 0.356001
Si Si4 0.249961 0.375768 0.587437
Si Si5 0.388760 0.574887 0.065850
Si Si6 0.548916 0.802071 0.820108
Si Si7 0.834511 0.055403 0.889316
Si Si8 0.129348 0.751791 0.948790
O O1 0.431716 0.595769 0.378929
O O2 0.357151 0.521799 0.177060
O O3 0.069673 0.650355 0.216587
O O4 0.017459 0.427969 0.274598
O O5 0.823651 0.716798 0.326103
O O6 0.620441 0.691985 0.112419
O O7 0.008640 0.871628 0.185517
O O8 0.792032 0.495476 0.388672
O O9 0.604389 0.274589 0.293826
O O10 0.063509 0.336939 0.464380
O O11 0.500000 0.500000 0.000000
O O12 0.135356 0.621229 0.991561
O O13 0.336378 0.777576 0.883639
O O14 0.829968 0.765534 0.882356
O O15 0.623658 0.944013 0.817704
O O16 0.755934 0.155539 0.945859
O O17 0.000000 0.000000 0.000000
#
# Coordination Sequence:
#
# PCOD9005306 Si02
#       8
#     2   2   2   2   2   2   2   2
#     4  10  21  38  61  91 128 171 213 261 333 405
#     4  10  21  40  60  94 123 171 219 263 329 398
#     4  10  22  40  62  94 123 165 220 274 334 385
#     4   9  21  40  65  89 127 166 210 276 343 389
#     4  11  24  36  60  95 138 172 214 264 328 399
#     4  11  26  41  67  94 128 173 231 272 313 392
#     4  10  21  44  66  90 129 179 220 264 322 385
#     4  11  24  43  62  93 135 175 217 265 325 390
#
# _framework density 21.047039999999999
#
# number of rings (size 3 to 8) (size 9 to 14) (size 15 to 20)
#    0.000    1.750    1.250    2.250    7.000    2.500 
#    0.000    1.250    0.000    0.750    0.000    0.000 
#    0.000    0.000    0.000    0.000    0.000    0.000 
#
# Total GULP energy -89360.359691 kJ/mol
# GULP energy per Si atom -5585.022481 kJ/mol
# Density = 2.099914 g / cm^3
# Si number density = 21.047040 Si / 1000 Ang^3
#
#
#
# Elastic Constant Matrix: (Units=GPa)
#
#
# Indices 1 2 3 4 5 6 
#
# 1 92.0488 31.2981 27.8027 7.0508 18.7625 -0.6115
# 2 31.2981 140.2119 60.0902 3.1724 9.7130 23.3069
# 3 27.8027 60.0902 83.0806 9.6382 25.9497 13.5248
# 4 7.0508 3.1724 9.6382 31.5388 5.9048 1.0162
# 5 18.7625 9.7130 25.9497 5.9048 33.5913 0.5953
# 6 -0.6115 23.3069 13.5248 1.0162 0.5953 36.3106
#
#
#
# Elastic Compliance Matrix: (Units=1/GPa)
#
#
# Indices 1 2 3 4 5 6 
#
# 1 0.013315 -0.002452 -0.001141 -0.001401 -0.005642 0.002355
# 2 -0.002452 0.011709 -0.008414 0.001275 0.004340 -0.004530
# 3 -0.001141 -0.008414 0.024069 -0.003365 -0.014874 -0.003245
# 4 -0.001401 0.001275 -0.003365 0.033471 -0.002862 -0.000479
# 5 -0.005642 0.004340 -0.014874 -0.002862 0.043624 0.002024
# 6 0.002355 -0.004530 -0.003245 -0.000479 0.002024 0.031676
#
#
# Mechanical properties :
#
#
# Convention : Reuss Voigt Hill
#
# Bulk Modulus (GPa) = 39.87537 61.52481 50.70009
# Shear Modulus (GPa) = 26.28276 33.36482 29.82379
#
# Velocity S-wave (km/s) = 3.53762 3.98584 3.76840
# Velocity P-wave (km/s) = 5.97271 7.10479 6.56321
#
# Compressibility (1/GPa) = 0.02507813
#
# Stress axis : x y z
#
# Youngs Moduli (GPa) = 75.10201 85.40407 41.54776
#
# Poissons Ratio (x) = 0.20943 0.04739
# Poissons Ratio (y) = 0.18417 0.34960
# Poissons Ratio (z) = 0.08567 0.71863
#
# Static dielectric constant tensor:
#      x y z
#    x 1.847130 0.007290 0.005470 
#    y 0.007290 1.770580 0.001820 
#    z 0.005470 0.001820 1.794940 
# 
# From -- ./inp_files/364360.got.cif
#   From: 2010.05.17/outbox.cif.g08.bks.cpg/sg2_183_cif.got.tgz:364360.got - 2010.06.03 11:33:40.
