data_PCOD9005063
_publ_section_title
;
Structure prediction by ZEFSAII (Michael W. Deem and Ramdas Pophale) SiO2 
 PCOD9005063
Probable space group: P -1
;
_chemical_formula_sum "Si O2"
_cell_formula_units_Z 14
_cell_length_a 12.244689
_cell_length_b 7.957535
_cell_length_c 8.736967
_cell_angle_alpha 117.248732
_cell_angle_beta 107.280008
_cell_angle_gamma 110.453845
_cell_volume 592.847105
_symmetry_space_group_name_H-M "P -1"
_symmetry_group_IT_number 2
_symmetry_cell_setting 'triclinic'
loop_
_space_group_symop_operation_xyz
x,y,z
-x,-y,-z
loop_
_atom_site_type_symbol
_atom_site_label
_atom_site_fract_x
_atom_site_fract_y
_atom_site_fract_z
Si Si1 0.149881 0.045329 0.100222
Si Si2 0.475655 0.956706 0.152545
Si Si3 0.958469 0.738900 0.376911
Si Si4 0.197995 0.662028 0.063402
Si Si5 0.281405 0.325700 0.584604
Si Si6 0.236587 0.865775 0.499160
Si Si7 0.568441 0.671627 0.741437
O O1 0.221489 0.213990 0.346558
O O2 0.271515 0.209777 0.093737
O O3 0.144330 0.811993 0.027605
O O4 0.000000 0.000000 0.000000
O O5 0.626463 0.067997 0.330656
O O6 0.426647 0.118675 0.242904
O O7 0.345950 0.727515 0.081148
O O8 0.500000 0.000000 0.000000
O O9 0.822550 0.610934 0.372731
O O10 0.092259 0.742115 0.481213
O O11 0.912292 0.604778 0.139593
O O12 0.000000 0.000000 0.500000
O O13 0.216975 0.726496 0.277260
O O14 0.443168 0.537826 0.754136
O O15 0.265778 0.111765 0.573111
O O16 0.500000 0.500000 0.500000
#
# Coordination Sequence:
#
# PCOD9005063 Si02
#       7
#     2   2   2   2   2   2   2
#     4   9  19  35  59  90 121 158 203 249 306 371
#     4  11  23  40  62  93 125 158 205 258 313 370
#     4  10  21  38  60  89 122 157 207 263 306 355
#     4  10  21  40  63  89 124 165 208 253 308 376
#     4   9  19  39  58  84 122 160 203 252 303 363
#     4  10  22  41  63  89 123 167 209 252 307 372
#     4   9  19  37  58  84 121 159 197 243 301 369
#
# _framework density 23.614858000000002
#
# number of rings (size 3 to 8) (size 9 to 14) (size 15 to 20)
#    0.000    2.286    0.000    2.571    0.000    4.571 
#    0.000   15.714    0.000    0.000    0.000    0.000 
#    0.000    0.000    0.000    0.000    0.000    0.000 
#
# Total GULP energy -77976.080162 kJ/mol
# GULP energy per Si atom -5569.720012 kJ/mol
# Density = 2.356111 g / cm^3
# Si number density = 23.614858 Si / 1000 Ang^3
#
#
#
# Elastic Constant Matrix: (Units=GPa)
#
#
# Indices 1 2 3 4 5 6 
#
# 1 179.6225 27.3522 66.8099 4.2114 40.9707 23.7822
# 2 27.3522 21.2365 31.3185 11.3456 5.2526 10.6332
# 3 66.8099 31.3185 105.1108 17.9763 21.6955 -8.8587
# 4 4.2114 11.3456 17.9763 26.2449 2.3505 4.3696
# 5 40.9707 5.2526 21.6955 2.3505 40.1282 7.7268
# 6 23.7822 10.6332 -8.8587 4.3696 7.7268 31.0571
#
#
#
# Elastic Compliance Matrix: (Units=1/GPa)
#
#
# Indices 1 2 3 4 5 6 
#
# 1 0.010770 0.002218 -0.008281 0.005242 -0.005027 -0.010856
# 2 0.002218 0.207993 -0.073403 -0.026460 0.030564 -0.097729
# 3 -0.008281 -0.073403 0.044584 -0.004204 -0.015144 0.048549
# 4 0.005242 -0.026460 -0.004204 0.052265 -0.002103 -0.002985
# 5 -0.005027 0.030564 -0.015144 -0.002103 0.038243 -0.020154
# 6 -0.010856 -0.097729 0.048549 -0.002985 -0.020154 0.093254
#
#
# Mechanical properties :
#
#
# Convention : Reuss Voigt Hill
#
# Bulk Modulus (GPa) = 9.57694 61.88122 35.72908
# Shear Modulus (GPa) = 7.80218 31.51864 19.66041
#
# Velocity S-wave (km/s) = 1.81964 3.65731 2.88851
# Velocity P-wave (km/s) = 2.91189 6.64047 5.12713
#
# Compressibility (1/GPa) = 0.10441751
#
# Stress axis : x y z
#
# Youngs Moduli (GPa) = 92.84729 4.80785 22.42939
#
# Poissons Ratio (x) = -0.01066 0.18573
# Poissons Ratio (y) = -0.20592 1.64637
# Poissons Ratio (z) = 0.76883 0.35291
#
# Static dielectric constant tensor:
#      x y z
#    x 2.054840 0.121460 -0.023710 
#    y 0.121460 1.951430 0.019300 
#    z -0.023710 0.019300 1.944640 
# 
# From -- ./inp_files/245626.got.cif
#   From: 2010.05.17/outbox.cif.g08.bks.cpg/sg2_123_cif.got.tgz:245626.got - 2010.06.03 11:33:40.
