data_PCOD9005338
_publ_section_title
;
Structure prediction by ZEFSAII (Michael W. Deem and Ramdas Pophale) SiO2 
 PCOD9005338
Probable space group: P -1
;
_chemical_formula_sum "Si O2"
_cell_formula_units_Z 16
_cell_length_a 14.708067
_cell_length_b 12.523235
_cell_length_c 8.771423
_cell_angle_alpha 40.334000
_cell_angle_beta 131.369728
_cell_angle_gamma 135.973069
_cell_volume 703.530697
_symmetry_space_group_name_H-M "P -1"
_symmetry_group_IT_number 2
_symmetry_cell_setting 'triclinic'
loop_
_space_group_symop_operation_xyz
x,y,z
-x,-y,-z
loop_
_atom_site_type_symbol
_atom_site_label
_atom_site_fract_x
_atom_site_fract_y
_atom_site_fract_z
Si Si1 0.622832 0.410411 0.183254
Si Si2 0.964731 0.235974 0.260480
Si Si3 0.006470 0.941194 0.812954
Si Si4 0.205175 0.160527 0.040914
Si Si5 0.771324 0.413245 0.851704
Si Si6 0.499613 0.202414 0.585033
Si Si7 0.403054 0.462122 0.289756
Si Si8 0.634330 0.080149 0.455785
O O1 0.543709 0.306744 0.357906
O O2 0.702718 0.294232 0.342276
O O3 0.702164 0.621928 0.086981
O O4 0.542013 0.412991 0.936512
O O5 0.969771 0.195959 0.127965
O O6 0.105365 0.407722 0.280431
O O7 0.844665 0.287984 0.110507
O O8 0.948063 0.053981 0.524435
O O9 0.907137 0.859700 0.934712
O O10 0.142216 0.089763 0.881935
O O11 0.274431 0.025550 0.302117
O O12 0.636729 0.292223 0.736605
O O13 0.721676 0.504344 0.831465
O O14 0.384279 0.258904 0.451857
O O15 0.432743 0.985275 0.714509
O O16 0.500000 0.500000 0.500000
O O17 0.500000 0.000000 0.500000
#
# Coordination Sequence:
#
# PCOD9005338 Si02
#       8
#     2   2   2   2   2   2   2   2
#     4  11  22  40  67  92 129 174 203 260 323 374
#     4  10  22  43  64  90 129 168 220 263 324 378
#     4  10  24  43  64  92 124 175 213 270 323 371
#     4  11  23  44  67  95 133 163 218 271 316 378
#     4  10  22  40  66  95 126 170 215 267 314 386
#     4  10  21  41  64  97 133 166 212 259 322 387
#     4  10  21  38  61  93 131 167 208 254 319 382
#     4  10  24  38  64 100 130 162 212 265 316 389
#
# _framework density 22.742432999999998
#
# number of rings (size 3 to 8) (size 9 to 14) (size 15 to 20)
#    0.000    1.750    1.250    1.875    7.000    0.000 
#    0.000    5.000    0.000    0.000    0.000    0.000 
#    0.000    0.000    0.000    0.000    0.000    0.000 
#
# Total GULP energy -89169.743738 kJ/mol
# GULP energy per Si atom -5573.108984 kJ/mol
# Density = 2.269067 g / cm^3
# Si number density = 22.742433 Si / 1000 Ang^3
#
#
#
# Elastic Constant Matrix: (Units=GPa)
#
#
# Indices 1 2 3 4 5 6 
#
# 1 84.3025 36.6640 28.0272 1.9369 31.9374 -13.0567
# 2 36.6640 121.1907 30.6014 -4.4137 23.7667 -19.2699
# 3 28.0272 30.6014 62.6238 0.8447 20.5968 -4.3262
# 4 1.9369 -4.4137 0.8447 35.0899 -14.8267 5.0386
# 5 31.9374 23.7667 20.5968 -14.8267 45.4416 -12.1727
# 6 -13.0567 -19.2699 -4.3262 5.0386 -12.1727 29.0805
#
#
#
# Elastic Compliance Matrix: (Units=1/GPa)
#
#
# Indices 1 2 3 4 5 6 
#
# 1 0.019188 -0.002453 -0.003045 -0.006895 -0.012391 0.002545
# 2 -0.002453 0.010902 -0.003623 0.000522 -0.000782 0.005166
# 3 -0.003045 -0.003623 0.021472 -0.003613 -0.007729 -0.003183
# 4 -0.006895 0.000522 -0.003613 0.036799 0.017603 -0.002295
# 5 -0.012391 -0.000782 -0.007729 0.017603 0.042367 0.007453
# 6 0.002545 0.005166 -0.003183 -0.002295 0.007453 0.041997
#
#
# Mechanical properties :
#
#
# Convention : Reuss Voigt Hill
#
# Bulk Modulus (GPa) = 30.01008 50.96690 40.48849
# Shear Modulus (GPa) = 24.74352 33.44402 29.09377
#
# Velocity S-wave (km/s) = 3.30205 3.83894 3.58057
# Velocity P-wave (km/s) = 5.26899 6.48915 5.91064
#
# Compressibility (1/GPa) = 0.03332214
#
# Stress axis : x y z
#
# Youngs Moduli (GPa) = 52.11658 91.72631 46.57154
#
# Poissons Ratio (x) = 0.22496 0.14180
# Poissons Ratio (y) = 0.12782 0.16871
# Poissons Ratio (z) = 0.15869 0.33228
#
# Static dielectric constant tensor:
#      x y z
#    x 1.896440 -0.001530 -0.015770 
#    y -0.001530 1.957700 0.001420 
#    z -0.015770 0.001420 1.852930 
# 
# From -- ./inp_files/306378.got.cif
#   From: 2010.05.17/outbox.cif.g08.bks.cpg/sg2_154_cif.got.tgz:306378.got - 2010.06.03 11:33:40.
