data_PCOD9005641
_publ_section_title
;
Structure prediction by ZEFSAII (Michael W. Deem and Ramdas Pophale) SiO2 
 PCOD9005641
Probable space group: P -1
;
_chemical_formula_sum "Si O2"
_cell_formula_units_Z 14
_cell_length_a 9.084679
_cell_length_b 15.579579
_cell_length_c 11.307391
_cell_angle_alpha 142.733200
_cell_angle_beta 140.577347
_cell_angle_gamma 39.517277
_cell_volume 562.006949
_symmetry_space_group_name_H-M "P -1"
_symmetry_group_IT_number 2
_symmetry_cell_setting 'triclinic'
loop_
_space_group_symop_operation_xyz
x,y,z
-x,-y,-z
loop_
_atom_site_type_symbol
_atom_site_label
_atom_site_fract_x
_atom_site_fract_y
_atom_site_fract_z
Si Si1 0.931393 0.315023 0.157875
Si Si2 0.339543 0.376158 0.323374
Si Si3 0.204655 0.163187 0.396889
Si Si4 0.492439 0.532577 0.257926
Si Si5 0.891844 0.618456 0.202856
Si Si6 0.151646 0.817762 0.483859
Si Si7 0.221352 0.915678 0.326871
O O1 0.723599 0.481280 0.254090
O O2 0.165719 0.320316 0.237146
O O3 0.036296 0.218050 0.236189
O O4 0.794564 0.236480 0.903000
O O5 0.391976 0.501288 0.575024
O O6 0.620560 0.242262 0.341122
O O7 0.154534 0.464701 0.200732
O O8 0.155435 0.303192 0.611800
O O9 0.501615 0.100746 0.479885
O O10 0.161463 0.033146 0.305121
O O11 0.317338 0.716692 0.365278
O O12 0.330283 0.434610 0.021889
O O13 0.949131 0.741131 0.293452
O O14 0.993751 0.996885 0.612764
#
# Coordination Sequence:
#
# PCOD9005641 Si02
#       7
#     2   2   2   2   2   2   2
#     4  12  22  40  61  88 118 154 194 237 290 348
#     4  10  24  37  60  87 122 149 196 237 291 343
#     4  10  21  38  63  87 116 150 199 240 282 345
#     4  10  22  37  60  89 115 150 195 241 288 335
#     4  11  19  39  64  87 114 154 194 246 287 332
#     4   9  22  41  57  88 121 146 199 241 282 348
#     4  10  22  41  59  86 118 155 192 238 289 344
#
# _framework density 24.910723999999998
#
# number of rings (size 3 to 8) (size 9 to 14) (size 15 to 20)
#    0.857    0.857    2.857    1.714    0.000    2.286 
#    2.571    0.714    0.000    0.000    0.000    0.000 
#    0.000    0.000    0.000    0.000    0.000    0.000 
#
# Total GULP energy -78243.436742 kJ/mol
# GULP energy per Si atom -5588.816910 kJ/mol
# Density = 2.485403 g / cm^3
# Si number density = 24.910724 Si / 1000 Ang^3
#
#
#
# Elastic Constant Matrix: (Units=GPa)
#
#
# Indices 1 2 3 4 5 6 
#
# 1 80.1410 9.1865 -0.6783 4.3151 -2.1973 -17.4770
# 2 9.1865 100.7713 8.8580 8.6193 -12.2044 -38.1615
# 3 -0.6783 8.8580 72.5422 -14.3885 -0.1323 -9.1047
# 4 4.3151 8.6193 -14.3885 27.0310 -8.1308 -6.6812
# 5 -2.1973 -12.2044 -0.1323 -8.1308 40.7504 -2.8241
# 6 -17.4770 -38.1615 -9.1047 -6.6812 -2.8241 42.2759
#
#
#
# Elastic Compliance Matrix: (Units=1/GPa)
#
#
# Indices 1 2 3 4 5 6 
#
# 1 0.014015 0.001792 0.000921 0.000161 0.001865 0.007760
# 2 0.001792 0.016637 0.000113 0.000378 0.006282 0.016263
# 3 0.000921 0.000113 0.016729 0.011037 0.002757 0.006014
# 4 0.000161 0.000378 0.011037 0.048693 0.010649 0.011192
# 5 0.001865 0.006282 0.002757 0.010649 0.029396 0.010682
# 6 0.007760 0.016263 0.006014 0.011192 0.010682 0.045320
#
#
# Mechanical properties :
#
#
# Convention : Reuss Voigt Hill
#
# Bulk Modulus (GPa) = 18.85568 32.02077 25.43822
# Shear Modulus (GPa) = 27.35007 37.75068 32.55037
#
# Velocity S-wave (km/s) = 3.31709 3.89709 3.61873
# Velocity P-wave (km/s) = 4.71768 5.75603 5.26252
#
# Compressibility (1/GPa) = 0.05303443
#
# Stress axis : x y z
#
# Youngs Moduli (GPa) = 71.35130 60.10611 59.77635
#
# Poissons Ratio (x) = -0.10772 -0.05508
# Poissons Ratio (y) = -0.12788 -0.00674
# Poissons Ratio (z) = -0.06575 -0.00678
#
# Static dielectric constant tensor:
#      x y z
#    x 2.068090 0.042970 -0.047460 
#    y 0.042970 2.017450 -0.016750 
#    z -0.047460 -0.016750 1.904130 
# 
# From -- ./inp_files/403426.got.cif
#   From: 2010.05.17/outbox.cif.g08.bks.cpg/sg2_202_cif.got.tgz:403426.got - 2010.06.03 11:33:40.
