data_PCOD9005848
_publ_section_title
;
Structure prediction by ZEFSAII (Michael W. Deem and Ramdas Pophale) SiO2 
 PCOD9005848
Probable space group: P -1
;
_chemical_formula_sum "Si O2"
_cell_formula_units_Z 16
_cell_length_a 14.152608
_cell_length_b 13.879529
_cell_length_c 10.777307
_cell_angle_alpha 46.068128
_cell_angle_beta 38.611365
_cell_angle_gamma 30.587722
_cell_volume 670.751487
_symmetry_space_group_name_H-M "P -1"
_symmetry_group_IT_number 2
_symmetry_cell_setting 'triclinic'
loop_
_space_group_symop_operation_xyz
x,y,z
-x,-y,-z
loop_
_atom_site_type_symbol
_atom_site_label
_atom_site_fract_x
_atom_site_fract_y
_atom_site_fract_z
Si Si1 0.579491 0.836206 0.316286
Si Si2 0.217960 0.547772 0.443051
Si Si3 0.689047 0.824468 0.551294
Si Si4 0.175978 0.558206 0.206251
Si Si5 0.733680 0.313515 0.480713
Si Si6 0.370549 0.919588 0.198028
Si Si7 0.041220 0.670797 0.973790
Si Si8 0.790472 0.719271 0.844045
O O1 0.627172 0.676011 0.493684
O O2 0.524137 0.817637 0.253344
O O3 0.788158 0.801852 0.138224
O O4 0.463576 0.157874 0.014033
O O5 0.243866 0.586160 0.241817
O O6 0.241905 0.632879 0.457478
O O7 0.981445 0.629535 0.630219
O O8 0.694161 0.664042 0.724851
O O9 0.634534 0.954834 0.606068
O O10 0.920640 0.697806 0.365380
O O11 0.500000 0.000000 0.500000
O O12 0.171596 0.616023 0.018520
O O13 0.500000 0.500000 0.500000
O O14 0.743839 0.148534 0.634596
O O15 0.893685 0.261898 0.254413
O O16 0.224824 0.139506 0.180539
O O17 0.121096 0.476091 0.018013
#
# Coordination Sequence:
#
# PCOD9005848 Si02
#       8
#     2   2   2   2   2   2   2   2
#     4  11  19  34  65  98 124 171 222 275 330 402
#     4  11  22  39  64  95 135 175 220 279 340 397
#     4  11  18  36  64 103 138 171 221 282 344 394
#     4  11  22  38  64 104 139 172 217 287 336 403
#     4  12  24  43  65  92 134 187 224 271 341 409
#     4  11  22  38  64  93 128 173 226 275 335 396
#     4  11  22  40  67  99 134 170 227 280 338 402
#     4  10  21  38  63  96 127 164 226 285 328 392
#
# _framework density 23.853842
#
# number of rings (size 3 to 8) (size 9 to 14) (size 15 to 20)
#    0.000    1.000    5.000    4.500    0.000    2.500 
#    0.000    0.625    0.000    3.000    0.000    0.000 
#    0.000    0.000    0.000    0.000    0.000    0.000 
#
# Total GULP energy -89307.190966 kJ/mol
# GULP energy per Si atom -5581.699435 kJ/mol
# Density = 2.379955 g / cm^3
# Si number density = 23.853842 Si / 1000 Ang^3
#
#
#
# Elastic Constant Matrix: (Units=GPa)
#
#
# Indices 1 2 3 4 5 6 
#
# 1 156.0781 17.6557 66.9540 -9.2925 34.1129 9.0855
# 2 17.6557 156.3486 32.5337 -8.5659 0.6354 9.8568
# 3 66.9540 32.5337 109.3543 -15.3454 2.5548 18.7838
# 4 -9.2925 -8.5659 -15.3454 28.1839 4.0042 4.7228
# 5 34.1129 0.6354 2.5548 4.0042 40.0494 -5.8752
# 6 9.0855 9.8568 18.7838 4.7228 -5.8752 46.2384
#
#
#
# Elastic Compliance Matrix: (Units=1/GPa)
#
#
# Indices 1 2 3 4 5 6 
#
# 1 0.011404 0.000254 -0.006365 0.001936 -0.009672 -0.001136
# 2 0.000254 0.006889 -0.001825 0.001419 -0.000495 -0.000985
# 3 -0.006365 -0.001825 0.015152 0.005932 0.003199 -0.004715
# 4 0.001936 0.001419 0.005932 0.042248 -0.007501 -0.008361
# 5 -0.009672 -0.000495 0.003199 -0.007501 0.034623 0.005872
# 6 -0.001136 -0.000985 -0.004715 -0.008361 0.005872 0.025576
#
#
# Mechanical properties :
#
#
# Convention : Reuss Voigt Hill
#
# Bulk Modulus (GPa) = 56.90664 72.89643 64.90154
# Shear Modulus (GPa) = 31.72155 43.20352 37.46254
#
# Velocity S-wave (km/s) = 3.65064 4.26041 3.96726
# Velocity P-wave (km/s) = 6.45583 7.40455 6.94641
#
# Compressibility (1/GPa) = 0.01757264
#
# Stress axis : x y z
#
# Youngs Moduli (GPa) = 87.68744 145.16081 65.99656
#
# Poissons Ratio (x) = -0.03682 0.42007
# Poissons Ratio (y) = -0.02224 0.12044
# Poissons Ratio (z) = 0.55814 0.26490
#
# Static dielectric constant tensor:
#      x y z
#    x 2.148020 -0.043910 0.199050 
#    y -0.043910 1.921550 0.018900 
#    z 0.199050 0.018900 2.080310 
# 
# From -- ./inp_files/454505.got.cif
#   From: 2010.05.17/outbox.cif.g08.bks.cpg/sg2_228_cif.got.tgz:454505.got - 2010.06.03 11:33:40.
