data_PCOD9005315
_publ_section_title
;
Structure prediction by ZEFSAII (Michael W. Deem and Ramdas Pophale) SiO2 
 PCOD9005315
Probable space group: P -1
;
_chemical_formula_sum "Si O2"
_cell_formula_units_Z 14
_cell_length_a 7.178011
_cell_length_b 13.457434
_cell_length_c 9.072726
_cell_angle_alpha 139.196715
_cell_angle_beta 77.802212
_cell_angle_gamma 85.147525
_cell_volume 517.122285
_symmetry_space_group_name_H-M "P -1"
_symmetry_group_IT_number 2
_symmetry_cell_setting 'triclinic'
loop_
_space_group_symop_operation_xyz
x,y,z
-x,-y,-z
loop_
_atom_site_type_symbol
_atom_site_label
_atom_site_fract_x
_atom_site_fract_y
_atom_site_fract_z
Si Si1 0.854085 0.664577 0.881426
Si Si2 0.656595 0.280223 0.461829
Si Si3 0.106841 0.889404 0.046876
Si Si4 0.731983 0.628640 0.527907
Si Si5 0.092313 0.746367 0.365218
Si Si6 0.597836 0.194420 0.840612
Si Si7 0.332055 0.168878 0.499303
O O1 0.776660 0.635037 0.698460
O O2 0.936242 0.811589 0.011701
O O3 0.061604 0.515197 0.724558
O O4 0.640777 0.716354 0.062288
O O5 0.809941 0.146311 0.174798
O O6 0.468379 0.400272 0.530456
O O7 0.784216 0.354383 0.626867
O O8 0.535393 0.209001 0.517759
O O9 0.317083 0.794245 0.996937
O O10 0.011902 0.069310 0.338960
O O11 0.694581 0.802264 0.645479
O O12 0.249898 0.752255 0.222821
O O13 0.901780 0.715043 0.289826
O O14 0.630166 0.002354 0.623369
#
# Coordination Sequence:
#
# PCOD9005315 Si02
#       7
#     2   2   2   2   2   2   2
#     4  11  22  42  63  89 128 157 207 250 304 359
#     4  10  21  38  61  92 119 157 203 247 310 346
#     4  11  22  37  64  97 114 163 204 251 301 366
#     4   9  22  42  62  91 123 161 199 261 299 355
#     4  11  23  38  63  92 126 159 202 250 307 360
#     4  11  23  41  63  90 126 162 201 249 307 358
#     4   9  20  39  60  87 123 151 201 251 293 357
#
# _framework density 27.072903
#
# number of rings (size 3 to 8) (size 9 to 14) (size 15 to 20)
#    0.857    0.857    1.429    3.857    0.000   10.286 
#    2.571    1.429    0.000    0.000    0.000    0.000 
#    0.000    0.000    0.000    0.000    0.000    0.000 
#
# Total GULP energy -78149.819149 kJ/mol
# GULP energy per Si atom -5582.129939 kJ/mol
# Density = 2.701128 g / cm^3
# Si number density = 27.072903 Si / 1000 Ang^3
#
#
#
# Elastic Constant Matrix: (Units=GPa)
#
#
# Indices 1 2 3 4 5 6 
#
# 1 165.6490 20.6642 39.0396 5.3698 -38.1731 -20.9944
# 2 20.6642 43.2355 11.7317 4.0495 0.4049 -7.1028
# 3 39.0396 11.7317 70.8615 -9.2996 -23.5593 0.9472
# 4 5.3698 4.0495 -9.2996 38.3156 -1.0959 -10.7071
# 5 -38.1731 0.4049 -23.5593 -1.0959 43.0483 -11.2629
# 6 -20.9944 -7.1028 0.9472 -10.7071 -11.2629 54.3318
#
#
#
# Elastic Compliance Matrix: (Units=1/GPa)
#
#
# Indices 1 2 3 4 5 6 
#
# 1 0.009581 -0.003349 -0.001793 0.000284 0.008914 0.005200
# 2 -0.003349 0.026538 -0.005018 -0.003639 -0.005978 0.000307
# 3 -0.001793 -0.005018 0.020089 0.006404 0.010045 0.001646
# 4 0.000284 -0.003639 0.006404 0.030068 0.006325 0.006759
# 5 0.008914 -0.005978 0.010045 0.006325 0.039995 0.012025
# 6 0.005200 0.000307 0.001646 0.006759 0.012025 0.024251
#
#
# Mechanical properties :
#
#
# Convention : Reuss Voigt Hill
#
# Bulk Modulus (GPa) = 27.86301 46.95742 37.41022
# Shear Modulus (GPa) = 27.35181 41.02651 34.18916
#
# Velocity S-wave (km/s) = 3.18197 3.89705 3.55752
# Velocity P-wave (km/s) = 4.87997 6.13447 5.54283
#
# Compressibility (1/GPa) = 0.03588987
#
# Stress axis : x y z
#
# Youngs Moduli (GPa) = 104.37244 37.68141 49.77946
#
# Poissons Ratio (x) = 0.12618 0.08924
# Poissons Ratio (y) = 0.34951 0.24978
# Poissons Ratio (z) = 0.18710 0.18907
#
# Static dielectric constant tensor:
#      x y z
#    x 2.189720 -0.008130 0.003690 
#    y -0.008130 2.169000 -0.012220 
#    z 0.003690 -0.012220 2.154590 
# 
# From -- ./inp_files/204022.got.cif
#   From: 2010.05.17/outbox.cif.g08.bks.cpg/sg2_103_cif.got.tgz:204022.got - 2010.06.03 11:33:40.
