data_PCOD9005905
_publ_section_title
;
Structure prediction by ZEFSAII (Michael W. Deem and Ramdas Pophale) SiO2 
 PCOD9005905
Probable space group: P -1
;
_chemical_formula_sum "Si O2"
_cell_formula_units_Z 16
_cell_length_a 15.782472
_cell_length_b 10.550138
_cell_length_c 11.756771
_cell_angle_alpha 148.456871
_cell_angle_beta 48.754620
_cell_angle_gamma 121.717866
_cell_volume 766.751888
_symmetry_space_group_name_H-M "P -1"
_symmetry_group_IT_number 2
_symmetry_cell_setting 'triclinic'
loop_
_space_group_symop_operation_xyz
x,y,z
-x,-y,-z
loop_
_atom_site_type_symbol
_atom_site_label
_atom_site_fract_x
_atom_site_fract_y
_atom_site_fract_z
Si Si1 0.208540 0.348591 0.276558
Si Si2 0.072375 0.913936 0.044373
Si Si3 0.362031 0.024541 0.256151
Si Si4 0.367672 0.056651 0.539491
Si Si5 0.851451 0.136710 0.322396
Si Si6 0.418661 0.292387 0.882941
Si Si7 0.244569 0.509760 0.614705
Si Si8 0.416534 0.745163 0.780172
O O1 0.135119 0.577292 0.459408
O O2 0.260097 0.450655 0.423711
O O3 0.132503 0.135167 0.215408
O O4 0.310696 0.283216 0.050872
O O5 0.116032 0.926665 0.884728
O O6 0.118864 0.647922 0.844938
O O7 0.938232 0.976348 0.203606
O O8 0.331429 0.035580 0.424585
O O9 0.287910 0.260100 0.448995
O O10 0.497384 0.052868 0.160636
O O11 0.358670 0.802948 0.999009
O O12 0.374610 0.298657 0.795597
O O13 0.277363 0.908795 0.573196
O O14 0.496456 0.943671 0.347274
O O15 0.500000 0.500000 0.000000
O O16 0.321760 0.714783 0.747952
O O17 0.500000 0.500000 0.500000
#
# Coordination Sequence:
#
# PCOD9005905 Si02
#       8
#     2   2   2   2   2   2   2   2
#     4  11  21  37  63  87 120 153 201 252 303 360
#     4  10  21  38  64  82 121 152 210 255 292 350
#     4  10  22  37  57  86 122 161 196 241 298 361
#     4  11  24  38  60  88 131 156 193 242 304 372
#     4  10  21  40  57  92 114 160 200 252 303 351
#     4  11  24  37  57  92 127 162 189 235 310 373
#     4  10  22  36  59  88 115 156 205 247 294 348
#     4   9  20  36  55  84 116 157 202 237 290 347
#
# _framework density 20.867243999999999
#
# number of rings (size 3 to 8) (size 9 to 14) (size 15 to 20)
#    0.000    1.750    2.500    1.125    8.750    1.000 
#    0.000    0.625    0.000    3.000    0.000    0.000 
#    0.000    0.000    0.000    0.000    0.000    0.000 
#
# Total GULP energy -89086.865302 kJ/mol
# GULP energy per Si atom -5567.929081 kJ/mol
# Density = 2.081975 g / cm^3
# Si number density = 20.867244 Si / 1000 Ang^3
#
#
#
# Elastic Constant Matrix: (Units=GPa)
#
#
# Indices 1 2 3 4 5 6 
#
# 1 87.2131 5.5665 50.0096 -1.3285 4.0273 -9.9851
# 2 5.5665 21.2903 12.2998 -5.3597 11.3156 -5.0044
# 3 50.0096 12.2998 93.0489 1.8083 13.7982 -10.2910
# 4 -1.3285 -5.3597 1.8083 21.0674 -3.5702 0.4923
# 5 4.0273 11.3156 13.7982 -3.5702 46.2479 5.2922
# 6 -9.9851 -5.0044 -10.2910 0.4923 5.2922 28.4540
#
#
#
# Elastic Compliance Matrix: (Units=1/GPa)
#
#
# Indices 1 2 3 4 5 6 
#
# 1 0.016937 0.001741 -0.009178 0.002354 0.000703 0.002759
# 2 0.001741 0.064115 -0.006244 0.014261 -0.014252 0.012033
# 3 -0.009178 -0.006244 0.017409 -0.004320 -0.003510 0.002705
# 4 0.002354 0.014261 -0.004320 0.051860 0.001530 0.000590
# 5 0.000703 -0.014252 -0.003510 0.001530 0.027200 -0.008615
# 6 0.002759 0.012033 0.002705 0.000590 -0.008615 0.040799
#
#
# Mechanical properties :
#
#
# Convention : Reuss Voigt Hill
#
# Bulk Modulus (GPa) = 14.06477 37.47824 25.77150
# Shear Modulus (GPa) = 18.56109 28.06562 23.31335
#
# Velocity S-wave (km/s) = 2.98566 3.67135 3.34611
# Velocity P-wave (km/s) = 4.31744 5.99759 5.22548
#
# Compressibility (1/GPa) = 0.07109962
#
# Stress axis : x y z
#
# Youngs Moduli (GPa) = 59.04201 15.59692 57.44237
#
# Poissons Ratio (x) = -0.02716 0.52721
# Poissons Ratio (y) = -0.10280 0.35866
# Poissons Ratio (z) = 0.54189 0.09738
#
# Static dielectric constant tensor:
#      x y z
#    x 1.809510 -0.031180 0.031280 
#    y -0.031180 1.771500 0.066530 
#    z 0.031280 0.066530 1.862430 
# 
# From -- ./inp_files/98390.got.cif
#   From: 2010.05.17/outbox.cif.g08.bks.cpg/sg2_50_cif.got.tgz:98390.got - 2010.06.03 11:33:40.
