data_PCOD9005809
_publ_section_title
;
Structure prediction by ZEFSAII (Michael W. Deem and Ramdas Pophale) SiO2 
 PCOD9005809
Probable space group: P -1
;
_chemical_formula_sum "Si O2"
_cell_formula_units_Z 16
_cell_length_a 11.634477
_cell_length_b 15.065361
_cell_length_c 10.982230
_cell_angle_alpha 67.461280
_cell_angle_beta 58.495638
_cell_angle_gamma 24.452093
_cell_volume 655.657261
_symmetry_space_group_name_H-M "P -1"
_symmetry_group_IT_number 2
_symmetry_cell_setting 'triclinic'
loop_
_space_group_symop_operation_xyz
x,y,z
-x,-y,-z
loop_
_atom_site_type_symbol
_atom_site_label
_atom_site_fract_x
_atom_site_fract_y
_atom_site_fract_z
Si Si1 0.095059 0.236252 0.922489
Si Si2 0.238872 0.989188 0.399740
Si Si3 0.133355 0.668758 0.375495
Si Si4 0.426373 0.963778 0.655230
Si Si5 0.748476 0.213376 0.368783
Si Si6 0.836968 0.008035 0.957031
Si Si7 0.673662 0.762448 0.056134
Si Si8 0.335904 0.378081 0.223348
O O1 0.207591 0.203795 0.006941
O O2 0.879998 0.450267 0.859007
O O3 0.373249 0.041396 0.775982
O O4 0.947994 0.224072 0.013743
O O5 0.356839 0.823523 0.504265
O O6 0.504466 0.848586 0.232575
O O7 0.090328 0.169132 0.469217
O O8 0.958454 0.126844 0.401565
O O9 0.473995 0.463925 0.353453
O O10 0.234797 0.510860 0.320882
O O11 0.907085 0.864136 0.297741
O O12 0.677992 0.719680 0.662669
O O13 0.500000 0.000000 0.500000
O O14 0.975586 0.050596 0.213083
O O15 0.553755 0.136253 0.972928
O O16 0.676504 0.160536 0.082112
O O17 0.000000 0.500000 0.000000
#
# Coordination Sequence:
#
# PCOD9005809 Si02
#       8
#     2   2   2   2   2   2   2   2
#     4  10  21  38  63  94 128 166 212 264 325 380
#     4  10  23  43  64  97 129 168 215 268 323 382
#     4  11  22  40  64  92 128 169 215 257 328 379
#     4  10  22  39  61  91 131 167 216 263 314 385
#     4  10  23  43  66  91 131 171 215 269 316 386
#     4  10  22  42  63  95 132 167 218 267 319 382
#     4  11  21  41  68  95 128 168 212 269 329 383
#     4  10  22  40  62  94 128 169 215 264 320 377
#
# _framework density 24.402992999999999
#
# number of rings (size 3 to 8) (size 9 to 14) (size 15 to 20)
#    0.000    1.750    1.250    2.250    0.000    4.500 
#    9.000    6.250    0.000    0.000    0.000    0.000 
#    0.000    0.000    0.000    0.000    0.000    0.000 
#
# Total GULP energy -89088.054987 kJ/mol
# GULP energy per Si atom -5568.003437 kJ/mol
# Density = 2.434745 g / cm^3
# Si number density = 24.402993 Si / 1000 Ang^3
#
#
#
# Elastic Constant Matrix: (Units=GPa)
#
#
# Indices 1 2 3 4 5 6 
#
# 1 56.2216 30.8477 21.7981 9.6091 27.2172 4.2011
# 2 30.8477 120.3775 27.1612 2.2403 6.1648 -3.5641
# 3 21.7981 27.1612 138.8060 14.2992 18.9431 18.6297
# 4 9.6091 2.2403 14.2992 44.8602 9.5338 10.7559
# 5 27.2172 6.1648 18.9431 9.5338 42.8426 5.3498
# 6 4.2011 -3.5641 18.6297 10.7559 5.3498 45.8205
#
#
#
# Elastic Compliance Matrix: (Units=1/GPa)
#
#
# Indices 1 2 3 4 5 6 
#
# 1 0.030778 -0.006771 -0.000815 -0.002127 -0.017689 -0.000453
# 2 -0.006771 0.010289 -0.001652 0.000380 0.003265 0.001623
# 3 -0.000815 -0.001652 0.008501 -0.001246 -0.002359 -0.002942
# 4 -0.002127 0.000380 -0.001246 0.024926 -0.003105 -0.004757
# 5 -0.017689 0.003265 -0.002359 -0.003105 0.035921 -0.000630
# 6 -0.000453 0.001623 -0.002942 -0.004757 -0.000630 0.024379
#
#
# Mechanical properties :
#
#
# Convention : Reuss Voigt Hill
#
# Bulk Modulus (GPa) = 32.16313 52.77989 42.47151
# Shear Modulus (GPa) = 30.55590 42.41121 36.48355
#
# Velocity S-wave (km/s) = 3.54239 4.17340 3.87077
# Velocity P-wave (km/s) = 5.47175 6.70063 6.11712
#
# Compressibility (1/GPa) = 0.03109150
#
# Stress axis : x y z
#
# Youngs Moduli (GPa) = 32.49027 97.19083 117.63744
#
# Poissons Ratio (x) = 0.65812 0.09582
# Poissons Ratio (y) = 0.22000 0.19439
# Poissons Ratio (z) = 0.02646 0.16060
#
# Static dielectric constant tensor:
#      x y z
#    x 2.073370 0.000560 -0.058240 
#    y 0.000560 2.017450 -0.035400 
#    z -0.058240 -0.035400 1.932240 
# 
# From -- ./inp_files/456963.got.cif
#   From: 2010.05.17/outbox.cif.g08.bks.cpg/sg2_229_cif.got.tgz:456963.got - 2010.06.03 11:33:40.
