data_PCOD9005783
_publ_section_title
;
Structure prediction by ZEFSAII (Michael W. Deem and Ramdas Pophale) SiO2 
 PCOD9005783
Probable space group: P -1
;
_chemical_formula_sum "Si O2"
_cell_formula_units_Z 14
_cell_length_a 10.051893
_cell_length_b 10.709828
_cell_length_c 13.698274
_cell_angle_alpha 41.998788
_cell_angle_beta 47.266030
_cell_angle_gamma 76.653759
_cell_volume 602.202901
_symmetry_space_group_name_H-M "P -1"
_symmetry_group_IT_number 2
_symmetry_cell_setting 'triclinic'
loop_
_space_group_symop_operation_xyz
x,y,z
-x,-y,-z
loop_
_atom_site_type_symbol
_atom_site_label
_atom_site_fract_x
_atom_site_fract_y
_atom_site_fract_z
Si Si1 0.151860 0.717024 0.512093
Si Si2 0.682979 0.813340 0.767417
Si Si3 0.602102 0.930574 0.074691
Si Si4 0.597938 0.599586 0.137727
Si Si5 0.832104 0.728763 0.539953
Si Si6 0.233736 0.775931 0.003335
Si Si7 0.608331 0.897873 0.443247
O O1 0.391747 0.777157 0.338316
O O2 0.050681 0.746477 0.445217
O O3 0.178227 0.915601 0.451278
O O4 0.982016 0.462995 0.776141
O O5 0.736284 0.728024 0.694702
O O6 0.436789 0.748982 0.920663
O O7 0.709885 0.712785 0.912908
O O8 0.676817 0.782033 0.075537
O O9 0.776539 0.133865 0.937734
O O10 0.500000 0.000000 0.000000
O O11 0.340964 0.495876 0.302471
O O12 0.575229 0.371324 0.312227
O O13 0.810293 0.912134 0.388681
O O14 0.302043 0.968586 0.778648
O O15 0.500000 0.000000 0.500000
#
# Coordination Sequence:
#
# PCOD9005783 Si02
#       7
#     2   2   2   2   2   2   2
#     4  11  23  37  67  96 123 156 212 267 305 365
#     4  11  20  40  64  97 122 159 209 267 313 356
#     4  11  22  42  66  95 121 161 215 257 314 361
#     4  10  21  39  65  93 117 168 209 244 317 362
#     4  10  21  38  63  93 126 157 209 256 313 362
#     4  11  21  40  63  91 129 166 201 257 310 368
#     4  10  22  39  65  87 130 177 197 246 323 372
#
# _framework density 23.247978
#
# number of rings (size 3 to 8) (size 9 to 14) (size 15 to 20)
#    0.857    0.571    5.714    0.857    2.000    2.857 
#    0.000    4.286    0.000    0.000    0.000    0.000 
#    0.000    0.000    0.000    0.000    0.000    0.000 
#
# Total GULP energy -78187.695449 kJ/mol
# GULP energy per Si atom -5584.835389 kJ/mol
# Density = 2.319506 g / cm^3
# Si number density = 23.247978 Si / 1000 Ang^3
#
#
#
# Elastic Constant Matrix: (Units=GPa)
#
#
# Indices 1 2 3 4 5 6 
#
# 1 44.3020 14.0449 25.8982 -0.3087 18.8067 -0.3427
# 2 14.0449 112.9015 58.8636 -28.7394 13.7220 14.7350
# 3 25.8982 58.8636 131.3073 -28.8755 24.3061 5.0360
# 4 -0.3087 -28.7394 -28.8755 33.3005 -3.2143 -3.2501
# 5 18.8067 13.7220 24.3061 -3.2143 55.4289 -2.3437
# 6 -0.3427 14.7350 5.0360 -3.2501 -2.3437 27.9210
#
#
#
# Elastic Compliance Matrix: (Units=1/GPa)
#
#
# Indices 1 2 3 4 5 6 
#
# 1 0.029244 -0.001838 -0.004939 -0.006251 -0.007628 0.000852
# 2 -0.001838 0.013981 -0.003700 0.008173 -0.000989 -0.005865
# 3 -0.004939 -0.003700 0.012252 0.007190 -0.002350 0.000322
# 4 -0.006251 0.008173 0.007190 0.043134 -0.000584 -0.000715
# 5 -0.007628 -0.000989 -0.002350 -0.000584 0.021982 0.002630
# 6 0.000852 -0.005865 0.000322 -0.000715 0.002630 0.039001
#
#
# Mechanical properties :
#
#
# Convention : Reuss Voigt Hill
#
# Bulk Modulus (GPa) = 28.96618 54.01379 41.48998
# Shear Modulus (GPa) = 26.03422 35.97700 31.00561
#
# Velocity S-wave (km/s) = 3.35004 3.93814 3.65593
# Velocity P-wave (km/s) = 5.23932 6.63044 5.97550
#
# Compressibility (1/GPa) = 0.03452302
#
# Stress axis : x y z
#
# Youngs Moduli (GPa) = 34.19555 71.52558 81.61721
#
# Poissons Ratio (x) = 0.13147 0.40313
# Poissons Ratio (y) = 0.06285 0.30195
# Poissons Ratio (z) = 0.16890 0.26462
#
# Static dielectric constant tensor:
#      x y z
#    x 1.903730 0.000590 -0.035170 
#    y 0.000590 1.847610 -0.002580 
#    z -0.035170 -0.002580 1.960310 
# 
# From -- ./inp_files/517596.got.cif
#   From: 2010.05.17/outbox.cif.g08.bks.cpg/sg2_259_cif.got.tgz:517596.got - 2010.06.03 11:33:40.
