data_PCOD9005406
_publ_section_title
;
Structure prediction by ZEFSAII (Michael W. Deem and Ramdas Pophale) SiO2 
 PCOD9005406
Probable space group: P -1
;
_chemical_formula_sum "Si O2"
_cell_formula_units_Z 16
_cell_length_a 5.476932
_cell_length_b 6.940031
_cell_length_c 17.946339
_cell_angle_alpha 78.604410
_cell_angle_beta 69.566867
_cell_angle_gamma 74.304604
_cell_volume 611.352266
_symmetry_space_group_name_H-M "P -1"
_symmetry_group_IT_number 2
_symmetry_cell_setting 'triclinic'
loop_
_space_group_symop_operation_xyz
x,y,z
-x,-y,-z
loop_
_atom_site_type_symbol
_atom_site_label
_atom_site_fract_x
_atom_site_fract_y
_atom_site_fract_z
Si Si1 0.452378 0.198992 0.070217
Si Si2 0.320516 0.881002 0.377439
Si Si3 0.151774 0.200782 0.473700
Si Si4 0.206140 0.438582 0.585736
Si Si5 0.905816 0.360989 0.176159
Si Si6 0.380444 0.973673 0.786851
Si Si7 0.930435 0.343118 0.752838
Si Si8 0.550067 0.620120 0.095277
O O1 0.617490 0.040625 0.122595
O O2 0.497195 0.415796 0.078668
O O3 0.148185 0.205643 0.124127
O O4 0.489228 0.212379 0.977110
O O5 0.026519 0.888236 0.440302
O O6 0.535051 0.671697 0.385790
O O7 0.363869 0.971207 0.285127
O O8 0.382080 0.048736 0.417119
O O9 0.930134 0.328745 0.431167
O O10 0.265329 0.353678 0.502475
O O11 0.963624 0.365437 0.660067
O O12 0.671363 0.241089 0.219283
O O13 0.988754 0.460413 0.233796
O O14 0.834790 0.543755 0.109744
O O15 0.141403 0.148198 0.771813
O O16 0.651095 0.330347 0.818529
#
# Coordination Sequence:
#
# PCOD9005406 Si02
#       8
#     2   2   2   2   2   2   2   2
#     4   9  19  37  61  90 122 158 204 248 295 360
#     4  10  22  41  60  93 121 156 205 248 306 368
#     4  10  22  40  66  84 122 162 194 256 310 360
#     4  10  22  41  60  93 121 156 205 248 306 368
#     4  10  21  38  62  86 118 170 196 246 306 350
#     4  10  23  40  60  91 123 158 201 252 298 363
#     4  10  23  40  60  91 123 158 201 252 298 363
#     4   9  19  37  61  90 122 158 204 248 295 360
#
# _framework density 26.171491
#
# number of rings (size 3 to 8) (size 9 to 14) (size 15 to 20)
#    0.000    2.250    0.000    1.125    5.250    6.500 
#   11.250    1.250    0.000    0.000    0.000    0.000 
#    0.000    0.000    0.000    0.000    0.000    0.000 
#
# Total GULP energy -89389.233685 kJ/mol
# GULP energy per Si atom -5586.827105 kJ/mol
# Density = 2.611192 g / cm^3
# Si number density = 26.171491 Si / 1000 Ang^3
#
#
#
# Elastic Constant Matrix: (Units=GPa)
#
#
# Indices 1 2 3 4 5 6 
#
# 1 31.7570 8.7556 7.4274 -11.2431 11.5601 -8.6076
# 2 8.7556 93.2079 40.9250 -22.3711 0.4604 -9.5449
# 3 7.4274 40.9250 131.1772 -6.9448 16.2857 6.7961
# 4 -11.2431 -22.3711 -6.9448 46.2568 3.4764 2.1988
# 5 11.5601 0.4604 16.2857 3.4764 22.6311 -1.6538
# 6 -8.6076 -9.5449 6.7961 2.1988 -1.6538 36.8558
#
#
#
# Elastic Compliance Matrix: (Units=1/GPa)
#
#
# Indices 1 2 3 4 5 6 
#
# 1 0.048241 -0.000827 0.001082 0.013078 -0.026764 0.008872
# 2 -0.000827 0.014747 -0.004850 0.005769 0.003041 0.004312
# 3 0.001082 -0.004850 0.010264 0.000224 -0.008114 -0.003273
# 4 0.013078 0.005769 0.000224 0.028348 -0.011144 0.002316
# 5 -0.026764 0.003041 -0.008114 -0.011144 0.065320 -0.000371
# 6 0.008872 0.004312 -0.003273 0.002316 -0.000371 0.030770
#
#
# Mechanical properties :
#
#
# Convention : Reuss Voigt Hill
#
# Bulk Modulus (GPa) = 15.60972 41.15092 28.38032
# Shear Modulus (GPa) = 21.90731 34.41766 28.16249
#
# Velocity S-wave (km/s) = 2.89635 3.63034 3.28392
# Velocity P-wave (km/s) = 4.14276 5.77323 5.02457
#
# Compressibility (1/GPa) = 0.06406266
#
# Stress axis : x y z
#
# Youngs Moduli (GPa) = 20.72914 67.81018 97.43049
#
# Poissons Ratio (x) = 0.05610 -0.10543
# Poissons Ratio (y) = 0.01715 0.47249
# Poissons Ratio (z) = -0.02243 0.32885
#
# Static dielectric constant tensor:
#      x y z
#    x 2.207020 0.159820 0.034370 
#    y 0.159820 2.183850 0.025910 
#    z 0.034370 0.025910 2.000010 
# 
# From -- ./inp_files/56446.got.cif
#   From: 2010.05.17/outbox.cif.g08.bks.cpg/sg2_29_cif.got.tgz:56446.got - 2010.06.03 11:33:40.
