data_PCOD9005415
_publ_section_title
;
Structure prediction by ZEFSAII (Michael W. Deem and Ramdas Pophale) SiO2 
 PCOD9005415
Probable space group: P -1
;
_chemical_formula_sum "Si O2"
_cell_formula_units_Z 13
_cell_length_a 10.344915
_cell_length_b 11.768552
_cell_length_c 8.706783
_cell_angle_alpha 82.136979
_cell_angle_beta 48.175767
_cell_angle_gamma 46.166332
_cell_volume 453.841075
_symmetry_space_group_name_H-M "P -1"
_symmetry_group_IT_number 2
_symmetry_cell_setting 'triclinic'
loop_
_space_group_symop_operation_xyz
x,y,z
-x,-y,-z
loop_
_atom_site_type_symbol
_atom_site_label
_atom_site_fract_x
_atom_site_fract_y
_atom_site_fract_z
Si Si1 0.311567 0.708978 0.789939
Si Si2 0.659085 0.650682 0.733804
Si Si3 0.578456 0.345583 0.806106
Si Si4 0.809535 0.908904 0.964330
Si Si5 0.293827 0.285083 0.878369
Si Si6 0.500000 0.000000 0.500000
Si Si7 0.905416 0.887446 0.347997
O O1 0.567584 0.662957 0.630450
O O2 0.446320 0.515075 0.772085
O O3 0.140704 0.783248 0.750800
O O4 0.083264 0.862105 0.083595
O O5 0.000000 0.500000 0.500000
O O6 0.434471 0.869365 0.938315
O O7 0.587621 0.578427 0.911876
O O8 0.488531 0.276372 0.808225
O O9 0.924492 0.181664 0.614038
O O10 0.790311 0.786565 0.948531
O O11 0.707295 0.946611 0.212877
O O12 0.541777 0.109233 0.586688
O O13 0.000000 0.500000 0.000000
O O14 0.831586 0.797164 0.376505
#
# Coordination Sequence:
#
# PCOD9005415 Si02
#       7
#     2   2   2   2   2   1   2
#     4  10  21  41  67  90 122 165 217 252 312 376
#     4  11  25  37  63  97 126 156 211 272 318 353
#     4  11  23  40  64  94 128 165 213 255 311 383
#     4  10  21  38  62  86 130 161 205 256 316 363
#     4  11  22  38  63  95 124 168 213 253 309 380
#     4   8  18  32  64  88 110 158 206 246 302 360
#     4   9  19  35  60  92 119 158 207 258 302 355
#
# _framework density 28.644389
#
# number of rings (size 3 to 8) (size 9 to 14) (size 15 to 20)
#    0.000    1.846    1.538    2.769   10.769    1.846 
#    0.000    0.000    0.000    4.615    0.000    0.000 
#    0.000    0.000    0.000    0.000    0.000    0.000 
#
# Total GULP energy -72435.521905 kJ/mol
# GULP energy per Si atom -5571.963223 kJ/mol
# Density = 2.857919 g / cm^3
# Si number density = 28.644389 Si / 1000 Ang^3
#
#
#
# Elastic Constant Matrix: (Units=GPa)
#
#
# Indices 1 2 3 4 5 6 
#
# 1 192.2506 58.7756 48.5510 26.9330 -73.5672 17.9509
# 2 58.7756 169.4502 41.2258 39.0769 -28.6731 15.3964
# 3 48.5510 41.2258 122.6475 35.4562 -36.9334 -7.4326
# 4 26.9330 39.0769 35.4562 37.2539 -12.7482 -9.2643
# 5 -73.5672 -28.6731 -36.9334 -12.7482 75.8340 2.7718
# 6 17.9509 15.3964 -7.4326 -9.2643 2.7718 39.5429
#
#
#
# Elastic Compliance Matrix: (Units=1/GPa)
#
#
# Indices 1 2 3 4 5 6 
#
# 1 0.010102 -0.000039 0.000027 -0.005821 0.009060 -0.006564
# 2 -0.000039 0.009233 0.000243 -0.010746 0.001992 -0.006189
# 3 0.000027 0.000243 0.012467 -0.010783 0.004399 -0.000598
# 4 -0.005821 -0.010746 -0.010783 0.054901 -0.006394 0.018110
# 5 0.009060 0.001992 0.004399 -0.006394 0.024061 -0.007246
# 6 -0.006564 -0.006189 -0.000598 0.018110 -0.007246 0.035317
#
#
# Mechanical properties :
#
#
# Convention : Reuss Voigt Hill
#
# Bulk Modulus (GPa) = 30.99375 86.82812 58.91093
# Shear Modulus (GPa) = 31.97490 52.91255 42.44372
#
# Velocity S-wave (km/s) = 3.34469 4.30259 3.85352
# Velocity P-wave (km/s) = 5.07539 7.42033 6.35692
#
# Compressibility (1/GPa) = 0.03226457
#
# Stress axis : x y z
#
# Youngs Moduli (GPa) = 98.99312 108.30481 80.21328
#
# Poissons Ratio (x) = 0.00420 -0.00219
# Poissons Ratio (y) = 0.00384 -0.01949
# Poissons Ratio (z) = -0.00270 -0.02631
#
# Static dielectric constant tensor:
#      x y z
#    x 3.324820 0.301420 0.129370 
#    y 0.301420 2.459620 0.156400 
#    z 0.129370 0.156400 2.342310 
# 
# From -- ./inp_files/195561.got.cif
#   From: 2010.05.17/outbox.cif.g08.bks.cpg/sg2_98_cif.got.tgz:195561.got - 2010.06.03 11:33:40.
