data_PCOD9005950
_publ_section_title
;
Structure prediction by ZEFSAII (Michael W. Deem and Ramdas Pophale) SiO2 
 PCOD9005950
Probable space group: P -1
;
_chemical_formula_sum "Si O2"
_cell_formula_units_Z 14
_cell_length_a 5.691153
_cell_length_b 9.021735
_cell_length_c 14.945194
_cell_angle_alpha 129.252500
_cell_angle_beta 81.951338
_cell_angle_gamma 110.128002
_cell_volume 554.719403
_symmetry_space_group_name_H-M "P -1"
_symmetry_group_IT_number 2
_symmetry_cell_setting 'triclinic'
loop_
_space_group_symop_operation_xyz
x,y,z
-x,-y,-z
loop_
_atom_site_type_symbol
_atom_site_label
_atom_site_fract_x
_atom_site_fract_y
_atom_site_fract_z
Si Si1 0.336527 0.738147 0.836731
Si Si2 0.431275 0.375317 0.366017
Si Si3 0.868405 0.501622 0.882020
Si Si4 0.247455 0.036951 0.611097
Si Si5 0.282113 0.662620 0.373215
Si Si6 0.740424 0.860898 0.002035
Si Si7 0.731535 0.072387 0.729256
O O1 0.325596 0.598074 0.699360
O O2 0.593043 0.766492 0.884574
O O3 0.145311 0.640413 0.889999
O O4 0.351992 0.961960 0.888160
O O5 0.500000 0.500000 0.500000
O O6 0.245144 0.467463 0.360233
O O7 0.314099 0.135844 0.295188
O O8 0.778592 0.406719 0.751815
O O9 0.748414 0.668918 0.984965
O O10 0.803277 0.292138 0.859623
O O11 0.419224 0.202745 0.595844
O O12 0.464027 0.034970 0.674053
O O13 0.000953 0.089739 0.673202
O O14 0.164681 0.819122 0.483650
O O15 0.000000 0.000000 0.000000
#
# Coordination Sequence:
#
# PCOD9005950 Si02
#       7
#     2   2   2   2   2   2   2
#     4  10  21  39  68  94 125 166 221 275 320 393
#     4  12  24  40  60 100 139 179 205 268 333 402
#     4  10  21  38  68  93 122 170 225 278 316 388
#     4  10  23  42  60  90 128 186 223 270 302 402
#     4  10  21  38  64  89 131 174 232 259 324 376
#     4   9  19  40  68  96 116 158 230 279 322 370
#     4  11  25  40  61  94 140 171 221 263 339 382
#
# _framework density 25.237987
#
# number of rings (size 3 to 8) (size 9 to 14) (size 15 to 20)
#    0.000    1.714    2.857    0.857    4.000    6.857 
#    0.000    0.714    0.000    7.714    0.000    0.000 
#    0.000    0.000    0.000    0.000    0.000    0.000 
#
# Total GULP energy -78036.118579 kJ/mol
# GULP energy per Si atom -5574.008470 kJ/mol
# Density = 2.518054 g / cm^3
# Si number density = 25.237987 Si / 1000 Ang^3
#
#
#
# Elastic Constant Matrix: (Units=GPa)
#
#
# Indices 1 2 3 4 5 6 
#
# 1 93.3209 14.5380 26.5170 11.3865 -7.6558 -3.6161
# 2 14.5380 117.9252 24.8970 50.7539 -7.0910 -19.7232
# 3 26.5170 24.8970 80.5048 19.0694 -25.5810 -7.8399
# 4 11.3865 50.7539 19.0694 49.5714 -8.1842 -10.9757
# 5 -7.6558 -7.0910 -25.5810 -8.1842 38.0353 7.4107
# 6 -3.6161 -19.7232 -7.8399 -10.9757 7.4107 26.6998
#
#
#
# Elastic Compliance Matrix: (Units=1/GPa)
#
#
# Indices 1 2 3 4 5 6 
#
# 1 0.011911 -0.000211 -0.003706 -0.001158 -0.000383 0.000000
# 2 -0.000211 0.016114 -0.001584 -0.014930 -0.002478 0.005960
# 3 -0.003706 -0.001584 0.018143 -0.002854 0.010639 -0.000471
# 4 -0.001158 -0.014930 -0.002854 0.037885 0.002669 0.002810
# 5 -0.000383 -0.002478 0.010639 0.002669 0.034914 -0.007352
# 6 0.000000 0.005960 -0.000471 0.002810 -0.007352 0.044913
#
#
# Mechanical properties :
#
#
# Convention : Reuss Voigt Hill
#
# Bulk Modulus (GPa) = 28.43628 47.07279 37.75454
# Shear Modulus (GPa) = 26.79460 37.91455 32.35457
#
# Velocity S-wave (km/s) = 3.26187 3.88013 3.58436
# Velocity P-wave (km/s) = 5.04759 6.22623 5.66763
#
# Compressibility (1/GPa) = 0.03516634
#
# Stress axis : x y z
#
# Youngs Moduli (GPa) = 83.95338 62.05809 55.11830
#
# Poissons Ratio (x) = 0.01308 0.20425
# Poissons Ratio (y) = 0.01769 0.08733
# Poissons Ratio (z) = 0.31111 0.09832
#
# Static dielectric constant tensor:
#      x y z
#    x 2.093040 -0.014930 -0.021750 
#    y -0.014930 2.145400 0.003780 
#    z -0.021750 0.003780 2.019920 
# 
# From -- ./inp_files/27799.got.cif
#   From: 2010.05.17/outbox.cif.g08.bks.cpg/sg2_14_cif.got.tgz:27799.got - 2010.06.03 11:33:40.
