data_PCOD9005999
_publ_section_title
;
Structure prediction by ZEFSAII (Michael W. Deem and Ramdas Pophale) SiO2 
 PCOD9005999
Probable space group: P -1
;
_chemical_formula_sum "Si O2"
_cell_formula_units_Z 16
_cell_length_a 14.235508
_cell_length_b 16.341318
_cell_length_c 5.168068
_cell_angle_alpha 87.272503
_cell_angle_beta 82.587818
_cell_angle_gamma 31.416823
_cell_volume 616.878519
_symmetry_space_group_name_H-M "P -1"
_symmetry_group_IT_number 2
_symmetry_cell_setting 'triclinic'
loop_
_space_group_symop_operation_xyz
x,y,z
-x,-y,-z
loop_
_atom_site_type_symbol
_atom_site_label
_atom_site_fract_x
_atom_site_fract_y
_atom_site_fract_z
Si Si1 0.219754 0.327068 0.945746
Si Si2 0.798856 0.478334 0.120707
Si Si3 0.521129 0.108354 0.457980
Si Si4 0.169809 0.200988 0.289966
Si Si5 0.106308 0.748155 0.178423
Si Si6 0.705476 0.321192 0.381696
Si Si7 0.734907 0.024469 0.020540
Si Si8 0.591770 0.238719 0.625967
O O1 0.328859 0.235435 0.648140
O O2 0.260803 0.390792 0.999605
O O3 0.250121 0.220840 0.109184
O O4 0.000000 0.500000 0.000000
O O5 0.869115 0.365712 0.889717
O O6 0.614908 0.577337 0.288464
O O7 0.951196 0.380326 0.305998
O O8 0.566490 0.169402 0.510742
O O9 0.681254 0.927468 0.518296
O O10 0.563946 0.090944 0.145200
O O11 0.167621 0.111312 0.186048
O O12 0.168636 0.728190 0.441348
O O13 0.893522 0.923449 0.185030
O O14 0.225874 0.707050 0.924567
O O15 0.500000 0.500000 0.500000
O O16 0.705954 0.223278 0.445518
O O17 0.675707 0.150950 0.884651
#
# Coordination Sequence:
#
# PCOD9005999 Si02
#       8
#     2   2   2   2   2   2   2   2
#     4   9  18  37  65  94 132 169 222 278 333 404
#     4   9  19  40  63  94 126 177 215 283 329 405
#     4  10  21  38  64  91 129 177 214 278 336 407
#     4   9  19  38  63  92 130 169 220 274 335 402
#     4  11  26  44  70  98 139 178 230 278 341 399
#     4  12  26  44  71 102 134 180 228 285 335 404
#     4  10  24  40  62  95 132 176 221 275 341 402
#     4  10  23  40  63  91 134 170 228 273 342 391
#
# _framework density 25.937035999999999
#
# number of rings (size 3 to 8) (size 9 to 14) (size 15 to 20)
#    0.000    2.000    1.250    0.750    7.000    1.500 
#    0.000    1.250    0.000   10.500    0.000    0.000 
#    0.000    0.000    0.000    0.000    0.000    0.000 
#
# Total GULP energy -89261.984761 kJ/mol
# GULP energy per Si atom -5578.874048 kJ/mol
# Density = 2.587800 g / cm^3
# Si number density = 25.937036 Si / 1000 Ang^3
#
#
#
# Elastic Constant Matrix: (Units=GPa)
#
#
# Indices 1 2 3 4 5 6 
#
# 1 105.7391 28.6831 23.8265 -0.5443 -22.2515 10.0324
# 2 28.6831 140.4429 30.2446 -11.0784 -19.0962 -5.3117
# 3 23.8265 30.2446 80.2808 -3.9074 -42.8103 4.5234
# 4 -0.5443 -11.0784 -3.9074 30.1677 3.6725 -6.2097
# 5 -22.2515 -19.0962 -42.8103 3.6725 51.6745 -4.2761
# 6 10.0324 -5.3117 4.5234 -6.2097 -4.2761 41.1833
#
#
#
# Elastic Compliance Matrix: (Units=1/GPa)
#
#
# Indices 1 2 3 4 5 6 
#
# 1 0.011090 -0.001881 -0.000699 -0.001560 0.003385 -0.002751
# 2 -0.001881 0.008404 -0.002468 0.003183 0.000216 0.002316
# 3 -0.000699 -0.002468 0.023207 -0.000279 0.017960 -0.000874
# 4 -0.001560 0.003183 -0.000279 0.035707 -0.001766 0.006022
# 5 0.003385 0.000216 0.017960 -0.001766 0.035952 0.000697
# 6 -0.002751 0.002316 -0.000874 0.006022 0.000697 0.026327
#
#
# Mechanical properties :
#
#
# Convention : Reuss Voigt Hill
#
# Bulk Modulus (GPa) = 30.67017 54.66347 42.66682
# Shear Modulus (GPa) = 30.93075 40.85235 35.89155
#
# Velocity S-wave (km/s) = 3.45705 3.97301 3.72398
# Velocity P-wave (km/s) = 5.27119 6.49366 5.91410
#
# Compressibility (1/GPa) = 0.03260497
#
# Stress axis : x y z
#
# Youngs Moduli (GPa) = 90.16884 118.98911 43.09130
#
# Poissons Ratio (x) = 0.22387 0.03011
# Poissons Ratio (y) = 0.16964 0.10634
# Poissons Ratio (z) = 0.06300 0.29365
#
# Static dielectric constant tensor:
#      x y z
#    x 2.106840 -0.068190 0.030850 
#    y -0.068190 2.075680 0.057300 
#    z 0.030850 0.057300 2.450920 
# 
# From -- ./inp_files/99580.got.cif
#   From: 2010.05.17/outbox.cif.g08.bks.cpg/sg2_50_cif.got.tgz:99580.got - 2010.06.03 11:33:40.
