data_PCOD9005832
_publ_section_title
;
Structure prediction by ZEFSAII (Michael W. Deem and Ramdas Pophale) SiO2 
 PCOD9005832
Probable space group: P -1
;
_chemical_formula_sum "Si O2"
_cell_formula_units_Z 14
_cell_length_a 5.427820
_cell_length_b 11.628159
_cell_length_c 12.716321
_cell_angle_alpha 113.507580
_cell_angle_beta 104.550308
_cell_angle_gamma 50.118315
_cell_volume 564.763468
_symmetry_space_group_name_H-M "P -1"
_symmetry_group_IT_number 2
_symmetry_cell_setting 'triclinic'
loop_
_space_group_symop_operation_xyz
x,y,z
-x,-y,-z
loop_
_atom_site_type_symbol
_atom_site_label
_atom_site_fract_x
_atom_site_fract_y
_atom_site_fract_z
Si Si1 0.659200 0.614890 0.201985
Si Si2 0.740270 0.193507 0.218304
Si Si3 0.953390 0.867621 0.454181
Si Si4 0.282031 0.072057 0.900357
Si Si5 0.441507 0.742176 0.023455
Si Si6 0.658085 0.467821 0.696299
Si Si7 0.621978 0.030607 0.689724
O O1 0.648513 0.591044 0.067065
O O2 0.528434 0.537708 0.226297
O O3 0.417322 0.805990 0.268719
O O4 0.014089 0.554850 0.249368
O O5 0.572907 0.359836 0.317059
O O6 0.653411 0.079884 0.206309
O O7 0.614804 0.243192 0.102337
O O8 0.123393 0.081326 0.233425
O O9 0.746810 0.897003 0.338737
O O10 0.243069 0.683031 0.415336
O O11 0.773647 0.912110 0.562438
O O12 0.000000 0.000000 0.500000
O O13 0.377106 0.178889 0.904080
O O14 0.917714 0.170806 0.938437
O O15 0.500000 0.000000 0.000000
#
# Coordination Sequence:
#
# PCOD9005832 Si02
#       7
#     2   2   2   2   2   2   2
#     4  11  23  43  67  96 130 188 219 260 324 407
#     4  11  24  42  65 106 135 171 217 287 325 385
#     4  10  21  45  70  93 125 174 225 274 327 417
#     4  10  21  38  63  95 131 176 215 272 309 384
#     4  11  23  41  68  95 137 177 233 255 317 394
#     4  11  26  43  66  99 140 168 223 276 341 376
#     4  10  22  41  73  94 124 174 229 269 333 391
#
# _framework density 24.789141999999998
#
# number of rings (size 3 to 8) (size 9 to 14) (size 15 to 20)
#    0.000    1.429    2.857    2.571    0.000    5.143 
#    5.143    0.714    0.000    0.000    0.000    0.000 
#    0.000    0.000    0.000    0.000    0.000    0.000 
#
# Total GULP energy -78075.527928 kJ/mol
# GULP energy per Si atom -5576.823423 kJ/mol
# Density = 2.473272 g / cm^3
# Si number density = 24.789142 Si / 1000 Ang^3
#
#
#
# Elastic Constant Matrix: (Units=GPa)
#
#
# Indices 1 2 3 4 5 6 
#
# 1 138.2118 23.2341 13.4703 14.3873 7.8387 13.5459
# 2 23.2341 89.0649 26.0923 33.3128 2.0062 2.1182
# 3 13.4703 26.0923 70.3375 -1.7100 16.6326 6.2133
# 4 14.3873 33.3128 -1.7100 42.7377 6.0053 4.6807
# 5 7.8387 2.0062 16.6326 6.0053 33.6539 0.9813
# 6 13.5459 2.1182 6.2133 4.6807 0.9813 35.0757
#
#
#
# Elastic Compliance Matrix: (Units=1/GPa)
#
#
# Indices 1 2 3 4 5 6 
#
# 1 0.007977 -0.001426 -0.000489 -0.001119 -0.001252 -0.002724
# 2 -0.001426 0.020731 -0.009757 -0.017389 0.006929 0.003154
# 3 -0.000489 -0.009757 0.021301 0.010704 -0.011622 -0.004098
# 4 -0.001119 -0.017389 0.010704 0.039891 -0.010953 -0.005431
# 5 -0.001252 0.006929 -0.011622 -0.010953 0.037217 0.002544
# 6 -0.002724 0.003154 -0.004098 -0.005431 0.002544 0.030751
#
#
# Mechanical properties :
#
#
# Convention : Reuss Voigt Hill
#
# Bulk Modulus (GPa) = 37.50344 47.02306 42.26325
# Shear Modulus (GPa) = 26.30178 37.94797 32.12488
#
# Velocity S-wave (km/s) = 3.26086 3.91683 3.60380
# Velocity P-wave (km/s) = 5.41659 6.28218 5.86538
#
# Compressibility (1/GPa) = 0.02666422
#
# Stress axis : x y z
#
# Youngs Moduli (GPa) = 125.35838 48.23704 46.94622
#
# Poissons Ratio (x) = 0.06879 0.02297
# Poissons Ratio (y) = 0.17877 0.45806
# Poissons Ratio (z) = 0.06133 0.47066
#
# Static dielectric constant tensor:
#      x y z
#    x 2.044310 0.010290 -0.083460 
#    y 0.010290 1.974520 0.000580 
#    z -0.083460 0.000580 2.182350 
# 
# From -- ./inp_files/482291.got.cif
#   From: 2010.05.17/outbox.cif.g08.bks.cpg/sg2_242_cif.got.tgz:482291.got - 2010.06.03 11:33:40.
