data_PCOD9005197
_publ_section_title
;
Structure prediction by ZEFSAII (Michael W. Deem and Ramdas Pophale) SiO2 
 PCOD9005197
Probable space group: P -1
;
_chemical_formula_sum "Si O2"
_cell_formula_units_Z 12
_cell_length_a 9.396620
_cell_length_b 9.447149
_cell_length_c 12.406369
_cell_angle_alpha 117.940408
_cell_angle_beta 124.663550
_cell_angle_gamma 30.943755
_cell_volume 465.301795
_symmetry_space_group_name_H-M "P -1"
_symmetry_group_IT_number 2
_symmetry_cell_setting 'triclinic'
loop_
_space_group_symop_operation_xyz
x,y,z
-x,-y,-z
loop_
_atom_site_type_symbol
_atom_site_label
_atom_site_fract_x
_atom_site_fract_y
_atom_site_fract_z
Si Si1 0.044530 0.137796 0.622698
Si Si2 0.406727 0.237897 0.405660
Si Si3 0.347737 0.310555 0.955697
Si Si4 0.562660 0.567449 0.153521
Si Si5 0.027734 0.238507 0.881748
Si Si6 0.820971 0.941138 0.685240
O O1 0.974273 0.172509 0.731221
O O2 0.829943 0.439423 0.591709
O O3 0.390083 0.922257 0.671733
O O4 0.000000 0.000000 0.500000
O O5 0.728299 0.833589 0.649812
O O6 0.639402 0.096707 0.552361
O O7 0.297055 0.390839 0.839628
O O8 0.147523 0.311820 0.903946
O O9 0.247385 0.520145 0.073602
O O10 0.695550 0.021231 0.019049
O O11 0.822783 0.318023 0.256855
O O12 0.287012 0.846354 0.198703
O O13 0.500000 0.500000 0.000000
#
# Coordination Sequence:
#
# PCOD9005197 Si02
#       6
#     2   2   2   2   2   2
#     4  12  25  41  64  97 133 167 208 266 329 381
#     4  11  24  44  69  94 126 172 221 265 313 380
#     4  10  21  38  61  87 118 161 208 252 303 370
#     4  12  25  41  64  97 133 167 208 266 329 381
#     4  10  21  38  61  87 118 161 208 252 303 370
#     4  11  24  44  69  94 126 172 221 265 313 380
#
# _framework density 25.789712999999999
#
# number of rings (size 3 to 8) (size 9 to 14) (size 15 to 20)
#    0.000    1.000    0.000    7.000    0.000    9.333 
#    0.000    0.000    0.000    0.000    0.000    0.000 
#    0.000    0.000    0.000    0.000    0.000    0.000 
#
# Total GULP energy -67283.462182 kJ/mol
# GULP energy per Si atom -5606.955182 kJ/mol
# Density = 2.573101 g / cm^3
# Si number density = 25.789713 Si / 1000 Ang^3
#
#
#
# Elastic Constant Matrix: (Units=GPa)
#
#
# Indices 1 2 3 4 5 6 
#
# 1 65.3257 18.0912 -1.9167 3.2668 7.2425 12.3240
# 2 18.0912 119.3914 -6.0404 7.9113 -2.0089 7.4439
# 3 -1.9167 -6.0404 75.9936 10.7706 -2.0612 10.2566
# 4 3.2668 7.9113 10.7706 47.6448 1.3321 -1.9436
# 5 7.2425 -2.0089 -2.0612 1.3321 46.0787 4.1229
# 6 12.3240 7.4439 10.2566 -1.9436 4.1229 42.3270
#
#
#
# Elastic Compliance Matrix: (Units=1/GPa)
#
#
# Indices 1 2 3 4 5 6 
#
# 1 0.017145 -0.002219 0.000988 -0.001157 -0.002296 -0.004671
# 2 -0.002219 0.008980 0.001106 -0.001672 0.000961 -0.001372
# 3 0.000988 0.001106 0.014397 -0.003708 0.001024 -0.004241
# 4 -0.001157 -0.001672 -0.003708 0.022318 -0.000939 0.002646
# 5 -0.002296 0.000961 0.001024 -0.000939 0.022354 -0.001969
# 6 -0.004671 -0.001372 -0.004241 0.002646 -0.001969 0.026568
#
#
# Mechanical properties :
#
#
# Convention : Reuss Voigt Hill
#
# Bulk Modulus (GPa) = 24.83008 31.21987 28.02497
# Shear Modulus (GPa) = 39.86097 43.91521 41.88809
#
# Velocity S-wave (km/s) = 3.93570 4.13100 4.03453
# Velocity P-wave (km/s) = 5.50470 5.90638 5.70908
#
# Compressibility (1/GPa) = 0.04027374
#
# Stress axis : x y z
#
# Youngs Moduli (GPa) = 58.32637 111.35304 69.45658
#
# Poissons Ratio (x) = 0.24706 -0.06863
# Poissons Ratio (y) = 0.12941 -0.07682
# Poissons Ratio (z) = -0.05763 -0.12316
#
# Static dielectric constant tensor:
#      x y z
#    x 2.144850 0.076940 0.059800 
#    y 0.076940 1.967860 0.043740 
#    z 0.059800 0.043740 1.999230 
# 
# From -- ./inp_files/428766.got.cif
#   From: 2010.05.17/outbox.cif.g08.bks.cpg/sg2_215_cif.got.tgz:428766.got - 2010.06.03 11:33:40.
