data_PCOD9005096
_publ_section_title
;
Structure prediction by ZEFSAII (Michael W. Deem and Ramdas Pophale) SiO2 
 PCOD9005096
Probable space group: P -1
;
_chemical_formula_sum "Si O2"
_cell_formula_units_Z 16
_cell_length_a 17.638310
_cell_length_b 8.476085
_cell_length_c 8.927401
_cell_angle_alpha 50.382599
_cell_angle_beta 39.324188
_cell_angle_gamma 70.473401
_cell_volume 615.990701
_symmetry_space_group_name_H-M "P -1"
_symmetry_group_IT_number 2
_symmetry_cell_setting 'triclinic'
loop_
_space_group_symop_operation_xyz
x,y,z
-x,-y,-z
loop_
_atom_site_type_symbol
_atom_site_label
_atom_site_fract_x
_atom_site_fract_y
_atom_site_fract_z
Si Si1 0.492344 0.235042 0.382293
Si Si2 0.362978 0.415092 0.681542
Si Si3 0.960820 0.193130 0.862259
Si Si4 0.767923 0.553461 0.736538
Si Si5 0.901780 0.562785 0.927825
Si Si6 0.298704 0.075612 0.544649
Si Si7 0.637137 0.154617 0.681221
Si Si8 0.164775 0.685680 0.506647
O O1 0.383018 0.221306 0.677530
O O2 0.421471 0.244371 0.330026
O O3 0.500000 0.000000 0.500000
O O4 0.632192 0.401928 0.100791
O O5 0.500000 0.500000 0.500000
O O6 0.373509 0.608499 0.431428
O O7 0.221284 0.382615 0.977882
O O8 0.928265 0.358074 0.929796
O O9 0.084321 0.348762 0.490713
O O10 0.822748 0.057698 0.087183
O O11 0.000000 0.000000 0.000000
O O12 0.743583 0.773967 0.596759
O O13 0.783402 0.418917 0.646429
O O14 0.040545 0.738937 0.612667
O O15 0.873646 0.488827 0.190557
O O16 0.327298 0.892006 0.512583
O O17 0.730411 0.123554 0.683568
O O18 0.500000 0.000000 0.000000
#
# Coordination Sequence:
#
# PCOD9005096 Si02
#       8
#     2   2   2   2   2   2   2   2
#     4  12  26  41  59  83 121 168 213 248 300 360
#     4  11  23  41  62  81 118 167 207 249 302 367
#     4   9  18  33  62  93 125 150 192 250 316 362
#     4  10  21  38  60  91 122 156 198 254 309 360
#     4   9  17  34  58  91 119 160 198 247 307 365
#     4  11  19  36  60  94 121 149 198 248 308 366
#     4  11  20  33  59  94 122 153 197 253 308 361
#     4   9  17  32  59  87 124 153 195 247 306 355
#
# _framework density 25.974419999999999
#
# number of rings (size 3 to 8) (size 9 to 14) (size 15 to 20)
#    0.000    1.750    2.500    4.125    0.000    1.000 
#    0.000    0.625    0.000    3.750    0.000    0.000 
#    0.000    0.000    0.000    0.000    0.000    0.000 
#
# Total GULP energy -89113.321447 kJ/mol
# GULP energy per Si atom -5569.582590 kJ/mol
# Density = 2.591530 g / cm^3
# Si number density = 25.974420 Si / 1000 Ang^3
#
#
#
# Elastic Constant Matrix: (Units=GPa)
#
#
# Indices 1 2 3 4 5 6 
#
# 1 90.8606 35.4512 54.3353 11.1084 -50.1192 -9.4429
# 2 35.4512 95.7023 31.7312 34.6984 -9.5593 -6.0565
# 3 54.3353 31.7312 199.6305 19.8927 -49.3341 0.9015
# 4 11.1084 34.6984 19.8927 45.4431 -0.5312 -7.2631
# 5 -50.1192 -9.5593 -49.3341 -0.5312 60.9457 3.9022
# 6 -9.4429 -6.0565 0.9015 -7.2631 3.9022 26.2288
#
#
#
# Elastic Compliance Matrix: (Units=1/GPa)
#
#
# Indices 1 2 3 4 5 6 
#
# 1 0.024813 -0.006945 -0.001320 0.000813 0.017939 0.004931
# 2 -0.006945 0.016809 -0.000541 -0.011126 -0.003536 -0.001155
# 3 -0.001320 -0.000541 0.006824 -0.002552 0.004473 -0.002207
# 4 0.000813 -0.011126 -0.002552 0.032550 -0.003327 0.007320
# 5 0.017939 -0.003536 0.004473 -0.003327 0.034231 -0.000526
# 6 0.004931 -0.001155 -0.002207 0.007320 -0.000526 0.041816
#
#
# Mechanical properties :
#
#
# Convention : Reuss Voigt Hill
#
# Bulk Modulus (GPa) = 32.43199 69.91432 51.17316
# Shear Modulus (GPa) = 27.03689 44.16857 35.60273
#
# Velocity S-wave (km/s) = 3.22981 4.12814 3.70629
# Velocity P-wave (km/s) = 5.14024 7.04962 6.16925
#
# Compressibility (1/GPa) = 0.03083376
#
# Stress axis : x y z
#
# Youngs Moduli (GPa) = 40.30118 59.49310 146.53951
#
# Poissons Ratio (x) = 0.41317 0.19340
# Poissons Ratio (y) = 0.27988 0.07935
# Poissons Ratio (z) = 0.05319 0.03221
#
# Static dielectric constant tensor:
#      x y z
#    x 2.714980 -0.283450 -0.090780 
#    y -0.283450 2.320140 -0.077790 
#    z -0.090780 -0.077790 2.423670 
# 
# From -- ./inp_files/469823.got.cif
#   From: 2010.05.17/outbox.cif.g08.bks.cpg/sg2_235_cif.got.tgz:469823.got - 2010.06.03 11:33:40.
