data_PCOD9005017
_publ_section_title
;
Structure prediction by ZEFSAII (Michael W. Deem and Ramdas Pophale) SiO2 
 PCOD9005017
Probable space group: P -1
;
_chemical_formula_sum "Si O2"
_cell_formula_units_Z 14
_cell_length_a 21.822043
_cell_length_b 8.609782
_cell_length_c 17.919431
_cell_angle_alpha 132.940693
_cell_angle_beta 17.081903
_cell_angle_gamma 138.106886
_cell_volume 652.428109
_symmetry_space_group_name_H-M "P -1"
_symmetry_group_IT_number 2
_symmetry_cell_setting 'triclinic'
loop_
_space_group_symop_operation_xyz
x,y,z
-x,-y,-z
loop_
_atom_site_type_symbol
_atom_site_label
_atom_site_fract_x
_atom_site_fract_y
_atom_site_fract_z
Si Si1 0.471242 0.996675 0.122572
Si Si2 0.571018 0.810703 0.317017
Si Si3 0.906387 0.034546 0.726415
Si Si4 0.373947 0.538894 0.589523
Si Si5 0.390468 0.401794 0.294432
Si Si6 0.702303 0.515997 0.825150
Si Si7 0.088779 0.834427 0.063247
O O1 0.283122 0.733877 0.280324
O O2 0.422564 0.225404 0.259479
O O3 0.500000 0.000000 0.000000
O O4 0.699483 0.030702 0.914409
O O5 0.573649 0.661789 0.336173
O O6 0.384823 0.623449 0.416220
O O7 0.500000 0.000000 0.500000
O O8 0.799198 0.936048 0.044059
O O9 0.150827 0.232853 0.478202
O O10 0.896756 0.773661 0.661112
O O11 0.889245 0.107875 0.855997
O O12 0.500000 0.500000 0.500000
O O13 0.245299 0.697423 0.817778
O O14 0.167712 0.319478 0.718511
O O15 0.596799 0.501038 0.026237
O O16 0.500000 0.500000 0.000000
#
# Coordination Sequence:
#
# PCOD9005017 Si02
#       7
#     2   2   2   2   2   2   2
#     4   9  22  39  59  89 119 150 200 250 291 351
#     4  10  21  39  61  88 122 156 198 241 294 357
#     4  11  21  37  65  87 118 161 195 237 308 352
#     4  10  22  39  61  86 120 154 200 246 294 346
#     4  11  21  39  63  87 121 156 197 248 294 350
#     4   9  20  39  60  87 117 154 196 245 296 352
#     4  10  21  38  60  87 119 158 196 242 293 357
#
# _framework density 21.458303999999998
#
# number of rings (size 3 to 8) (size 9 to 14) (size 15 to 20)
#    0.000    2.000    2.857    0.000    2.000    6.286 
#    0.000    7.143    0.000    0.000    0.000    0.000 
#    0.000    0.000    0.000    0.000    0.000    0.000 
#
# Total GULP energy -77991.687800 kJ/mol
# GULP energy per Si atom -5570.834843 kJ/mol
# Density = 2.140946 g / cm^3
# Si number density = 21.458304 Si / 1000 Ang^3
#
#
#
# Elastic Constant Matrix: (Units=GPa)
#
#
# Indices 1 2 3 4 5 6 
#
# 1 143.4180 31.3484 37.4934 -1.9198 -9.3998 -8.4162
# 2 31.3484 112.8398 18.8403 -12.6871 -4.8725 4.9746
# 3 37.4934 18.8403 50.8772 -2.4575 -5.3369 -8.0318
# 4 -1.9198 -12.6871 -2.4575 19.2274 -6.4484 10.6534
# 5 -9.3998 -4.8725 -5.3369 -6.4484 42.5098 3.2594
# 6 -8.4162 4.9746 -8.0318 10.6534 3.2594 23.2516
#
#
#
# Elastic Compliance Matrix: (Units=1/GPa)
#
#
# Indices 1 2 3 4 5 6 
#
# 1 0.009016 -0.001974 -0.005533 -0.002547 0.000466 0.002876
# 2 -0.001974 0.012595 -0.004028 0.015897 0.003881 -0.012628
# 3 -0.005533 -0.004028 0.026632 -0.005743 -0.000033 0.010694
# 4 -0.002547 0.015897 -0.005743 0.097932 0.019528 -0.053914
# 5 0.000466 0.003881 -0.000033 0.019528 0.028069 -0.013555
# 6 0.002876 -0.012628 0.010694 -0.053914 -0.013555 0.077047
#
#
# Mechanical properties :
#
#
# Convention : Reuss Voigt Hill
#
# Bulk Modulus (GPa) = 39.72624 53.61104 46.66864
# Shear Modulus (GPa) = 17.68335 31.62795 24.65565
#
# Velocity S-wave (km/s) = 2.87379 3.84334 3.39337
# Velocity P-wave (km/s) = 5.43737 6.68828 6.09500
#
# Compressibility (1/GPa) = 0.02517228
#
# Stress axis : x y z
#
# Youngs Moduli (GPa) = 110.91587 79.39834 37.54895
#
# Poissons Ratio (x) = 0.15672 0.20777
# Poissons Ratio (y) = 0.21893 0.15124
# Poissons Ratio (z) = 0.61374 0.31981
#
# Static dielectric constant tensor:
#      x y z
#    x 1.766900 0.025820 0.039500 
#    y 0.025820 1.919590 -0.004030 
#    z 0.039500 -0.004030 1.824100 
# 
# From -- ./inp_files/98175.got.cif
#   From: 2010.05.17/outbox.cif.g08.bks.cpg/sg2_50_cif.got.tgz:98175.got - 2010.06.03 11:33:40.
