data_PCOD9005824
_publ_section_title
;
Structure prediction by ZEFSAII (Michael W. Deem and Ramdas Pophale) SiO2 
 PCOD9005824
Probable space group: P -1
;
_chemical_formula_sum "Si O2"
_cell_formula_units_Z 16
_cell_length_a 18.879569
_cell_length_b 8.492414
_cell_length_c 8.500536
_cell_angle_alpha 105.254140
_cell_angle_beta 134.486025
_cell_angle_gamma 51.346825
_cell_volume 721.093277
_symmetry_space_group_name_H-M "P -1"
_symmetry_group_IT_number 2
_symmetry_cell_setting 'triclinic'
loop_
_space_group_symop_operation_xyz
x,y,z
-x,-y,-z
loop_
_atom_site_type_symbol
_atom_site_label
_atom_site_fract_x
_atom_site_fract_y
_atom_site_fract_z
Si Si1 0.851203 0.928215 0.763769
Si Si2 0.750381 0.584596 0.801807
Si Si3 0.565138 0.309013 0.881884
Si Si4 0.286578 0.728478 0.626827
Si Si5 0.617752 0.015021 0.598925
Si Si6 0.930735 0.270202 0.718717
Si Si7 0.016352 0.491279 0.709382
Si Si8 0.578140 0.559556 0.730346
O O1 0.932033 0.724407 0.720520
O O2 0.766146 0.136881 0.579730
O O3 0.755327 0.918315 0.713148
O O4 0.947131 0.914217 0.034099
O O5 0.834986 0.443722 0.748062
O O6 0.702568 0.485679 0.808303
O O7 0.629367 0.814827 0.609726
O O8 0.837354 0.613869 0.048661
O O9 0.411751 0.482184 0.723232
O O10 0.599392 0.142681 0.759930
O O11 0.600834 0.451151 0.903226
O O12 0.652314 0.201786 0.143535
O O13 0.160217 0.771171 0.510712
O O14 0.513977 0.185720 0.353900
O O15 0.976212 0.364263 0.697314
O O16 0.000000 0.500000 0.500000
O O17 0.500000 0.500000 0.500000
#
# Coordination Sequence:
#
# PCOD9005824 Si02
#       8
#     2   2   2   2   2   2   2   2
#     4  11  22  42  66  92 125 169 217 264 312 382
#     4  11  22  40  68  92 127 167 217 259 316 379
#     4  10  24  41  62  94 135 169 207 266 321 373
#     4  11  24  42  63  94 133 170 210 266 322 373
#     4  11  20  40  66  94 127 166 215 260 307 389
#     4  11  22  43  65  94 124 171 216 264 314 381
#     4  11  25  43  64  93 130 166 209 269 324 375
#     4  10  21  38  63  95 126 167 209 259 311 377
#
# _framework density 22.188531000000001
#
# number of rings (size 3 to 8) (size 9 to 14) (size 15 to 20)
#    0.000    1.250    3.750    3.000    5.250    0.000 
#    0.000    1.250    0.000    4.500    0.000    0.000 
#    0.000    0.000    0.000    0.000    0.000    0.000 
#
# Total GULP energy -89410.223686 kJ/mol
# GULP energy per Si atom -5588.138980 kJ/mol
# Density = 2.213803 g / cm^3
# Si number density = 22.188531 Si / 1000 Ang^3
#
#
#
# Elastic Constant Matrix: (Units=GPa)
#
#
# Indices 1 2 3 4 5 6 
#
# 1 134.9662 9.9534 45.3545 7.3614 12.2606 17.8790
# 2 9.9534 47.9144 24.6451 -5.7848 -0.9081 -3.0292
# 3 45.3545 24.6451 131.2351 -7.4124 1.2915 6.4596
# 4 7.3614 -5.7848 -7.4124 25.8060 3.4183 -1.3684
# 5 12.2606 -0.9081 1.2915 3.4183 26.0904 5.5991
# 6 17.8790 -3.0292 6.4596 -1.3684 5.5991 36.8850
#
#
#
# Elastic Compliance Matrix: (Units=1/GPa)
#
#
# Indices 1 2 3 4 5 6 
#
# 1 0.009506 -0.001143 -0.003057 -0.003645 -0.003054 -0.003838
# 2 -0.001143 0.023952 -0.004006 0.004692 0.000233 0.003361
# 3 -0.003057 -0.004006 0.009597 0.002625 0.000590 -0.000520
# 4 -0.003645 0.004692 0.002625 0.042425 -0.004665 0.003974
# 5 -0.003054 0.000233 0.000590 -0.004665 0.041441 -0.005067
# 6 -0.003838 0.003361 -0.000520 0.003974 -0.005067 0.030255
#
#
# Mechanical properties :
#
#
# Convention : Reuss Voigt Hill
#
# Bulk Modulus (GPa) = 37.53409 52.66909 45.10159
# Shear Modulus (GPa) = 27.40211 33.36714 30.38463
#
# Velocity S-wave (km/s) = 3.51802 3.88209 3.70453
# Velocity P-wave (km/s) = 5.78400 6.62441 6.21842
#
# Compressibility (1/GPa) = 0.02664245
#
# Stress axis : x y z
#
# Youngs Moduli (GPa) = 105.20149 41.75077 104.20060
#
# Poissons Ratio (x) = 0.04770 0.31859
# Poissons Ratio (y) = 0.12020 0.41741
# Poissons Ratio (z) = 0.32165 0.16725
#
# Static dielectric constant tensor:
#      x y z
#    x 1.852260 0.010830 0.031750 
#    y 0.010830 1.855250 -0.018160 
#    z 0.031750 -0.018160 1.848220 
# 
# From -- ./inp_files/225308.got.cif
#   From: 2010.05.17/outbox.cif.g08.bks.cpg/sg2_113_cif.got.tgz:225308.got - 2010.06.03 11:33:40.
