data_PCOD9005611
_publ_section_title
;
Structure prediction by ZEFSAII (Michael W. Deem and Ramdas Pophale) SiO2 
 PCOD9005611
Probable space group: P -1
;
_chemical_formula_sum "Si O2"
_cell_formula_units_Z 16
_cell_length_a 10.358380
_cell_length_b 5.533555
_cell_length_c 18.489495
_cell_angle_alpha 50.963200
_cell_angle_beta 133.561911
_cell_angle_gamma 112.655666
_cell_volume 594.255025
_symmetry_space_group_name_H-M "P -1"
_symmetry_group_IT_number 2
_symmetry_cell_setting 'triclinic'
loop_
_space_group_symop_operation_xyz
x,y,z
-x,-y,-z
loop_
_atom_site_type_symbol
_atom_site_label
_atom_site_fract_x
_atom_site_fract_y
_atom_site_fract_z
Si Si1 0.552984 0.492407 0.910764
Si Si2 0.259136 0.998480 0.569293
Si Si3 0.914847 0.964049 0.663291
Si Si4 0.775473 0.603781 0.265121
Si Si5 0.432840 0.862682 0.424635
Si Si6 0.204443 0.687266 0.099905
Si Si7 0.892178 0.580695 0.093781
Si Si8 0.549420 0.774999 0.284746
O O1 0.369196 0.323709 0.868445
O O2 0.681183 0.435308 0.901291
O O3 0.481786 0.855012 0.811543
O O4 0.699255 0.442907 0.039146
O O5 0.166517 0.763395 0.631252
O O6 0.165463 0.004116 0.454396
O O7 0.470595 0.948461 0.635201
O O8 0.300198 0.289213 0.582459
O O9 0.998237 0.605004 0.766685
O O10 0.775021 0.057023 0.656828
O O11 0.071125 0.178950 0.702544
O O12 0.647492 0.639591 0.278199
O O13 0.500000 0.500000 0.500000
O O14 0.500000 0.000000 0.500000
O O15 0.346304 0.677808 0.224562
O O16 0.029335 0.530473 0.087906
O O17 0.144544 0.047682 0.988707
#
# Coordination Sequence:
#
# PCOD9005611 Si02
#       8
#     2   2   2   2   2   2   2   2
#     4   9  19  40  62  93 125 177 224 273 345 411
#     4  10  23  43  68  93 134 182 229 274 350 416
#     4  11  25  43  64 104 137 173 231 291 344 417
#     4  10  22  43  66  96 135 180 233 277 342 417
#     4  10  25  48  68 100 142 182 231 295 355 410
#     4   9  19  39  64  91 131 171 227 279 341 419
#     4  10  21  38  62  97 132 171 223 280 351 403
#     4   9  20  36  69  90 127 183 227 279 331 420
#
# _framework density 26.924468000000001
#
# number of rings (size 3 to 8) (size 9 to 14) (size 15 to 20)
#    0.000    2.250    0.000    0.750    8.750    2.000 
#   13.500    5.625    0.000    0.000    0.000    0.000 
#    0.000    0.000    0.000    0.000    0.000    0.000 
#
# Total GULP energy -89284.706161 kJ/mol
# GULP energy per Si atom -5580.294135 kJ/mol
# Density = 2.686319 g / cm^3
# Si number density = 26.924468 Si / 1000 Ang^3
#
#
#
# Elastic Constant Matrix: (Units=GPa)
#
#
# Indices 1 2 3 4 5 6 
#
# 1 74.7276 32.6480 17.1621 4.5057 16.7672 14.9006
# 2 32.6480 102.3251 54.5670 12.1438 18.7296 13.3459
# 3 17.1621 54.5670 131.7426 6.7588 15.5286 14.3685
# 4 4.5057 12.1438 6.7588 51.6766 -0.0951 13.6088
# 5 16.7672 18.7296 15.5286 -0.0951 34.5815 8.5386
# 6 14.9006 13.3459 14.3685 13.6088 8.5386 50.7703
#
#
#
# Elastic Compliance Matrix: (Units=1/GPa)
#
#
# Indices 1 2 3 4 5 6 
#
# 1 0.016969 -0.004354 0.000552 0.000298 -0.005333 -0.003175
# 2 -0.004354 0.014787 -0.005007 -0.002470 -0.003678 0.000089
# 3 0.000552 -0.005007 0.009934 0.000203 -0.001663 -0.001432
# 4 0.000298 -0.002470 0.000203 0.021373 0.002557 -0.005655
# 5 -0.005333 -0.003678 -0.001663 0.002557 0.035135 -0.003592
# 6 -0.003175 0.000089 -0.001432 -0.005655 -0.003592 0.023130
#
#
# Mechanical properties :
#
#
# Convention : Reuss Voigt Hill
#
# Bulk Modulus (GPa) = 41.53970 57.50552 49.52261
# Shear Modulus (GPa) = 34.02067 41.03357 37.52712
#
# Velocity S-wave (km/s) = 3.55851 3.90811 3.73740
# Velocity P-wave (km/s) = 5.68733 6.46289 6.08747
#
# Compressibility (1/GPa) = 0.02407336
#
# Stress axis : x y z
#
# Youngs Moduli (GPa) = 58.93125 67.62811 100.66267
#
# Poissons Ratio (x) = 0.29444 -0.05560
# Poissons Ratio (y) = 0.25658 0.50400
# Poissons Ratio (z) = -0.03255 0.33860
#
# Static dielectric constant tensor:
#      x y z
#    x 6.445810 0.389630 16.955150 
#    y 0.389630 2.306210 1.921710 
#    z 16.955150 1.921710 69.016190 
# 
# From -- ./inp_files/592663.got.cif
#   From: 2010.05.17/outbox.cif.g08.bks.cpg/sg2_297_cif.got.tgz:592663.got - 2010.06.03 11:33:40.
