data_PCOD9005520
_publ_section_title
;
Structure prediction by ZEFSAII (Michael W. Deem and Ramdas Pophale) SiO2 
 PCOD9005520
Probable space group: P -1
;
_chemical_formula_sum "Si O2"
_cell_formula_units_Z 16
_cell_length_a 14.238224
_cell_length_b 9.562848
_cell_length_c 7.874929
_cell_angle_alpha 50.441704
_cell_angle_beta 93.478245
_cell_angle_gamma 119.701805
_cell_volume 664.013280
_symmetry_space_group_name_H-M "P -1"
_symmetry_group_IT_number 2
_symmetry_cell_setting 'triclinic'
loop_
_space_group_symop_operation_xyz
x,y,z
-x,-y,-z
loop_
_atom_site_type_symbol
_atom_site_label
_atom_site_fract_x
_atom_site_fract_y
_atom_site_fract_z
Si Si1 0.056898 0.579537 0.132753
Si Si2 0.719881 0.557689 0.506685
Si Si3 0.951409 0.082010 0.575685
Si Si4 0.661685 0.375917 0.175059
Si Si5 0.700024 0.762207 0.677059
Si Si6 0.675368 0.159639 0.010797
Si Si7 0.100682 0.283284 0.889116
Si Si8 0.498570 0.727262 0.474364
O O1 0.996761 0.673641 0.155905
O O2 0.000000 0.500000 0.000000
O O3 0.195591 0.772246 0.996315
O O4 0.029467 0.350778 0.385410
O O5 0.743052 0.684307 0.586848
O O6 0.828168 0.683307 0.296709
O O7 0.605619 0.509045 0.438908
O O8 0.686876 0.313356 0.740137
O O9 0.818154 0.988581 0.584840
O O10 0.941938 0.948123 0.845282
O O11 0.000000 0.000000 0.500000
O O12 0.641888 0.232588 0.120068
O O13 0.796965 0.516373 0.133858
O O14 0.579876 0.241513 0.429194
O O15 0.649184 0.571202 0.963716
O O16 0.597714 0.760879 0.583181
O O17 0.571354 0.898046 0.195772
#
# Coordination Sequence:
#
# PCOD9005520 Si02
#       8
#     2   2   2   2   2   2   2   2
#     4  12  21  39  68  94 125 157 211 263 304 368
#     4  10  23  43  58  85 133 164 197 254 313 371
#     4  11  21  39  66  93 123 160 206 261 312 359
#     4   9  19  37  60  89 121 154 202 263 305 358
#     4  10  21  38  62  92 120 162 206 249 316 371
#     4  11  22  39  59  91 122 164 204 249 313 368
#     4  10  22  40  64  91 127 163 203 258 314 365
#     4  11  21  36  63  89 121 161 210 250 305 373
#
# _framework density 24.095904999999998
#
# number of rings (size 3 to 8) (size 9 to 14) (size 15 to 20)
#    0.000    1.500    2.500    3.750    0.000    0.500 
#    2.250    2.500    0.000    0.000    0.000    0.000 
#    0.000    0.000    0.000    0.000    0.000    0.000 
#
# Total GULP energy -89529.778959 kJ/mol
# GULP energy per Si atom -5595.611185 kJ/mol
# Density = 2.404106 g / cm^3
# Si number density = 24.095905 Si / 1000 Ang^3
#
#
#
# Elastic Constant Matrix: (Units=GPa)
#
#
# Indices 1 2 3 4 5 6 
#
# 1 115.4738 18.6847 54.0683 -12.2013 -13.7948 21.9944
# 2 18.6847 60.1747 23.9547 -7.0804 -13.4466 17.6369
# 3 54.0683 23.9547 155.5860 0.8007 -29.5023 -6.8093
# 4 -12.2013 -7.0804 0.8007 33.4943 4.6608 -4.3846
# 5 -13.7948 -13.4466 -29.5023 4.6608 36.1683 -0.3904
# 6 21.9944 17.6369 -6.8093 -4.3846 -0.3904 42.1543
#
#
#
# Elastic Compliance Matrix: (Units=1/GPa)
#
#
# Indices 1 2 3 4 5 6 
#
# 1 0.012604 0.000662 -0.004693 0.003808 0.000657 -0.007209
# 2 0.000662 0.022030 -0.003019 0.002936 0.005497 -0.009694
# 3 -0.004693 -0.003019 0.009797 -0.002681 0.005480 0.005066
# 4 0.003808 0.002936 -0.002681 0.032419 -0.003824 -0.000312
# 5 0.000657 0.005497 0.005480 -0.003824 0.034886 -0.001832
# 6 -0.007209 -0.009694 0.005066 -0.000312 -0.001832 0.032308
#
#
# Mechanical properties :
#
#
# Convention : Reuss Voigt Hill
#
# Bulk Modulus (GPa) = 32.96769 58.29442 45.63106
# Shear Modulus (GPa) = 29.71704 37.99849 33.85777
#
# Velocity S-wave (km/s) = 3.51562 3.97541 3.75257
# Velocity P-wave (km/s) = 5.49464 6.73180 6.14443
#
# Compressibility (1/GPa) = 0.03033273
#
# Stress axis : x y z
#
# Youngs Moduli (GPa) = 79.33958 45.39362 102.06749
#
# Poissons Ratio (x) = -0.03007 0.47896
# Poissons Ratio (y) = -0.05255 0.30813
# Poissons Ratio (z) = 0.37230 0.13704
#
# Static dielectric constant tensor:
#      x y z
#    x 1.919460 0.015090 0.054730 
#    y 0.015090 1.935630 -0.005650 
#    z 0.054730 -0.005650 1.943760 
# 
# From -- ./inp_files/306266.got.cif
#   From: 2010.05.17/outbox.cif.g08.bks.cpg/sg2_154_cif.got.tgz:306266.got - 2010.06.03 11:33:40.
