data_PCOD9005380
_publ_section_title
;
Structure prediction by ZEFSAII (Michael W. Deem and Ramdas Pophale) SiO2 
 PCOD9005380
Probable space group: P -1
;
_chemical_formula_sum "Si O2"
_cell_formula_units_Z 12
_cell_length_a 9.517994
_cell_length_b 11.379088
_cell_length_c 5.181379
_cell_angle_alpha 77.081930
_cell_angle_beta 100.349567
_cell_angle_gamma 105.679140
_cell_volume 522.350969
_symmetry_space_group_name_H-M "P -1"
_symmetry_group_IT_number 2
_symmetry_cell_setting 'triclinic'
loop_
_space_group_symop_operation_xyz
x,y,z
-x,-y,-z
loop_
_atom_site_type_symbol
_atom_site_label
_atom_site_fract_x
_atom_site_fract_y
_atom_site_fract_z
Si Si1 0.921499 0.539943 0.710196
Si Si2 0.348778 0.214590 0.073551
Si Si3 0.830262 0.019123 0.617615
Si Si4 0.103817 0.199621 0.601354
Si Si5 0.602076 0.540133 0.757153
Si Si6 0.570365 0.078019 0.232401
O O1 0.939940 0.686694 0.607060
O O2 0.747757 0.493389 0.752711
O O3 0.000000 0.500000 0.500000
O O4 0.000000 0.500000 0.000000
O O5 0.270035 0.069905 0.164127
O O6 0.346012 0.311392 0.252016
O O7 0.518325 0.205792 0.114481
O O8 0.249294 0.248894 0.796972
O O9 0.875017 0.908961 0.526866
O O10 0.740024 0.085448 0.354314
O O11 0.958947 0.121852 0.742470
O O12 0.500000 0.500000 0.500000
O O13 0.500000 0.500000 0.000000
O O14 0.500000 0.000000 0.500000
O O15 0.500000 0.000000 0.000000
#
# Coordination Sequence:
#
# PCOD9005380 Si02
#       6
#     2   2   2   2   2   2
#     4  12  27  50  74 105 149 195 252 315 367 431
#     4  11  22  43  70  99 151 187 237 307 370 442
#     4  10  22  39  69 106 142 184 235 294 373 444
#     4  11  22  42  71 103 141 190 239 296 371 445
#     4  12  27  47  75 105 141 200 256 302 368 441
#     4  10  21  38  61  99 138 180 224 282 354 430
#
# _framework density 22.97306
#
# number of rings (size 3 to 8) (size 9 to 14) (size 15 to 20)
#    0.000    1.000    3.333    3.500    0.000    2.667 
#    0.000    1.667    0.000    0.000    0.000    0.000 
#    0.000    0.000    0.000    0.000    0.000    0.000 
#
# Total GULP energy -66828.917469 kJ/mol
# GULP energy per Si atom -5569.076456 kJ/mol
# Density = 2.292077 g / cm^3
# Si number density = 22.973060 Si / 1000 Ang^3
#
#
#
# Elastic Constant Matrix: (Units=GPa)
#
#
# Indices 1 2 3 4 5 6 
#
# 1 143.1981 63.7365 70.3162 -5.0921 4.5522 -23.0697
# 2 63.7365 92.2406 56.2148 1.8396 22.5348 -17.2408
# 3 70.3162 56.2148 169.7035 8.6950 20.0731 -11.0351
# 4 -5.0921 1.8396 8.6950 38.2206 -11.9589 -6.7752
# 5 4.5522 22.5348 20.0731 -11.9589 50.1791 -9.8505
# 6 -23.0697 -17.2408 -11.0351 -6.7752 -9.8505 47.3745
#
#
#
# Elastic Compliance Matrix: (Units=1/GPa)
#
#
# Indices 1 2 3 4 5 6 
#
# 1 0.012720 -0.007283 -0.003513 0.005478 0.005751 0.004705
# 2 -0.007283 0.019383 -0.002227 -0.003716 -0.007878 0.000819
# 3 -0.003513 -0.002227 0.008552 -0.003652 -0.003314 -0.001741
# 4 0.005478 -0.003716 -0.003652 0.033024 0.012012 0.007685
# 5 0.005751 -0.007878 -0.003314 0.012012 0.028468 0.006799
# 6 0.004705 0.000819 -0.001741 0.007685 0.006799 0.025805
#
#
# Mechanical properties :
#
#
# Convention : Reuss Voigt Hill
#
# Bulk Modulus (GPa) = 68.45670 87.29745 77.87708
# Shear Modulus (GPa) = 31.47271 41.47983 36.47627
#
# Velocity S-wave (km/s) = 3.70534 4.25383 3.98902
# Velocity P-wave (km/s) = 6.94042 7.88728 7.42895
#
# Compressibility (1/GPa) = 0.01460777
#
# Stress axis : x y z
#
# Youngs Moduli (GPa) = 78.61675 51.59137 116.93269
#
# Poissons Ratio (x) = 0.37576 0.41077
# Poissons Ratio (y) = 0.57259 0.26046
# Poissons Ratio (z) = 0.27617 0.11491
#
# Static dielectric constant tensor:
#      x y z
#    x 2.189890 -0.015260 -0.063580 
#    y -0.015260 1.817940 -0.062980 
#    z -0.063580 -0.062980 1.873430 
# 
# From -- ./inp_files/19199.got.cif
#   From: 2010.05.17/outbox.cif.g08.bks.cpg/sg2_10_cif.got.tgz:19199.got - 2010.06.03 11:33:40.
