data_PCOD9005656
_publ_section_title
;
Structure prediction by ZEFSAII (Michael W. Deem and Ramdas Pophale) SiO2 
 PCOD9005656
Probable space group: P -1
;
_chemical_formula_sum "Si O2"
_cell_formula_units_Z 14
_cell_length_a 9.585138
_cell_length_b 5.038670
_cell_length_c 19.387652
_cell_angle_alpha 128.021003
_cell_angle_beta 50.965637
_cell_angle_gamma 128.224562
_cell_volume 530.650552
_symmetry_space_group_name_H-M "P -1"
_symmetry_group_IT_number 2
_symmetry_cell_setting 'triclinic'
loop_
_space_group_symop_operation_xyz
x,y,z
-x,-y,-z
loop_
_atom_site_type_symbol
_atom_site_label
_atom_site_fract_x
_atom_site_fract_y
_atom_site_fract_z
Si Si1 0.963999 0.786144 0.608193
Si Si2 0.898427 0.477423 0.954110
Si Si3 0.657858 0.043475 0.302373
Si Si4 0.277495 0.917179 0.865275
Si Si5 0.397665 0.273613 0.594842
Si Si6 0.394881 0.771723 0.097381
Si Si7 0.109076 0.533066 0.277095
O O1 0.175883 0.050594 0.609250
O O2 0.000000 0.500000 0.500000
O O3 0.849105 0.618322 0.687443
O O4 0.879847 0.060255 0.643623
O O5 0.722590 0.161212 0.920468
O O6 0.085014 0.558057 0.860121
O O7 0.570648 0.103949 0.129158
O O8 0.000000 0.500000 0.000000
O O9 0.633204 0.950158 0.215143
O O10 0.584614 0.714250 0.325739
O O11 0.888109 0.270191 0.282377
O O12 0.551279 0.331298 0.390424
O O13 0.188023 0.207838 0.965924
O O14 0.500000 0.000000 0.500000
O O15 0.244489 0.587082 0.176648
O O16 0.500000 0.500000 0.000000
#
# Coordination Sequence:
#
# PCOD9005656 Si02
#       7
#     2   2   2   2   2   2   2
#     4  10  22  39  64  91 125 170 212 266 340 388
#     4  10  22  40  64  87 130 168 212 275 328 381
#     4  10  21  38  63  87 125 169 212 259 332 388
#     4  10  22  39  61  92 122 172 216 264 329 382
#     4  10  22  38  61  90 123 163 211 266 321 394
#     4  10  22  43  61  97 131 172 228 270 322 395
#     4  10  21  41  61  91 130 172 213 271 326 396
#
# _framework density 26.382708999999998
#
# number of rings (size 3 to 8) (size 9 to 14) (size 15 to 20)
#    0.000    2.000    1.429    0.857    2.000    4.000 
#    5.143    0.000    0.000    0.000    0.000    0.000 
#    0.000    0.000    0.000    0.000    0.000    0.000 
#
# Total GULP energy -78283.229355 kJ/mol
# GULP energy per Si atom -5591.659240 kJ/mol
# Density = 2.632266 g / cm^3
# Si number density = 26.382709 Si / 1000 Ang^3
#
#
#
# Elastic Constant Matrix: (Units=GPa)
#
#
# Indices 1 2 3 4 5 6 
#
# 1 162.1311 29.9670 7.1530 0.1354 28.9599 8.3150
# 2 29.9670 66.3844 -0.7288 6.8852 -0.4698 -23.4731
# 3 7.1530 -0.7288 93.0743 6.7852 3.1668 2.9648
# 4 0.1354 6.8852 6.7852 30.9186 -3.8042 3.2688
# 5 28.9599 -0.4698 3.1668 -3.8042 48.1582 -0.8786
# 6 8.3150 -23.4731 2.9648 3.2688 -0.8786 25.6504
#
#
#
# Elastic Compliance Matrix: (Units=1/GPa)
#
#
# Indices 1 2 3 4 5 6 
#
# 1 0.009350 -0.008503 -0.000410 0.002434 -0.005692 -0.011270
# 2 -0.008503 0.031710 0.000395 -0.009977 0.005214 0.033179
# 3 -0.000410 0.000395 0.011002 -0.002534 -0.000682 -0.000478
# 4 0.002434 -0.009977 -0.002534 0.036773 0.001250 -0.014270
# 5 -0.005692 0.005214 -0.000682 0.001250 0.024517 0.007376
# 6 -0.011270 0.033179 -0.000478 -0.014270 0.007376 0.075128
#
#
# Mechanical properties :
#
#
# Convention : Reuss Voigt Hill
#
# Bulk Modulus (GPa) = 28.55024 43.81911 36.18468
# Shear Modulus (GPa) = 23.02112 39.95867 31.48990
#
# Velocity S-wave (km/s) = 2.95716 3.89598 3.45857
# Velocity P-wave (km/s) = 4.74392 6.07316 5.44922
#
# Compressibility (1/GPa) = 0.03502598
#
# Stress axis : x y z
#
# Youngs Moduli (GPa) = 106.94886 31.53560 90.89375
#
# Poissons Ratio (x) = 0.26815 0.03726
# Poissons Ratio (y) = 0.90939 -0.03589
# Poissons Ratio (z) = 0.04384 -0.01245
#
# Static dielectric constant tensor:
#      x y z
#    x 2.075770 -0.001760 -0.024190 
#    y -0.001760 2.075550 0.044320 
#    z -0.024190 0.044320 2.116300 
# 
# From -- ./inp_files/564566.got.cif
#   From: 2010.05.17/outbox.cif.g08.bks.cpg/sg2_283_cif.got.tgz:564566.got - 2010.06.03 11:33:40.
