data_PCOD9005177
_publ_section_title
;
Structure prediction by ZEFSAII (Michael W. Deem and Ramdas Pophale) SiO2 
 PCOD9005177
Probable space group: P -1
;
_chemical_formula_sum "Si O2"
_cell_formula_units_Z 16
_cell_length_a 9.277121
_cell_length_b 7.907504
_cell_length_c 19.991953
_cell_angle_alpha 38.888994
_cell_angle_beta 108.934572
_cell_angle_gamma 117.707708
_cell_volume 813.313115
_symmetry_space_group_name_H-M "P -1"
_symmetry_group_IT_number 2
_symmetry_cell_setting 'triclinic'
loop_
_space_group_symop_operation_xyz
x,y,z
-x,-y,-z
loop_
_atom_site_type_symbol
_atom_site_label
_atom_site_fract_x
_atom_site_fract_y
_atom_site_fract_z
Si Si1 0.638980 0.420500 0.508792
Si Si2 0.015483 0.145607 0.530718
Si Si3 0.212625 0.497168 0.630049
Si Si4 0.028375 0.869214 0.760777
Si Si5 0.438008 0.160531 0.039737
Si Si6 0.654691 0.291740 0.149145
Si Si7 0.535988 0.242570 0.296324
Si Si8 0.684271 0.407747 0.882953
O O1 0.500000 0.500000 0.500000
O O2 0.809797 0.595935 0.515956
O O3 0.665603 0.518745 0.405578
O O4 0.583780 0.076821 0.605607
O O5 0.879198 0.290385 0.472018
O O6 0.004908 0.940656 0.656754
O O7 0.000000 0.000000 0.500000
O O8 0.315511 0.628335 0.670298
O O9 0.082340 0.174158 0.714053
O O10 0.177004 0.753066 0.824681
O O11 0.864417 0.640553 0.836385
O O12 0.507772 0.097502 0.139500
O O13 0.328571 0.878643 0.070902
O O14 0.346160 0.386781 0.963656
O O15 0.600024 0.311650 0.971983
O O16 0.607251 0.226464 0.239005
O O17 0.434369 0.452511 0.213404
#
# Coordination Sequence:
#
# PCOD9005177 Si02
#       8
#     2   2   2   2   2   2   2   2
#     4  11  22  36  57  86 117 155 198 236 281 333
#     4  11  23  39  56  84 125 158 192 237 283 332
#     4  11  22  39  58  83 123 157 192 237 282 332
#     4  11  22  37  59  86 113 151 191 235 285 345
#     4   9  21  41  60  82 112 146 183 246 296 343
#     4  10  21  39  59  83 115 144 188 239 294 346
#     4  11  21  37  60  84 113 157 197 230 278 345
#     4  10  21  38  61  85 111 146 194 235 293 351
#
# _framework density 19.672620999999999
#
# number of rings (size 3 to 8) (size 9 to 14) (size 15 to 20)
#    0.000    1.500    0.000    7.125    0.000    3.000 
#    0.000    5.000    0.000    0.000    0.000    0.000 
#    0.000    0.000    0.000    0.000    0.000    0.000 
#
# Total GULP energy -89396.481558 kJ/mol
# GULP energy per Si atom -5587.280097 kJ/mol
# Density = 1.962785 g / cm^3
# Si number density = 19.672621 Si / 1000 Ang^3
#
#
#
# Elastic Constant Matrix: (Units=GPa)
#
#
# Indices 1 2 3 4 5 6 
#
# 1 74.3107 20.5629 24.4934 3.0835 10.4017 4.2862
# 2 20.5629 127.5099 53.3687 9.8234 -18.5929 -4.6494
# 3 24.4934 53.3687 57.5067 2.9737 -3.1983 8.9193
# 4 3.0835 9.8234 2.9737 35.6706 3.0365 1.2849
# 5 10.4017 -18.5929 -3.1983 3.0365 27.7988 -4.6915
# 6 4.2862 -4.6494 8.9193 1.2849 -4.6915 28.8933
#
#
#
# Elastic Compliance Matrix: (Units=1/GPa)
#
#
# Indices 1 2 3 4 5 6 
#
# 1 0.017208 -0.001693 -0.005879 0.000296 -0.008691 -0.002435
# 2 -0.001693 0.017470 -0.016138 -0.004774 0.012725 0.010323
# 3 -0.005879 -0.016138 0.036534 0.003029 -0.007134 -0.014296
# 4 0.000296 -0.004774 0.003029 0.029811 -0.006920 -0.004197
# 5 -0.008691 0.012725 -0.007134 -0.006920 0.050028 0.013970
# 6 -0.002435 0.010323 -0.014296 -0.004197 0.013970 0.043500
#
#
# Mechanical properties :
#
#
# Convention : Reuss Voigt Hill
#
# Bulk Modulus (GPa) = 42.03215 50.68638 46.35927
# Shear Modulus (GPa) = 20.00786 29.19937 24.60362
#
# Velocity S-wave (km/s) = 3.19257 3.85680 3.54029
# Velocity P-wave (km/s) = 5.91626 6.75678 6.35044
#
# Compressibility (1/GPa) = 0.02379131
#
# Stress axis : x y z
#
# Youngs Moduli (GPa) = 58.11255 57.24184 27.37207
#
# Poissons Ratio (x) = 0.09694 0.16091
# Poissons Ratio (y) = 0.09841 0.44173
# Poissons Ratio (z) = 0.34163 0.92376
#
# Static dielectric constant tensor:
#      x y z
#    x 1.677080 -0.019420 0.003000 
#    y -0.019420 1.700290 -0.017510 
#    z 0.003000 -0.017510 1.712900 
# 
# From -- ./inp_files/587774.got.cif
#   From: 2010.05.17/outbox.cif.g08.bks.cpg/sg2_294_cif.got.tgz:587774.got - 2010.06.03 11:33:40.
