data_PCOD9005258
_publ_section_title
;
Structure prediction by ZEFSAII (Michael W. Deem and Ramdas Pophale) SiO2 
 PCOD9005258
Probable space group: P -1
;
_chemical_formula_sum "Si O2"
_cell_formula_units_Z 14
_cell_length_a 10.099898
_cell_length_b 10.237615
_cell_length_c 11.231124
_cell_angle_alpha 122.001958
_cell_angle_beta 38.659060
_cell_angle_gamma 130.547745
_cell_volume 550.624741
_symmetry_space_group_name_H-M "P -1"
_symmetry_group_IT_number 2
_symmetry_cell_setting 'triclinic'
loop_
_space_group_symop_operation_xyz
x,y,z
-x,-y,-z
loop_
_atom_site_type_symbol
_atom_site_label
_atom_site_fract_x
_atom_site_fract_y
_atom_site_fract_z
Si Si1 0.912240 0.948908 0.172491
Si Si2 0.279202 0.071046 0.321809
Si Si3 0.773058 0.285510 0.825085
Si Si4 0.722237 0.594768 0.594875
Si Si5 0.532616 0.224420 0.464483
Si Si6 0.697664 0.699066 0.901514
Si Si7 0.948557 0.651035 0.927729
O O1 0.637287 0.886194 0.362779
O O2 0.958672 0.783519 0.085933
O O3 0.085816 0.118165 0.200966
O O4 0.000000 0.000000 0.000000
O O5 0.362626 0.256471 0.291562
O O6 0.403083 0.121688 0.387967
O O7 0.298655 0.907134 0.173670
O O8 0.000000 0.000000 0.500000
O O9 0.869514 0.454470 0.923761
O O10 0.005735 0.336899 0.603834
O O11 0.540567 0.278239 0.920835
O O12 0.562145 0.418990 0.553458
O O13 0.703722 0.567229 0.735375
O O14 0.804335 0.264386 0.277067
O O15 0.760663 0.649334 0.960785
#
# Coordination Sequence:
#
# PCOD9005258 Si02
#       7
#     2   2   2   2   2   2   2
#     4  10  22  37  58  88 124 164 206 250 304 368
#     4  10  21  41  67  92 123 164 213 260 310 371
#     4  10  21  38  61  89 125 163 207 256 305 365
#     4  10  23  40  64  94 124 168 212 255 310 368
#     4  11  22  41  64  91 129 164 206 263 316 367
#     4  11  22  38  62  91 128 166 207 254 310 373
#     4  10  23  39  62  95 127 165 207 253 315 377
#
# _framework density 25.425664999999999
#
# number of rings (size 3 to 8) (size 9 to 14) (size 15 to 20)
#    0.000    1.714    0.000    4.286    0.000    8.571 
#    0.000    2.857    0.000   12.000    0.000    0.000 
#    0.000    0.000    0.000    0.000    0.000    0.000 
#
# Total GULP energy -78216.369346 kJ/mol
# GULP energy per Si atom -5586.883525 kJ/mol
# Density = 2.536779 g / cm^3
# Si number density = 25.425665 Si / 1000 Ang^3
#
#
#
# Elastic Constant Matrix: (Units=GPa)
#
#
# Indices 1 2 3 4 5 6 
#
# 1 31.6873 9.3759 15.4262 -7.2367 -6.8182 6.5470
# 2 9.3759 185.1349 72.0233 2.7156 -14.7242 2.3974
# 3 15.4262 72.0233 140.0052 -43.8373 -19.1328 -3.8169
# 4 -7.2367 2.7156 -43.8373 62.0448 -0.0349 -1.7244
# 5 -6.8182 -14.7242 -19.1328 -0.0349 31.1368 6.0544
# 6 6.5470 2.3974 -3.8169 -1.7244 6.0544 18.4680
#
#
#
# Elastic Compliance Matrix: (Units=1/GPa)
#
#
# Indices 1 2 3 4 5 6 
#
# 1 0.039259 0.000121 -0.002789 0.002117 0.010388 -0.017718
# 2 0.000121 0.007546 -0.005080 -0.003982 0.001009 -0.002775
# 3 -0.002789 -0.005080 0.013900 0.009828 0.004787 0.003869
# 4 0.002117 -0.003982 0.009828 0.023559 0.004132 0.002643
# 5 0.010388 0.001009 0.004787 0.004132 0.040895 -0.015845
# 6 -0.017718 -0.002775 0.003869 0.002643 -0.015845 0.067030
#
#
# Mechanical properties :
#
#
# Convention : Reuss Voigt Hill
#
# Bulk Modulus (GPa) = 22.11852 61.16426 41.64139
# Shear Modulus (GPa) = 22.44626 39.66340 31.05483
#
# Velocity S-wave (km/s) = 2.97445 3.95394 3.49864
# Velocity P-wave (km/s) = 4.52931 6.70471 5.72135
#
# Compressibility (1/GPa) = 0.04521097
#
# Stress axis : x y z
#
# Youngs Moduli (GPa) = 25.47160 132.51807 71.94140
#
# Poissons Ratio (x) = -0.01606 0.20062
# Poissons Ratio (y) = -0.00309 0.36546
# Poissons Ratio (z) = 0.07103 0.67318
#
# Static dielectric constant tensor:
#      x y z
#    x 2.006890 -0.024390 0.002020 
#    y -0.024390 2.142250 0.012000 
#    z 0.002020 0.012000 1.990690 
# 
# From -- ./inp_files/499781.got.cif
#   From: 2010.05.17/outbox.cif.g08.bks.cpg/sg2_250_cif.got.tgz:499781.got - 2010.06.03 11:33:40.
