data_PCOD9005051
_publ_section_title
;
Structure prediction by ZEFSAII (Michael W. Deem and Ramdas Pophale) SiO2 
 PCOD9005051
Probable space group: P -1
;
_chemical_formula_sum "Si O2"
_cell_formula_units_Z 16
_cell_length_a 5.371103
_cell_length_b 9.173251
_cell_length_c 22.426316
_cell_angle_alpha 125.576528
_cell_angle_beta 105.761402
_cell_angle_gamma 56.163546
_cell_volume 744.248159
_symmetry_space_group_name_H-M "P -1"
_symmetry_group_IT_number 2
_symmetry_cell_setting 'triclinic'
loop_
_space_group_symop_operation_xyz
x,y,z
-x,-y,-z
loop_
_atom_site_type_symbol
_atom_site_label
_atom_site_fract_x
_atom_site_fract_y
_atom_site_fract_z
Si Si1 0.665081 0.760509 0.971778
Si Si2 0.735924 0.572694 0.548548
Si Si3 0.891484 0.913049 0.113032
Si Si4 0.393740 0.053801 0.672822
Si Si5 0.136774 0.802090 0.233595
Si Si6 0.737187 0.336847 0.022147
Si Si7 0.525187 0.388476 0.234739
Si Si8 0.998759 0.531746 0.328177
O O1 0.437879 0.680336 0.938262
O O2 0.989691 0.632585 0.932666
O O3 0.747547 0.774984 0.049982
O O4 0.500000 0.000000 0.000000
O O5 0.500000 0.500000 0.500000
O O6 0.000000 0.500000 0.500000
O O7 0.897431 0.480673 0.600438
O O8 0.543904 0.822663 0.601934
O O9 0.663156 0.155623 0.164026
O O10 0.064068 0.820787 0.163461
O O11 0.097263 0.871915 0.057811
O O12 0.662027 0.091898 0.718481
O O13 0.196990 0.233717 0.654539
O O14 0.171102 0.086224 0.721177
O O15 0.329563 0.570816 0.218269
O O16 0.500000 0.500000 0.000000
O O17 0.795172 0.424937 0.281838
O O18 0.298345 0.419078 0.280610
#
# Coordination Sequence:
#
# PCOD9005051 Si02
#       8
#     2   2   2   2   2   2   2   2
#     4  10  23  41  60  86 120 163 202 246 311 369
#     4  12  24  37  60  90 116 158 204 236 284 350
#     4  10  24  35  66  86 122 148 208 248 308 350
#     4  10  22  40  60  84 123 156 191 245 301 345
#     4  10  21  38  60  89 115 154 197 247 303 357
#     4  10  23  41  60  86 120 163 202 246 311 369
#     4  10  21  38  60  89 115 154 197 247 303 357
#     4  10  22  40  60  84 123 156 191 245 301 345
#
# _framework density 21.498204999999999
#
# number of rings (size 3 to 8) (size 9 to 14) (size 15 to 20)
#    0.750    1.000    0.000    3.750    3.500    2.000 
#    0.000    0.000    0.000    0.000    0.000    0.000 
#    0.000    0.000    0.000    0.000    0.000    0.000 
#
# Total GULP energy -89380.140637 kJ/mol
# GULP energy per Si atom -5586.258790 kJ/mol
# Density = 2.144927 g / cm^3
# Si number density = 21.498205 Si / 1000 Ang^3
#
#
#
# Elastic Constant Matrix: (Units=GPa)
#
#
# Indices 1 2 3 4 5 6 
#
# 1 203.7851 33.2229 57.4810 -2.5878 -13.3896 8.1125
# 2 33.2229 52.8441 28.0263 5.3405 2.1242 -6.9301
# 3 57.4810 28.0263 122.0348 -2.8614 -6.8551 -0.1338
# 4 -2.5878 5.3405 -2.8614 22.0576 -0.6796 -2.7072
# 5 -13.3896 2.1242 -6.8551 -0.6796 23.7096 0.4889
# 6 8.1125 -6.9301 -0.1338 -2.7072 0.4889 19.3065
#
#
#
# Elastic Compliance Matrix: (Units=1/GPa)
#
#
# Indices 1 2 3 4 5 6 
#
# 1 0.006491 -0.003822 -0.001960 0.001044 0.003555 -0.004057
# 2 -0.003822 0.026022 -0.004662 -0.006295 -0.006228 0.010189
# 3 -0.001960 -0.004662 0.010375 0.002254 0.002386 -0.000522
# 4 0.001044 -0.006295 0.002254 0.047855 0.003096 0.003949
# 5 0.003555 -0.006228 0.002386 0.003096 0.045613 -0.004434
# 6 -0.004057 0.010189 -0.000522 0.003949 -0.004434 0.057821
#
#
# Mechanical properties :
#
#
# Convention : Reuss Voigt Hill
#
# Bulk Modulus (GPa) = 45.45594 68.45830 56.95712
# Shear Modulus (GPa) = 22.48220 30.34365 26.41292
#
# Velocity S-wave (km/s) = 3.23735 3.76100 3.50896
# Velocity P-wave (km/s) = 5.92991 7.12552 6.55503
#
# Compressibility (1/GPa) = 0.02199932
#
# Stress axis : x y z
#
# Youngs Moduli (GPa) = 154.04804 38.42914 96.38897
#
# Poissons Ratio (x) = 0.14688 0.18893
# Poissons Ratio (y) = 0.58879 0.44938
# Poissons Ratio (z) = 0.30195 0.17916
#
# Static dielectric constant tensor:
#      x y z
#    x 1.870160 -0.017630 0.013480 
#    y -0.017630 1.798930 -0.010150 
#    z 0.013480 -0.010150 1.741400 
# 
# From -- ./inp_files/603848.got.cif
#   From: 2010.05.17/outbox.cif.g08.bks.cpg/sg2_302_cif.got.tgz:603848.got - 2010.06.03 11:33:40.
