data_PCOD9005070
_publ_section_title
;
Structure prediction by ZEFSAII (Michael W. Deem and Ramdas Pophale) SiO2 
 PCOD9005070
Probable space group: P -1
;
_chemical_formula_sum "Si O2"
_cell_formula_units_Z 16
_cell_length_a 7.733986
_cell_length_b 13.879758
_cell_length_c 9.204600
_cell_angle_alpha 71.666248
_cell_angle_beta 48.679817
_cell_angle_gamma 79.806907
_cell_volume 703.754141
_symmetry_space_group_name_H-M "P -1"
_symmetry_group_IT_number 2
_symmetry_cell_setting 'triclinic'
loop_
_space_group_symop_operation_xyz
x,y,z
-x,-y,-z
loop_
_atom_site_type_symbol
_atom_site_label
_atom_site_fract_x
_atom_site_fract_y
_atom_site_fract_z
Si Si1 0.659628 0.575808 0.473741
Si Si2 0.681002 0.008740 0.168399
Si Si3 0.617315 0.221344 0.019713
Si Si4 0.102731 0.392894 0.956216
Si Si5 0.701113 0.918545 0.919112
Si Si6 0.784971 0.034849 0.426463
Si Si7 0.574624 0.436358 0.845861
Si Si8 0.656516 0.255327 0.313785
O O1 0.500000 0.500000 0.500000
O O2 0.858803 0.609710 0.236675
O O3 0.705929 0.513541 0.624555
O O4 0.510964 0.671397 0.547798
O O5 0.763899 0.993279 0.293362
O O6 0.403718 0.020631 0.339502
O O7 0.765572 0.119382 0.003801
O O8 0.743910 0.917545 0.070550
O O9 0.699228 0.331935 0.861817
O O10 0.411376 0.180373 0.047251
O O11 0.561198 0.242827 0.208814
O O12 0.340617 0.397288 0.911054
O O13 0.000000 0.500000 0.000000
O O14 0.912886 0.306861 0.143001
O O15 0.944320 0.955240 0.698177
O O16 0.500000 0.000000 0.000000
O O17 0.686374 0.147185 0.420582
O O18 0.500000 0.500000 0.000000
#
# Coordination Sequence:
#
# PCOD9005070 Si02
#       8
#     2   2   2   2   2   2   2   2
#     4  10  21  38  64  87 123 167 213 264 315 378
#     4   9  21  40  64  89 129 163 217 264 321 390
#     4  10  21  38  60  89 126 170 201 274 321 368
#     4  11  21  39  63  87 121 168 216 261 311 388
#     4  10  21  39  61  89 128 162 207 267 329 377
#     4  10  21  38  65  94 120 171 216 262 324 390
#     4  11  20  38  65  86 129 164 205 269 324 370
#     4  11  21  40  61  88 127 164 222 262 318 387
#
# _framework density 22.735213999999999
#
# number of rings (size 3 to 8) (size 9 to 14) (size 15 to 20)
#    0.000    1.750    3.750    1.125    0.000    5.000 
#    0.000   10.000    2.750    0.000    0.000    0.000 
#    0.000    0.000    0.000    0.000    0.000    0.000 
#
# Total GULP energy -89243.657214 kJ/mol
# GULP energy per Si atom -5577.728576 kJ/mol
# Density = 2.268347 g / cm^3
# Si number density = 22.735214 Si / 1000 Ang^3
#
#
#
# Elastic Constant Matrix: (Units=GPa)
#
#
# Indices 1 2 3 4 5 6 
#
# 1 105.8182 29.1936 28.4117 13.0719 -5.1770 10.8995
# 2 29.1936 106.7808 39.8616 -1.4831 6.4394 4.5285
# 3 28.4117 39.8616 99.5841 5.0942 6.8723 -3.5450
# 4 13.0719 -1.4831 5.0942 38.6233 4.1433 9.6836
# 5 -5.1770 6.4394 6.8723 4.1433 33.7124 6.1563
# 6 10.8995 4.5285 -3.5450 9.6836 6.1563 35.4159
#
#
#
# Elastic Compliance Matrix: (Units=1/GPa)
#
#
# Indices 1 2 3 4 5 6 
#
# 1 0.011741 -0.002368 -0.002615 -0.003292 0.003802 -0.003333
# 2 -0.002368 0.011738 -0.004074 0.002361 -0.001789 -0.001515
# 3 -0.002615 -0.004074 0.012808 -0.001550 -0.002682 0.003498
# 4 -0.003292 0.002361 -0.001550 0.029364 -0.002979 -0.006955
# 5 0.003802 -0.001789 -0.002682 -0.002979 0.032608 -0.006063
# 6 -0.003333 -0.001515 0.003498 -0.006955 -0.006063 0.032761
#
#
# Mechanical properties :
#
#
# Convention : Reuss Voigt Hill
#
# Bulk Modulus (GPa) = 55.02457 56.34634 55.68546
# Shear Modulus (GPa) = 32.21827 35.86474 34.04150
#
# Velocity S-wave (km/s) = 3.76853 3.97608 3.87370
# Velocity P-wave (km/s) = 6.57196 6.77617 6.67485
#
# Compressibility (1/GPa) = 0.01817370
#
# Stress axis : x y z
#
# Youngs Moduli (GPa) = 85.16890 85.19247 78.07897
#
# Poissons Ratio (x) = 0.20170 0.20416
# Poissons Ratio (y) = 0.20164 0.31812
# Poissons Ratio (z) = 0.22270 0.34710
#
# Static dielectric constant tensor:
#      x y z
#    x 1.981680 0.018830 0.015460 
#    y 0.018830 1.845130 -0.032980 
#    z 0.015460 -0.032980 1.867130 
# 
# From -- ./inp_files/200606.got.cif
#   From: 2010.05.17/outbox.cif.g08.bks.cpg/sg2_101_cif.got.tgz:200606.got - 2010.06.03 11:33:40.
