data_PCOD9005711
_publ_section_title
;
Structure prediction by ZEFSAII (Michael W. Deem and Ramdas Pophale) SiO2 
 PCOD9005711
Probable space group: P -1
;
_chemical_formula_sum "Si O2"
_cell_formula_units_Z 16
_cell_length_a 8.854528
_cell_length_b 12.989684
_cell_length_c 9.768822
_cell_angle_alpha 131.594651
_cell_angle_beta 121.616778
_cell_angle_gamma 73.389411
_cell_volume 712.148634
_symmetry_space_group_name_H-M "P -1"
_symmetry_group_IT_number 2
_symmetry_cell_setting 'triclinic'
loop_
_space_group_symop_operation_xyz
x,y,z
-x,-y,-z
loop_
_atom_site_type_symbol
_atom_site_label
_atom_site_fract_x
_atom_site_fract_y
_atom_site_fract_z
Si Si1 0.025530 0.659728 0.985702
Si Si2 0.264968 0.887682 0.127231
Si Si3 0.631478 0.696321 0.719981
Si Si4 0.034368 0.335714 0.724512
Si Si5 0.924336 0.258346 0.325437
Si Si6 0.619541 0.429124 0.288814
Si Si7 0.438806 0.285817 0.838313
Si Si8 0.315147 0.196081 0.425229
O O1 0.049275 0.497770 0.830319
O O2 0.826035 0.686235 0.867661
O O3 0.159323 0.769442 0.066303
O O4 0.043748 0.677851 0.173378
O O5 0.464718 0.844575 0.177536
O O6 0.262770 0.041098 0.316952
O O7 0.168625 0.868231 0.917519
O O8 0.596312 0.567752 0.482832
O O9 0.492342 0.683260 0.765412
O O10 0.621364 0.817704 0.712627
O O11 0.231546 0.287000 0.774798
O O12 0.917824 0.251996 0.480229
O O13 0.819482 0.387559 0.345234
O O14 0.133034 0.270733 0.400311
O O15 0.540090 0.411776 0.083656
O O16 0.445583 0.274299 0.666773
#
# Coordination Sequence:
#
# PCOD9005711 Si02
#       8
#     2   2   2   2   2   2   2   2
#     4  11  22  39  65  90 128 158 194 253 302 365
#     4  11  24  42  63  88 123 166 204 242 300 360
#     4  11  22  39  65  90 128 158 194 253 302 365
#     4  10  22  40  62  92 122 155 200 250 314 345
#     4  10  21  38  63  91 119 157 206 249 290 366
#     4  10  22  40  62  92 122 155 200 250 314 345
#     4  10  23  42  61  91 125 153 204 261 292 356
#     4  11  24  42  63  88 123 166 204 242 300 360
#
# _framework density 22.467219
#
# number of rings (size 3 to 8) (size 9 to 14) (size 15 to 20)
#    0.000    1.500    3.750    0.750    0.000    8.000 
#    0.000    7.500    0.000    0.000    0.000    0.000 
#    0.000    0.000    0.000    0.000    0.000    0.000 
#
# Total GULP energy -89363.879776 kJ/mol
# GULP energy per Si atom -5585.242486 kJ/mol
# Density = 2.241608 g / cm^3
# Si number density = 22.467219 Si / 1000 Ang^3
#
#
#
# Elastic Constant Matrix: (Units=GPa)
#
#
# Indices 1 2 3 4 5 6 
#
# 1 69.1976 38.1640 23.7166 -2.1712 -1.1953 -3.6988
# 2 38.1640 72.3024 50.2553 -3.9341 -2.5511 9.1261
# 3 23.7166 50.2553 151.9615 -33.9064 -8.2983 6.2328
# 4 -2.1712 -3.9341 -33.9064 31.3416 -5.1173 2.2314
# 5 -1.1953 -2.5511 -8.2983 -5.1173 28.9320 -13.7649
# 6 -3.6988 9.1261 6.2328 2.2314 -13.7649 32.5908
#
#
#
# Elastic Compliance Matrix: (Units=1/GPa)
#
#
# Indices 1 2 3 4 5 6 
#
# 1 0.021721 -0.012921 0.001026 0.001081 0.003766 0.007404
# 2 -0.012921 0.027164 -0.008489 -0.007028 -0.006422 -0.009681
# 3 0.001026 -0.008489 0.012468 0.013360 0.006069 0.001758
# 4 0.001081 -0.007028 0.013360 0.047464 0.012371 0.001511
# 5 0.003766 -0.006422 0.006069 0.012371 0.047788 0.020402
# 6 0.007404 -0.009681 0.001758 0.001511 0.020402 0.042412
#
#
# Mechanical properties :
#
#
# Convention : Reuss Voigt Hill
#
# Bulk Modulus (GPa) = 48.57697 57.52592 53.05144
# Shear Modulus (GPa) = 20.27196 30.66127 25.46662
#
# Velocity S-wave (km/s) = 3.00707 3.69821 3.37040
# Velocity P-wave (km/s) = 5.80731 6.62538 6.22979
#
# Compressibility (1/GPa) = 0.02058589
#
# Stress axis : x y z
#
# Youngs Moduli (GPa) = 46.03924 36.81303 80.20616
#
# Poissons Ratio (x) = 0.47567 -0.08233
# Poissons Ratio (y) = 0.59488 0.68084
# Poissons Ratio (z) = -0.04726 0.31249
#
# Static dielectric constant tensor:
#      x y z
#    x 1.823180 0.034750 -0.004750 
#    y 0.034750 1.877590 -0.005690 
#    z -0.004750 -0.005690 1.837460 
# 
# From -- ./inp_files/190398.got.cif
#   From: 2010.05.17/outbox.cif.g08.bks.cpg/sg2_96_cif.got.tgz:190398.got - 2010.06.03 11:33:40.
