data_PCOD9005203
_publ_section_title
;
Structure prediction by ZEFSAII (Michael W. Deem and Ramdas Pophale) SiO2 
 PCOD9005203
Probable space group: P -1
;
_chemical_formula_sum "Si O2"
_cell_formula_units_Z 14
_cell_length_a 21.219772
_cell_length_b 6.037706
_cell_length_c 15.346676
_cell_angle_alpha 60.701997
_cell_angle_beta 153.272295
_cell_angle_gamma 98.982240
_cell_volume 538.147037
_symmetry_space_group_name_H-M "P -1"
_symmetry_group_IT_number 2
_symmetry_cell_setting 'triclinic'
loop_
_space_group_symop_operation_xyz
x,y,z
-x,-y,-z
loop_
_atom_site_type_symbol
_atom_site_label
_atom_site_fract_x
_atom_site_fract_y
_atom_site_fract_z
Si Si1 0.008207 0.600697 0.858158
Si Si2 0.165270 0.630514 0.220394
Si Si3 0.601232 0.215149 0.571622
Si Si4 0.904412 0.773284 0.504927
Si Si5 0.349262 0.218802 0.142411
Si Si6 0.471034 0.403610 0.115110
Si Si7 0.668318 0.596963 0.245894
O O1 0.840681 0.626048 0.684781
O O2 0.929932 0.817250 0.629691
O O3 0.082841 0.682064 0.011909
O O4 0.205076 0.186596 0.151478
O O5 0.357976 0.558450 0.458509
O O6 0.000000 0.000000 0.000000
O O7 0.402751 0.344578 0.262560
O O8 0.612210 0.110724 0.706223
O O9 0.860938 0.527170 0.497435
O O10 0.713737 0.178694 0.158396
O O11 0.117213 0.540545 0.767359
O O12 0.488081 0.150728 0.251452
O O13 0.401801 0.385465 0.940345
O O14 0.652659 0.364283 0.330198
O O15 0.500000 0.000000 0.000000
#
# Coordination Sequence:
#
# PCOD9005203 Si02
#       7
#     2   2   2   2   2   2   2
#     4   9  19  36  58  90 115 152 202 246 295 355
#     4   9  18  36  58  85 116 156 199 247 298 338
#     4   9  20  39  57  84 125 156 196 244 293 353
#     4  10  21  38  61  87 122 152 198 248 296 358
#     4  10  21  39  61  88 123 161 198 241 294 363
#     4  10  21  40  63  88 119 156 198 248 300 353
#     4   9  21  42  59  88 118 154 204 246 298 348
#
# _framework density 26.015197000000001
#
# number of rings (size 3 to 8) (size 9 to 14) (size 15 to 20)
#    0.000    2.571    0.000    0.429    2.000    4.000 
#   20.571   13.571    0.000    0.000    0.000    0.000 
#    0.000    0.000    0.000    0.000    0.000    0.000 
#
# Total GULP energy -78343.685412 kJ/mol
# GULP energy per Si atom -5595.977529 kJ/mol
# Density = 2.595599 g / cm^3
# Si number density = 26.015197 Si / 1000 Ang^3
#
#
#
# Elastic Constant Matrix: (Units=GPa)
#
#
# Indices 1 2 3 4 5 6 
#
# 1 145.4384 31.4008 8.6405 7.4924 21.7261 30.1213
# 2 31.4008 87.2311 8.4537 -4.4180 4.6102 32.1334
# 3 8.6405 8.4537 75.6504 8.0668 16.1509 19.7541
# 4 7.4924 -4.4180 8.0668 33.7152 13.6748 8.3069
# 5 21.7261 4.6102 16.1509 13.6748 45.8745 8.8486
# 6 30.1213 32.1334 19.7541 8.3069 8.8486 53.2822
#
#
#
# Elastic Compliance Matrix: (Units=1/GPa)
#
#
# Indices 1 2 3 4 5 6 
#
# 1 0.008423 -0.001640 0.000880 -0.000032 -0.003445 -0.003522
# 2 -0.001640 0.015755 0.000498 0.004882 -0.000621 -0.009417
# 3 0.000880 0.000498 0.015618 -0.000552 -0.004697 -0.005722
# 4 -0.000032 0.004882 -0.000552 0.036041 -0.009728 -0.006725
# 5 -0.003445 -0.000621 -0.004697 -0.009728 0.027862 0.000953
# 6 -0.003522 -0.009417 -0.005722 -0.006725 0.000953 0.029450
#
#
# Mechanical properties :
#
#
# Convention : Reuss Voigt Hill
#
# Bulk Modulus (GPa) = 25.46317 45.03444 35.24880
# Shear Modulus (GPa) = 34.06815 43.89606 38.98211
#
# Velocity S-wave (km/s) = 3.62269 4.11216 3.87516
# Velocity P-wave (km/s) = 5.22567 6.31624 5.79666
#
# Compressibility (1/GPa) = 0.03927241
#
# Stress axis : x y z
#
# Youngs Moduli (GPa) = 118.71924 63.47294 64.02704
#
# Poissons Ratio (x) = 0.10406 -0.05633
# Poissons Ratio (y) = 0.19464 -0.03187
# Poissons Ratio (z) = -0.10445 -0.03159
#
# Static dielectric constant tensor:
#      x y z
#    x 2.038490 0.019200 0.002030 
#    y 0.019200 2.094950 -0.064730 
#    z 0.002030 -0.064730 2.019170 
# 
# From -- ./inp_files/539701.got.cif
#   From: 2010.05.17/outbox.cif.g08.bks.cpg/sg2_270_cif.got.tgz:539701.got - 2010.06.03 11:33:40.
