data_PCOD9005891
_publ_section_title
;
Structure prediction by ZEFSAII (Michael W. Deem and Ramdas Pophale) SiO2 
 PCOD9005891
Probable space group: P -1
;
_chemical_formula_sum "Si O2"
_cell_formula_units_Z 16
_cell_length_a 10.170262
_cell_length_b 22.952783
_cell_length_c 7.989342
_cell_angle_alpha 144.804551
_cell_angle_beta 134.174615
_cell_angle_gamma 39.802904
_cell_volume 675.957379
_symmetry_space_group_name_H-M "P -1"
_symmetry_group_IT_number 2
_symmetry_cell_setting 'triclinic'
loop_
_space_group_symop_operation_xyz
x,y,z
-x,-y,-z
loop_
_atom_site_type_symbol
_atom_site_label
_atom_site_fract_x
_atom_site_fract_y
_atom_site_fract_z
Si Si1 0.572899 0.688197 0.367929
Si Si2 0.701972 0.050179 0.949608
Si Si3 0.780472 0.901065 0.355848
Si Si4 0.983795 0.648140 0.847134
Si Si5 0.300930 0.524534 0.265155
Si Si6 0.667545 0.045694 0.278943
Si Si7 0.180648 0.472787 0.354145
Si Si8 0.369859 0.704550 0.572286
O O1 0.781788 0.676416 0.615711
O O2 0.449711 0.816194 0.481868
O O3 0.432578 0.681294 0.378068
O O4 0.631435 0.586953 0.051149
O O5 0.450741 0.091260 0.830157
O O6 0.797908 0.949682 0.663975
O O7 0.781113 0.018618 0.135997
O O8 0.723589 0.159962 0.168952
O O9 0.786475 0.980639 0.398058
O O10 0.950505 0.770738 0.161722
O O11 0.968229 0.574348 0.814468
O O12 0.175497 0.562540 0.700623
O O13 0.500000 0.500000 0.500000
O O14 0.134379 0.535450 0.283220
O O15 0.253909 0.637816 0.384696
O O16 0.500000 0.000000 0.000000
O O17 0.404465 0.359119 0.284402
#
# Coordination Sequence:
#
# PCOD9005891 Si02
#       8
#     2   2   2   2   2   2   2   2
#     4  10  18  31  50  74 106 126 161 210 262 293
#     4   9  17  28  49  76 101 124 167 207 258 292
#     4  10  17  28  51  73 103 131 160 204 261 304
#     4  10  18  34  49  72 108 134 155 202 262 310
#     4  10  21  31  50  73  95 133 178 207 239 294
#     4   9  16  28  44  76 102 125 157 209 252 304
#     4   9  19  32  50  71 103 132 167 201 244 310
#     4   9  17  35  49  75 101 133 166 209 248 293
#
# _framework density 23.670131000000001
#
# number of rings (size 3 to 8) (size 9 to 14) (size 15 to 20)
#    0.000    2.500    5.000    0.375    3.500    1.500 
#    0.000    0.000    0.000    0.750    0.000    1.750 
#    0.000    0.000    0.000    0.000    0.000    0.000 
#
# Total GULP energy -89449.224669 kJ/mol
# GULP energy per Si atom -5590.576542 kJ/mol
# Density = 2.361626 g / cm^3
# Si number density = 23.670131 Si / 1000 Ang^3
#
#
#
# Elastic Constant Matrix: (Units=GPa)
#
#
# Indices 1 2 3 4 5 6 
#
# 1 74.8970 47.6263 44.2438 6.3874 4.8507 30.2322
# 2 47.6263 91.8847 42.8817 25.2940 15.5305 21.2830
# 3 44.2438 42.8817 161.6333 16.6784 -0.3524 22.5466
# 4 6.3874 25.2940 16.6784 35.7737 2.0558 20.8759
# 5 4.8507 15.5305 -0.3524 2.0558 22.3490 3.5452
# 6 30.2322 21.2830 22.5466 20.8759 3.5452 46.6693
#
#
#
# Elastic Compliance Matrix: (Units=1/GPa)
#
#
# Indices 1 2 3 4 5 6 
#
# 1 0.032442 -0.016726 -0.003532 0.019511 0.006041 -0.020868
# 2 -0.016726 0.025777 -0.001637 -0.019238 -0.014052 0.009543
# 3 -0.003532 -0.001637 0.007799 -0.001961 0.002211 -0.000024
# 4 0.019511 -0.019238 -0.001961 0.054911 0.008514 -0.028128
# 5 0.006041 -0.014052 0.002211 0.008514 0.053472 -0.006444
# 6 -0.020868 0.009543 -0.000024 -0.028128 -0.006444 0.043677
#
#
# Mechanical properties :
#
#
# Convention : Reuss Voigt Hill
#
# Bulk Modulus (GPa) = 44.98855 66.43539 55.71197
# Shear Modulus (GPa) = 18.56824 33.86927 26.21875
#
# Velocity S-wave (km/s) = 2.80386 3.78681 3.33178
# Velocity P-wave (km/s) = 5.43414 6.87372 6.19588
#
# Compressibility (1/GPa) = 0.02222788
#
# Stress axis : x y z
#
# Youngs Moduli (GPa) = 30.82409 38.79430 128.22962
#
# Poissons Ratio (x) = 0.64886 0.45293
# Poissons Ratio (y) = 0.51555 0.20994
# Poissons Ratio (z) = 0.10888 0.06351
#
# Static dielectric constant tensor:
#      x y z
#    x 2.017860 -0.045940 0.048070 
#    y -0.045940 1.932940 -0.060340 
#    z 0.048070 -0.060340 1.869320 
# 
# From -- ./inp_files/254080.got.cif
#   From: 2010.05.17/outbox.cif.g08.bks.cpg/sg2_128_cif.got.tgz:254080.got - 2010.06.03 11:33:40.
