data_PCOD9005355
_publ_section_title
;
Structure prediction by ZEFSAII (Michael W. Deem and Ramdas Pophale) SiO2 
 PCOD9005355
Probable space group: P -1
;
_chemical_formula_sum "Si O2"
_cell_formula_units_Z 14
_cell_length_a 5.169046
_cell_length_b 11.148622
_cell_length_c 11.937444
_cell_angle_alpha 128.633655
_cell_angle_beta 87.900131
_cell_angle_gamma 89.924940
_cell_volume 536.758874
_symmetry_space_group_name_H-M "P -1"
_symmetry_group_IT_number 2
_symmetry_cell_setting 'triclinic'
loop_
_space_group_symop_operation_xyz
x,y,z
-x,-y,-z
loop_
_atom_site_type_symbol
_atom_site_label
_atom_site_fract_x
_atom_site_fract_y
_atom_site_fract_z
Si Si1 0.884853 0.193046 0.420836
Si Si2 0.409050 0.298402 0.771821
Si Si3 0.620452 0.975014 0.635974
Si Si4 0.377112 0.755438 0.862367
Si Si5 0.282082 0.409877 0.063014
Si Si6 0.116778 0.476387 0.685582
Si Si7 0.813098 0.956680 0.862011
O O1 0.091632 0.091097 0.432948
O O2 0.958539 0.367972 0.543386
O O3 0.953510 0.130541 0.258876
O O4 0.595737 0.153572 0.432421
O O5 0.639226 0.415246 0.860768
O O6 0.276198 0.364059 0.701254
O O7 0.514102 0.125041 0.662074
O O8 0.225030 0.323132 0.898100
O O9 0.651032 0.019777 0.792425
O O10 0.478924 0.676621 0.929834
O O11 0.291416 0.607357 0.706850
O O12 0.620234 0.839903 0.854941
O O13 0.164600 0.890446 0.974221
O O14 0.065902 0.425451 0.169861
#
# Coordination Sequence:
#
# PCOD9005355 Si02
#       7
#     2   2   2   2   2   2   2
#     4  10  25  43  65  97 135 173 215 263 326 387
#     4  10  22  39  62  91 130 170 215 269 321 382
#     4  10  23  43  67  92 133 172 218 264 321 383
#     4  10  21  42  66  98 123 169 220 273 323 381
#     4  10  21  38  61  95 127 167 214 270 327 384
#     4  11  25  37  65  93 132 171 216 265 328 391
#     4   9  22  42  68  94 130 167 221 270 324 382
#
# _framework density 26.082476
#
# number of rings (size 3 to 8) (size 9 to 14) (size 15 to 20)
#    0.857    1.143    1.429    0.429    8.000    2.857 
#    0.000    4.286    0.000    0.000    0.000    0.000 
#    0.000    0.000    0.000    0.000    0.000    0.000 
#
# Total GULP energy -78305.540292 kJ/mol
# GULP energy per Si atom -5593.252878 kJ/mol
# Density = 2.602311 g / cm^3
# Si number density = 26.082476 Si / 1000 Ang^3
#
#
#
# Elastic Constant Matrix: (Units=GPa)
#
#
# Indices 1 2 3 4 5 6 
#
# 1 41.3134 -14.5891 14.6721 -5.3931 -11.8180 -11.1679
# 2 -14.5891 76.9494 28.0597 7.5525 -2.1612 -13.9829
# 3 14.6721 28.0597 136.9837 -1.4100 -2.8958 2.3737
# 4 -5.3931 7.5525 -1.4100 36.0707 -1.1060 -6.7742
# 5 -11.8180 -2.1612 -2.8958 -1.1060 33.1287 2.7608
# 6 -11.1679 -13.9829 2.3737 -6.7742 2.7608 35.7876
#
#
#
# Elastic Compliance Matrix: (Units=1/GPa)
#
#
# Indices 1 2 3 4 5 6 
#
# 1 0.041632 0.013692 -0.007231 0.007084 0.013757 0.019100
# 2 0.013692 0.019985 -0.005670 0.000058 0.004685 0.012107
# 3 -0.007231 -0.005670 0.009282 -0.000534 -0.001735 -0.005055
# 4 0.007084 0.000058 -0.000534 0.030299 0.002847 0.007784
# 5 0.013757 0.004685 -0.001735 0.002847 0.035002 0.004078
# 6 0.019100 0.012107 -0.005055 0.007784 0.004078 0.040128
#
#
# Mechanical properties :
#
#
# Convention : Reuss Voigt Hill
#
# Bulk Modulus (GPa) = 13.79704 34.61462 24.20583
# Shear Modulus (GPa) = 25.13755 36.13764 30.63759
#
# Velocity S-wave (km/s) = 3.10783 3.72629 3.43102
# Velocity P-wave (km/s) = 4.26374 5.64036 4.99965
#
# Compressibility (1/GPa) = 0.07247930
#
# Stress axis : x y z
#
# Youngs Moduli (GPa) = 24.02018 50.03749 107.74040
#
# Poissons Ratio (x) = -0.68510 0.77906
# Poissons Ratio (y) = -0.32888 0.61093
# Poissons Ratio (z) = 0.17369 0.28373
#
# Static dielectric constant tensor:
#      x y z
#    x 2.073380 -0.009470 0.005310 
#    y -0.009470 2.039650 -0.036870 
#    z 0.005310 -0.036870 2.062100 
# 
# From -- ./inp_files/124275.got.cif
#   From: 2010.05.17/outbox.cif.g08.bks.cpg/sg2_63_cif.got.tgz:124275.got - 2010.06.03 11:33:40.
