data_PCOD9005659
_publ_section_title
;
Structure prediction by ZEFSAII (Michael W. Deem and Ramdas Pophale) SiO2 
 PCOD9005659
Probable space group: P -1
;
_chemical_formula_sum "Si O2"
_cell_formula_units_Z 16
_cell_length_a 9.429488
_cell_length_b 13.275503
_cell_length_c 14.339118
_cell_angle_alpha 42.702983
_cell_angle_beta 138.104981
_cell_angle_gamma 104.903501
_cell_volume 624.639753
_symmetry_space_group_name_H-M "P -1"
_symmetry_group_IT_number 2
_symmetry_cell_setting 'triclinic'
loop_
_space_group_symop_operation_xyz
x,y,z
-x,-y,-z
loop_
_atom_site_type_symbol
_atom_site_label
_atom_site_fract_x
_atom_site_fract_y
_atom_site_fract_z
Si Si1 0.130295 0.552259 0.119672
Si Si2 0.110430 0.729466 0.168769
Si Si3 0.313629 0.844408 0.342457
Si Si4 0.268524 0.014576 0.722999
Si Si5 0.137110 0.709599 0.509745
Si Si6 0.558980 0.712908 0.821625
Si Si7 0.196142 0.358528 0.807528
Si Si8 0.072141 0.136138 0.343070
O O1 0.364819 0.327028 0.366801
O O2 0.233427 0.615275 0.210663
O O3 0.843922 0.617817 0.974086
O O4 0.070304 0.676641 0.915799
O O5 0.062576 0.614517 0.294374
O O6 0.258492 0.799534 0.244161
O O7 0.807826 0.936965 0.858703
O O8 0.153531 0.813260 0.360081
O O9 0.164464 0.136103 0.493174
O O10 0.131247 0.150274 0.652561
O O11 0.140834 0.906162 0.727589
O O12 0.596719 0.849070 0.999300
O O13 0.394572 0.648357 0.741875
O O14 0.154701 0.529198 0.615811
O O15 0.337630 0.946706 0.549176
O O16 0.638839 0.664044 0.002231
#
# Coordination Sequence:
#
# PCOD9005659 Si02
#       8
#     2   2   2   2   2   2   2   2
#     4  11  21  39  65  89 119 161 203 246 299 358
#     4  10  24  46  62  86 121 154 204 264 302 343
#     4  11  25  42  65  88 116 161 208 251 302 352
#     4   9  19  35  55  85 126 160 189 237 298 356
#     4  11  22  38  60  92 124 157 199 243 291 360
#     4   9  20  35  58  92 128 158 190 242 300 360
#     4  10  21  38  63  88 119 160 200 242 299 358
#     4   9  17  33  58  89 125 162 194 235 296 359
#
# _framework density 25.614764000000001
#
# number of rings (size 3 to 8) (size 9 to 14) (size 15 to 20)
#    0.000    2.000    0.000    4.125    0.000    6.000 
#    0.000    5.625    0.000    0.000    0.000    0.000 
#    0.000    0.000    0.000    0.000    0.000    0.000 
#
# Total GULP energy -89683.800208 kJ/mol
# GULP energy per Si atom -5605.237513 kJ/mol
# Density = 2.555646 g / cm^3
# Si number density = 25.614764 Si / 1000 Ang^3
#
#
#
# Elastic Constant Matrix: (Units=GPa)
#
#
# Indices 1 2 3 4 5 6 
#
# 1 107.2985 -0.3138 55.8168 -23.3928 -9.4862 -12.0654
# 2 -0.3138 77.6895 -0.6975 3.1472 -6.7965 -9.7422
# 3 55.8168 -0.6975 77.3904 -23.6723 1.3307 -3.5956
# 4 -23.3928 3.1472 -23.6723 29.3670 1.6905 1.6574
# 5 -9.4862 -6.7965 1.3307 1.6905 39.6473 -6.9074
# 6 -12.0654 -9.7422 -3.5956 1.6574 -6.9074 38.4167
#
#
#
# Elastic Compliance Matrix: (Units=1/GPa)
#
#
# Indices 1 2 3 4 5 6 
#
# 1 0.016874 0.000938 -0.010765 0.004058 0.005311 0.005310
# 2 0.000938 0.013805 -0.001020 -0.002004 0.003479 0.004412
# 3 -0.010765 -0.001020 0.024110 0.011381 -0.004513 -0.002685
# 4 0.004058 -0.002004 0.011381 0.046808 -0.001841 -0.000519
# 5 0.005311 0.003479 -0.004513 -0.001841 0.028600 0.007350
# 6 0.005310 0.004412 -0.002685 -0.000519 0.007350 0.029909
#
#
# Mechanical properties :
#
#
# Convention : Reuss Voigt Hill
#
# Bulk Modulus (GPa) = 30.21567 41.33215 35.77391
# Shear Modulus (GPa) = 25.92925 35.32438 30.62681
#
# Velocity S-wave (km/s) = 3.18508 3.71760 3.46160
# Velocity P-wave (km/s) = 5.03469 5.88205 5.47479
#
# Compressibility (1/GPa) = 0.03309541
#
# Stress axis : x y z
#
# Youngs Moduli (GPa) = 59.26354 72.43659 41.47587
#
# Poissons Ratio (x) = -0.06792 0.44649
# Poissons Ratio (y) = -0.05557 0.04229
# Poissons Ratio (z) = 0.63797 0.07386
#
# Static dielectric constant tensor:
#      x y z
#    x 1.964770 -0.000650 0.019910 
#    y -0.000650 2.033450 0.063370 
#    z 0.019910 0.063370 2.052750 
# 
# From -- ./inp_files/505316.got.cif
#   From: 2010.05.17/outbox.cif.g08.bks.cpg/sg2_253_cif.got.tgz:505316.got - 2010.06.03 11:33:40.
