data_PCOD9005713
_publ_section_title
;
Structure prediction by ZEFSAII (Michael W. Deem and Ramdas Pophale) SiO2 
 PCOD9005713
Probable space group: P -1
;
_chemical_formula_sum "Si O2"
_cell_formula_units_Z 16
_cell_length_a 19.353653
_cell_length_b 11.713642
_cell_length_c 8.671366
_cell_angle_alpha 67.691073
_cell_angle_beta 135.494619
_cell_angle_gamma 143.691969
_cell_volume 720.169082
_symmetry_space_group_name_H-M "P -1"
_symmetry_group_IT_number 2
_symmetry_cell_setting 'triclinic'
loop_
_space_group_symop_operation_xyz
x,y,z
-x,-y,-z
loop_
_atom_site_type_symbol
_atom_site_label
_atom_site_fract_x
_atom_site_fract_y
_atom_site_fract_z
Si Si1 0.630399 0.901321 0.047247
Si Si2 0.201114 0.037666 0.227818
Si Si3 0.368804 0.853459 0.223694
Si Si4 0.941252 0.580569 0.887571
Si Si5 0.684965 0.610033 0.959600
Si Si6 0.733387 0.789163 0.437373
Si Si7 0.758057 0.576900 0.409626
Si Si8 0.504670 0.203160 0.768887
O O1 0.744322 0.896544 0.257093
O O2 0.584970 0.895885 0.153953
O O3 0.445234 0.674251 0.792250
O O4 0.706082 0.090420 0.970975
O O5 0.231463 0.189300 0.095528
O O6 0.165290 0.051973 0.336139
O O7 0.380137 0.147223 0.481911
O O8 0.074088 0.808063 0.067283
O O9 0.226352 0.608252 0.173546
O O10 0.460091 0.892324 0.198280
O O11 0.500000 0.000000 0.500000
O O12 0.875387 0.579809 0.628086
O O13 0.000000 0.500000 0.000000
O O14 0.478021 0.429666 0.752639
O O15 0.669237 0.464369 0.918079
O O16 0.780531 0.672838 0.236742
O O17 0.786105 0.706629 0.520485
#
# Coordination Sequence:
#
# PCOD9005713 Si02
#       8
#     2   2   2   2   2   2   2   2
#     4   9  19  39  65  98 120 152 207 268 300 353
#     4  10  22  39  62  91 129 160 191 261 310 363
#     4  12  23  38  66  88 116 174 214 247 300 365
#     4  12  28  42  56  90 134 164 209 251 305 366
#     4   9  19  37  66  95 119 156 201 260 310 354
#     4   9  19  37  65  97 121 147 206 258 308 362
#     4  10  21  38  63  91 122 159 206 256 303 362
#     4   9  20  39  66  95 123 155 210 254 307 367
#
# _framework density 22.217003999999999
#
# number of rings (size 3 to 8) (size 9 to 14) (size 15 to 20)
#    0.000    2.500    1.250    4.125    3.500    4.000 
#    2.250    2.500    0.000    0.000    0.000    0.000 
#    0.000    0.000    0.000    0.000    0.000    0.000 
#
# Total GULP energy -89354.877556 kJ/mol
# GULP energy per Si atom -5584.679847 kJ/mol
# Density = 2.216644 g / cm^3
# Si number density = 22.217004 Si / 1000 Ang^3
#
#
#
# Elastic Constant Matrix: (Units=GPa)
#
#
# Indices 1 2 3 4 5 6 
#
# 1 42.7249 17.0699 20.6860 1.3084 -5.6700 -22.5651
# 2 17.0699 128.0986 69.2707 -25.6966 -18.5559 -15.5392
# 3 20.6860 69.2707 97.2714 -14.4068 -16.4952 -12.1719
# 4 1.3084 -25.6966 -14.4068 37.6773 -13.2766 0.3543
# 5 -5.6700 -18.5559 -16.4952 -13.2766 22.1250 -0.9465
# 6 -22.5651 -15.5392 -12.1719 0.3543 -0.9465 23.3240
#
#
#
# Elastic Compliance Matrix: (Units=1/GPa)
#
#
# Indices 1 2 3 4 5 6 
#
# 1 0.056523 0.007920 -0.004102 0.010869 0.027105 0.058754
# 2 0.007920 0.020868 -0.006047 0.021619 0.028820 0.019251
# 3 -0.004102 -0.006047 0.019122 0.007875 0.012962 0.002388
# 4 0.010869 0.021619 0.007875 0.067889 0.068844 0.030791
# 5 0.027105 0.028820 0.012962 0.068844 0.129703 0.056406
# 6 0.058754 0.019251 0.002388 0.030791 0.056406 0.115610
#
#
# Mechanical properties :
#
#
# Convention : Reuss Voigt Hill
#
# Bulk Modulus (GPa) = 10.86304 53.57201 32.21753
# Shear Modulus (GPa) = 11.23956 27.36315 19.30135
#
# Velocity S-wave (km/s) = 2.25166 3.51327 2.95068
# Velocity P-wave (km/s) = 3.41469 6.37360 5.11287
#
# Compressibility (1/GPa) = 0.09205523
#
# Stress axis : x y z
#
# Youngs Moduli (GPa) = 17.69204 47.92057 52.29462
#
# Poissons Ratio (x) = -0.37955 0.21452
# Poissons Ratio (y) = -0.14013 0.31622
# Poissons Ratio (z) = 0.07258 0.28978
#
# Static dielectric constant tensor:
#      x y z
#    x 1.903050 0.026390 0.016230 
#    y 0.026390 1.806550 0.001900 
#    z 0.016230 0.001900 1.816430 
# 
# From -- ./inp_files/346101.got.cif
#   From: 2010.05.17/outbox.cif.g08.bks.cpg/sg2_174_cif.got.tgz:346101.got - 2010.06.03 11:33:40.
