data_PCOD9005413
_publ_section_title
;
Structure prediction by ZEFSAII (Michael W. Deem and Ramdas Pophale) SiO2 
 PCOD9005413
Probable space group: P -1
;
_chemical_formula_sum "Si O2"
_cell_formula_units_Z 16
_cell_length_a 29.232862
_cell_length_b 7.159302
_cell_length_c 18.093326
_cell_angle_alpha 49.290175
_cell_angle_beta 17.589593
_cell_angle_gamma 59.878666
_cell_volume 739.111285
_symmetry_space_group_name_H-M "P -1"
_symmetry_group_IT_number 2
_symmetry_cell_setting 'triclinic'
loop_
_space_group_symop_operation_xyz
x,y,z
-x,-y,-z
loop_
_atom_site_type_symbol
_atom_site_label
_atom_site_fract_x
_atom_site_fract_y
_atom_site_fract_z
Si Si1 0.647760 0.457673 0.707874
Si Si2 0.826275 0.372988 0.977587
Si Si3 0.423240 0.367212 0.872130
Si Si4 0.107644 0.245060 0.614432
Si Si5 0.736061 0.870614 0.340633
Si Si6 0.283903 0.985236 0.324318
Si Si7 0.341251 0.262448 0.855747
Si Si8 0.789208 0.312122 0.883540
O O1 0.721534 0.554805 0.650749
O O2 0.664884 0.725566 0.566710
O O3 0.765547 0.343814 0.515668
O O4 0.450960 0.182767 0.070040
O O5 0.751051 0.229930 0.050481
O O6 0.023248 0.424951 0.666036
O O7 0.808810 0.650059 0.938073
O O8 0.720526 0.138433 0.265916
O O9 0.623444 0.609371 0.524192
O O10 0.400596 0.283576 0.843435
O O11 0.350828 0.102891 0.108381
O O12 0.306465 0.512015 0.030865
O O13 0.142081 0.066573 0.546595
O O14 0.947008 0.009425 0.974126
O O15 0.500000 0.500000 0.500000
O O16 0.279165 0.959131 0.993505
O O17 0.000000 0.500000 0.500000
#
# Coordination Sequence:
#
# PCOD9005413 Si02
#       8
#     2   2   2   2   2   2   2   2
#     4  10  21  40  62  88 124 159 211 249 304 366
#     4   9  22  38  58  92 125 153 207 253 300 364
#     4  10  22  41  61  89 131 155 208 252 308 367
#     4  10  21  38  62  86 123 160 200 249 313 355
#     4   9  20  40  61  89 124 162 197 265 299 359
#     4  10  22  39  62  90 122 164 200 257 303 367
#     4  11  23  41  67  90 121 170 209 248 312 373
#     4  11  23  39  63  91 127 164 203 255 314 366
#
# _framework density 21.64762
#
# number of rings (size 3 to 8) (size 9 to 14) (size 15 to 20)
#    0.750    1.250    0.000    3.000    0.000    8.500 
#    0.000    8.750    0.000    0.000    0.000    0.000 
#    0.000    0.000    0.000    0.000    0.000    0.000 
#
# Total GULP energy -89287.334141 kJ/mol
# GULP energy per Si atom -5580.458384 kJ/mol
# Density = 2.159835 g / cm^3
# Si number density = 21.647620 Si / 1000 Ang^3
#
#
#
# Elastic Constant Matrix: (Units=GPa)
#
#
# Indices 1 2 3 4 5 6 
#
# 1 100.7782 43.4387 -0.7152 -5.6326 -8.6251 -6.1810
# 2 43.4387 92.3807 12.1047 6.6818 -6.6035 16.0000
# 3 -0.7152 12.1047 36.3736 -5.1854 -2.2764 5.4260
# 4 -5.6326 6.6818 -5.1854 27.7894 -1.5901 -2.5277
# 5 -8.6251 -6.6035 -2.2764 -1.5901 15.7137 -3.1711
# 6 -6.1810 16.0000 5.4260 -2.5277 -3.1711 28.7366
#
#
#
# Elastic Compliance Matrix: (Units=1/GPa)
#
#
# Indices 1 2 3 4 5 6 
#
# 1 0.015702 -0.009478 0.003598 0.007444 0.007826 0.009493
# 2 -0.009478 0.018703 -0.005922 -0.008729 -0.001561 -0.012274
# 3 0.003598 -0.005922 0.031076 0.008170 0.004702 -0.000559
# 4 0.007444 -0.008729 0.008170 0.042429 0.007815 0.009513
# 5 0.007826 -0.001561 0.004702 0.007815 0.070802 0.010165
# 6 0.009493 -0.012274 -0.000559 0.009513 0.010165 0.045739
#
#
# Mechanical properties :
#
#
# Convention : Reuss Voigt Hill
#
# Bulk Modulus (GPa) = 23.87924 37.68767 30.78346
# Shear Modulus (GPa) = 19.08303 26.09490 22.58896
#
# Velocity S-wave (km/s) = 2.97228 3.47571 3.23381
# Velocity P-wave (km/s) = 4.77850 5.79265 5.30985
#
# Compressibility (1/GPa) = 0.04187738
#
# Stress axis : x y z
#
# Youngs Moduli (GPa) = 63.68766 53.46786 32.17892
#
# Poissons Ratio (x) = 0.50676 -0.11577
# Poissons Ratio (y) = 0.60362 0.19055
# Poissons Ratio (z) = -0.22913 0.31661
#
# Static dielectric constant tensor:
#      x y z
#    x 1.794190 -0.038950 0.018630 
#    y -0.038950 1.780490 0.063330 
#    z 0.018630 0.063330 1.684810 
# 
# From -- ./inp_files/580069.got.cif
#   From: 2010.05.17/outbox.cif.g08.bks.cpg/sg2_291_cif.got.tgz:580069.got - 2010.06.03 11:33:40.
