data_PCOD9005699
_publ_section_title
;
Structure prediction by ZEFSAII (Michael W. Deem and Ramdas Pophale) SiO2 
 PCOD9005699
Probable space group: P -1
;
_chemical_formula_sum "Si O2"
_cell_formula_units_Z 16
_cell_length_a 13.263128
_cell_length_b 11.286279
_cell_length_c 5.468435
_cell_angle_alpha 95.393475
_cell_angle_beta 74.335239
_cell_angle_gamma 80.605478
_cell_volume 769.345467
_symmetry_space_group_name_H-M "P -1"
_symmetry_group_IT_number 2
_symmetry_cell_setting 'triclinic'
loop_
_space_group_symop_operation_xyz
x,y,z
-x,-y,-z
loop_
_atom_site_type_symbol
_atom_site_label
_atom_site_fract_x
_atom_site_fract_y
_atom_site_fract_z
Si Si1 0.332435 0.589340 0.197405
Si Si2 0.546809 0.583900 0.296769
Si Si3 0.798260 0.146458 0.711824
Si Si4 0.925745 0.629799 0.091957
Si Si5 0.209680 0.984968 0.797486
Si Si6 0.706565 0.639732 0.525515
Si Si7 0.202507 0.199506 0.158968
Si Si8 0.038005 0.137337 0.641201
O O1 0.445040 0.629135 0.200503
O O2 0.245379 0.709943 0.248863
O O3 0.300559 0.491950 0.386792
O O4 0.360835 0.506340 0.924977
O O5 0.500000 0.500000 0.500000
O O6 0.604835 0.675209 0.421733
O O7 0.751329 0.085676 0.493756
O O8 0.927114 0.117440 0.602953
O O9 0.776424 0.101769 0.991461
O O10 0.817781 0.626527 0.309563
O O11 0.982589 0.727084 0.207640
O O12 0.883134 0.689256 0.874457
O O13 0.000000 0.500000 0.000000
O O14 0.088784 0.049323 0.811404
O O15 0.248918 0.105028 0.895974
O O16 0.710742 0.740790 0.747343
O O17 0.133203 0.134496 0.379958
#
# Coordination Sequence:
#
# PCOD9005699 Si02
#       8
#     2   2   2   2   2   2   2   2
#     4  10  23  39  63 101 121 165 207 272 329 383
#     4   9  20  41  64  90 128 156 210 261 340 390
#     4  12  26  37  68  90 131 165 223 268 314 374
#     4  10  23  34  56  91 134 167 212 262 309 383
#     4  11  24  43  59  90 126 179 218 264 310 372
#     4  10  21  38  63  90 126 169 207 259 325 389
#     4  10  22  40  59  86 126 175 219 251 314 380
#     4  10  23  38  58  89 127 176 219 256 313 374
#
# _framework density 20.796900000000001
#
# number of rings (size 3 to 8) (size 9 to 14) (size 15 to 20)
#    0.000    1.750    1.250    1.500   12.250    1.000 
#    0.000    0.000    0.000    1.500    0.000    0.000 
#    0.000    0.000    0.000    0.000    0.000    0.000 
#
# Total GULP energy -89214.262588 kJ/mol
# GULP energy per Si atom -5575.891412 kJ/mol
# Density = 2.074957 g / cm^3
# Si number density = 20.796900 Si / 1000 Ang^3
#
#
#
# Elastic Constant Matrix: (Units=GPa)
#
#
# Indices 1 2 3 4 5 6 
#
# 1 76.5982 19.6689 30.1964 16.8461 32.3824 22.8924
# 2 19.6689 69.1535 23.2060 -13.0487 9.5122 1.2553
# 3 30.1964 23.2060 84.3342 -14.8044 27.0279 2.9908
# 4 16.8461 -13.0487 -14.8044 18.7827 7.7371 1.5615
# 5 32.3824 9.5122 27.0279 7.7371 36.1412 11.4637
# 6 22.8924 1.2553 2.9908 1.5615 11.4637 20.8044
#
#
#
# Elastic Compliance Matrix: (Units=1/GPa)
#
#
# Indices 1 2 3 4 5 6 
#
# 1 0.149368 -0.067219 -0.098975 -0.273166 0.068087 -0.163089
# 2 -0.067219 0.049214 0.046106 0.141695 -0.041907 0.076825
# 3 -0.098975 0.046106 0.092903 0.215796 -0.076848 0.118920
# 4 -0.273166 0.141695 0.215796 0.617322 -0.186822 0.317620
# 5 0.068087 -0.041907 -0.076848 -0.186822 0.109266 -0.107531
# 6 -0.163089 0.076825 0.118920 0.317620 -0.107531 0.241206
#
#
# Mechanical properties :
#
#
# Convention : Reuss Voigt Hill
#
# Bulk Modulus (GPa) = 19.49057 41.80316 30.64687
# Shear Modulus (GPa) = 3.29694 25.61330 14.45512
#
# Velocity S-wave (km/s) = 1.26045 3.51321 2.63926
# Velocity P-wave (km/s) = 3.39272 6.04989 4.90468
#
# Compressibility (1/GPa) = 0.05130686
#
# Stress axis : x y z
#
# Youngs Moduli (GPa) = 6.69489 20.31945 10.76396
#
# Poissons Ratio (x) = 1.36586 1.06537
# Poissons Ratio (y) = 0.45003 -0.49629
# Poissons Ratio (z) = 0.66263 -0.93685
#
# Static dielectric constant tensor:
#      x y z
#    x 1.771740 0.061730 0.031650 
#    y 0.061730 1.868710 -0.080600 
#    z 0.031650 -0.080600 1.863230 
# 
# From -- ./inp_files/67136.got.cif
#   From: 2010.05.17/outbox.cif.g08.bks.cpg/sg2_34_cif.got.tgz:67136.got - 2010.06.03 11:33:40.
