data_PCOD9005290
_publ_section_title
;
Structure prediction by ZEFSAII (Michael W. Deem and Ramdas Pophale) SiO2 
 PCOD9005290
Probable space group: P -1
;
_chemical_formula_sum "Si O2"
_cell_formula_units_Z 14
_cell_length_a 10.734938
_cell_length_b 4.895957
_cell_length_c 15.750682
_cell_angle_alpha 66.051776
_cell_angle_beta 124.223916
_cell_angle_gamma 94.928277
_cell_volume 614.349973
_symmetry_space_group_name_H-M "P -1"
_symmetry_group_IT_number 2
_symmetry_cell_setting 'triclinic'
loop_
_space_group_symop_operation_xyz
x,y,z
-x,-y,-z
loop_
_atom_site_type_symbol
_atom_site_label
_atom_site_fract_x
_atom_site_fract_y
_atom_site_fract_z
Si Si1 0.152658 0.549998 0.627885
Si Si2 0.878190 0.895881 0.574290
Si Si3 0.670699 0.975281 0.337849
Si Si4 0.632004 0.094070 0.863581
Si Si5 0.918024 0.281133 0.877351
Si Si6 0.351222 0.579945 0.994644
Si Si7 0.010084 0.889127 0.806695
O O1 0.208392 0.219832 0.655332
O O2 0.014988 0.627771 0.630384
O O3 0.100929 0.784932 0.500950
O O4 0.299850 0.682297 0.700655
O O5 0.723224 0.861772 0.467967
O O6 0.900918 0.925913 0.678148
O O7 0.510416 0.924337 0.249488
O O8 0.742136 0.274936 0.831401
O O9 0.604297 0.254508 0.924394
O O10 0.694738 0.740121 0.955537
O O11 0.963032 0.601963 0.873525
O O12 0.969374 0.180936 0.814327
O O13 0.000000 0.000000 0.000000
O O14 0.193762 0.792323 0.872328
O O15 0.500000 0.500000 0.000000
#
# Coordination Sequence:
#
# PCOD9005290 Si02
#       7
#     2   2   2   2   2   2   2
#     4   9  20  38  62  89 134 166 204 241 330 398
#     4   9  23  37  63  97 124 167 207 259 321 377
#     4  10  21  38  61  91 119 170 200 256 310 392
#     4  12  25  44  68  87 134 171 218 254 321 386
#     4  12  24  47  64  91 122 184 226 251 312 369
#     4  12  26  42  63 104 128 164 204 274 331 378
#     4  12  25  41  71  93 131 164 221 275 299 381
#
# _framework density 22.788312999999999
#
# number of rings (size 3 to 8) (size 9 to 14) (size 15 to 20)
#    0.857    0.286    2.857    3.000    6.000    0.000 
#    0.000    1.429    0.000    0.000    0.000    0.000 
#    0.000    0.000    0.000    0.000    0.000    0.000 
#
# Total GULP energy -78167.667704 kJ/mol
# GULP energy per Si atom -5583.404836 kJ/mol
# Density = 2.273645 g / cm^3
# Si number density = 22.788313 Si / 1000 Ang^3
#
#
#
# Elastic Constant Matrix: (Units=GPa)
#
#
# Indices 1 2 3 4 5 6 
#
# 1 77.2714 2.9139 38.7835 4.2678 13.2601 4.7083
# 2 2.9139 74.8132 21.3465 21.4214 -4.4436 -3.0496
# 3 38.7835 21.3465 140.3160 25.6799 6.7450 -9.0206
# 4 4.2678 21.4214 25.6799 32.4124 7.0263 -3.5532
# 5 13.2601 -4.4436 6.7450 7.0263 42.9149 5.1137
# 6 4.7083 -3.0496 -9.0206 -3.5532 5.1137 32.5043
#
#
#
# Elastic Compliance Matrix: (Units=1/GPa)
#
#
# Indices 1 2 3 4 5 6 
#
# 1 0.016166 -0.000361 -0.004857 0.002603 -0.004367 -0.002752
# 2 -0.000361 0.017114 -0.000577 -0.011704 0.003938 -0.000401
# 3 -0.004857 -0.000577 0.009916 -0.006700 0.000674 0.002563
# 4 0.002603 -0.011704 -0.006700 0.045802 -0.008827 0.003061
# 5 -0.004367 0.003938 0.000674 -0.008827 0.026875 -0.004004
# 6 -0.002752 -0.000401 0.002563 0.003061 -0.004004 0.032802
#
#
# Mechanical properties :
#
#
# Convention : Reuss Voigt Hill
#
# Bulk Modulus (GPa) = 31.63895 46.49870 39.06882
# Shear Modulus (GPa) = 29.27408 36.85677 33.06543
#
# Velocity S-wave (km/s) = 3.58803 4.02600 3.81331
# Velocity P-wave (km/s) = 5.57488 6.48540 6.04730
#
# Compressibility (1/GPa) = 0.03160662
#
# Stress axis : x y z
#
# Youngs Moduli (GPa) = 61.85811 58.43163 100.85159
#
# Poissons Ratio (x) = 0.02108 0.48981
# Poissons Ratio (y) = 0.02231 0.05820
# Poissons Ratio (z) = 0.30043 0.03372
#
# Static dielectric constant tensor:
#      x y z
#    x 1.913170 -0.000400 0.017830 
#    y -0.000400 1.850980 0.001680 
#    z 0.017830 0.001680 1.909500 
# 
# From -- ./inp_files/509855.got.cif
#   From: 2010.05.17/outbox.cif.g08.bks.cpg/sg2_255_cif.got.tgz:509855.got - 2010.06.03 11:33:40.
