data_PCOD9005302
_publ_section_title
;
Structure prediction by ZEFSAII (Michael W. Deem and Ramdas Pophale) SiO2 
 PCOD9005302
Probable space group: P -1
;
_chemical_formula_sum "Si O2"
_cell_formula_units_Z 10
_cell_length_a 10.435686
_cell_length_b 5.104023
_cell_length_c 13.191004
_cell_angle_alpha 55.145003
_cell_angle_beta 37.166459
_cell_angle_gamma 67.923372
_cell_volume 343.801665
_symmetry_space_group_name_H-M "P -1"
_symmetry_group_IT_number 2
_symmetry_cell_setting 'triclinic'
loop_
_space_group_symop_operation_xyz
x,y,z
-x,-y,-z
loop_
_atom_site_type_symbol
_atom_site_label
_atom_site_fract_x
_atom_site_fract_y
_atom_site_fract_z
Si Si1 0.773214 0.702828 0.877209
Si Si2 0.034230 0.624779 0.563714
Si Si3 0.489266 0.883692 0.194806
Si Si4 0.843406 0.449951 0.238735
Si Si5 0.721182 0.090213 0.209973
O O1 0.853497 0.459102 0.793740
O O2 0.025213 0.803861 0.732832
O O3 0.621977 0.884573 0.861227
O O4 0.647414 0.715409 0.061053
O O5 0.285925 0.636755 0.418732
O O6 0.000000 0.500000 0.500000
O O7 0.000000 0.000000 0.500000
O O8 0.592164 0.070522 0.188650
O O9 0.682031 0.263372 0.300963
O O10 0.734339 0.716982 0.304799
O O11 0.045832 0.698372 0.009894
#
# Coordination Sequence:
#
# PCOD9005302 Si02
#       5
#     2   2   2   2   2
#     4  10  22  40  67  95 122 165 213 256 307 372
#     4  10  24  42  60  92 132 160 199 264 317 358
#     4  10  22  41  67  95 124 165 213 256 307 372
#     4  10  21  38  61  91 127 164 203 254 313 367
#     4  10  21  38  61  91 127 164 203 254 313 367
#
# _framework density 29.086535999999999
#
# number of rings (size 3 to 8) (size 9 to 14) (size 15 to 20)
#    0.000    2.000    0.000    3.600    0.000   16.000 
#    0.000    2.000    0.000    1.200    0.000    2.800 
#    0.000    0.000    0.000    0.000    0.000    0.000 
#
# Total GULP energy -55716.586302 kJ/mol
# GULP energy per Si atom -5571.658630 kJ/mol
# Density = 2.902033 g / cm^3
# Si number density = 29.086536 Si / 1000 Ang^3
#
#
#
# Elastic Constant Matrix: (Units=GPa)
#
#
# Indices 1 2 3 4 5 6 
#
# 1 258.2270 104.3760 62.5351 9.8375 20.4724 25.2225
# 2 104.3760 200.1685 69.8160 33.0697 1.6394 47.6785
# 3 62.5351 69.8160 130.5428 27.5848 -16.6760 21.9561
# 4 9.8375 33.0697 27.5848 50.6125 -4.9961 -1.2123
# 5 20.4724 1.6394 -16.6760 -4.9961 34.0421 -7.1184
# 6 25.2225 47.6785 21.9561 -1.2123 -7.1184 59.5937
#
#
#
# Elastic Compliance Matrix: (Units=1/GPa)
#
#
# Indices 1 2 3 4 5 6 
#
# 1 0.005649 -0.002265 -0.002250 0.001181 -0.004266 -0.000235
# 2 -0.002265 0.009091 -0.002042 -0.004726 -0.002003 -0.005898
# 3 -0.002250 -0.002042 0.011657 -0.003978 0.006362 -0.001030
# 4 0.001181 -0.004726 -0.003978 0.025156 0.002420 0.005547
# 5 -0.004266 -0.002003 0.006362 0.002420 0.036658 0.005492
# 6 -0.000235 -0.005898 -0.001030 0.005547 0.005492 0.022747
#
#
# Mechanical properties :
#
#
# Convention : Reuss Voigt Hill
#
# Bulk Modulus (GPa) = 75.28615 118.04364 96.66490
# Shear Modulus (GPa) = 38.91063 52.33040 45.62052
#
# Velocity S-wave (km/s) = 3.66150 4.24621 3.96465
# Velocity P-wave (km/s) = 6.61930 8.04439 7.36639
#
# Compressibility (1/GPa) = 0.01328266
#
# Stress axis : x y z
#
# Youngs Moduli (GPa) = 177.01622 109.99629 85.78676
#
# Poissons Ratio (x) = 0.24917 0.19300
# Poissons Ratio (y) = 0.40098 0.17520
# Poissons Ratio (z) = 0.39824 0.22465
#
# Static dielectric constant tensor:
#      x y z
#    x 2.409480 -0.052910 0.183930 
#    y -0.052910 2.546650 -0.185910 
#    z 0.183930 -0.185910 2.562150 
# 
# From -- ./inp_files/371712.got.cif
#   From: 2010.05.17/outbox.cif.g08.bks.cpg/sg2_186_cif.got.tgz:371712.got - 2010.06.03 11:33:40.
