data_PCOD9005166
_publ_section_title
;
Structure prediction by ZEFSAII (Michael W. Deem and Ramdas Pophale) SiO2 
 PCOD9005166
Probable space group: P -1
;
_chemical_formula_sum "Si O2"
_cell_formula_units_Z 16
_cell_length_a 14.907346
_cell_length_b 21.239309
_cell_length_c 9.729001
_cell_angle_alpha 141.634163
_cell_angle_beta 46.465349
_cell_angle_gamma 159.732429
_cell_volume 646.480274
_symmetry_space_group_name_H-M "P -1"
_symmetry_group_IT_number 2
_symmetry_cell_setting 'triclinic'
loop_
_space_group_symop_operation_xyz
x,y,z
-x,-y,-z
loop_
_atom_site_type_symbol
_atom_site_label
_atom_site_fract_x
_atom_site_fract_y
_atom_site_fract_z
Si Si1 0.987861 0.913356 0.998869
Si Si2 0.075989 0.960433 0.523279
Si Si3 0.496361 0.094745 0.567203
Si Si4 0.127116 0.305400 0.475543
Si Si5 0.307110 0.768427 0.924711
Si Si6 0.309735 0.656538 0.454628
Si Si7 0.587790 0.288425 0.040255
Si Si8 0.081862 0.780940 0.029935
O O1 0.269624 0.067159 0.999699
O O2 0.913674 0.915796 0.222130
O O3 0.000000 0.000000 0.000000
O O4 0.811036 0.698064 0.744564
O O5 0.000549 0.835315 0.256969
O O6 0.868818 0.768901 0.528525
O O7 0.387675 0.160967 0.546513
O O8 0.652888 0.217698 0.469506
O O9 0.500000 0.000000 0.500000
O O10 0.630276 0.284669 0.833864
O O11 0.184562 0.890963 0.531698
O O12 0.303826 0.527407 0.707374
O O13 0.226220 0.636277 0.657751
O O14 0.277817 0.697481 0.981010
O O15 0.626471 0.005716 0.979697
O O16 0.156239 0.764721 0.056852
O O17 0.127172 0.434646 0.207611
#
# Coordination Sequence:
#
# PCOD9005166 Si02
#       8
#     2   2   2   2   2   2   2   2
#     4   9  20  39  60  86 121 153 197 248 297 354
#     4   9  19  36  60  86 113 151 203 243 288 357
#     4  10  23  35  57  88 125 153 192 243 287 350
#     4   9  20  36  56  89 121 152 194 239 301 346
#     4  10  24  38  59  87 123 153 205 240 287 362
#     4  10  21  39  57  85 116 162 196 233 299 348
#     4  11  23  38  61  93 119 158 196 245 301 347
#     4  10  21  38  61  82 117 165 197 238 295 349
#
# _framework density 24.749402
#
# number of rings (size 3 to 8) (size 9 to 14) (size 15 to 20)
#    0.000    2.250    0.000    1.875    8.750    5.500 
#    0.000    2.500    0.000    4.500    0.000    0.000 
#    0.000    0.000    0.000    0.000    0.000    0.000 
#
# Total GULP energy -89233.822994 kJ/mol
# GULP energy per Si atom -5577.113937 kJ/mol
# Density = 2.469307 g / cm^3
# Si number density = 24.749402 Si / 1000 Ang^3
#
#
#
# Elastic Constant Matrix: (Units=GPa)
#
#
# Indices 1 2 3 4 5 6 
#
# 1 55.7989 -4.3643 3.0019 -7.8642 16.8233 14.7418
# 2 -4.3643 35.9877 23.6878 -3.3712 7.2326 5.4025
# 3 3.0019 23.6878 235.9773 2.6264 32.6366 1.3994
# 4 -7.8642 -3.3712 2.6264 46.8377 2.2876 0.3112
# 5 16.8233 7.2326 32.6366 2.2876 15.8098 -1.2981
# 6 14.7418 5.4025 1.3994 0.3112 -1.2981 -2.4463
#
#
#
# Elastic Compliance Matrix: (Units=1/GPa)
#
#
# Indices 1 2 3 4 5 6 
#
# 1 0.008109 -0.004715 0.000777 0.000937 -0.004799 0.041563
# 2 -0.004715 0.025146 -0.002787 0.000950 0.001183 0.025016
# 3 0.000777 -0.002787 0.006029 0.000093 -0.011354 0.008013
# 4 0.000937 0.000950 0.000093 0.021670 -0.003730 0.012534
# 5 -0.004799 0.001183 -0.011354 -0.003730 0.085345 -0.078559
# 6 0.041563 0.025016 0.008013 0.012534 -0.078559 -0.055205
#
#
# Mechanical properties :
#
#
# Convention : Reuss Voigt Hill
#
# Bulk Modulus (GPa) = 38.70920 41.37942 40.04431
# Shear Modulus (GPa) = 44.18737 32.40279 38.29508
#
# Velocity S-wave (km/s) = 4.22997 3.62226 3.93786
# Velocity P-wave (km/s) = 6.28739 5.85235 6.07377
#
# Compressibility (1/GPa) = 0.02583365
#
# Stress axis : x y z
#
# Youngs Moduli (GPa) = 123.31925 39.76853 165.85722
#
# Poissons Ratio (x) = 0.18752 -0.12886
# Poissons Ratio (y) = 0.58149 0.46220
# Poissons Ratio (z) = -0.09581 0.11082
#
# Static dielectric constant tensor:
#      x y z
#    x 2.053540 -0.032330 -0.045900 
#    y -0.032330 1.953490 -0.007300 
#    z -0.045900 -0.007300 2.039720 
# 
# From -- ./inp_files/467668.got.cif
#   From: 2010.05.17/outbox.cif.g08.bks.cpg/sg2_234_cif.got.tgz:467668.got - 2010.06.03 11:33:40.
