data_PCOD9005039
_publ_section_title
;
Structure prediction by ZEFSAII (Michael W. Deem and Ramdas Pophale) SiO2 
 PCOD9005039
Probable space group: P -1
;
_chemical_formula_sum "Si O2"
_cell_formula_units_Z 16
_cell_length_a 12.254846
_cell_length_b 12.071897
_cell_length_c 7.794068
_cell_angle_alpha 105.276962
_cell_angle_beta 143.786208
_cell_angle_gamma 68.033190
_cell_volume 630.217691
_symmetry_space_group_name_H-M "P -1"
_symmetry_group_IT_number 2
_symmetry_cell_setting 'triclinic'
loop_
_space_group_symop_operation_xyz
x,y,z
-x,-y,-z
loop_
_atom_site_type_symbol
_atom_site_label
_atom_site_fract_x
_atom_site_fract_y
_atom_site_fract_z
Si Si1 0.873413 0.571344 0.617810
Si Si2 0.061739 0.077534 0.757248
Si Si3 0.932430 0.671747 0.354093
Si Si4 0.515388 0.768762 0.181469
Si Si5 0.094630 0.845459 0.840153
Si Si6 0.128311 0.700350 0.168900
Si Si7 0.497054 0.736702 0.746918
Si Si8 0.508211 0.019667 0.315245
O O1 0.906845 0.616100 0.486073
O O2 0.662711 0.659676 0.421856
O O3 0.903156 0.430618 0.575164
O O4 0.027231 0.598314 0.954613
O O5 0.961833 0.210392 0.752359
O O6 0.039819 0.987593 0.846183
O O7 0.285011 0.059668 0.996850
O O8 0.000000 0.000000 0.500000
O O9 0.988192 0.789940 0.532889
O O10 0.728714 0.690415 0.005617
O O11 0.599396 0.883953 0.311400
O O12 0.318354 0.807233 0.051358
O O13 0.469423 0.739500 0.918185
O O14 0.075337 0.781781 0.965116
O O15 0.358937 0.663398 0.465919
O O16 0.421778 0.871128 0.624832
O O17 0.500000 0.000000 0.500000
#
# Coordination Sequence:
#
# PCOD9005039 Si02
#       8
#     2   2   2   2   2   2   2   2
#     4   9  20  39  61  86 120 162 205 249 299 358
#     4  11  22  37  58  85 121 155 195 249 304 363
#     4   9  20  39  61  86 120 162 205 249 299 358
#     4  10  21  38  60  88 120 158 200 246 301 363
#     4  10  21  38  60  88 120 158 200 246 301 363
#     4  11  22  36  59  88 121 158 200 248 302 358
#     4  11  22  36  59  88 121 158 200 248 302 358
#     4  11  22  37  58  85 121 155 195 249 304 363
#
# _framework density 25.388051999999998
#
# number of rings (size 3 to 8) (size 9 to 14) (size 15 to 20)
#    0.000    1.750    0.000    5.250    0.000    4.000 
#    0.000    0.000    0.000   17.250    0.000    0.000 
#    0.000    0.000    0.000    0.000    0.000    0.000 
#
# Total GULP energy -89447.396295 kJ/mol
# GULP energy per Si atom -5590.462268 kJ/mol
# Density = 2.533027 g / cm^3
# Si number density = 25.388052 Si / 1000 Ang^3
#
#
#
# Elastic Constant Matrix: (Units=GPa)
#
#
# Indices 1 2 3 4 5 6 
#
# 1 50.2005 17.1043 15.9006 1.1552 -5.1985 1.0702
# 2 17.1043 151.2171 53.8630 -5.6937 19.6011 9.4292
# 3 15.9006 53.8630 155.9974 12.7009 8.8468 -16.6393
# 4 1.1552 -5.6937 12.7009 23.7844 -7.3223 1.9555
# 5 -5.1985 19.6011 8.8468 -7.3223 38.6772 -4.8175
# 6 1.0702 9.4292 -16.6393 1.9555 -4.8175 27.6356
#
#
#
# Elastic Compliance Matrix: (Units=1/GPa)
#
#
# Indices 1 2 3 4 5 6 
#
# 1 0.021759 -0.002389 -0.001753 0.000763 0.004640 -0.000328
# 2 -0.002389 0.009269 -0.003666 0.003484 -0.004302 -0.006274
# 3 -0.001753 -0.003666 0.009201 -0.006551 -0.000829 0.007177
# 4 0.000763 0.003484 -0.006551 0.049490 0.008306 -0.007216
# 5 0.004640 -0.004302 -0.000829 0.008306 0.031122 0.005627
# 6 -0.000328 -0.006274 0.007177 -0.007216 0.005627 0.044152
#
#
# Mechanical properties :
#
#
# Convention : Reuss Voigt Hill
#
# Bulk Modulus (GPa) = 40.62890 59.01674 49.82282
# Shear Modulus (GPa) = 26.48135 36.05593 31.26864
#
# Velocity S-wave (km/s) = 3.23315 3.77263 3.51326
# Velocity P-wave (km/s) = 5.47500 6.50180 6.01036
#
# Compressibility (1/GPa) = 0.02461302
#
# Stress axis : x y z
#
# Youngs Moduli (GPa) = 45.95722 107.88738 108.68730
#
# Poissons Ratio (x) = 0.25773 0.19056
# Poissons Ratio (y) = 0.10979 0.39842
# Poissons Ratio (z) = 0.08058 0.39549
#
# Static dielectric constant tensor:
#      x y z
#    x 2.082500 0.035190 -0.070810 
#    y 0.035190 2.023720 -0.041180 
#    z -0.070810 -0.041180 2.066200 
# 
# From -- ./inp_files/299513.got.cif
#   From: 2010.05.17/outbox.cif.g08.bks.cpg/sg2_150_cif.got.tgz:299513.got - 2010.06.03 11:33:40.
