data_PCOD9005667
_publ_section_title
;
Structure prediction by ZEFSAII (Michael W. Deem and Ramdas Pophale) SiO2 
 PCOD9005667
Probable space group: P -1
;
_chemical_formula_sum "Si O2"
_cell_formula_units_Z 16
_cell_length_a 5.261010
_cell_length_b 5.283643
_cell_length_c 29.731249
_cell_angle_alpha 72.244881
_cell_angle_beta 98.485023
_cell_angle_gamma 60.834171
_cell_volume 642.230273
_symmetry_space_group_name_H-M "P -1"
_symmetry_group_IT_number 2
_symmetry_cell_setting 'triclinic'
loop_
_space_group_symop_operation_xyz
x,y,z
-x,-y,-z
loop_
_atom_site_type_symbol
_atom_site_label
_atom_site_fract_x
_atom_site_fract_y
_atom_site_fract_z
Si Si1 0.311226 0.655667 0.788344
Si Si2 0.634695 0.783528 0.112490
Si Si3 0.209829 0.114516 0.519358
Si Si4 0.680158 0.123300 0.768895
Si Si5 0.628543 0.220765 0.981472
Si Si6 0.267076 0.317173 0.131987
Si Si7 0.411356 0.801980 0.639753
Si Si8 0.845872 0.638861 0.323428
O O1 0.300279 0.370415 0.827568
O O2 0.557045 0.476575 0.764484
O O3 0.456409 0.735550 0.827988
O O4 0.965330 0.943819 0.751522
O O5 0.509179 0.652416 0.079185
O O6 0.967449 0.680094 0.108146
O O7 0.372283 0.155538 0.095101
O O8 0.000000 0.500000 0.500000
O O9 0.500000 0.000000 0.500000
O O10 0.338032 0.949061 0.579966
O O11 0.000000 0.000000 0.500000
O O12 0.376554 0.173786 0.735520
O O13 0.824444 0.889351 0.828904
O O14 0.500000 0.500000 0.000000
O O15 0.500000 0.000000 0.000000
O O16 0.000000 0.000000 0.000000
O O17 0.266968 0.591648 0.652928
O O18 0.787709 0.577269 0.666179
O O19 0.247984 0.097246 0.654794
#
# Coordination Sequence:
#
# PCOD9005667 Si02
#       8
#     2   2   2   2   2   2   2   2
#     4  10  21  38  63  88 125 161 227 269 330 390
#     4  10  23  39  61  94 123 169 215 282 329 392
#     4  12  25  45  74 103 137 179 230 293 342 405
#     4  10  23  38  59  94 120 178 216 270 327 392
#     4  12  28  47  73 102 139 182 229 279 349 423
#     4  10  21  38  64  89 125 162 224 269 330 390
#     4  12  26  46  69 105 137 185 228 280 350 405
#     4  12  27  45  71  98 148 181 229 280 337 421
#
# _framework density 24.913180000000001
#
# number of rings (size 3 to 8) (size 9 to 14) (size 15 to 20)
#    0.000    1.000    0.000    6.000    7.000    0.000 
#    0.000    0.000    0.000    0.000    0.000    0.000 
#    0.000    0.000    0.000    0.000    0.000    0.000 
#
# Total GULP energy -89549.924385 kJ/mol
# GULP energy per Si atom -5596.870274 kJ/mol
# Density = 2.485648 g / cm^3
# Si number density = 24.913180 Si / 1000 Ang^3
#
#
#
# Elastic Constant Matrix: (Units=GPa)
#
#
# Indices 1 2 3 4 5 6 
#
# 1 149.6378 74.7560 19.8783 -8.6718 6.9195 -14.1167
# 2 74.7560 198.8058 26.8902 23.8299 -1.8945 -13.8507
# 3 19.8783 26.8902 126.7270 4.2942 -2.6238 -2.0247
# 4 -8.6718 23.8299 4.2942 41.2636 1.6525 8.3881
# 5 6.9195 -1.8945 -2.6238 1.6525 43.2514 -4.0873
# 6 -14.1167 -13.8507 -2.0247 8.3881 -4.0873 53.3729
#
#
#
# Elastic Compliance Matrix: (Units=1/GPa)
#
#
# Indices 1 2 3 4 5 6 
#
# 1 0.009042 -0.003759 -0.000786 0.004100 -0.001758 0.000607
# 2 -0.003759 0.007324 -0.000728 -0.005363 0.001255 0.001818
# 3 -0.000786 -0.000728 0.008204 -0.000636 0.000622 0.000062
# 4 0.004100 -0.005363 -0.000636 0.029408 -0.002540 -0.005148
# 5 -0.001758 0.001255 0.000622 -0.002540 0.023791 0.002105
# 6 0.000607 0.001818 0.000062 -0.005148 0.002105 0.020341
#
#
# Mechanical properties :
#
#
# Convention : Reuss Voigt Hill
#
# Bulk Modulus (GPa) = 71.31164 79.80217 75.55690
# Shear Modulus (GPa) = 44.11927 51.15399 47.63663
#
# Velocity S-wave (km/s) = 4.21280 4.53624 4.37751
# Velocity P-wave (km/s) = 7.23531 7.71611 7.47957
#
# Compressibility (1/GPa) = 0.01402296
#
# Stress axis : x y z
#
# Youngs Moduli (GPa) = 110.60055 136.54555 121.89024
#
# Poissons Ratio (x) = 0.51333 0.09583
# Poissons Ratio (y) = 0.41580 0.08868
# Poissons Ratio (z) = 0.08695 0.09934
#
# Static dielectric constant tensor:
#      x y z
#    x 2.056770 0.014270 -0.135850 
#    y 0.014270 2.052210 -0.049560 
#    z -0.135850 -0.049560 1.993000 
# 
# From -- ./inp_files/14580.got.cif
#   From: 2010.05.17/outbox.cif.g08.bks.cpg/sg2_8_cif.got.tgz:14580.got - 2010.06.03 11:33:40.
