data_PCOD9005727
_publ_section_title
;
Structure prediction by ZEFSAII (Michael W. Deem and Ramdas Pophale) SiO2 
 PCOD9005727
Probable space group: P -1
;
_chemical_formula_sum "Si O2"
_cell_formula_units_Z 12
_cell_length_a 8.103178
_cell_length_b 5.445687
_cell_length_c 18.469767
_cell_angle_alpha 84.435502
_cell_angle_beta 134.421576
_cell_angle_gamma 121.274440
_cell_volume 447.636231
_symmetry_space_group_name_H-M "P -1"
_symmetry_group_IT_number 2
_symmetry_cell_setting 'triclinic'
loop_
_space_group_symop_operation_xyz
x,y,z
-x,-y,-z
loop_
_atom_site_type_symbol
_atom_site_label
_atom_site_fract_x
_atom_site_fract_y
_atom_site_fract_z
Si Si1 0.489928 0.004089 0.168765
Si Si2 0.833929 0.198356 0.067807
Si Si3 0.806007 0.549756 0.490816
Si Si4 0.115750 0.655774 0.344249
Si Si5 0.726033 0.735631 0.324699
Si Si6 0.167542 0.918444 0.204242
O O1 0.493787 0.722698 0.203398
O O2 0.427565 0.121933 0.218444
O O3 0.827879 0.299019 0.238895
O O4 0.233822 0.880321 0.036135
O O5 0.986469 0.561831 0.124889
O O6 0.978694 0.041744 0.145538
O O7 0.500000 0.000000 0.000000
O O8 0.599956 0.541620 0.367798
O O9 0.000000 0.500000 0.500000
O O10 0.688065 0.359254 0.535980
O O11 0.055330 0.905807 0.586159
O O12 0.949272 0.740281 0.341154
O O13 0.262976 0.877321 0.313117
#
# Coordination Sequence:
#
# PCOD9005727 Si02
#       6
#     2   2   2   2   2   2
#     4  11  24  39  63  92 125 168 209 261 313 370
#     4  12  25  45  66  90 129 170 213 260 314 370
#     4   8  16  34  60  93 119 161 205 254 311 371
#     4  10  21  38  63  91 126 165 210 258 313 374
#     4   9  18  35  64  88 124 162 208 254 313 375
#     4  12  27  42  64  95 129 166 213 262 312 372
#
# _framework density 26.807483999999999
#
# number of rings (size 3 to 8) (size 9 to 14) (size 15 to 20)
#    0.000    1.667    1.667    2.500    7.000    0.000 
#    0.000    0.833    0.000   34.000    0.000    0.000 
#    0.000    0.000    0.000    0.000    0.000    0.000 
#
# Total GULP energy -67120.637367 kJ/mol
# GULP energy per Si atom -5593.386447 kJ/mol
# Density = 2.674647 g / cm^3
# Si number density = 26.807484 Si / 1000 Ang^3
#
#
#
# Elastic Constant Matrix: (Units=GPa)
#
#
# Indices 1 2 3 4 5 6 
#
# 1 91.6706 23.5789 17.0334 -14.0800 -4.2905 2.2939
# 2 23.5789 99.5327 24.4957 -21.1049 -10.0637 7.7179
# 3 17.0334 24.4957 171.9504 -28.7485 -33.6190 -1.5974
# 4 -14.0800 -21.1049 -28.7485 60.2859 3.9946 -8.0166
# 5 -4.2905 -10.0637 -33.6190 3.9946 49.2008 -10.2248
# 6 2.2939 7.7179 -1.5974 -8.0166 -10.2248 51.0403
#
#
#
# Elastic Compliance Matrix: (Units=1/GPa)
#
#
# Indices 1 2 3 4 5 6 
#
# 1 0.011869 -0.002315 -0.000547 0.001707 0.000066 0.000081
# 2 -0.002315 0.011598 -0.000686 0.002982 0.001262 -0.000950
# 3 -0.000547 -0.000686 0.007498 0.003120 0.005070 0.001869
# 4 0.001707 0.002982 0.003120 0.019799 0.001920 0.003064
# 5 0.000066 0.001262 0.005070 0.001920 0.024993 0.005273
# 6 0.000081 -0.000950 0.001869 0.003064 0.005273 0.021329
#
#
# Mechanical properties :
#
#
# Convention : Reuss Voigt Hill
#
# Bulk Modulus (GPa) = 41.89585 54.81886 48.35735
# Shear Modulus (GPa) = 44.58823 51.97512 48.28168
#
# Velocity S-wave (km/s) = 4.08275 4.40799 4.24848
# Velocity P-wave (km/s) = 6.15528 6.81180 6.49185
#
# Compressibility (1/GPa) = 0.02386871
#
# Stress axis : x y z
#
# Youngs Moduli (GPa) = 84.25379 86.22302 133.37029
#
# Poissons Ratio (x) = 0.19958 0.07294
# Poissons Ratio (y) = 0.19502 0.09155
# Poissons Ratio (z) = 0.04608 0.05918
#
# Static dielectric constant tensor:
#      x y z
#    x 2.047050 0.003090 -0.015720 
#    y 0.003090 2.325870 -0.032910 
#    z -0.015720 -0.032910 2.176230 
# 
# From -- ./inp_files/91202.got.cif
#   From: 2010.05.17/outbox.cif.g08.bks.cpg/sg2_46_cif.got.tgz:91202.got - 2010.06.03 11:33:40.
