data_PCOD9005145
_publ_section_title
;
Structure prediction by ZEFSAII (Michael W. Deem and Ramdas Pophale) SiO2 
 PCOD9005145
Probable space group: P -1
;
_chemical_formula_sum "Si O2"
_cell_formula_units_Z 16
_cell_length_a 19.878313
_cell_length_b 10.552080
_cell_length_c 7.605908
_cell_angle_alpha 56.079822
_cell_angle_beta 43.737441
_cell_angle_gamma 41.052967
_cell_volume 724.086921
_symmetry_space_group_name_H-M "P -1"
_symmetry_group_IT_number 2
_symmetry_cell_setting 'triclinic'
loop_
_space_group_symop_operation_xyz
x,y,z
-x,-y,-z
loop_
_atom_site_type_symbol
_atom_site_label
_atom_site_fract_x
_atom_site_fract_y
_atom_site_fract_z
Si Si1 0.366507 0.669795 0.193873
Si Si2 0.116746 0.688261 0.227278
Si Si3 0.086063 0.483628 0.696052
Si Si4 0.598975 0.138395 0.691700
Si Si5 0.333145 0.265347 0.011046
Si Si6 0.747921 0.549699 0.340895
Si Si7 0.013979 0.256878 0.892924
Si Si8 0.754922 0.118402 0.092261
O O1 0.376385 0.761789 0.279307
O O2 0.307534 0.560645 0.424464
O O3 0.500000 0.500000 0.000000
O O4 0.294787 0.829081 0.052270
O O5 0.057732 0.677894 0.523815
O O6 0.212123 0.465954 0.156246
O O7 0.010216 0.809263 0.190591
O O8 0.201505 0.752456 0.043752
O O9 0.222010 0.372622 0.608085
O O10 0.000000 0.500000 0.000000
O O11 0.057463 0.387830 0.674293
O O12 0.454358 0.239552 0.866187
O O13 0.655855 0.149209 0.394905
O O14 0.658247 0.918201 0.802998
O O15 0.325930 0.290827 0.793554
O O16 0.882404 0.382653 0.137651
O O17 0.120322 0.093205 0.943578
#
# Coordination Sequence:
#
# PCOD9005145 Si02
#       8
#     2   2   2   2   2   2   2   2
#     4  12  26  45  70  99 134 181 221 276 341 396
#     4  11  21  42  66  92 133 180 217 270 336 399
#     4  10  21  38  60  94 132 173 220 265 323 399
#     4  11  25  45  67 103 133 173 229 280 331 393
#     4  10  23  44  70  92 133 176 221 282 331 391
#     4  10  22  44  65  98 132 177 221 272 335 399
#     4  10  23  40  65  97 131 178 221 271 334 391
#     4  12  25  43  68 103 138 176 222 278 332 401
#
# _framework density 22.096796000000001
#
# number of rings (size 3 to 8) (size 9 to 14) (size 15 to 20)
#    0.000    1.250    1.250    4.500    1.750    4.000 
#    2.250    1.875    0.000    0.000    0.000    0.000 
#    0.000    0.000    0.000    0.000    0.000    0.000 
#
# Total GULP energy -89375.428109 kJ/mol
# GULP energy per Si atom -5585.964257 kJ/mol
# Density = 2.204650 g / cm^3
# Si number density = 22.096796 Si / 1000 Ang^3
#
#
#
# Elastic Constant Matrix: (Units=GPa)
#
#
# Indices 1 2 3 4 5 6 
#
# 1 107.0346 -6.4101 37.2862 -0.5046 -4.6930 -12.3164
# 2 -6.4101 43.0088 17.0595 1.5055 -8.0053 -10.9412
# 3 37.2862 17.0595 162.7840 -10.6144 -21.0842 -2.9376
# 4 -0.5046 1.5055 -10.6144 25.2444 -5.0426 0.3488
# 5 -4.6930 -8.0053 -21.0842 -5.0426 44.9607 -8.4281
# 6 -12.3164 -10.9412 -2.9376 0.3488 -8.4281 28.6527
#
#
#
# Elastic Compliance Matrix: (Units=1/GPa)
#
#
# Indices 1 2 3 4 5 6 
#
# 1 0.011559 0.005105 -0.002853 -0.000968 0.002025 0.007233
# 2 0.005105 0.030727 -0.003298 -0.001897 0.007193 0.015728
# 3 -0.002853 -0.003298 0.007787 0.004037 0.003063 -0.000835
# 4 -0.000968 -0.001897 0.004037 0.042665 0.006356 0.000623
# 5 0.002025 0.007193 0.003063 0.006356 0.028158 0.012136
# 6 0.007233 0.015728 -0.000835 0.000623 0.012136 0.047492
#
#
# Mechanical properties :
#
#
# Convention : Reuss Voigt Hill
#
# Bulk Modulus (GPa) = 20.84135 45.41097 33.12616
# Shear Modulus (GPa) = 26.81356 37.43101 32.12228
#
# Velocity S-wave (km/s) = 3.48725 4.12024 3.81689
# Velocity P-wave (km/s) = 5.06625 6.57500 5.86931
#
# Compressibility (1/GPa) = 0.04798153
#
# Stress axis : x y z
#
# Youngs Moduli (GPa) = 86.51356 32.54520 128.41778
#
# Poissons Ratio (x) = -0.16615 0.36637
# Poissons Ratio (y) = -0.44167 0.42349
# Poissons Ratio (z) = 0.24682 0.10732
#
# Static dielectric constant tensor:
#      x y z
#    x 1.917500 0.057960 0.070580 
#    y 0.057960 1.847810 0.000180 
#    z 0.070580 0.000180 1.847580 
# 
# From -- ./inp_files/344943.got.cif
#   From: 2010.05.17/outbox.cif.g08.bks.cpg/sg2_173_cif.got.tgz:344943.got - 2010.06.03 11:33:40.
