data_PCOD9005669
_publ_section_title
;
Structure prediction by ZEFSAII (Michael W. Deem and Ramdas Pophale) SiO2 
 PCOD9005669
Probable space group: P -1
;
_chemical_formula_sum "Si O2"
_cell_formula_units_Z 14
_cell_length_a 8.671216
_cell_length_b 20.423606
_cell_length_c 14.415955
_cell_angle_alpha 160.183194
_cell_angle_beta 109.926337
_cell_angle_gamma 58.492352
_cell_volume 629.433347
_symmetry_space_group_name_H-M "P -1"
_symmetry_group_IT_number 2
_symmetry_cell_setting 'triclinic'
loop_
_space_group_symop_operation_xyz
x,y,z
-x,-y,-z
loop_
_atom_site_type_symbol
_atom_site_label
_atom_site_fract_x
_atom_site_fract_y
_atom_site_fract_z
Si Si1 0.951811 0.759757 0.850673
Si Si2 0.887385 0.878026 0.801440
Si Si3 0.273821 0.245120 0.746000
Si Si4 0.266422 0.388389 0.125957
Si Si5 0.634607 0.292602 0.172417
Si Si6 0.117661 0.670746 0.152383
Si Si7 0.159022 0.071574 0.737403
O O1 0.167769 0.722536 0.834330
O O2 0.000000 0.500000 0.500000
O O3 0.803391 0.907122 0.926648
O O4 0.870413 0.874407 0.087666
O O5 0.073298 0.598135 0.432007
O O6 0.719579 0.034335 0.894498
O O7 0.000000 0.000000 0.000000
O O8 0.103070 0.199488 0.661776
O O9 0.500000 0.000000 0.500000
O O10 0.203886 0.443172 0.079022
O O11 0.254105 0.386897 0.838128
O O12 0.472784 0.360875 0.149669
O O13 0.310662 0.132097 0.817508
O O14 0.500000 0.500000 0.500000
O O15 0.044726 0.733766 0.113390
O O16 0.214442 0.807501 0.377614
#
# Coordination Sequence:
#
# PCOD9005669 Si02
#       7
#     2   2   2   2   2   2   2
#     4  11  21  39  65  89 129 164 203 251 316 373
#     4  10  21  38  63  88 127 168 206 248 312 372
#     4  10  23  41  67  95 121 160 224 259 310 379
#     4  11  22  41  62  92 129 162 211 263 308 375
#     4  11  22  38  63  89 125 165 211 249 301 374
#     4   9  22  43  66  88 125 170 209 260 320 367
#     4  10  21  41  66  90 130 169 205 261 322 373
#
# _framework density 22.242228999999998
#
# number of rings (size 3 to 8) (size 9 to 14) (size 15 to 20)
#    0.000    1.714    4.286    0.000    6.000    2.286 
#    0.000   12.143    3.143    0.000    0.000    0.000 
#    0.000    0.000    0.000    0.000    0.000    0.000 
#
# Total GULP energy -78042.736912 kJ/mol
# GULP energy per Si atom -5574.481208 kJ/mol
# Density = 2.219160 g / cm^3
# Si number density = 22.242229 Si / 1000 Ang^3
#
#
#
# Elastic Constant Matrix: (Units=GPa)
#
#
# Indices 1 2 3 4 5 6 
#
# 1 49.5841 10.5385 19.0024 1.8996 9.5528 -2.8515
# 2 10.5385 90.1415 24.3428 -2.5867 -1.7036 17.4011
# 3 19.0024 24.3428 70.9045 4.7456 7.9567 -0.6233
# 4 1.8996 -2.5867 4.7456 43.7491 -2.9596 0.8590
# 5 9.5528 -1.7036 7.9567 -2.9596 35.3439 -4.1991
# 6 -2.8515 17.4011 -0.6233 0.8590 -4.1991 37.0130
#
#
#
# Elastic Compliance Matrix: (Units=1/GPa)
#
#
# Indices 1 2 3 4 5 6 
#
# 1 0.023658 -0.001943 -0.005005 -0.000992 -0.005196 0.002085
# 2 -0.001943 0.013921 -0.004605 0.001644 0.001583 -0.006631
# 3 -0.005005 -0.004605 0.017499 -0.002176 -0.002776 0.001809
# 4 -0.000992 0.001644 -0.002176 0.023436 0.002666 -0.001128
# 5 -0.005196 0.001583 -0.002776 0.002666 0.030890 0.002251
# 6 0.002085 -0.006631 0.001809 -0.001128 0.002251 0.030608
#
#
# Mechanical properties :
#
#
# Convention : Reuss Voigt Hill
#
# Bulk Modulus (GPa) = 31.27771 35.37751 33.32761
# Shear Modulus (GPa) = 28.77263 33.67095 31.22179
#
# Velocity S-wave (km/s) = 3.60057 3.89502 3.75069
# Velocity P-wave (km/s) = 5.60164 6.01401 5.81148
#
# Compressibility (1/GPa) = 0.03197165
#
# Stress axis : x y z
#
# Youngs Moduli (GPa) = 42.26888 71.83136 57.14677
#
# Poissons Ratio (x) = 0.13960 0.28604
# Poissons Ratio (y) = 0.08215 0.26314
# Poissons Ratio (z) = 0.21157 0.33076
#
# Static dielectric constant tensor:
#      x y z
#    x 1.864350 0.054050 -0.032680 
#    y 0.054050 1.920170 0.020340 
#    z -0.032680 0.020340 1.869360 
# 
# From -- ./inp_files/508204.got.cif
#   From: 2010.05.17/outbox.cif.g08.bks.cpg/sg2_255_cif.got.tgz:508204.got - 2010.06.03 11:33:40.
