data_PCOD9005462
_publ_section_title
;
Structure prediction by ZEFSAII (Michael W. Deem and Ramdas Pophale) SiO2 
 PCOD9005462
Probable space group: P -1
;
_chemical_formula_sum "Si O2"
_cell_formula_units_Z 14
_cell_length_a 18.331830
_cell_length_b 12.936358
_cell_length_c 6.235534
_cell_angle_alpha 112.884124
_cell_angle_beta 120.555821
_cell_angle_gamma 33.071532
_cell_volume 692.697636
_symmetry_space_group_name_H-M "P -1"
_symmetry_group_IT_number 2
_symmetry_cell_setting 'triclinic'
loop_
_space_group_symop_operation_xyz
x,y,z
-x,-y,-z
loop_
_atom_site_type_symbol
_atom_site_label
_atom_site_fract_x
_atom_site_fract_y
_atom_site_fract_z
Si Si1 0.457485 0.719516 0.078533
Si Si2 0.142377 0.806566 0.338054
Si Si3 0.951536 0.426014 0.904619
Si Si4 0.966640 0.260485 0.174859
Si Si5 0.384089 0.630817 0.244394
Si Si6 0.260335 0.491480 0.581556
Si Si7 0.160883 0.033275 0.657994
O O1 0.391318 0.739306 0.213659
O O2 0.570150 0.697796 0.274496
O O3 0.567585 0.511555 0.973512
O O4 0.326015 0.870365 0.838640
O O5 0.241636 0.748530 0.248345
O O6 0.227382 0.629683 0.478023
O O7 0.110817 0.955692 0.540363
O O8 0.032443 0.845718 0.073505
O O9 0.806476 0.546508 0.662162
O O10 0.070384 0.214173 0.814586
O O11 0.937657 0.402875 0.110452
O O12 0.000000 0.500000 0.000000
O O13 0.837655 0.383671 0.253313
O O14 0.111652 0.115281 0.410217
O O15 0.500000 0.500000 0.500000
#
# Coordination Sequence:
#
# PCOD9005462 Si02
#       7
#     2   2   2   2   2   2   2
#     4  11  21  34  55  93 122 156 197 225 285 355
#     4  11  20  35  57  93 126 162 190 224 289 350
#     4  10  25  47  63  79 108 157 208 252 297 337
#     4  10  23  39  61  84 120 160 186 246 296 350
#     4  11  19  32  55  82 135 170 179 220 282 360
#     4  10  21  38  62  90 119 157 196 233 285 365
#     4  11  24  35  59  93 123 153 196 239 284 360
#
# _framework density 20.210837999999999
#
# number of rings (size 3 to 8) (size 9 to 14) (size 15 to 20)
#    0.000    1.429    4.286    1.286    2.000    7.429 
#    0.000    0.714    0.000    1.714    0.000    0.000 
#    0.000    0.000    0.000    0.000    0.000    0.000 
#
# Total GULP energy -78110.135011 kJ/mol
# GULP energy per Si atom -5579.295358 kJ/mol
# Density = 2.016484 g / cm^3
# Si number density = 20.210838 Si / 1000 Ang^3
#
#
#
# Elastic Constant Matrix: (Units=GPa)
#
#
# Indices 1 2 3 4 5 6 
#
# 1 139.4468 50.6991 71.3847 -1.5155 8.1292 9.3179
# 2 50.6991 46.8571 38.8464 -8.9673 11.3558 -3.8142
# 3 71.3847 38.8464 134.2110 -31.7024 13.3449 2.1737
# 4 -1.5155 -8.9673 -31.7024 35.8209 -12.8430 5.9005
# 5 8.1292 11.3558 13.3449 -12.8430 45.1830 3.6275
# 6 9.3179 -3.8142 2.1737 5.9005 3.6275 21.6947
#
#
#
# Elastic Compliance Matrix: (Units=1/GPa)
#
#
# Indices 1 2 3 4 5 6 
#
# 1 0.015589 -0.014260 -0.005661 -0.006305 0.001231 -0.007127
# 2 -0.014260 0.043697 -0.004227 0.001195 -0.008053 0.015252
# 3 -0.005661 -0.004227 0.014602 0.012817 0.001696 -0.003545
# 4 -0.006305 0.001195 0.012817 0.045267 0.010919 -0.012504
# 5 0.001231 -0.008053 0.001696 0.010919 0.027312 -0.009651
# 6 -0.007127 0.015252 -0.003545 -0.012504 -0.009651 0.057206
#
#
# Mechanical properties :
#
#
# Convention : Reuss Voigt Hill
#
# Bulk Modulus (GPa) = 39.07385 71.37504 55.22445
# Shear Modulus (GPa) = 19.19395 31.17869 25.18632
#
# Velocity S-wave (km/s) = 3.08504 3.93195 3.53396
# Velocity P-wave (km/s) = 5.66260 7.48368 6.63591
#
# Compressibility (1/GPa) = 0.02559256
#
# Stress axis : x y z
#
# Youngs Moduli (GPa) = 64.14697 22.88499 68.48570
#
# Poissons Ratio (x) = 0.32633 0.38766
# Poissons Ratio (y) = 0.91471 0.28952
# Poissons Ratio (z) = 0.36310 0.09674
#
# Static dielectric constant tensor:
#      x y z
#    x 1.761720 -0.041020 0.009950 
#    y -0.041020 1.734660 0.002860 
#    z 0.009950 0.002860 1.784600 
# 
# From -- ./inp_files/70130.got.cif
#   From: 2010.05.17/outbox.cif.g08.bks.cpg/sg2_36_cif.got.tgz:70130.got - 2010.06.03 11:33:40.
