data_PCOD9005620
_publ_section_title
;
Structure prediction by ZEFSAII (Michael W. Deem and Ramdas Pophale) SiO2 
 PCOD9005620
Probable space group: P -1
;
_chemical_formula_sum "Si O2"
_cell_formula_units_Z 14
_cell_length_a 11.259093
_cell_length_b 5.700411
_cell_length_c 21.046581
_cell_angle_alpha 71.379295
_cell_angle_beta 152.750873
_cell_angle_gamma 113.222352
_cell_volume 566.801007
_symmetry_space_group_name_H-M "P -1"
_symmetry_group_IT_number 2
_symmetry_cell_setting 'triclinic'
loop_
_space_group_symop_operation_xyz
x,y,z
-x,-y,-z
loop_
_atom_site_type_symbol
_atom_site_label
_atom_site_fract_x
_atom_site_fract_y
_atom_site_fract_z
Si Si1 0.241774 0.618859 0.235197
Si Si2 0.473400 0.200968 0.524241
Si Si3 0.270803 0.210416 0.045520
Si Si4 0.112021 0.903414 0.879439
Si Si5 0.360981 0.948987 0.674130
Si Si6 0.628928 0.684396 0.128969
Si Si7 0.017072 0.091569 0.606898
O O1 0.307143 0.785067 0.316570
O O2 0.161907 0.318508 0.239788
O O3 0.500310 0.754972 0.304986
O O4 0.974082 0.662233 0.072515
O O5 0.500000 0.500000 0.500000
O O6 0.180559 0.100524 0.424031
O O7 0.500000 0.000000 0.500000
O O8 0.402546 0.164132 0.177866
O O9 0.502731 0.380711 0.094690
O O10 0.151167 0.964165 0.967276
O O11 0.165626 0.158481 0.838937
O O12 0.361702 0.786613 0.989597
O O13 0.169886 0.953060 0.642414
O O14 0.186323 0.807132 0.544504
O O15 0.770590 0.730997 0.261217
#
# Coordination Sequence:
#
# PCOD9005620 Si02
#       7
#     2   2   2   2   2   2   2
#     4  10  24  42  67 101 137 185 232 289 349 420
#     4  11  26  47  75 108 143 186 236 297 364 427
#     4  11  22  39  67  98 135 180 231 292 348 420
#     4  10  21  40  64  94 136 173 222 287 348 414
#     4  10  22  44  65  96 138 183 239 280 352 424
#     4  10  21  38  62  99 126 173 228 282 355 410
#     4  10  22  44  69  96 139 182 233 291 350 425
#
# _framework density 24.700028
#
# number of rings (size 3 to 8) (size 9 to 14) (size 15 to 20)
#    0.000    1.714    1.429    1.714    4.000    2.286 
#    2.571    2.857    0.000    0.000    0.000    0.000 
#    0.000    0.000    0.000    0.000    0.000    0.000 
#
# Total GULP energy -78186.239093 kJ/mol
# GULP energy per Si atom -5584.731364 kJ/mol
# Density = 2.464381 g / cm^3
# Si number density = 24.700028 Si / 1000 Ang^3
#
#
#
# Elastic Constant Matrix: (Units=GPa)
#
#
# Indices 1 2 3 4 5 6 
#
# 1 101.6707 44.6560 4.2921 13.3719 11.8298 23.3710
# 2 44.6560 96.8876 34.9483 27.3141 -1.4803 12.1756
# 3 4.2921 34.9483 118.5589 6.1516 -21.5560 8.8727
# 4 13.3719 27.3141 6.1516 41.5435 2.8824 6.2769
# 5 11.8298 -1.4803 -21.5560 2.8824 42.2522 10.0623
# 6 23.3710 12.1756 8.8727 6.2769 10.0623 22.7954
#
#
#
# Elastic Compliance Matrix: (Units=1/GPa)
#
#
# Indices 1 2 3 4 5 6 
#
# 1 0.015676 -0.006652 0.002303 0.001059 -0.000285 -0.013581
# 2 -0.006652 0.017289 -0.004433 -0.008834 0.000440 0.001549
# 3 0.002303 -0.004433 0.011411 0.001185 0.006788 -0.007758
# 4 0.001059 -0.008834 0.001185 0.030140 -0.000935 -0.004715
# 5 -0.000285 0.000440 0.006788 -0.000935 0.031115 -0.016062
# 6 -0.013581 0.001549 -0.007758 -0.004715 -0.016062 0.068373
#
#
# Mechanical properties :
#
#
# Convention : Reuss Voigt Hill
#
# Bulk Modulus (GPa) = 37.29683 53.87890 45.58786
# Shear Modulus (GPa) = 24.93700 36.86629 30.90164
#
# Velocity S-wave (km/s) = 3.18086 3.86756 3.54089
# Velocity P-wave (km/s) = 5.35006 6.46565 5.93413
#
# Compressibility (1/GPa) = 0.02681193
#
# Stress axis : x y z
#
# Youngs Moduli (GPa) = 63.79227 57.84130 87.63216
#
# Poissons Ratio (x) = 0.38475 -0.20181
# Poissons Ratio (y) = 0.42434 0.38848
# Poissons Ratio (z) = -0.14691 0.25641
#
# Static dielectric constant tensor:
#      x y z
#    x 1.928750 0.042600 -0.008020 
#    y 0.042600 2.066320 -0.040380 
#    z -0.008020 -0.040380 2.021110 
# 
# From -- ./inp_files/72433.got.cif
#   From: 2010.05.17/outbox.cif.g08.bks.cpg/sg2_37_cif.got.tgz:72433.got - 2010.06.03 11:33:40.
