data_PCOD9005602
_publ_section_title
;
Structure prediction by ZEFSAII (Michael W. Deem and Ramdas Pophale) SiO2 
 PCOD9005602
Probable space group: P -1
;
_chemical_formula_sum "Si O2"
_cell_formula_units_Z 16
_cell_length_a 8.682303
_cell_length_b 8.941499
_cell_length_c 18.462462
_cell_angle_alpha 106.873090
_cell_angle_beta 39.719161
_cell_angle_gamma 83.357868
_cell_volume 729.544411
_symmetry_space_group_name_H-M "P -1"
_symmetry_group_IT_number 2
_symmetry_cell_setting 'triclinic'
loop_
_space_group_symop_operation_xyz
x,y,z
-x,-y,-z
loop_
_atom_site_type_symbol
_atom_site_label
_atom_site_fract_x
_atom_site_fract_y
_atom_site_fract_z
Si Si1 0.880288 0.704700 0.648558
Si Si2 0.104448 0.333225 0.882585
Si Si3 0.485008 0.149021 0.470296
Si Si4 0.458833 0.395360 0.328476
Si Si5 0.256287 0.031949 0.403637
Si Si6 0.003721 0.020546 0.915257
Si Si7 0.158523 0.483867 0.746085
Si Si8 0.056560 0.139843 0.210213
O O1 0.685573 0.621431 0.693772
O O2 0.209137 0.523129 0.495668
O O3 0.817281 0.833149 0.758244
O O4 0.817391 0.836443 0.620685
O O5 0.447647 0.172948 0.739020
O O6 0.984911 0.208518 0.931974
O O7 0.015079 0.416375 0.845053
O O8 0.000000 0.500000 0.000000
O O9 0.314292 0.338646 0.604643
O O10 0.790622 0.123217 0.334560
O O11 0.500000 0.000000 0.500000
O O12 0.314123 0.131034 0.462823
O O13 0.623989 0.498734 0.277084
O O14 0.691307 0.181083 0.237921
O O15 0.000000 0.000000 0.500000
O O16 0.799397 0.015346 0.927379
O O17 0.000000 0.000000 0.000000
O O18 0.002853 0.680394 0.788881
#
# Coordination Sequence:
#
# PCOD9005602 Si02
#       8
#     2   2   2   2   2   2   2   2
#     4  11  22  37  64  97 137 164 207 276 352 388
#     4  12  24  44  68  95 133 179 227 272 327 407
#     4  12  21  39  62  96 134 170 225 277 330 393
#     4  10  21  38  62  96 129 165 212 266 335 392
#     4  12  24  40  64 102 139 172 218 282 345 393
#     4  11  23  44  70  94 124 176 239 270 322 406
#     4  11  22  38  63  97 126 171 229 266 325 401
#     4  11  22  38  65  96 129 175 221 278 328 406
#
# _framework density 21.931495999999999
#
# number of rings (size 3 to 8) (size 9 to 14) (size 15 to 20)
#    0.000    0.750    5.000    4.125    5.250    0.000 
#    0.000    0.625    0.000    1.500    0.000    0.000 
#    0.000    0.000    0.000    0.000    0.000    0.000 
#
# Total GULP energy -89166.107267 kJ/mol
# GULP energy per Si atom -5572.881704 kJ/mol
# Density = 2.188158 g / cm^3
# Si number density = 21.931496 Si / 1000 Ang^3
#
#
#
# Elastic Constant Matrix: (Units=GPa)
#
#
# Indices 1 2 3 4 5 6 
#
# 1 131.0450 46.5311 45.8644 -10.7529 56.2261 15.7436
# 2 46.5311 157.8147 43.0246 -0.7689 25.3512 -3.2775
# 3 45.8644 43.0246 78.5978 4.8948 35.8625 2.9646
# 4 -10.7529 -0.7689 4.8948 42.1596 -1.3595 13.9735
# 5 56.2261 25.3512 35.8625 -1.3595 41.3131 2.7470
# 6 15.7436 -3.2775 2.9646 13.9735 2.7470 41.1694
#
#
#
# Elastic Compliance Matrix: (Units=1/GPa)
#
#
# Indices 1 2 3 4 5 6 
#
# 1 0.022307 -0.002458 0.001608 0.007653 -0.029365 -0.009480
# 2 -0.002458 0.007831 -0.003558 -0.000669 0.001477 0.001948
# 3 0.001608 -0.003558 0.023118 -0.002913 -0.020154 -0.000230
# 4 0.007653 -0.000669 -0.002913 0.029981 -0.005654 -0.012569
# 5 -0.029365 0.001477 -0.020154 -0.005654 0.079949 0.009383
# 6 -0.009480 0.001948 -0.000230 -0.012569 0.009383 0.031727
#
#
# Mechanical properties :
#
#
# Convention : Reuss Voigt Hill
#
# Bulk Modulus (GPa) = 22.50215 70.92197 46.71206
# Shear Modulus (GPa) = 22.87882 40.39758 31.63820
#
# Velocity S-wave (km/s) = 3.23336 4.29650 3.80227
# Velocity P-wave (km/s) = 4.92158 7.55125 6.37351
#
# Compressibility (1/GPa) = 0.04444020
#
# Stress axis : x y z
#
# Youngs Moduli (GPa) = 44.82876 127.69265 43.25594
#
# Poissons Ratio (x) = 0.31387 -0.06956
# Poissons Ratio (y) = 0.11019 0.15392
# Poissons Ratio (z) = -0.07209 0.45436
#
# Static dielectric constant tensor:
#      x y z
#    x 1.858220 -0.055130 -0.094460 
#    y -0.055130 1.761240 -0.070580 
#    z -0.094460 -0.070580 1.833610 
# 
# From -- ./inp_files/557363.got.cif
#   From: 2010.05.17/outbox.cif.g08.bks.cpg/sg2_279_cif.got.tgz:557363.got - 2010.06.03 11:33:40.
