data_PCOD9005663
_publ_section_title
;
Structure prediction by ZEFSAII (Michael W. Deem and Ramdas Pophale) SiO2 
 PCOD9005663
Probable space group: P -1
;
_chemical_formula_sum "Si O2"
_cell_formula_units_Z 16
_cell_length_a 11.532257
_cell_length_b 12.928829
_cell_length_c 12.920793
_cell_angle_alpha 51.042102
_cell_angle_beta 68.584951
_cell_angle_gamma 29.882822
_cell_volume 660.886450
_symmetry_space_group_name_H-M "P -1"
_symmetry_group_IT_number 2
_symmetry_cell_setting 'triclinic'
loop_
_space_group_symop_operation_xyz
x,y,z
-x,-y,-z
loop_
_atom_site_type_symbol
_atom_site_label
_atom_site_fract_x
_atom_site_fract_y
_atom_site_fract_z
Si Si1 0.185104 0.282211 0.909067
Si Si2 0.190866 0.016836 0.178718
Si Si3 0.900562 0.447985 0.565895
Si Si4 0.696558 0.267421 0.869238
Si Si5 0.154155 0.587572 0.196824
Si Si6 0.145935 0.876760 0.667019
Si Si7 0.639020 0.184683 0.157619
Si Si8 0.185508 0.557839 0.635613
O O1 0.095909 0.517700 0.763580
O O2 0.078389 0.292194 0.841606
O O3 0.500000 0.000000 0.000000
O O4 0.110166 0.248368 0.047388
O O5 0.160363 0.963786 0.113183
O O6 0.504380 0.714779 0.278116
O O7 0.035593 0.079648 0.275684
O O8 0.705719 0.610971 0.623048
O O9 0.823929 0.477048 0.459414
O O10 0.000000 0.500000 0.500000
O O11 0.153117 0.127155 0.721158
O O12 0.856352 0.248721 0.862015
O O13 0.422154 0.577055 0.714014
O O14 0.609054 0.278136 0.996815
O O15 0.360115 0.398766 0.154942
O O16 0.238988 0.841921 0.772511
O O17 0.988335 0.143822 0.493985
#
# Coordination Sequence:
#
# PCOD9005663 Si02
#       8
#     2   2   2   2   2   2   2   2
#     4  10  21  38  63  88 122 167 202 246 316 367
#     4  11  22  39  66  86 126 169 202 257 311 365
#     4  11  22  39  62  88 121 161 207 249 302 371
#     4  11  22  37  64  98 119 159 215 249 311 369
#     4  11  21  39  65  90 123 162 202 259 310 359
#     4  10  21  39  61  89 127 160 208 261 303 365
#     4  10  22  37  61  94 124 151 208 261 302 362
#     4  10  22  40  60  92 126 163 205 256 311 368
#
# _framework density 24.209910000000001
#
# number of rings (size 3 to 8) (size 9 to 14) (size 15 to 20)
#    0.000    1.500    1.250    5.625    0.000    2.500 
#    2.250    2.500    2.750    7.500    0.000    0.000 
#    0.000    0.000    0.000    0.000    0.000    0.000 
#
# Total GULP energy -89291.626512 kJ/mol
# GULP energy per Si atom -5580.726657 kJ/mol
# Density = 2.415481 g / cm^3
# Si number density = 24.209910 Si / 1000 Ang^3
#
#
#
# Elastic Constant Matrix: (Units=GPa)
#
#
# Indices 1 2 3 4 5 6 
#
# 1 115.5276 32.4327 59.0921 6.4728 -7.5430 -29.4871
# 2 32.4327 69.7080 35.1485 12.4292 -12.8903 -15.5603
# 3 59.0921 35.1485 157.0238 4.2796 -22.9515 -13.2257
# 4 6.4728 12.4292 4.2796 40.6340 -5.0955 2.4160
# 5 -7.5430 -12.8903 -22.9515 -5.0955 49.0312 5.8236
# 6 -29.4871 -15.5603 -13.2257 2.4160 5.8236 27.2518
#
#
#
# Elastic Compliance Matrix: (Units=1/GPa)
#
#
# Indices 1 2 3 4 5 6 
#
# 1 0.014793 -0.001605 -0.004286 -0.002482 -0.002033 0.013664
# 2 -0.001605 0.019680 -0.002640 -0.005713 0.002115 0.008274
# 3 -0.004286 -0.002640 0.008784 0.001124 0.003192 -0.002664
# 4 -0.002482 -0.005713 0.001124 0.027444 0.002488 -0.008366
# 5 -0.002033 0.002115 0.003192 0.002488 0.022933 -0.004565
# 6 0.013664 0.008274 -0.002664 -0.008366 -0.004565 0.056629
#
#
# Mechanical properties :
#
#
# Convention : Reuss Voigt Hill
#
# Bulk Modulus (GPa) = 38.17496 66.17845 52.17670
# Shear Modulus (GPa) = 28.40026 37.75582 33.07804
#
# Velocity S-wave (km/s) = 3.42875 3.95336 3.70036
# Velocity P-wave (km/s) = 5.61049 6.94502 6.31312
#
# Compressibility (1/GPa) = 0.02619518
#
# Stress axis : x y z
#
# Youngs Moduli (GPa) = 67.60048 50.81376 113.84483
#
# Poissons Ratio (x) = 0.08154 0.48798
# Poissons Ratio (y) = 0.10848 0.30050
# Poissons Ratio (z) = 0.28976 0.13412
#
# Static dielectric constant tensor:
#      x y z
#    x 1.926550 0.024950 0.135600 
#    y 0.024950 2.408790 1.526630 
#    z 0.135600 1.526630 7.626030 
# 
# From -- ./inp_files/431241.got.cif
#   From: 2010.05.17/outbox.cif.g08.bks.cpg/sg2_216_cif.got.tgz:431241.got - 2010.06.03 11:33:40.
