data_PCOD9005993
_publ_section_title
;
Structure prediction by ZEFSAII (Michael W. Deem and Ramdas Pophale) SiO2 
 PCOD9005993
Probable space group: P -1
;
_chemical_formula_sum "Si O2"
_cell_formula_units_Z 14
_cell_length_a 10.754311
_cell_length_b 11.219488
_cell_length_c 8.127851
_cell_angle_alpha 55.121781
_cell_angle_beta 118.414482
_cell_angle_gamma 140.265210
_cell_volume 513.061923
_symmetry_space_group_name_H-M "P -1"
_symmetry_group_IT_number 2
_symmetry_cell_setting 'triclinic'
loop_
_space_group_symop_operation_xyz
x,y,z
-x,-y,-z
loop_
_atom_site_type_symbol
_atom_site_label
_atom_site_fract_x
_atom_site_fract_y
_atom_site_fract_z
Si Si1 0.051943 0.992008 0.350084
Si Si2 0.640313 0.185549 0.618860
Si Si3 0.277067 0.588482 0.836673
Si Si4 0.582675 0.557900 0.765531
Si Si5 0.892202 0.137346 0.964599
Si Si6 0.312311 0.874437 0.859667
Si Si7 0.773342 0.558432 0.554242
O O1 0.264406 0.207082 0.280721
O O2 0.000000 0.000000 0.500000
O O3 0.982074 0.776349 0.474208
O O4 0.921154 0.988290 0.136639
O O5 0.669981 0.271606 0.391427
O O6 0.722823 0.081939 0.785456
O O7 0.764336 0.380373 0.662689
O O8 0.416190 0.036692 0.651080
O O9 0.245420 0.675940 0.899461
O O10 0.087760 0.357903 0.860908
O O11 0.432373 0.578250 0.000905
O O12 0.685037 0.548482 0.680467
O O13 0.382189 0.484588 0.638371
O O14 0.846870 0.160948 0.103211
O O15 0.500000 0.000000 0.000000
#
# Coordination Sequence:
#
# PCOD9005993 Si02
#       7
#     2   2   2   2   2   2   2
#     4   9  20  37  63  93 122 157 214 266 306 361
#     4  11  24  39  61  96 129 163 205 254 330 375
#     4  11  22  41  62  93 130 163 201 267 318 377
#     4   9  20  37  64  89 123 166 219 255 310 370
#     4  10  22  41  65  91 121 166 213 258 306 376
#     4  10  22  37  64  90 120 158 216 253 304 368
#     4  10  21  38  64  91 126 167 210 265 307 376
#
# _framework density 27.287157000000001
#
# number of rings (size 3 to 8) (size 9 to 14) (size 15 to 20)
#    0.000    2.000    0.000    3.000   10.000    2.857 
#    0.000    2.857    0.000    0.000    0.000    0.000 
#    0.000    0.000    0.000    0.000    0.000    0.000 
#
# Total GULP energy -78444.145620 kJ/mol
# GULP energy per Si atom -5603.153259 kJ/mol
# Density = 2.722505 g / cm^3
# Si number density = 27.287157 Si / 1000 Ang^3
#
#
#
# Elastic Constant Matrix: (Units=GPa)
#
#
# Indices 1 2 3 4 5 6 
#
# 1 52.4749 11.5795 31.6340 9.5205 -13.9478 -1.9319
# 2 11.5795 108.9754 22.8386 -19.8604 -4.6352 -0.4993
# 3 31.6340 22.8386 177.2759 -7.2495 5.3206 23.9211
# 4 9.5205 -19.8604 -7.2495 41.0224 4.9280 1.4121
# 5 -13.9478 -4.6352 5.3206 4.9280 45.9694 -4.0451
# 6 -1.9319 -0.4993 23.9211 1.4121 -4.0451 39.7210
#
#
#
# Elastic Compliance Matrix: (Units=1/GPa)
#
#
# Indices 1 2 3 4 5 6 
#
# 1 0.028734 -0.003204 -0.006391 -0.010889 0.010892 0.006703
# 2 -0.003204 0.010685 -0.000559 0.005870 -0.000454 0.000060
# 3 -0.006391 -0.000559 0.007845 0.003239 -0.003738 -0.005538
# 4 -0.010889 0.005870 0.003239 0.031281 -0.006811 -0.004212
# 5 0.010892 -0.000454 -0.003738 -0.006811 0.026680 0.005734
# 6 0.006703 0.000060 -0.005538 -0.004212 0.005734 0.029572
#
#
# Mechanical properties :
#
#
# Convention : Reuss Voigt Hill
#
# Bulk Modulus (GPa) = 37.09881 52.31451 44.70666
# Shear Modulus (GPa) = 30.47075 43.52083 36.99579
#
# Velocity S-wave (km/s) = 3.34529 3.99798 3.68611
# Velocity P-wave (km/s) = 5.34289 6.36594 5.87672
#
# Compressibility (1/GPa) = 0.02695504
#
# Stress axis : x y z
#
# Youngs Moduli (GPa) = 34.80183 93.59064 127.46243
#
# Poissons Ratio (x) = 0.29988 0.81465
# Poissons Ratio (y) = 0.11151 0.07128
# Poissons Ratio (z) = 0.22243 0.05234
#
# Static dielectric constant tensor:
#      x y z
#    x 2.168500 -0.048620 -0.035880 
#    y -0.048620 2.088280 0.062070 
#    z -0.035880 0.062070 2.139380 
# 
# From -- ./inp_files/184371.got.cif
#   From: 2010.05.17/outbox.cif.g08.bks.cpg/sg2_93_cif.got.tgz:184371.got - 2010.06.03 11:33:40.
