data_PCOD9005738
_publ_section_title
;
Structure prediction by ZEFSAII (Michael W. Deem and Ramdas Pophale) SiO2 
 PCOD9005738
Probable space group: P -1
;
_chemical_formula_sum "Si O2"
_cell_formula_units_Z 14
_cell_length_a 4.771918
_cell_length_b 14.299127
_cell_length_c 21.533863
_cell_angle_alpha 158.220115
_cell_angle_beta 79.496567
_cell_angle_gamma 106.867655
_cell_volume 505.773470
_symmetry_space_group_name_H-M "P -1"
_symmetry_group_IT_number 2
_symmetry_cell_setting 'triclinic'
loop_
_space_group_symop_operation_xyz
x,y,z
-x,-y,-z
loop_
_atom_site_type_symbol
_atom_site_label
_atom_site_fract_x
_atom_site_fract_y
_atom_site_fract_z
Si Si1 0.958504 0.778600 0.986937
Si Si2 0.418638 0.877243 0.774729
Si Si3 0.873779 0.744341 0.160882
Si Si4 0.813171 0.689891 0.262171
Si Si5 0.615589 0.766891 0.440795
Si Si6 0.548446 0.093408 0.343940
Si Si7 0.774420 0.262805 0.171697
O O1 0.661627 0.848912 0.056699
O O2 0.236157 0.032679 0.159681
O O3 0.037735 0.532562 0.861961
O O4 0.969306 0.759889 0.899663
O O5 0.367088 0.756854 0.633151
O O6 0.213373 0.727113 0.748071
O O7 0.687918 0.678776 0.191603
O O8 0.665395 0.840472 0.182729
O O9 0.185828 0.992446 0.297642
O O10 0.000000 0.500000 0.000000
O O11 0.563205 0.703645 0.330705
O O12 0.100165 0.962189 0.410950
O O13 0.713184 0.525831 0.313884
O O14 0.378202 0.788405 0.515998
O O15 0.500000 0.000000 0.000000
#
# Coordination Sequence:
#
# PCOD9005738 Si02
#       7
#     2   2   2   2   2   2   2
#     4  10  21  38  63  92 118 157 205 248 300 358
#     4  11  21  38  62  89 122 160 201 250 299 351
#     4  11  22  38  60  89 122 160 201 243 295 359
#     4   9  19  38  62  86 124 160 197 252 302 358
#     4   9  20  39  60  91 122 161 204 246 306 361
#     4  11  23  37  57  88 124 158 200 245 297 359
#     4   9  20  40  65  89 119 158 207 255 298 358
#
# _framework density 27.680375000000002
#
# number of rings (size 3 to 8) (size 9 to 14) (size 15 to 20)
#    0.000    2.000    0.000    3.429    0.000    4.571 
#    0.000   25.714    0.000    8.571    0.000    0.000 
#    0.000    0.000    0.000    0.000    0.000    0.000 
#
# Total GULP energy -78236.158089 kJ/mol
# GULP energy per Si atom -5588.297006 kJ/mol
# Density = 2.761737 g / cm^3
# Si number density = 27.680375 Si / 1000 Ang^3
#
#
#
# Elastic Constant Matrix: (Units=GPa)
#
#
# Indices 1 2 3 4 5 6 
#
# 1 117.3046 21.8566 5.1253 4.1199 -10.7116 2.9813
# 2 21.8566 259.6490 11.0896 -28.6724 -10.9199 -17.4246
# 3 5.1253 11.0896 40.2894 1.7622 -10.4453 3.1525
# 4 4.1199 -28.6724 1.7622 52.1242 7.2411 -0.2903
# 5 -10.7116 -10.9199 -10.4453 7.2411 21.7155 9.5765
# 6 2.9813 -17.4246 3.1525 -0.2903 9.5765 36.8497
#
#
#
# Elastic Compliance Matrix: (Units=1/GPa)
#
#
# Indices 1 2 3 4 5 6 
#
# 1 0.009456 -0.001028 0.001222 -0.002332 0.006911 -0.003170
# 2 -0.001028 0.004446 -0.001736 0.002768 -0.001206 0.002669
# 3 0.001222 -0.001736 0.031358 -0.004999 0.020427 -0.008950
# 4 -0.002332 0.002768 -0.004999 0.022766 -0.012065 0.005240
# 5 0.006911 -0.001206 0.020427 -0.012065 0.072297 -0.021761
# 6 -0.003170 0.002669 -0.008950 0.005240 -0.021761 0.035118
#
#
# Mechanical properties :
#
#
# Convention : Reuss Voigt Hill
#
# Bulk Modulus (GPa) = 23.70998 54.82067 39.26532
# Shear Modulus (GPa) = 25.96270 47.41597 36.68933
#
# Velocity S-wave (km/s) = 3.06591 4.14331 3.64464
# Velocity P-wave (km/s) = 4.59536 6.53737 5.65042
#
# Compressibility (1/GPa) = 0.04217633
#
# Stress axis : x y z
#
# Youngs Moduli (GPa) = 105.74790 224.91788 31.89028
#
# Poissons Ratio (x) = 0.23117 -0.03896
# Poissons Ratio (y) = 0.10869 0.05535
# Poissons Ratio (z) = -0.12918 0.39039
#
# Static dielectric constant tensor:
#      x y z
#    x 2.093680 -0.004150 0.122850 
#    y -0.004150 2.181320 -0.112770 
#    z 0.122850 -0.112770 2.331960 
# 
# From -- ./inp_files/409704.got.cif
#   From: 2010.05.17/outbox.cif.g08.bks.cpg/sg2_205_cif.got.tgz:409704.got - 2010.06.03 11:33:40.
