data_PCOD9005753
_publ_section_title
;
Structure prediction by ZEFSAII (Michael W. Deem and Ramdas Pophale) SiO2 
 PCOD9005753
Probable space group: P -1
;
_chemical_formula_sum "Si O2"
_cell_formula_units_Z 12
_cell_length_a 5.002640
_cell_length_b 9.277468
_cell_length_c 12.293825
_cell_angle_alpha 68.084930
_cell_angle_beta 97.385210
_cell_angle_gamma 84.678575
_cell_volume 518.780106
_symmetry_space_group_name_H-M "P -1"
_symmetry_group_IT_number 2
_symmetry_cell_setting 'triclinic'
loop_
_space_group_symop_operation_xyz
x,y,z
-x,-y,-z
loop_
_atom_site_type_symbol
_atom_site_label
_atom_site_fract_x
_atom_site_fract_y
_atom_site_fract_z
Si Si1 0.203242 0.207152 0.459770
Si Si2 0.379312 0.706718 0.379891
Si Si3 0.931314 0.991122 0.676949
Si Si4 0.706009 0.110949 0.086691
Si Si5 0.895499 0.544518 0.323874
Si Si6 0.843482 0.784614 0.068579
O O1 0.086358 0.099103 0.575127
O O2 0.982519 0.359045 0.379035
O O3 0.468205 0.267228 0.506706
O O4 0.244789 0.104797 0.381766
O O5 0.258902 0.885543 0.290645
O O6 0.605988 0.613057 0.341128
O O7 0.124937 0.613208 0.388730
O O8 0.150195 0.883990 0.791490
O O9 0.737077 0.926123 0.107809
O O10 0.398768 0.197073 0.037208
O O11 0.883436 0.183115 0.984457
O O12 0.896294 0.624451 0.183442
#
# Coordination Sequence:
#
# PCOD9005753 Si02
#       6
#     2   2   2   2   2   2
#     4  11  26  44  65  97 137 171 210 267 327 387
#     4  12  23  43  66  99 127 170 218 262 319 382
#     4  11  25  44  66  98 132 174 213 261 329 387
#     4  10  21  38  63  92 124 165 212 265 309 381
#     4  12  25  42  69  99 130 166 219 270 319 375
#     4  10  21  38  63  94 122 163 216 265 312 366
#
# _framework density 23.13119
#
# number of rings (size 3 to 8) (size 9 to 14) (size 15 to 20)
#    0.000    1.000    3.333    2.500    9.333    0.000 
#    0.000    1.667    0.000    0.000    0.000    0.000 
#    0.000    0.000    0.000    0.000    0.000    0.000 
#
# Total GULP energy -67200.642658 kJ/mol
# GULP energy per Si atom -5600.053555 kJ/mol
# Density = 2.307854 g / cm^3
# Si number density = 23.131190 Si / 1000 Ang^3
#
#
#
# Elastic Constant Matrix: (Units=GPa)
#
#
# Indices 1 2 3 4 5 6 
#
# 1 89.4028 8.7789 0.6564 -9.2067 9.6240 -0.4945
# 2 8.7789 55.9522 18.0796 -3.8392 -1.4195 -6.5104
# 3 0.6564 18.0796 109.7534 -14.9807 17.7929 5.6595
# 4 -9.2067 -3.8392 -14.9807 24.8353 4.3053 4.5275
# 5 9.6240 -1.4195 17.7929 4.3053 33.9724 0.8463
# 6 -0.4945 -6.5104 5.6595 4.5275 0.8463 20.7802
#
#
#
# Elastic Compliance Matrix: (Units=1/GPa)
#
#
# Indices 1 2 3 4 5 6 
#
# 1 0.012810 -0.002754 0.002462 0.007300 -0.005894 -0.002579
# 2 -0.002754 0.020778 -0.004975 -0.003092 0.004439 0.008292
# 3 0.002462 -0.004975 0.013258 0.011014 -0.009067 -0.007142
# 4 0.007300 -0.003092 0.011014 0.054393 -0.014484 -0.015056
# 5 -0.005894 0.004439 -0.009067 -0.014484 0.037742 0.005339
# 6 -0.002579 0.008292 -0.007142 -0.015056 0.005339 0.055667
#
#
# Mechanical properties :
#
#
# Convention : Reuss Voigt Hill
#
# Bulk Modulus (GPa) = 27.54065 34.45978 31.00022
# Shear Modulus (GPa) = 23.01112 31.09045 27.05079
#
# Velocity S-wave (km/s) = 3.15748 3.67016 3.42343
# Velocity P-wave (km/s) = 5.02245 5.73498 5.39050
#
# Compressibility (1/GPa) = 0.03630996
#
# Stress axis : x y z
#
# Youngs Moduli (GPa) = 78.06588 48.12890 75.42724
#
# Poissons Ratio (x) = 0.13255 -0.18570
# Poissons Ratio (y) = 0.21500 0.37529
# Poissons Ratio (z) = -0.19220 0.23946
#
# Static dielectric constant tensor:
#      x y z
#    x 1.891230 0.006320 0.002850 
#    y 0.006320 1.854670 -0.001460 
#    z 0.002850 -0.001460 1.897900 
# 
# From -- ./inp_files/58516.got.cif
#   From: 2010.05.17/outbox.cif.g08.bks.cpg/sg2_30_cif.got.tgz:58516.got - 2010.06.03 11:33:40.
