data_PCOD9005266
_publ_section_title
;
Structure prediction by ZEFSAII (Michael W. Deem and Ramdas Pophale) SiO2 
 PCOD9005266
Probable space group: P -1
;
_chemical_formula_sum "Si O2"
_cell_formula_units_Z 14
_cell_length_a 14.525614
_cell_length_b 4.845307
_cell_length_c 10.822669
_cell_angle_alpha 72.556476
_cell_angle_beta 101.529378
_cell_angle_gamma 74.560766
_cell_volume 667.278345
_symmetry_space_group_name_H-M "P -1"
_symmetry_group_IT_number 2
_symmetry_cell_setting 'triclinic'
loop_
_space_group_symop_operation_xyz
x,y,z
-x,-y,-z
loop_
_atom_site_type_symbol
_atom_site_label
_atom_site_fract_x
_atom_site_fract_y
_atom_site_fract_z
Si Si1 0.936686 0.637591 0.219691
Si Si2 0.120798 0.257512 0.173193
Si Si3 0.819077 0.204345 0.955423
Si Si4 0.197570 0.655798 0.627996
Si Si5 0.605681 0.511743 0.147506
Si Si6 0.384113 0.879904 0.028013
Si Si7 0.865958 0.668122 0.558472
O O1 0.879165 0.980339 0.110974
O O2 0.857518 0.494214 0.269217
O O3 0.005252 0.447061 0.150722
O O4 0.022434 0.576872 0.355350
O O5 0.171175 0.218521 0.327751
O O6 0.132188 0.953511 0.140115
O O7 0.169825 0.465420 0.081328
O O8 0.628720 0.762223 0.030768
O O9 0.707646 0.195118 0.928900
O O10 0.309353 0.593665 0.713106
O O11 0.193653 0.494793 0.517935
O O12 0.138218 0.019923 0.552669
O O13 0.610051 0.228031 0.099275
O O14 0.492263 0.683629 0.139113
#
# Coordination Sequence:
#
# PCOD9005266 Si02
#       7
#     2   2   2   2   2   2   2
#     4  10  24  36  61  88 119 158 194 244 284 348
#     4  10  25  37  57  84 124 159 198 229 281 349
#     4  12  21  40  61  85 120 155 193 243 292 343
#     4  12  21  40  61  85 120 155 193 243 292 343
#     4  10  21  38  61  90 116 144 190 248 303 344
#     4  10  21  38  61  90 116 144 190 248 303 344
#     4  10  25  37  57  84 124 159 198 229 281 349
#
# _framework density 20.980751000000001
#
# number of rings (size 3 to 8) (size 9 to 14) (size 15 to 20)
#    0.857    0.571    1.429    4.286    0.000    2.286 
#    0.000    0.000    0.000    5.143    0.000    0.000 
#    0.000    0.000    0.000    0.000    0.000    0.000 
#
# Total GULP energy -78264.315225 kJ/mol
# GULP energy per Si atom -5590.308230 kJ/mol
# Density = 2.093300 g / cm^3
# Si number density = 20.980751 Si / 1000 Ang^3
#
#
#
# Elastic Constant Matrix: (Units=GPa)
#
#
# Indices 1 2 3 4 5 6 
#
# 1 87.5778 -5.8768 36.3123 0.2768 15.2415 8.4783
# 2 -5.8768 72.9116 22.5868 4.2835 6.4626 11.7213
# 3 36.3123 22.5868 97.1542 4.8182 17.4465 2.0201
# 4 0.2768 4.2835 4.8182 25.8275 14.6482 1.0156
# 5 15.2415 6.4626 17.4465 14.6482 28.0917 4.0630
# 6 8.4783 11.7213 2.0201 1.0156 4.0630 22.6685
#
#
#
# Elastic Compliance Matrix: (Units=1/GPa)
#
#
# Indices 1 2 3 4 5 6 
#
# 1 0.016105 0.004574 -0.005795 0.004793 -0.007721 -0.006703
# 2 0.004574 0.017498 -0.005285 -0.000800 -0.001360 -0.010008
# 3 -0.005795 -0.005285 0.014628 0.001544 -0.006201 0.004639
# 4 0.004793 -0.000800 0.001544 0.057519 -0.033648 0.001938
# 5 -0.007721 -0.001360 -0.006201 -0.033648 0.062294 -0.005514
# 6 -0.006703 -0.010008 0.004639 0.001938 -0.005514 0.052284
#
#
# Mechanical properties :
#
#
# Convention : Reuss Voigt Hill
#
# Bulk Modulus (GPa) = 28.39450 40.40981 34.40216
# Shear Modulus (GPa) = 20.40147 28.95897 24.68022
#
# Velocity S-wave (km/s) = 3.12170 3.71922 3.43348
# Velocity P-wave (km/s) = 5.15328 6.14375 5.67019
#
# Compressibility (1/GPa) = 0.03521808
#
# Stress axis : x y z
#
# Youngs Moduli (GPa) = 62.09078 57.15085 68.36199
#
# Poissons Ratio (x) = -0.26138 0.39613
# Poissons Ratio (y) = -0.28398 0.36132
# Poissons Ratio (z) = 0.35979 0.30207
#
# Static dielectric constant tensor:
#      x y z
#    x 1.750890 -0.022870 -0.007710 
#    y -0.022870 1.756900 0.024630 
#    z -0.007710 0.024630 1.787510 
# 
# From -- ./inp_files/123586.got.cif
#   From: 2010.05.17/outbox.cif.g08.bks.cpg/sg2_62_cif.got.tgz:123586.got - 2010.06.03 11:33:40.
