data_PCOD9005158
_publ_section_title
;
Structure prediction by ZEFSAII (Michael W. Deem and Ramdas Pophale) SiO2 
 PCOD9005158
Probable space group: P -1
;
_chemical_formula_sum "Si O2"
_cell_formula_units_Z 16
_cell_length_a 10.877126
_cell_length_b 5.133586
_cell_length_c 11.561216
_cell_angle_alpha 104.243615
_cell_angle_beta 86.065444
_cell_angle_gamma 92.640407
_cell_volume 623.958005
_symmetry_space_group_name_H-M "P -1"
_symmetry_group_IT_number 2
_symmetry_cell_setting 'triclinic'
loop_
_space_group_symop_operation_xyz
x,y,z
-x,-y,-z
loop_
_atom_site_type_symbol
_atom_site_label
_atom_site_fract_x
_atom_site_fract_y
_atom_site_fract_z
Si Si1 0.591335 0.450813 0.222084
Si Si2 0.381943 0.822608 0.018607
Si Si3 0.494687 0.835535 0.602193
Si Si4 0.676875 0.373982 0.762915
Si Si5 0.176586 0.164087 0.053198
Si Si6 0.855831 0.498638 0.307167
Si Si7 0.049047 0.087752 0.823365
Si Si8 0.721386 0.530614 0.540703
O O1 0.561777 0.168428 0.262681
O O2 0.464733 0.601149 0.271997
O O3 0.722193 0.566996 0.267671
O O4 0.594867 0.447920 0.082370
O O5 0.342680 0.830476 0.153845
O O6 0.264373 0.937024 0.975031
O O7 0.500000 0.000000 0.000000
O O8 0.641439 0.788140 0.607410
O O9 0.388392 0.618462 0.541259
O O10 0.500000 0.000000 0.500000
O O11 0.738754 0.617806 0.861329
O O12 0.751578 0.374754 0.639117
O O13 0.105599 0.243264 0.949925
O O14 0.080867 0.029765 0.134563
O O15 0.951491 0.694684 0.255190
O O16 0.835173 0.563034 0.450655
O O17 0.883244 0.184151 0.251714
#
# Coordination Sequence:
#
# PCOD9005158 Si02
#       8
#     2   2   2   2   2   2   2   2
#     4  10  21  38  61 100 130 169 220 273 340 397
#     4  12  24  37  64  98 130 173 217 275 342 409
#     4   9  19  34  60  88 133 172 217 271 337 395
#     4  11  24  42  62  96 143 171 220 277 353 406
#     4  11  26  44  67  98 131 179 218 285 345 399
#     4  11  24  45  72 101 131 179 234 281 326 400
#     4  11  27  46  73  97 135 175 236 285 331 395
#     4   9  22  38  59  95 128 181 221 275 337 400
#
# _framework density 25.642748000000001
#
# number of rings (size 3 to 8) (size 9 to 14) (size 15 to 20)
#    0.000    1.500    2.500    1.875    8.750    1.000 
#    0.000    1.250    0.000    0.000    0.000    0.000 
#    0.000    0.000    0.000    0.000    0.000    0.000 
#
# Total GULP energy -89132.324181 kJ/mol
# GULP energy per Si atom -5570.770261 kJ/mol
# Density = 2.558438 g / cm^3
# Si number density = 25.642748 Si / 1000 Ang^3
#
#
#
# Elastic Constant Matrix: (Units=GPa)
#
#
# Indices 1 2 3 4 5 6 
#
# 1 55.7258 -3.9161 19.6268 -5.4327 -13.6208 -1.8064
# 2 -3.9161 57.8424 36.3516 -24.1044 -1.5167 9.0998
# 3 19.6268 36.3516 204.0156 -26.0752 -21.6118 7.5037
# 4 -5.4327 -24.1044 -26.0752 40.8691 8.8077 -3.9023
# 5 -13.6208 -1.5167 -21.6118 8.8077 31.6845 -4.3947
# 6 -1.8064 9.0998 7.5037 -3.9023 -4.3947 19.7521
#
#
#
# Elastic Compliance Matrix: (Units=1/GPa)
#
#
# Indices 1 2 3 4 5 6 
#
# 1 0.020964 0.002977 -0.001551 0.002156 0.007960 0.003332
# 2 0.002977 0.026911 -0.003453 0.014276 -0.005020 -0.009110
# 3 -0.001551 -0.003453 0.006118 0.001001 0.003064 0.000004
# 4 0.002156 0.014276 0.001001 0.035338 -0.007739 -0.001500
# 5 0.007960 -0.005020 0.003064 -0.007739 0.040275 0.009309
# 6 0.003332 -0.009110 0.000004 -0.001500 0.009309 0.056902
#
#
# Mechanical properties :
#
#
# Convention : Reuss Voigt Hill
#
# Bulk Modulus (GPa) = 20.02450 46.85649 33.44049
# Shear Modulus (GPa) = 24.13007 36.16256 30.14632
#
# Velocity S-wave (km/s) = 3.07092 3.75940 3.43246
# Velocity P-wave (km/s) = 4.51664 6.09562 5.36454
#
# Compressibility (1/GPa) = 0.04993883
#
# Stress axis : x y z
#
# Youngs Moduli (GPa) = 47.70028 37.15923 163.44037
#
# Poissons Ratio (x) = -0.11062 0.25351
# Poissons Ratio (y) = -0.14200 0.56443
# Poissons Ratio (z) = 0.07399 0.12833
#
# Static dielectric constant tensor:
#      x y z
#    x 1.992180 -0.067220 0.042600 
#    y -0.067220 2.365170 0.165510 
#    z 0.042600 0.165510 2.283130 
# 
# From -- ./inp_files/409317.got.cif
#   From: 2010.05.17/outbox.cif.g08.bks.cpg/sg2_205_cif.got.tgz:409317.got - 2010.06.03 11:33:40.
