data_PCOD9005342
_publ_section_title
;
Structure prediction by ZEFSAII (Michael W. Deem and Ramdas Pophale) SiO2 
 PCOD9005342
Probable space group: P -1
;
_chemical_formula_sum "Si O2"
_cell_formula_units_Z 16
_cell_length_a 13.632998
_cell_length_b 7.375872
_cell_length_c 11.307827
_cell_angle_alpha 145.393074
_cell_angle_beta 79.434388
_cell_angle_gamma 103.594694
_cell_volume 627.588051
_symmetry_space_group_name_H-M "P -1"
_symmetry_group_IT_number 2
_symmetry_cell_setting 'triclinic'
loop_
_space_group_symop_operation_xyz
x,y,z
-x,-y,-z
loop_
_atom_site_type_symbol
_atom_site_label
_atom_site_fract_x
_atom_site_fract_y
_atom_site_fract_z
Si Si1 0.301230 0.080937 0.035631
Si Si2 0.570533 0.216834 0.335512
Si Si3 0.216743 0.229673 0.791176
Si Si4 0.932755 0.830183 0.028325
Si Si5 0.114219 0.921395 0.418254
Si Si6 0.431459 0.658222 0.348466
Si Si7 0.413007 0.707871 0.990438
Si Si8 0.866298 0.093956 0.851342
O O1 0.343357 0.444493 0.179204
O O2 0.189845 0.058708 0.100296
O O3 0.343333 0.832203 0.803780
O O4 0.355711 0.978929 0.090299
O O5 0.500000 0.500000 0.500000
O O6 0.621901 0.286337 0.487335
O O7 0.488030 0.887766 0.168681
O O8 0.166209 0.062372 0.831243
O O9 0.331726 0.399306 0.874129
O O10 0.187479 0.032395 0.571713
O O11 0.162934 0.547897 0.953170
O O12 0.014603 0.876225 0.141259
O O13 0.901101 0.462335 0.799470
O O14 0.000000 0.000000 0.000000
O O15 0.158525 0.058904 0.354923
O O16 0.000000 0.000000 0.500000
O O17 0.514796 0.417077 0.190623
O O18 0.500000 0.000000 0.500000
#
# Coordination Sequence:
#
# PCOD9005342 Si02
#       8
#     2   2   2   2   2   2   2   2
#     4  10  21  38  61  94 119 155 209 252 289 367
#     4  11  19  39  68  84 119 163 201 247 305 356
#     4  10  21  40  64  92 117 159 214 245 297 363
#     4  11  23  41  58  91 132 158 192 258 307 356
#     4  11  19  40  69  83 118 167 205 249 299 358
#     4  11  23  40  58  89 127 159 197 247 307 361
#     4  10  21  38  63  93 118 152 211 256 288 363
#     4  10  21  39  63  92 123 155 209 252 296 357
#
# _framework density 25.494430000000001
#
# number of rings (size 3 to 8) (size 9 to 14) (size 15 to 20)
#    0.000    1.500    5.000    1.500    0.000    7.500 
#    6.750    0.000    0.000    0.000    0.000    0.000 
#    0.000    0.000    0.000    0.000    0.000    0.000 
#
# Total GULP energy -89250.252789 kJ/mol
# GULP energy per Si atom -5578.140799 kJ/mol
# Density = 2.543640 g / cm^3
# Si number density = 25.494430 Si / 1000 Ang^3
#
#
#
# Elastic Constant Matrix: (Units=GPa)
#
#
# Indices 1 2 3 4 5 6 
#
# 1 102.5766 26.1384 35.0203 0.1468 5.5049 28.8905
# 2 26.1384 125.6405 58.9696 -17.7496 4.7720 48.7270
# 3 35.0203 58.9696 168.8612 -22.7415 13.4245 16.5125
# 4 0.1468 -17.7496 -22.7415 49.5192 -1.1372 -5.0813
# 5 5.5049 4.7720 13.4245 -1.1372 31.9090 -0.2888
# 6 28.8905 48.7270 16.5125 -5.0813 -0.2888 47.8812
#
#
#
# Elastic Compliance Matrix: (Units=1/GPa)
#
#
# Indices 1 2 3 4 5 6 
#
# 1 0.012698 0.001773 -0.002469 -0.001473 -0.001549 -0.008781
# 2 0.001773 0.015882 -0.004003 0.002222 -0.001059 -0.015623
# 3 -0.002469 -0.004003 0.008054 0.002532 -0.002246 0.003041
# 4 -0.001473 0.002222 0.002532 0.022160 -0.000353 0.000104
# 5 -0.001549 -0.001059 -0.002246 -0.000353 0.032724 0.002947
# 6 -0.008781 -0.015623 0.003041 0.000104 0.002947 0.041062
#
#
# Mechanical properties :
#
#
# Convention : Reuss Voigt Hill
#
# Bulk Modulus (GPa) = 36.71505 70.81499 53.76502
# Shear Modulus (GPa) = 33.09996 44.32521 38.71259
#
# Velocity S-wave (km/s) = 3.60713 4.17420 3.90099
# Velocity P-wave (km/s) = 5.63746 7.14625 6.43622
#
# Compressibility (1/GPa) = 0.02723678
#
# Stress axis : x y z
#
# Youngs Moduli (GPa) = 78.75097 62.96341 124.15839
#
# Poissons Ratio (x) = -0.11166 0.30659
# Poissons Ratio (y) = -0.13966 0.49701
# Poissons Ratio (z) = 0.19446 0.25204
#
# Static dielectric constant tensor:
#      x y z
#    x 2.123440 -0.060230 0.038030 
#    y -0.060230 2.166100 -0.025940 
#    z 0.038030 -0.025940 1.962650 
# 
# From -- ./inp_files/56938.got.cif
#   From: 2010.05.17/outbox.cif.g08.bks.cpg/sg2_29_cif.got.tgz:56938.got - 2010.06.03 11:33:40.
