data_PCOD9005867
_publ_section_title
;
Structure prediction by ZEFSAII (Michael W. Deem and Ramdas Pophale) SiO2 
 PCOD9005867
Probable space group: P -1
;
_chemical_formula_sum "Si O2"
_cell_formula_units_Z 15
_cell_length_a 14.384268
_cell_length_b 7.203414
_cell_length_c 8.471282
_cell_angle_alpha 62.710977
_cell_angle_beta 131.009748
_cell_angle_gamma 93.791126
_cell_volume 551.402315
_symmetry_space_group_name_H-M "P -1"
_symmetry_group_IT_number 2
_symmetry_cell_setting 'triclinic'
loop_
_space_group_symop_operation_xyz
x,y,z
-x,-y,-z
loop_
_atom_site_type_symbol
_atom_site_label
_atom_site_fract_x
_atom_site_fract_y
_atom_site_fract_z
Si Si1 0.581991 0.315491 0.840714
Si Si2 0.861843 0.149198 0.664921
Si Si3 0.716650 0.419644 0.662275
Si Si4 0.000000 0.500000 0.000000
Si Si5 0.718886 0.642156 0.184936
Si Si6 0.495482 0.975754 0.687761
Si Si7 0.258179 0.060676 0.609022
Si Si8 0.932741 0.641456 0.214599
O O1 0.663726 0.425693 0.780016
O O2 0.426536 0.457909 0.633165
O O3 0.574336 0.118852 0.795659
O O4 0.668364 0.180223 0.133623
O O5 0.777062 0.191949 0.714324
O O6 0.782861 0.383815 0.397326
O O7 0.865822 0.945112 0.632735
O O8 0.005573 0.167508 0.826374
O O9 0.847499 0.488641 0.787820
O O10 0.036122 0.498302 0.854603
O O11 0.784436 0.710172 0.078061
O O12 0.746884 0.773017 0.317705
O O13 0.567099 0.728470 0.932688
O O14 0.354839 0.076140 0.572791
O O15 0.500000 0.000000 0.500000
O O16 0.000000 0.500000 0.500000
#
# Coordination Sequence:
#
# PCOD9005867 Si02
#       8
#     2   2   2   1   2   2   2   2
#     4  10  22  37  62  94 130 171 224 271 334 400
#     4  10  21  40  65  93 130 171 220 267 337 399
#     4  10  21  38  63  97 130 174 222 274 332 403
#     4  10  22  38  66  96 140 170 222 280 332 388
#     4  10  22  41  62  93 130 170 224 268 330 397
#     4  11  23  38  60  91 133 170 216 277 332 393
#     4  11  23  40  65  93 135 173 213 282 332 391
#     4   9  21  40  64  95 127 176 221 269 327 407
#
# _framework density 27.203367
#
# number of rings (size 3 to 8) (size 9 to 14) (size 15 to 20)
#    0.000    1.867    0.000    4.000    5.600    3.733 
#    0.000    0.000    5.867    7.200    0.000    0.000 
#    0.000    0.000    0.000    0.000    0.000    0.000 
#
# Total GULP energy -83587.008573 kJ/mol
# GULP energy per Si atom -5572.467238 kJ/mol
# Density = 2.714145 g / cm^3
# Si number density = 27.203367 Si / 1000 Ang^3
#
#
#
# Elastic Constant Matrix: (Units=GPa)
#
#
# Indices 1 2 3 4 5 6 
#
# 1 172.6600 25.4696 28.7825 12.0479 -5.7717 -29.8531
# 2 25.4696 96.4280 18.6215 29.1190 3.3080 -30.1681
# 3 28.7825 18.6215 117.3753 13.9937 -1.7901 -25.9785
# 4 12.0479 29.1190 13.9937 44.3978 -3.1956 -12.2462
# 5 -5.7717 3.3080 -1.7901 -3.1956 47.4967 12.5590
# 6 -29.8531 -30.1681 -25.9785 -12.2462 12.5590 40.4121
#
#
#
# Elastic Compliance Matrix: (Units=1/GPa)
#
#
# Indices 1 2 3 4 5 6 
#
# 1 0.006697 -0.000135 -0.000593 -0.000333 -0.000409 0.004491
# 2 -0.000135 0.016595 0.000941 -0.008207 -0.004838 0.011910
# 3 -0.000593 0.000941 0.010218 -0.001931 -0.001672 0.006768
# 4 -0.000333 -0.008207 -0.001931 0.028888 0.002289 0.000430
# 5 -0.000409 -0.004838 -0.001672 0.002289 0.024589 -0.011937
# 6 0.004491 0.011910 0.006768 0.000430 -0.011937 0.045144
#
#
# Mechanical properties :
#
#
# Convention : Reuss Voigt Hill
#
# Bulk Modulus (GPa) = 29.46716 59.13450 44.30083
# Shear Modulus (GPa) = 34.96092 47.36729 41.16411
#
# Velocity S-wave (km/s) = 3.58881 4.17733 3.89421
# Velocity P-wave (km/s) = 5.29419 6.71207 6.04485
#
# Compressibility (1/GPa) = 0.03393608
#
# Stress axis : x y z
#
# Youngs Moduli (GPa) = 149.33001 60.25982 97.86275
#
# Poissons Ratio (x) = 0.00811 0.05806
# Poissons Ratio (y) = 0.02010 -0.09209
# Poissons Ratio (z) = 0.08859 -0.05671
#
# Static dielectric constant tensor:
#      x y z
#    x 2.131360 0.097910 0.083470 
#    y 0.097910 2.384310 -0.125220 
#    z 0.083470 -0.125220 2.298040 
# 
# From -- ./inp_files/295000.got.cif
#   From: 2010.05.17/outbox.cif.g08.bks.cpg/sg2_148_cif.got.tgz:295000.got - 2010.06.03 11:33:40.
