data_PCOD9005585
_publ_section_title
;
Structure prediction by ZEFSAII (Michael W. Deem and Ramdas Pophale) SiO2 
 PCOD9005585
Probable space group: P -1
;
_chemical_formula_sum "Si O2"
_cell_formula_units_Z 16
_cell_length_a 23.215997
_cell_length_b 15.128510
_cell_length_c 6.034825
_cell_angle_alpha 79.963274
_cell_angle_beta 99.436245
_cell_angle_gamma 160.504010
_cell_volume 696.561782
_symmetry_space_group_name_H-M "P -1"
_symmetry_group_IT_number 2
_symmetry_cell_setting 'triclinic'
loop_
_space_group_symop_operation_xyz
x,y,z
-x,-y,-z
loop_
_atom_site_type_symbol
_atom_site_label
_atom_site_fract_x
_atom_site_fract_y
_atom_site_fract_z
Si Si1 0.701062 0.800850 0.059455
Si Si2 0.232723 0.812129 0.660706
Si Si3 0.707082 0.346815 0.741617
Si Si4 0.436061 0.688952 0.080501
Si Si5 0.063977 0.877953 0.549251
Si Si6 0.472143 0.073978 0.341575
Si Si7 0.091285 0.761109 0.272013
Si Si8 0.870568 0.883887 0.855172
O O1 0.806647 0.871320 0.981742
O O2 0.777819 0.004902 0.920521
O O3 0.500000 0.500000 0.000000
O O4 0.753815 0.871258 0.320267
O O5 0.170223 0.802343 0.470802
O O6 0.076239 0.532657 0.799334
O O7 0.377409 0.055586 0.810701
O O8 0.330569 0.887090 0.520934
O O9 0.643352 0.332280 0.869633
O O10 0.635240 0.268202 0.485260
O O11 0.912063 0.643342 0.732878
O O12 0.617149 0.120256 0.810608
O O13 0.302511 0.420226 0.178653
O O14 0.463631 0.742822 0.813831
O O15 0.036430 0.763634 0.394321
O O16 0.053687 0.958461 0.383938
O O17 0.000000 0.000000 0.000000
#
# Coordination Sequence:
#
# PCOD9005585 Si02
#       8
#     2   2   2   2   2   2   2   2
#     4  11  28  44  71  98 132 180 227 277 330 399
#     4  10  23  41  66  96 129 172 214 276 324 399
#     4  10  21  39  61  96 126 172 210 267 333 393
#     4  11  24  37  67  95 131 169 217 271 335 391
#     4  11  24  44  71  91 138 176 219 273 338 385
#     4  10  21  38  62  94 134 164 211 269 328 397
#     4  10  24  44  65  97 132 166 226 268 329 398
#     4  11  26  46  67 102 135 177 230 277 325 399
#
# _framework density 22.969964000000001
#
# number of rings (size 3 to 8) (size 9 to 14) (size 15 to 20)
#    0.000    1.500    1.250    1.875    7.000    5.000 
#    0.000    2.500    0.000    0.000    0.000    0.000 
#    0.000    0.000    0.000    0.000    0.000    0.000 
#
# Total GULP energy -89457.311959 kJ/mol
# GULP energy per Si atom -5591.081997 kJ/mol
# Density = 2.291768 g / cm^3
# Si number density = 22.969964 Si / 1000 Ang^3
#
#
#
# Elastic Constant Matrix: (Units=GPa)
#
#
# Indices 1 2 3 4 5 6 
#
# 1 69.2581 31.7066 9.1583 -5.8000 17.5605 -4.8100
# 2 31.7066 158.1147 31.9401 7.4589 22.4074 -4.2461
# 3 9.1583 31.9401 47.2611 -3.3114 21.0024 -3.1132
# 4 -5.8000 7.4589 -3.3114 24.8938 3.9861 8.4202
# 5 17.5605 22.4074 21.0024 3.9861 32.8260 1.6850
# 6 -4.8100 -4.2461 -3.1132 8.4202 1.6850 31.8082
#
#
#
# Elastic Compliance Matrix: (Units=1/GPa)
#
#
# Indices 1 2 3 4 5 6 
#
# 1 0.019092 -0.003366 0.004396 0.007398 -0.011705 0.001530
# 2 -0.003366 0.008290 -0.005120 -0.004355 -0.000118 0.001256
# 3 0.004396 -0.005120 0.034477 0.010073 -0.022234 0.001867
# 4 0.007398 -0.004355 0.010073 0.050380 -0.012977 -0.011126
# 5 -0.011705 -0.000118 -0.022234 -0.012977 0.052778 -0.003323
# 6 0.001530 0.001256 0.001867 -0.011126 -0.003323 0.035141
#
#
# Mechanical properties :
#
#
# Convention : Reuss Voigt Hill
#
# Bulk Modulus (GPa) = 18.62934 46.69376 32.66155
# Shear Modulus (GPa) = 22.10129 31.36084 26.73106
#
# Velocity S-wave (km/s) = 3.10527 3.69900 3.41506
# Velocity P-wave (km/s) = 4.58092 6.21416 5.45897
#
# Compressibility (1/GPa) = 0.05367876
#
# Stress axis : x y z
#
# Youngs Moduli (GPa) = 52.37805 120.63365 29.00477
#
# Poissons Ratio (x) = 0.40600 -0.12750
# Poissons Ratio (y) = 0.17628 0.14851
# Poissons Ratio (z) = -0.23024 0.61766
#
# Static dielectric constant tensor:
#      x y z
#    x 1.881160 0.003220 -0.006730 
#    y 0.003220 1.858420 0.018270 
#    z -0.006730 0.018270 1.842700 
# 
# From -- ./inp_files/83514.got.cif
#   From: 2010.05.17/outbox.cif.g08.bks.cpg/sg2_42_cif.got.tgz:83514.got - 2010.06.03 11:33:40.
