data_PCOD9005785
_publ_section_title
;
Structure prediction by ZEFSAII (Michael W. Deem and Ramdas Pophale) SiO2 
 PCOD9005785
Probable space group: P -1
;
_chemical_formula_sum "Si O2"
_cell_formula_units_Z 14
_cell_length_a 5.305790
_cell_length_b 20.114503
_cell_length_c 16.736740
_cell_angle_alpha 161.045628
_cell_angle_beta 120.524434
_cell_angle_gamma 60.420333
_cell_volume 499.216428
_symmetry_space_group_name_H-M "P -1"
_symmetry_group_IT_number 2
_symmetry_cell_setting 'triclinic'
loop_
_space_group_symop_operation_xyz
x,y,z
-x,-y,-z
loop_
_atom_site_type_symbol
_atom_site_label
_atom_site_fract_x
_atom_site_fract_y
_atom_site_fract_z
Si Si1 0.146034 0.507974 0.357282
Si Si2 0.704021 0.878457 0.754137
Si Si3 0.665234 0.468325 0.748924
Si Si4 0.924003 0.019535 0.646352
Si Si5 0.605388 0.124439 0.871930
Si Si6 0.584690 0.651061 0.114776
Si Si7 0.227027 0.312645 0.299625
O O1 0.103519 0.478081 0.221714
O O2 0.178688 0.305245 0.188356
O O3 0.465200 0.594310 0.523047
O O4 0.942212 0.703082 0.568690
O O5 0.415411 0.761742 0.545824
O O6 0.704442 0.073994 0.920444
O O7 0.753718 0.886591 0.866350
O O8 0.688007 0.523568 0.907649
O O9 0.402395 0.633256 0.869904
O O10 0.809858 0.013512 0.712985
O O11 0.839523 0.803184 0.350396
O O12 0.265343 0.062567 0.735884
O O13 0.698045 0.193296 0.769837
O O14 0.500000 0.500000 0.000000
O O15 0.000000 0.500000 0.500000
#
# Coordination Sequence:
#
# PCOD9005785 Si02
#       7
#     2   2   2   2   2   2   2
#     4   9  18  35  64  92 126 163 215 262 317 381
#     4  10  21  38  63  93 127 173 213 257 323 389
#     4  10  23  38  63  95 124 165 214 274 316 380
#     4  10  25  44  64  94 130 173 215 272 324 385
#     4  11  25  43  65  93 136 172 217 266 326 384
#     4  10  22  44  68  92 126 169 219 269 327 384
#     4   8  16  34  60  93 126 165 206 260 317 380
#
# _framework density 28.043949999999999
#
# number of rings (size 3 to 8) (size 9 to 14) (size 15 to 20)
#    0.000    2.286    0.000    0.857    8.000    6.286 
#    0.000    5.000    0.000   29.143    0.000    0.000 
#    0.000    0.000    0.000    0.000    0.000    0.000 
#
# Total GULP energy -78366.252787 kJ/mol
# GULP energy per Si atom -5597.589485 kJ/mol
# Density = 2.798012 g / cm^3
# Si number density = 28.043950 Si / 1000 Ang^3
#
#
#
# Elastic Constant Matrix: (Units=GPa)
#
#
# Indices 1 2 3 4 5 6 
#
# 1 110.9023 49.2973 35.5035 -13.9348 -9.5407 -0.2684
# 2 49.2973 181.1386 65.8262 23.2060 -12.1765 33.1090
# 3 35.5035 65.8262 98.5724 -3.8653 8.7945 3.8972
# 4 -13.9348 23.2060 -3.8653 52.2011 3.9813 4.8695
# 5 -9.5407 -12.1765 8.7945 3.9813 45.2990 -9.5746
# 6 -0.2684 33.1090 3.8972 4.8695 -9.5746 63.3188
#
#
#
# Elastic Compliance Matrix: (Units=1/GPa)
#
#
# Indices 1 2 3 4 5 6 
#
# 1 0.011819 -0.003084 -0.002302 0.004023 0.002138 0.001818
# 2 -0.003084 0.010224 -0.006034 -0.005652 0.002897 -0.004115
# 3 -0.002302 -0.006034 0.015560 0.003511 -0.005197 0.001132
# 4 0.004023 -0.005652 0.003511 0.023210 -0.003294 0.000473
# 5 0.002138 0.002897 -0.005197 -0.003294 0.025212 0.002880
# 6 0.001818 -0.004115 0.001132 0.000473 0.002880 0.018282
#
#
# Mechanical properties :
#
#
# Convention : Reuss Voigt Hill
#
# Bulk Modulus (GPa) = 67.74102 76.87415 72.30759
# Shear Modulus (GPa) = 37.85959 48.16285 43.01122
#
# Velocity S-wave (km/s) = 3.67823 4.14866 3.92051
# Velocity P-wave (km/s) = 6.49976 7.10070 6.80687
#
# Compressibility (1/GPa) = 0.01476210
#
# Stress axis : x y z
#
# Youngs Moduli (GPa) = 84.61291 97.81269 64.26650
#
# Poissons Ratio (x) = 0.30163 0.14797
# Poissons Ratio (y) = 0.26092 0.38779
# Poissons Ratio (z) = 0.19481 0.59021
#
# Static dielectric constant tensor:
#      x y z
#    x 2.377100 0.108140 0.040280 
#    y 0.108140 2.245460 -0.039220 
#    z 0.040280 -0.039220 2.164190 
# 
# From -- ./inp_files/550936.got.cif
#   From: 2010.05.17/outbox.cif.g08.bks.cpg/sg2_276_cif.got.tgz:550936.got - 2010.06.03 11:33:40.
