data_PCOD9005189
_publ_section_title
;
Structure prediction by ZEFSAII (Michael W. Deem and Ramdas Pophale) SiO2 
 PCOD9005189
Probable space group: P -1
;
_chemical_formula_sum "Si O2"
_cell_formula_units_Z 16
_cell_length_a 8.386242
_cell_length_b 16.587979
_cell_length_c 8.317029
_cell_angle_alpha 128.434624
_cell_angle_beta 73.620228
_cell_angle_gamma 123.968896
_cell_volume 747.813908
_symmetry_space_group_name_H-M "P -1"
_symmetry_group_IT_number 2
_symmetry_cell_setting 'triclinic'
loop_
_space_group_symop_operation_xyz
x,y,z
-x,-y,-z
loop_
_atom_site_type_symbol
_atom_site_label
_atom_site_fract_x
_atom_site_fract_y
_atom_site_fract_z
Si Si1 0.656670 0.137925 0.676322
Si Si2 0.069877 0.125509 0.045753
Si Si3 0.222804 0.682299 0.421800
Si Si4 0.180314 0.360456 0.475420
Si Si5 0.874683 0.051344 0.672548
Si Si6 0.482675 0.228041 0.092064
Si Si7 0.406991 0.569877 0.452397
Si Si8 0.484230 0.100646 0.221950
O O1 0.692917 0.243128 0.673804
O O2 0.851207 0.135852 0.656948
O O3 0.597809 0.176126 0.904990
O O4 0.500000 0.000000 0.500000
O O5 0.291223 0.188469 0.997309
O O6 0.948377 0.106778 0.896416
O O7 0.077715 0.220443 0.288594
O O8 0.000000 0.000000 0.000000
O O9 0.317811 0.607893 0.377140
O O10 0.304668 0.792319 0.661270
O O11 0.990968 0.615988 0.395818
O O12 0.272608 0.432985 0.372950
O O13 0.368381 0.396257 0.578684
O O14 0.657009 0.946353 0.645670
O O15 0.000000 0.000000 0.500000
O O16 0.595969 0.360779 0.295958
O O17 0.398802 0.155321 0.190904
O O18 0.500000 0.000000 0.000000
#
# Coordination Sequence:
#
# PCOD9005189 Si02
#       8
#     2   2   2   2   2   2   2   2
#     4  12  24  38  56  89 135 175 205 262 334 390
#     4  11  23  36  64  94 124 163 210 266 322 393
#     4  11  23  37  65  91 125 171 213 267 323 386
#     4  10  22  42  71  96 122 162 226 272 322 383
#     4  12  25  36  57  92 137 169 210 265 331 392
#     4  10  21  38  61  86 122 165 218 258 323 385
#     4   9  22  44  70  92 121 166 225 276 316 384
#     4  11  19  36  59  86 122 172 210 258 312 388
#
# _framework density 21.395696000000001
#
# number of rings (size 3 to 8) (size 9 to 14) (size 15 to 20)
#    0.000    1.250    3.750    1.875    5.250    0.000 
#    0.000    0.625    0.000    2.250    0.000    0.000 
#    0.000    0.000    0.000    0.000    0.000    0.000 
#
# Total GULP energy -89116.503319 kJ/mol
# GULP energy per Si atom -5569.781457 kJ/mol
# Density = 2.134700 g / cm^3
# Si number density = 21.395696 Si / 1000 Ang^3
#
#
#
# Elastic Constant Matrix: (Units=GPa)
#
#
# Indices 1 2 3 4 5 6 
#
# 1 151.8400 43.2437 11.1484 -14.6363 1.4413 -8.9710
# 2 43.2437 92.7577 7.3985 -2.7853 9.6451 -18.3473
# 3 11.1484 7.3985 31.9888 -4.9330 -1.2478 -4.7445
# 4 -14.6363 -2.7853 -4.9330 24.7150 -2.5893 1.8395
# 5 1.4413 9.6451 -1.2478 -2.5893 32.1546 -6.1752
# 6 -8.9710 -18.3473 -4.7445 1.8395 -6.1752 42.1532
#
#
#
# Elastic Compliance Matrix: (Units=1/GPa)
#
#
# Indices 1 2 3 4 5 6 
#
# 1 0.008124 -0.003673 -0.001294 0.004249 0.001020 -0.000051
# 2 -0.003673 0.013833 -0.001609 -0.001627 -0.003286 0.004648
# 3 -0.001294 -0.001609 0.033535 0.005827 0.002881 0.002966
# 4 0.004249 -0.001627 0.005827 0.044414 0.004004 -0.000500
# 5 0.001020 -0.003286 0.002881 0.004004 0.033204 0.003801
# 6 -0.000051 0.004648 0.002966 -0.000500 0.003801 0.026648
#
#
# Mechanical properties :
#
#
# Convention : Reuss Voigt Hill
#
# Bulk Modulus (GPa) = 23.61841 44.46307 34.04074
# Shear Modulus (GPa) = 26.73464 34.12430 30.42947
#
# Velocity S-wave (km/s) = 3.53871 3.99797 3.77533
# Velocity P-wave (km/s) = 5.26872 6.49139 5.91175
#
# Compressibility (1/GPa) = 0.04233986
#
# Stress axis : x y z
#
# Youngs Moduli (GPa) = 123.09570 72.28844 29.81950
#
# Poissons Ratio (x) = 0.26549 0.03860
# Poissons Ratio (y) = 0.45209 0.04799
# Poissons Ratio (z) = 0.15933 0.11633
#
# Static dielectric constant tensor:
#      x y z
#    x 1.334140 -0.088970 -0.186860 
#    y -0.088970 1.937130 0.031570 
#    z -0.186860 0.031570 1.728020 
# 
# From -- ./inp_files/215486.got.cif
#   From: 2010.05.17/outbox.cif.g08.bks.cpg/sg2_108_cif.got.tgz:215486.got - 2010.06.03 11:33:40.
