data_PCOD9005877
_publ_section_title
;
Structure prediction by ZEFSAII (Michael W. Deem and Ramdas Pophale) SiO2 
 PCOD9005877
Probable space group: P -1
;
_chemical_formula_sum "Si O2"
_cell_formula_units_Z 12
_cell_length_a 17.386661
_cell_length_b 12.429430
_cell_length_c 15.889854
_cell_angle_alpha 28.627341
_cell_angle_beta 26.100522
_cell_angle_gamma 21.333464
_cell_volume 531.017580
_symmetry_space_group_name_H-M "P -1"
_symmetry_group_IT_number 2
_symmetry_cell_setting 'triclinic'
loop_
_space_group_symop_operation_xyz
x,y,z
-x,-y,-z
loop_
_atom_site_type_symbol
_atom_site_label
_atom_site_fract_x
_atom_site_fract_y
_atom_site_fract_z
Si Si1 0.902156 0.026203 0.946078
Si Si2 0.720990 0.330815 0.461828
Si Si3 0.653622 0.134167 0.291881
Si Si4 0.746580 0.193154 0.722780
Si Si5 0.728724 0.657608 0.654029
Si Si6 0.693928 0.881760 0.122374
O O1 0.752443 0.369885 0.823442
O O2 0.774453 0.049874 0.139974
O O3 0.160690 0.891705 0.811187
O O4 0.883134 0.851268 0.015144
O O5 0.500000 0.500000 0.500000
O O6 0.685325 0.257760 0.639712
O O7 0.755526 0.567869 0.275781
O O8 0.970916 0.012730 0.402286
O O9 0.408491 0.480892 0.303822
O O10 0.633633 0.900524 0.507382
O O11 0.689004 0.007200 0.951226
O O12 0.000000 0.500000 0.500000
O O13 0.562476 0.858969 0.758866
#
# Coordination Sequence:
#
# PCOD9005877 Si02
#       6
#     2   2   2   2   2   2
#     4  10  23  40  67 105 146 179 223 278 345 422
#     4  11  28  52  70  98 136 184 240 300 348 402
#     4  10  21  43  67 103 142 184 223 275 347 420
#     4  11  25  47  73 103 132 181 243 285 348 411
#     4  10  21  38  63  98 141 180 216 268 340 412
#     4  12  24  44  69 103 139 183 232 288 346 412
#
# _framework density 22.598122
#
# number of rings (size 3 to 8) (size 9 to 14) (size 15 to 20)
#    0.000    1.333    3.333    1.000    2.333    2.667 
#    6.000    0.000    0.000    0.000    0.000    0.000 
#    0.000    0.000    0.000    0.000    0.000    0.000 
#
# Total GULP energy -67152.854399 kJ/mol
# GULP energy per Si atom -5596.071200 kJ/mol
# Density = 2.254669 g / cm^3
# Si number density = 22.598122 Si / 1000 Ang^3
#
#
#
# Elastic Constant Matrix: (Units=GPa)
#
#
# Indices 1 2 3 4 5 6 
#
# 1 108.8463 40.9682 65.0531 -10.6176 11.6737 -23.9396
# 2 40.9682 114.5232 29.7889 -2.9489 8.9724 -16.4138
# 3 65.0531 29.7889 157.6806 -10.6620 31.3445 -5.0255
# 4 -10.6176 -2.9489 -10.6620 35.3978 7.8471 -8.5981
# 5 11.6737 8.9724 31.3445 7.8471 44.4232 -6.2463
# 6 -23.9396 -16.4138 -5.0255 -8.5981 -6.2463 30.3524
#
#
#
# Elastic Compliance Matrix: (Units=1/GPa)
#
#
# Indices 1 2 3 4 5 6 
#
# 1 0.017039 -0.002623 -0.005906 0.006045 0.000973 0.012955
# 2 -0.002623 0.010411 -0.000575 0.000927 -0.000667 0.003591
# 3 -0.005906 -0.000575 0.010128 0.001634 -0.006348 -0.004136
# 4 0.006045 0.000927 0.001634 0.035676 -0.007240 0.014156
# 5 0.000973 -0.000667 -0.006348 -0.007240 0.028596 0.003190
# 6 0.012955 0.003591 -0.004136 0.014156 0.003190 0.049088
#
#
# Mechanical properties :
#
#
# Convention : Reuss Voigt Hill
#
# Bulk Modulus (GPa) = 51.62769 72.51895 62.07332
# Shear Modulus (GPa) = 28.47353 38.38400 33.42877
#
# Velocity S-wave (km/s) = 3.55349 4.12582 3.85030
# Velocity P-wave (km/s) = 6.30333 7.40654 6.87709
#
# Compressibility (1/GPa) = 0.01936945
#
# Stress axis : x y z
#
# Youngs Moduli (GPa) = 58.68941 96.05662 98.73949
#
# Poissons Ratio (x) = 0.25195 0.58315
# Poissons Ratio (y) = 0.15394 0.05677
# Poissons Ratio (z) = 0.34662 0.05523
#
# Static dielectric constant tensor:
#      x y z
#    x 1.901870 -0.027480 0.003020 
#    y -0.027480 1.810230 0.018410 
#    z 0.003020 0.018410 1.816420 
# 
# From -- ./inp_files/265030.got.cif
#   From: 2010.05.17/outbox.cif.g08.bks.cpg/sg2_133_cif.got.tgz:265030.got - 2010.06.03 11:33:40.
