data_PCOD9005777
_publ_section_title
;
Structure prediction by ZEFSAII (Michael W. Deem and Ramdas Pophale) SiO2 
 PCOD9005777
Probable space group: P -1
;
_chemical_formula_sum "Si O2"
_cell_formula_units_Z 10
_cell_length_a 12.713433
_cell_length_b 7.361454
_cell_length_c 6.568666
_cell_angle_alpha 120.235864
_cell_angle_beta 65.895374
_cell_angle_gamma 130.575815
_cell_volume 400.339778
_symmetry_space_group_name_H-M "P -1"
_symmetry_group_IT_number 2
_symmetry_cell_setting 'triclinic'
loop_
_space_group_symop_operation_xyz
x,y,z
-x,-y,-z
loop_
_atom_site_type_symbol
_atom_site_label
_atom_site_fract_x
_atom_site_fract_y
_atom_site_fract_z
Si Si1 0.992945 0.701639 0.979727
Si Si2 0.208379 0.688082 0.384356
Si Si3 0.606665 0.129121 0.302662
Si Si4 0.562051 0.330019 0.067415
Si Si5 0.790601 0.866496 0.220012
O O1 0.930252 0.556642 0.732028
O O2 0.881817 0.764736 0.173972
O O3 0.130926 0.970637 0.954613
O O4 0.000000 0.500000 0.000000
O O5 0.325049 0.703071 0.156128
O O6 0.249046 0.688230 0.588128
O O7 0.211685 0.942881 0.514726
O O8 0.580708 0.898935 0.048977
O O9 0.500000 0.000000 0.500000
O O10 0.568375 0.279530 0.270542
O O11 0.633421 0.629056 0.161794
#
# Coordination Sequence:
#
# PCOD9005777 Si02
#       5
#     2   2   2   2   2
#     4  10  23  43  62  90 131 161 204 262 302 363
#     4  10  21  38  63  93 124 162 206 253 303 366
#     4   9  19  40  66  88 130 162 197 264 307 356
#     4   9  20  41  62  94 128 159 205 256 304 366
#     4  10  22  40  63  96 118 166 212 243 314 371
#
# _framework density 24.978781000000001
#
# number of rings (size 3 to 8) (size 9 to 14) (size 15 to 20)
#    0.000    2.400    0.000    0.600    5.600    1.600 
#   14.400    9.000    0.000    0.000    0.000    0.000 
#    0.000    0.000    0.000    0.000    0.000    0.000 
#
# Total GULP energy -55795.800138 kJ/mol
# GULP energy per Si atom -5579.580014 kJ/mol
# Density = 2.492193 g / cm^3
# Si number density = 24.978781 Si / 1000 Ang^3
#
#
#
# Elastic Constant Matrix: (Units=GPa)
#
#
# Indices 1 2 3 4 5 6 
#
# 1 67.9668 28.4298 28.5981 -0.6942 29.4707 -19.5999
# 2 28.4298 142.5003 25.4884 0.0463 35.4895 -9.5100
# 3 28.5981 25.4884 95.5403 11.2485 17.2177 -4.7431
# 4 -0.6942 0.0463 11.2485 55.9008 -5.0724 7.5705
# 5 29.4707 35.4895 17.2177 -5.0724 58.9163 16.2775
# 6 -19.5999 -9.5100 -4.7431 7.5705 16.2775 53.7536
#
#
#
# Elastic Compliance Matrix: (Units=1/GPa)
#
#
# Indices 1 2 3 4 5 6 
#
# 1 0.028790 0.000644 -0.004413 -0.002582 -0.018166 0.016087
# 2 0.000644 0.008971 -0.001114 -0.000886 -0.006535 0.003827
# 3 -0.004413 -0.001114 0.012585 -0.002679 -0.001028 -0.000007
# 4 -0.002582 -0.000886 -0.002679 0.019736 0.005941 -0.005913
# 5 -0.018166 -0.006535 -0.001028 0.005941 0.036247 -0.019683
# 6 0.016087 0.003827 -0.000007 -0.005913 -0.019683 0.031939
#
#
# Mechanical properties :
#
#
# Convention : Reuss Voigt Hill
#
# Bulk Modulus (GPa) = 24.64236 52.33778 38.49007
# Shear Modulus (GPa) = 30.94787 48.61355 39.78071
#
# Velocity S-wave (km/s) = 3.52371 4.41635 3.99504
# Velocity P-wave (km/s) = 5.14219 6.85594 6.05996
#
# Compressibility (1/GPa) = 0.04058053
#
# Stress axis : x y z
#
# Youngs Moduli (GPa) = 34.73403 111.46495 79.45793
#
# Poissons Ratio (x) = -0.07181 0.35066
# Poissons Ratio (y) = -0.02238 0.08854
# Poissons Ratio (z) = 0.15329 0.12420
#
# Static dielectric constant tensor:
#      x y z
#    x 2.183490 0.047030 -0.005890 
#    y 0.047030 2.033570 0.015640 
#    z -0.005890 0.015640 1.943480 
# 
# From -- ./inp_files/2542.got.cif
#   From: 2010.05.17/outbox.cif.g08.bks.cpg/sg2_2_cif.got.tgz:2542.got - 2010.06.03 11:33:40.
