data_PCOD9005157
_publ_section_title
;
Structure prediction by ZEFSAII (Michael W. Deem and Ramdas Pophale) SiO2 
 PCOD9005157
Probable space group: P -1
;
_chemical_formula_sum "Si O2"
_cell_formula_units_Z 14
_cell_length_a 12.647355
_cell_length_b 11.966711
_cell_length_c 8.512233
_cell_angle_alpha 118.057661
_cell_angle_beta 142.095947
_cell_angle_gamma 53.797437
_cell_volume 638.629530
_symmetry_space_group_name_H-M "P -1"
_symmetry_group_IT_number 2
_symmetry_cell_setting 'triclinic'
loop_
_space_group_symop_operation_xyz
x,y,z
-x,-y,-z
loop_
_atom_site_type_symbol
_atom_site_label
_atom_site_fract_x
_atom_site_fract_y
_atom_site_fract_z
Si Si1 0.316704 0.706861 0.356956
Si Si2 0.733311 0.803293 0.691001
Si Si3 0.539788 0.585238 0.809539
Si Si4 0.789134 0.294598 0.268543
Si Si5 0.701572 0.108797 0.823226
Si Si6 0.073182 0.574506 0.756937
Si Si7 0.997053 0.652068 0.140982
O O1 0.434722 0.710142 0.649482
O O2 0.455499 0.563519 0.340309
O O3 0.246074 0.833766 0.239049
O O4 0.145832 0.678507 0.215022
O O5 0.527564 0.818255 0.406653
O O6 0.892343 0.681634 0.701713
O O7 0.749756 0.947042 0.770624
O O8 0.792597 0.760367 0.913411
O O9 0.419343 0.625385 0.852470
O O10 0.759162 0.549064 0.042024
O O11 0.822867 0.353752 0.182188
O O12 0.927357 0.316918 0.579518
O O13 0.789827 0.149423 0.108402
O O14 0.000000 0.500000 0.500000
O O15 0.000000 0.500000 0.000000
#
# Coordination Sequence:
#
# PCOD9005157 Si02
#       7
#     2   2   2   2   2   2   2
#     4  10  22  39  67  91 128 174 206 258 328 389
#     4  11  26  44  66  91 132 174 216 268 314 386
#     4  10  21  38  60  99 120 165 205 261 329 369
#     4  11  24  38  65  95 133 166 208 271 319 385
#     4  11  25  46  64  91 128 181 220 252 323 388
#     4  12  23  37  63  99 127 162 212 272 321 370
#     4  11  24  42  66 102 130 163 213 273 324 376
#
# _framework density 21.921942999999999
#
# number of rings (size 3 to 8) (size 9 to 14) (size 15 to 20)
#    0.000    1.143    2.857    2.143    8.000    2.857 
#    0.000    1.429    0.000    9.429    0.000    0.000 
#    0.000    0.000    0.000    0.000    0.000    0.000 
#
# Total GULP energy -77963.238710 kJ/mol
# GULP energy per Si atom -5568.802765 kJ/mol
# Density = 2.187205 g / cm^3
# Si number density = 21.921943 Si / 1000 Ang^3
#
#
#
# Elastic Constant Matrix: (Units=GPa)
#
#
# Indices 1 2 3 4 5 6 
#
# 1 73.1916 12.5667 6.4659 1.3761 8.0973 10.3640
# 2 12.5667 59.0618 46.0642 -0.5792 -2.4459 19.3480
# 3 6.4659 46.0642 150.6639 0.5901 -4.3857 5.0064
# 4 1.3761 -0.5792 0.5901 34.4797 2.2202 3.0768
# 5 8.0973 -2.4459 -4.3857 2.2202 24.7777 -7.9477
# 6 10.3640 19.3480 5.0064 3.0768 -7.9477 36.2117
#
#
#
# Elastic Compliance Matrix: (Units=1/GPa)
#
#
# Indices 1 2 3 4 5 6 
#
# 1 0.015446 -0.001843 -0.000136 0.000238 -0.006860 -0.004943
# 2 -0.001843 0.028279 -0.008184 0.002142 -0.002818 -0.014251
# 3 -0.000136 -0.008184 0.009087 -0.000750 0.002092 0.003678
# 4 0.000238 0.002142 -0.000750 0.029712 -0.004117 -0.004537
# 5 -0.006860 -0.002818 0.002092 -0.004117 0.047541 0.013964
# 6 -0.004943 -0.014251 0.003678 -0.004537 0.013964 0.039586
#
#
# Mechanical properties :
#
#
# Convention : Reuss Voigt Hill
#
# Bulk Modulus (GPa) = 30.78204 45.90120 38.34162
# Shear Modulus (GPa) = 24.89976 33.61517 29.25746
#
# Velocity S-wave (km/s) = 3.37387 3.92012 3.65721
# Velocity P-wave (km/s) = 5.40828 6.44001 5.94656
#
# Compressibility (1/GPa) = 0.03248648
#
# Stress axis : x y z
#
# Youngs Moduli (GPa) = 64.74313 35.36152 110.04849
#
# Poissons Ratio (x) = 0.06517 0.01494
# Poissons Ratio (y) = 0.11932 0.90063
# Poissons Ratio (z) = 0.00879 0.28940
#
# Static dielectric constant tensor:
#      x y z
#    x 1.928190 0.103900 0.007260 
#    y 0.103900 1.843030 0.047880 
#    z 0.007260 0.047880 1.968490 
# 
# From -- ./inp_files/263236.got.cif
#   From: 2010.05.17/outbox.cif.g08.bks.cpg/sg2_132_cif.got.tgz:263236.got - 2010.06.03 11:33:40.
