data_PCOD9005578
_publ_section_title
;
Structure prediction by ZEFSAII (Michael W. Deem and Ramdas Pophale) SiO2 
 PCOD9005578
Probable space group: P -1
;
_chemical_formula_sum "Si O2"
_cell_formula_units_Z 16
_cell_length_a 9.666393
_cell_length_b 14.392878
_cell_length_c 12.631940
_cell_angle_alpha 63.846252
_cell_angle_beta 46.829807
_cell_angle_gamma 37.021511
_cell_volume 749.172656
_symmetry_space_group_name_H-M "P -1"
_symmetry_group_IT_number 2
_symmetry_cell_setting 'triclinic'
loop_
_space_group_symop_operation_xyz
x,y,z
-x,-y,-z
loop_
_atom_site_type_symbol
_atom_site_label
_atom_site_fract_x
_atom_site_fract_y
_atom_site_fract_z
Si Si1 0.323493 0.463090 0.232016
Si Si2 0.295631 0.704056 0.078980
Si Si3 0.704806 0.273006 0.324587
Si Si4 0.683459 0.880097 0.865183
Si Si5 0.209966 0.988891 0.678862
Si Si6 0.736903 0.860126 0.603692
Si Si7 0.815034 0.592727 0.948239
Si Si8 0.865280 0.496203 0.386824
O O1 0.209027 0.619841 0.168639
O O2 0.486313 0.411358 0.282563
O O3 0.056037 0.494973 0.360185
O O4 0.575412 0.319594 0.091156
O O5 0.046120 0.876148 0.173558
O O6 0.581682 0.599564 0.053201
O O7 0.478554 0.350612 0.499289
O O8 0.982588 0.225189 0.233593
O O9 0.800672 0.123163 0.301521
O O10 0.623378 0.934705 0.745154
O O11 0.650431 0.770290 0.943233
O O12 0.500000 0.000000 0.000000
O O13 0.196687 0.070142 0.542226
O O14 0.502097 0.892215 0.641641
O O15 0.011554 0.670212 0.573864
O O16 0.032172 0.509636 0.778413
O O17 0.000000 0.500000 0.000000
#
# Coordination Sequence:
#
# PCOD9005578 Si02
#       8
#     2   2   2   2   2   2   2   2
#     4  10  21  38  62  94 123 158 212 259 304 368
#     4  10  22  38  62  92 123 165 210 256 309 371
#     4  12  24  38  67  95 119 172 207 256 319 369
#     4  11  26  44  63  92 130 166 208 261 315 376
#     4  11  24  39  65  92 125 169 208 260 312 368
#     4  10  24  43  61  91 131 167 205 259 318 363
#     4  10  22  42  63  90 125 167 206 258 316 367
#     4  10  22  41  63  92 129 160 210 263 304 378
#
# _framework density 21.356891999999998
#
# number of rings (size 3 to 8) (size 9 to 14) (size 15 to 20)
#    0.000    1.500    1.250    2.625    5.250    5.000 
#    0.000    0.000    0.000    0.000    0.000    0.000 
#    0.000    0.000    0.000    0.000    0.000    0.000 
#
# Total GULP energy -89361.401029 kJ/mol
# GULP energy per Si atom -5585.087564 kJ/mol
# Density = 2.130828 g / cm^3
# Si number density = 21.356892 Si / 1000 Ang^3
#
#
#
# Elastic Constant Matrix: (Units=GPa)
#
#
# Indices 1 2 3 4 5 6 
#
# 1 72.6528 1.2832 18.9334 -7.2895 7.8996 -2.9746
# 2 1.2832 35.0555 26.8458 11.3897 2.0113 8.4239
# 3 18.9334 26.8458 76.4831 20.5660 8.7401 10.6360
# 4 -7.2895 11.3897 20.5660 35.6793 4.8901 7.8272
# 5 7.8996 2.0113 8.7401 4.8901 32.5915 -2.5498
# 6 -2.9746 8.4239 10.6360 7.8272 -2.5498 35.9468
#
#
#
# Elastic Compliance Matrix: (Units=1/GPa)
#
#
# Indices 1 2 3 4 5 6 
#
# 1 0.016440 0.002035 -0.006323 0.006569 -0.003315 0.001089
# 2 0.002035 0.040981 -0.013229 -0.004149 0.000791 -0.004562
# 3 -0.006323 -0.013229 0.022321 -0.009114 -0.002443 -0.002216
# 4 0.006569 -0.004149 -0.009114 0.037560 -0.004865 -0.004311
# 5 -0.003315 0.000791 -0.002443 -0.004865 0.033110 0.003671
# 6 0.001089 -0.004562 -0.002216 -0.004311 0.003671 0.030833
#
#
# Mechanical properties :
#
#
# Convention : Reuss Voigt Hill
#
# Bulk Modulus (GPa) = 22.36695 30.92400 26.64548
# Shear Modulus (GPa) = 21.62794 29.98546 25.80670
#
# Velocity S-wave (km/s) = 3.18573 3.75109 3.47991
# Velocity P-wave (km/s) = 4.90179 5.76818 5.35255
#
# Compressibility (1/GPa) = 0.04470882
#
# Stress axis : x y z
#
# Youngs Moduli (GPa) = 60.82683 24.40148 44.79989
#
# Poissons Ratio (x) = -0.04965 0.28327
# Poissons Ratio (y) = -0.12375 0.59264
# Poissons Ratio (z) = 0.38461 0.32280
#
# Static dielectric constant tensor:
#      x y z
#    x 1.834540 0.085070 -0.049260 
#    y 0.085070 1.829300 -0.079270 
#    z -0.049260 -0.079270 1.927410 
# 
# From -- ./inp_files/209516.got.cif
#   From: 2010.05.17/outbox.cif.g08.bks.cpg/sg2_105_cif.got.tgz:209516.got - 2010.06.03 11:33:40.
