data_PCOD9005582
_publ_section_title
;
Structure prediction by ZEFSAII (Michael W. Deem and Ramdas Pophale) SiO2 
 PCOD9005582
Probable space group: P -1
;
_chemical_formula_sum "Si O2"
_cell_formula_units_Z 14
_cell_length_a 10.714469
_cell_length_b 12.152820
_cell_length_c 11.838148
_cell_angle_alpha 40.764350
_cell_angle_beta 41.049298
_cell_angle_gamma 42.598055
_cell_volume 610.123643
_symmetry_space_group_name_H-M "P -1"
_symmetry_group_IT_number 2
_symmetry_cell_setting 'triclinic'
loop_
_space_group_symop_operation_xyz
x,y,z
-x,-y,-z
loop_
_atom_site_type_symbol
_atom_site_label
_atom_site_fract_x
_atom_site_fract_y
_atom_site_fract_z
Si Si1 0.686787 0.323989 0.228135
Si Si2 0.976226 0.008593 0.146159
Si Si3 0.662082 0.589235 0.421535
Si Si4 0.044497 0.365312 0.471790
Si Si5 0.390032 0.026805 0.931032
Si Si6 0.302952 0.298828 0.157765
Si Si7 0.079274 0.636549 0.768376
O O1 0.472145 0.405357 0.379871
O O2 0.850800 0.252497 0.274642
O O3 0.709483 0.500279 0.019987
O O4 0.756260 0.160629 0.217878
O O5 0.003129 0.809594 0.327386
O O6 0.150821 0.061280 0.048812
O O7 0.000000 0.000000 0.000000
O O8 0.895430 0.500767 0.375831
O O9 0.586400 0.796339 0.273739
O O10 0.712299 0.469697 0.363812
O O11 0.000000 0.500000 0.500000
O O12 0.269498 0.292414 0.318795
O O13 0.499642 0.849320 0.917777
O O14 0.500000 0.000000 0.000000
O O15 0.116167 0.257163 0.257978
O O16 0.000000 0.500000 0.000000
#
# Coordination Sequence:
#
# PCOD9005582 Si02
#       7
#     2   2   2   2   2   2   2
#     4  11  21  39  63  94 131 171 216 271 327 390
#     4  12  26  45  68  97 131 176 224 273 330 394
#     4  11  23  39  64  97 131 172 217 269 326 391
#     4  11  24  45  67  92 128 174 223 276 331 392
#     4  12  24  42  67 100 135 174 218 269 326 392
#     4  10  21  38  62  94 129 171 217 270 326 386
#     4   9  18  36  60  90 129 170 210 262 323 383
#
# _framework density 22.946169999999999
#
# number of rings (size 3 to 8) (size 9 to 14) (size 15 to 20)
#    0.000    1.143    0.000    9.000    0.000    3.429 
#    0.000   10.714    0.000    0.000    0.000    0.000 
#    0.000    0.000    0.000    0.000    0.000    0.000 
#
# Total GULP energy -78064.109889 kJ/mol
# GULP energy per Si atom -5576.007849 kJ/mol
# Density = 2.289394 g / cm^3
# Si number density = 22.946170 Si / 1000 Ang^3
#
#
#
# Elastic Constant Matrix: (Units=GPa)
#
#
# Indices 1 2 3 4 5 6 
#
# 1 43.1512 15.9079 16.0789 12.2568 13.9795 6.5083
# 2 15.9079 128.0481 27.4146 32.1877 13.7669 19.7005
# 3 16.0789 27.4146 115.2224 16.7875 12.0876 8.4648
# 4 12.2568 32.1877 16.7875 57.3996 -5.3294 5.6388
# 5 13.9795 13.7669 12.0876 -5.3294 28.7204 9.5565
# 6 6.5083 19.7005 8.4648 5.6388 9.5565 37.0913
#
#
#
# Elastic Compliance Matrix: (Units=1/GPa)
#
#
# Indices 1 2 3 4 5 6 
#
# 1 0.031080 0.000121 -0.001568 -0.007747 -0.016011 0.000143
# 2 0.000121 0.010435 -0.000941 -0.005709 -0.004630 -0.003288
# 3 -0.001568 -0.000941 0.009815 -0.002282 -0.003247 -0.000282
# 4 -0.007747 -0.005709 -0.002282 0.024322 0.012662 -0.002047
# 5 -0.016011 -0.004630 -0.003247 0.012662 0.051613 -0.009213
# 6 0.000143 -0.003288 -0.000282 -0.002047 -0.009213 0.031431
#
#
# Mechanical properties :
#
#
# Convention : Reuss Voigt Hill
#
# Bulk Modulus (GPa) = 21.48001 45.02495 33.25248
# Shear Modulus (GPa) = 27.93479 39.77694 33.85586
#
# Velocity S-wave (km/s) = 3.49292 4.16804 3.84532
# Velocity P-wave (km/s) = 5.06445 6.54431 5.85135
#
# Compressibility (1/GPa) = 0.04655491
#
# Stress axis : x y z
#
# Youngs Moduli (GPa) = 32.17534 95.83455 101.88218
#
# Poissons Ratio (x) = -0.01162 0.15976
# Poissons Ratio (y) = -0.00390 0.09582
# Poissons Ratio (z) = 0.05045 0.09013
#
# Static dielectric constant tensor:
#      x y z
#    x 2.032100 0.120350 0.068220 
#    y 0.120350 1.940020 0.174210 
#    z 0.068220 0.174210 1.954100 
# 
# From -- ./inp_files/269592.got.cif
#   From: 2010.05.17/outbox.cif.g08.bks.cpg/sg2_135_cif.got.tgz:269592.got - 2010.06.03 11:33:40.
