data_PCOD9005075
_publ_section_title
;
Structure prediction by ZEFSAII (Michael W. Deem and Ramdas Pophale) SiO2 
 PCOD9005075
Probable space group: P -1
;
_chemical_formula_sum "Si O2"
_cell_formula_units_Z 14
_cell_length_a 4.997466
_cell_length_b 25.989269
_cell_length_c 11.846036
_cell_angle_alpha 31.743307
_cell_angle_beta 54.215994
_cell_angle_gamma 64.203626
_cell_volume 649.672986
_symmetry_space_group_name_H-M "P -1"
_symmetry_group_IT_number 2
_symmetry_cell_setting 'triclinic'
loop_
_space_group_symop_operation_xyz
x,y,z
-x,-y,-z
loop_
_atom_site_type_symbol
_atom_site_label
_atom_site_fract_x
_atom_site_fract_y
_atom_site_fract_z
Si Si1 0.017704 0.719588 0.319105
Si Si2 0.197436 0.821013 0.637755
Si Si3 0.923560 0.772661 0.557969
Si Si4 0.931095 0.094962 0.911749
Si Si5 0.821376 0.569712 0.834640
Si Si6 0.204226 0.222108 0.962584
Si Si7 0.861852 0.018210 0.319927
O O1 0.860371 0.805538 0.266138
O O2 0.408191 0.762745 0.130722
O O3 0.990968 0.621938 0.582977
O O4 0.858819 0.707599 0.257292
O O5 0.592170 0.825857 0.546463
O O6 0.082556 0.765574 0.653914
O O7 0.063860 0.926361 0.458482
O O8 0.014259 0.769258 0.888742
O O9 0.796277 0.665392 0.739233
O O10 0.186062 0.839670 0.285157
O O11 0.806173 0.042317 0.157778
O O12 0.000000 0.000000 0.000000
O O13 0.500000 0.500000 0.000000
O O14 0.000000 0.500000 0.000000
O O15 0.077651 0.112731 0.149000
O O16 0.500000 0.000000 0.500000
#
# Coordination Sequence:
#
# PCOD9005075 Si02
#       7
#     2   2   2   2   2   2   2
#     4  10  23  41  64  96 122 168 221 255 327 391
#     4  12  23  39  62  90 137 172 215 266 307 378
#     4  11  25  40  63  99 125 167 213 266 342 374
#     4  10  21  38  60  89 134 167 209 267 314 371
#     4  11  23  45  74  95 123 159 212 283 339 397
#     4  11  23  39  62  88 134 178 217 255 305 384
#     4  11  23  39  61  91 133 190 234 251 304 379
#
# _framework density 21.549303999999999
#
# number of rings (size 3 to 8) (size 9 to 14) (size 15 to 20)
#    0.000    1.143    1.429    5.571    2.000    6.286 
#    0.000    0.000    0.000   17.143    0.000    0.000 
#    0.000    0.000    0.000    0.000    0.000    0.000 
#
# Total GULP energy -78054.121436 kJ/mol
# GULP energy per Si atom -5575.294388 kJ/mol
# Density = 2.150026 g / cm^3
# Si number density = 21.549304 Si / 1000 Ang^3
#
#
#
# Elastic Constant Matrix: (Units=GPa)
#
#
# Indices 1 2 3 4 5 6 
#
# 1 126.2749 26.9727 33.7109 9.9600 17.6000 -1.5167
# 2 26.9727 63.3340 48.4714 12.0752 17.1113 12.8383
# 3 33.7109 48.4714 128.6318 0.2428 26.8044 1.7619
# 4 9.9600 12.0752 0.2428 41.5211 11.5762 9.8211
# 5 17.6000 17.1113 26.8044 11.5762 44.5412 6.1728
# 6 -1.5167 12.8383 1.7619 9.8211 6.1728 44.4954
#
#
#
# Elastic Compliance Matrix: (Units=1/GPa)
#
#
# Indices 1 2 3 4 5 6 
#
# 1 0.009149 -0.002721 -0.001004 -0.001274 -0.001867 0.001677
# 2 -0.002721 0.026263 -0.008760 -0.005074 -0.001595 -0.005982
# 3 -0.001004 -0.008760 0.012317 0.003625 -0.004853 0.001879
# 4 -0.001274 -0.005074 0.003625 0.028663 -0.006606 -0.004133
# 5 -0.001867 -0.001595 -0.004853 -0.006606 0.028707 -0.001936
# 6 0.001677 -0.005982 0.001879 -0.004133 -0.001936 0.025364
#
#
# Mechanical properties :
#
#
# Convention : Reuss Voigt Hill
#
# Bulk Modulus (GPa) = 43.93599 59.61673 51.77636
# Shear Modulus (GPa) = 30.67135 40.05059 35.36097
#
# Velocity S-wave (km/s) = 3.77677 4.31577 4.05524
# Velocity P-wave (km/s) = 6.28104 7.24982 6.78275
#
# Compressibility (1/GPa) = 0.02276038
#
# Stress axis : x y z
#
# Youngs Moduli (GPa) = 109.29853 38.07639 81.19063
#
# Poissons Ratio (x) = 0.10359 0.08152
# Poissons Ratio (y) = 0.29736 0.71120
# Poissons Ratio (z) = 0.10974 0.33353
#
# Static dielectric constant tensor:
#      x y z
#    x 1.749890 0.052170 -0.081730 
#    y 0.052170 1.699780 0.169740 
#    z -0.081730 0.169740 1.730330 
# 
# From -- ./inp_files/88951.got.cif
#   From: 2010.05.17/outbox.cif.g08.bks.cpg/sg2_45_cif.got.tgz:88951.got - 2010.06.03 11:33:40.
