data_PCOD9005549
_publ_section_title
;
Structure prediction by ZEFSAII (Michael W. Deem and Ramdas Pophale) SiO2 
 PCOD9005549
Probable space group: P -1
;
_chemical_formula_sum "Si O2"
_cell_formula_units_Z 12
_cell_length_a 7.397361
_cell_length_b 10.229275
_cell_length_c 8.092212
_cell_angle_alpha 82.733304
_cell_angle_beta 56.632967
_cell_angle_gamma 100.086886
_cell_volume 484.657194
_symmetry_space_group_name_H-M "P -1"
_symmetry_group_IT_number 2
_symmetry_cell_setting 'triclinic'
loop_
_space_group_symop_operation_xyz
x,y,z
-x,-y,-z
loop_
_atom_site_type_symbol
_atom_site_label
_atom_site_fract_x
_atom_site_fract_y
_atom_site_fract_z
Si Si1 0.522521 0.194684 0.618495
Si Si2 0.640187 0.443241 0.296650
Si Si3 0.664009 0.635073 0.813005
Si Si4 0.989575 0.688118 0.950224
Si Si5 0.839238 0.039534 0.336346
Si Si6 0.652453 0.900239 0.926262
O O1 0.616293 0.352038 0.487645
O O2 0.717902 0.116235 0.515981
O O3 0.402163 0.177263 0.857677
O O4 0.336294 0.104148 0.600116
O O5 0.392298 0.406184 0.342770
O O6 0.790348 0.603061 0.185160
O O7 0.805861 0.376750 0.118930
O O8 0.500000 0.500000 0.000000
O O9 0.883905 0.662377 0.818585
O O10 0.595767 0.775328 0.846383
O O11 0.102159 0.853149 0.867160
O O12 0.084140 0.023916 0.253383
O O13 0.500000 0.000000 0.000000
#
# Coordination Sequence:
#
# PCOD9005549 Si02
#       6
#     2   2   2   2   2   2
#     4  10  21  38  62  93 123 162 214 259 308 380
#     4   9  17  34  62  86 115 166 205 247 312 370
#     4   9  19  38  60  85 122 166 203 249 316 373
#     4   8  16  33  59  84 113 159 204 242 302 372
#     4   9  20  39  61  85 129 163 201 256 323 370
#     4  11  24  38  61  96 129 160 209 266 315 373
#
# _framework density 24.759771000000001
#
# number of rings (size 3 to 8) (size 9 to 14) (size 15 to 20)
#    0.000    2.667    0.000    0.500    7.000    0.667 
#    6.000    7.500    0.000   36.000    0.000    0.000 
#    0.000    0.000    0.000    0.000    0.000    0.000 
#
# Total GULP energy -66863.461265 kJ/mol
# GULP energy per Si atom -5571.955105 kJ/mol
# Density = 2.470342 g / cm^3
# Si number density = 24.759771 Si / 1000 Ang^3
#
#
#
# Elastic Constant Matrix: (Units=GPa)
#
#
# Indices 1 2 3 4 5 6 
#
# 1 105.2359 30.0352 33.6505 2.1034 -26.6843 -7.8904
# 2 30.0352 111.9366 25.1942 -13.1154 -12.2156 -6.7871
# 3 33.6505 25.1942 112.3057 1.1452 -18.0821 2.4707
# 4 2.1034 -13.1154 1.1452 38.4459 -8.7420 1.3246
# 5 -26.6843 -12.2156 -18.0821 -8.7420 42.3224 -6.9743
# 6 -7.8904 -6.7871 2.4707 1.3246 -6.9743 35.2752
#
#
#
# Elastic Compliance Matrix: (Units=1/GPa)
#
#
# Indices 1 2 3 4 5 6 
#
# 1 0.012966 -0.001859 -0.002377 0.000258 0.007361 0.004155
# 2 -0.001859 0.010675 -0.001527 0.004282 0.002483 0.002075
# 3 -0.002377 -0.001527 0.010351 -0.000145 0.002272 -0.001096
# 4 0.000258 0.004282 -0.000145 0.029138 0.007569 0.001294
# 5 0.007361 0.002483 0.002272 0.007569 0.032868 0.008179
# 6 0.004155 0.002075 -0.001096 0.001294 0.008179 0.031322
#
#
# Mechanical properties :
#
#
# Convention : Reuss Voigt Hill
#
# Bulk Modulus (GPa) = 44.51313 56.35977 50.43645
# Shear Modulus (GPa) = 34.16860 39.24859 36.70859
#
# Velocity S-wave (km/s) = 3.71887 3.98575 3.85462
# Velocity P-wave (km/s) = 6.03797 6.63277 6.34234
#
# Compressibility (1/GPa) = 0.02246528
#
# Stress axis : x y z
#
# Youngs Moduli (GPa) = 77.12601 93.68038 96.61338
#
# Poissons Ratio (x) = 0.17411 0.22964
# Poissons Ratio (y) = 0.14335 0.14756
# Poissons Ratio (z) = 0.18332 0.14308
#
# Static dielectric constant tensor:
#      x y z
#    x 2.088600 -0.071720 0.008950 
#    y -0.071720 1.998790 0.030080 
#    z 0.008950 0.030080 1.984860 
# 
# From -- ./inp_files/169108.got.cif
#   From: 2010.05.17/outbox.cif.g08.bks.cpg/sg2_85_cif.got.tgz:169108.got - 2010.06.03 11:33:40.
