data_PCOD9005998
_publ_section_title
;
Structure prediction by ZEFSAII (Michael W. Deem and Ramdas Pophale) SiO2 
 PCOD9005998
Probable space group: P -1
;
_chemical_formula_sum "Si O2"
_cell_formula_units_Z 16
_cell_length_a 6.401649
_cell_length_b 9.021398
_cell_length_c 13.582260
_cell_angle_alpha 80.310854
_cell_angle_beta 69.426216
_cell_angle_gamma 95.387651
_cell_volume 713.873387
_symmetry_space_group_name_H-M "P -1"
_symmetry_group_IT_number 2
_symmetry_cell_setting 'triclinic'
loop_
_space_group_symop_operation_xyz
x,y,z
-x,-y,-z
loop_
_atom_site_type_symbol
_atom_site_label
_atom_site_fract_x
_atom_site_fract_y
_atom_site_fract_z
Si Si1 0.211537 0.232094 0.412471
Si Si2 0.732290 0.114828 0.970705
Si Si3 0.982365 0.691075 0.750374
Si Si4 0.530871 0.039933 0.605740
Si Si5 0.587302 0.427087 0.897807
Si Si6 0.896428 0.047718 0.166607
Si Si7 0.635867 0.490681 0.257466
Si Si8 0.623031 0.664544 0.424111
O O1 0.007516 0.251970 0.370832
O O2 0.290145 0.072149 0.385832
O O3 0.404806 0.377561 0.338751
O O4 0.206207 0.251248 0.529977
O O5 0.676960 0.275503 0.928034
O O6 0.794573 0.106603 0.076795
O O7 0.946714 0.072020 0.880629
O O8 0.500000 0.000000 0.000000
O O9 0.791546 0.546668 0.808461
O O10 0.936619 0.822585 0.816549
O O11 0.201656 0.633223 0.760842
O O12 0.309474 0.998623 0.716795
O O13 0.500000 0.000000 0.500000
O O14 0.558330 0.223897 0.582231
O O15 0.398133 0.418141 0.845675
O O16 0.500000 0.500000 0.000000
O O17 0.725650 0.614959 0.311612
O O18 0.500000 0.500000 0.500000
#
# Coordination Sequence:
#
# PCOD9005998 Si02
#       8
#     2   2   2   2   2   2   2   2
#     4   9  20  40  62  93 125 173 215 265 331 384
#     4  11  27  45  67 100 137 177 225 283 334 393
#     4  11  23  40  68  95 130 168 221 275 326 409
#     4  10  21  41  70  95 133 176 222 272 332 396
#     4  11  25  41  64  98 128 174 221 271 344 393
#     4  11  25  43  70 100 134 179 225 276 336 397
#     4  10  21  38  64  91 129 170 210 273 331 387
#     4   9  20  38  64  92 129 172 214 268 331 389
#
# _framework density 22.412939000000001
#
# number of rings (size 3 to 8) (size 9 to 14) (size 15 to 20)
#    0.000    1.750    1.250    1.500    7.000    3.500 
#    0.000    2.500    0.000    0.000    0.000    0.000 
#    0.000    0.000    0.000    0.000    0.000    0.000 
#
# Total GULP energy -89243.760121 kJ/mol
# GULP energy per Si atom -5577.735008 kJ/mol
# Density = 2.236193 g / cm^3
# Si number density = 22.412939 Si / 1000 Ang^3
#
#
#
# Elastic Constant Matrix: (Units=GPa)
#
#
# Indices 1 2 3 4 5 6 
#
# 1 75.8157 32.3811 48.8243 -4.3867 29.4910 -20.1859
# 2 32.3811 152.7852 51.1702 -3.0539 22.8177 -27.8243
# 3 48.8243 51.1702 120.7311 12.5637 24.5048 -22.6777
# 4 -4.3867 -3.0539 12.5637 31.7601 0.5674 2.4870
# 5 29.4910 22.8177 24.5048 0.5674 34.6747 -6.4308
# 6 -20.1859 -27.8243 -22.6777 2.4870 -6.4308 35.3616
#
#
#
# Elastic Compliance Matrix: (Units=1/GPa)
#
#
# Indices 1 2 3 4 5 6 
#
# 1 0.025994 0.000706 -0.006622 0.005969 -0.016559 0.007716
# 2 0.000706 0.008695 -0.002470 0.001595 -0.003699 0.004876
# 3 -0.006622 -0.002470 0.013658 -0.006776 -0.001689 0.003204
# 4 0.005969 0.001595 -0.006776 0.035391 -0.002401 -0.002608
# 5 -0.016559 -0.003699 -0.001689 -0.002401 0.045668 -0.004972
# 6 0.007716 0.004876 0.003204 -0.002608 -0.004972 0.037854
#
#
# Mechanical properties :
#
#
# Convention : Reuss Voigt Hill
#
# Bulk Modulus (GPa) = 31.67140 68.23146 49.95143
# Shear Modulus (GPa) = 25.69931 34.82305 30.26118
#
# Velocity S-wave (km/s) = 3.38986 3.94598 3.67845
# Velocity P-wave (km/s) = 5.42983 7.16031 6.35425
#
# Compressibility (1/GPa) = 0.03157423
#
# Stress axis : x y z
#
# Youngs Moduli (GPa) = 38.47043 115.00884 73.21849
#
# Poissons Ratio (x) = -0.08124 0.48487
# Poissons Ratio (y) = -0.02717 0.18088
# Poissons Ratio (z) = 0.25476 0.28411
#
# Static dielectric constant tensor:
#      x y z
#    x 1.845620 -0.027060 0.046960 
#    y -0.027060 1.846240 -0.015050 
#    z 0.046960 -0.015050 1.884630 
# 
# From -- ./inp_files/480390.got.cif
#   From: 2010.05.17/outbox.cif.g08.bks.cpg/sg2_241_cif.got.tgz:480390.got - 2010.06.03 11:33:40.
