data_PCOD9005305
_publ_section_title
;
Structure prediction by ZEFSAII (Michael W. Deem and Ramdas Pophale) SiO2 
 PCOD9005305
Probable space group: P -1
;
_chemical_formula_sum "Si O2"
_cell_formula_units_Z 14
_cell_length_a 12.615390
_cell_length_b 12.148637
_cell_length_c 9.619320
_cell_angle_alpha 108.873262
_cell_angle_beta 61.836992
_cell_angle_gamma 154.641505
_cell_volume 535.519227
_symmetry_space_group_name_H-M "P -1"
_symmetry_group_IT_number 2
_symmetry_cell_setting 'triclinic'
loop_
_space_group_symop_operation_xyz
x,y,z
-x,-y,-z
loop_
_atom_site_type_symbol
_atom_site_label
_atom_site_fract_x
_atom_site_fract_y
_atom_site_fract_z
Si Si1 0.909040 0.407981 0.681392
Si Si2 0.067554 0.200347 0.144010
Si Si3 0.661003 0.780692 0.909575
Si Si4 0.675808 0.046065 0.243582
Si Si5 0.812633 0.068100 0.703350
Si Si6 0.386386 0.131127 0.533733
Si Si7 0.663893 0.607042 0.579682
O O1 0.000000 0.500000 0.500000
O O2 0.086832 0.651360 0.763643
O O3 0.580864 0.150278 0.775042
O O4 0.935504 0.301769 0.686880
O O5 0.114671 0.103841 0.099890
O O6 0.840066 0.065477 0.129805
O O7 0.365406 0.514537 0.058553
O O8 0.941031 0.136868 0.342181
O O9 0.728464 0.961887 0.867591
O O10 0.619927 0.660871 0.749399
O O11 0.547681 0.916826 0.426188
O O12 0.571922 0.846555 0.645608
O O13 0.032963 0.160204 0.566337
O O14 0.525191 0.364503 0.606668
O O15 0.500000 0.500000 0.500000
#
# Coordination Sequence:
#
# PCOD9005305 Si02
#       7
#     2   2   2   2   2   2   2
#     4  12  23  41  69  98 135 174 227 282 336 400
#     4   9  22  42  67  90 136 177 224 269 337 406
#     4  11  22  42  63  97 136 176 223 270 340 410
#     4  10  24  42  66  98 128 179 225 279 333 398
#     4  12  24  39  63  97 133 169 220 280 335 399
#     4  10  21  38  61  91 128 168 216 274 327 394
#     4  12  22  35  64  96 134 165 214 282 340 394
#
# _framework density 26.142851
#
# number of rings (size 3 to 8) (size 9 to 14) (size 15 to 20)
#    0.857    0.286    4.286    2.571    4.000    0.571 
#    0.000    2.857    0.000    0.000    0.000    0.000 
#    0.000    0.000    0.000    0.000    0.000    0.000 
#
# Total GULP energy -78249.239033 kJ/mol
# GULP energy per Si atom -5589.231360 kJ/mol
# Density = 2.608335 g / cm^3
# Si number density = 26.142851 Si / 1000 Ang^3
#
#
#
# Elastic Constant Matrix: (Units=GPa)
#
#
# Indices 1 2 3 4 5 6 
#
# 1 173.4974 56.9140 42.5547 -8.0879 -5.0059 -7.0465
# 2 56.9140 104.6307 19.3819 -5.3753 -1.7188 -7.6891
# 3 42.5547 19.3819 77.1523 -10.9800 3.2638 6.5475
# 4 -8.0879 -5.3753 -10.9800 32.2431 -1.4264 -3.9718
# 5 -5.0059 -1.7188 3.2638 -1.4264 53.2867 -3.4166
# 6 -7.0465 -7.6891 6.5475 -3.9718 -3.4166 70.7894
#
#
#
# Elastic Compliance Matrix: (Units=1/GPa)
#
#
# Indices 1 2 3 4 5 6 
#
# 1 0.007855 -0.003535 -0.003503 0.000324 0.000897 0.000783
# 2 -0.003535 0.011791 -0.000986 0.000885 0.000202 0.001079
# 3 -0.003503 -0.000986 0.015932 0.004106 -0.001340 -0.001764
# 4 0.000324 0.000885 0.004106 0.032877 0.000792 0.001632
# 5 0.000897 0.000202 -0.001340 0.000792 0.019037 0.001198
# 6 0.000783 0.001079 -0.001764 0.001632 0.001198 0.014634
#
#
# Mechanical properties :
#
#
# Convention : Reuss Voigt Hill
#
# Bulk Modulus (GPa) = 51.20470 65.88684 58.54577
# Shear Modulus (GPa) = 40.10049 47.02582 43.56315
#
# Velocity S-wave (km/s) = 3.92075 4.24583 4.08652
# Velocity P-wave (km/s) = 6.33446 7.02093 6.68651
#
# Compressibility (1/GPa) = 0.01952946
#
# Stress axis : x y z
#
# Youngs Moduli (GPa) = 127.29979 84.80913 62.76662
#
# Poissons Ratio (x) = 0.29981 0.21987
# Poissons Ratio (y) = 0.45002 0.06192
# Poissons Ratio (z) = 0.44594 0.08366
#
# Static dielectric constant tensor:
#      x y z
#    x 2.120070 0.029970 -0.010860 
#    y 0.029970 2.235240 0.044990 
#    z -0.010860 0.044990 2.084680 
# 
# From -- ./inp_files/428533.got.cif
#   From: 2010.05.17/outbox.cif.g08.bks.cpg/sg2_215_cif.got.tgz:428533.got - 2010.06.03 11:33:40.
