data_PCOD9005013
_publ_section_title
;
Structure prediction by ZEFSAII (Michael W. Deem and Ramdas Pophale) SiO2 
 PCOD9005013
Probable space group: P -1
;
_chemical_formula_sum "Si O2"
_cell_formula_units_Z 16
_cell_length_a 20.772106
_cell_length_b 9.538573
_cell_length_c 13.809553
_cell_angle_alpha 64.749943
_cell_angle_beta 157.854588
_cell_angle_gamma 125.301003
_cell_volume 787.506594
_symmetry_space_group_name_H-M "P -1"
_symmetry_group_IT_number 2
_symmetry_cell_setting 'triclinic'
loop_
_space_group_symop_operation_xyz
x,y,z
-x,-y,-z
loop_
_atom_site_type_symbol
_atom_site_label
_atom_site_fract_x
_atom_site_fract_y
_atom_site_fract_z
Si Si1 0.929593 0.810829 0.100506
Si Si2 0.686185 0.613126 0.654854
Si Si3 0.368993 0.242960 0.128621
Si Si4 0.741311 0.801006 0.474344
Si Si5 0.114879 0.830580 0.880955
Si Si6 0.049875 0.535824 0.716965
Si Si7 0.226391 0.651839 0.239212
Si Si8 0.679738 0.428643 0.099087
O O1 0.961487 0.642822 0.204302
O O2 0.854589 0.794783 0.891330
O O3 0.746494 0.778609 0.924237
O O4 0.124681 0.995307 0.356029
O O5 0.500000 0.500000 0.500000
O O6 0.658596 0.669236 0.492919
O O7 0.744046 0.464804 0.764571
O O8 0.595493 0.290861 0.451909
O O9 0.353309 0.400979 0.007169
O O10 0.237190 0.042260 0.956103
O O11 0.894233 0.772987 0.630882
O O12 0.544496 0.750608 0.154276
O O13 0.103332 0.694587 0.822214
O O14 0.227019 0.815767 0.137153
O O15 0.834507 0.472415 0.387960
O O16 0.212425 0.593408 0.839244
O O17 0.000000 0.500000 0.000000
#
# Coordination Sequence:
#
# PCOD9005013 Si02
#       8
#     2   2   2   2   2   2   2   2
#     4  10  21  38  60  87 118 154 197 236 293 345
#     4  12  20  37  63  83 116 161 192 231 296 353
#     4  10  21  39  60  84 121 161 187 238 297 349
#     4  11  23  39  59  87 120 155 193 241 290 356
#     4  11  23  38  59  88 120 154 196 239 295 344
#     4  10  22  40  64  85 113 155 197 250 286 342
#     4  12  21  37  59  87 122 154 191 241 290 344
#     4  10  21  42  62  84 115 154 202 239 293 344
#
# _framework density 20.31729
#
# number of rings (size 3 to 8) (size 9 to 14) (size 15 to 20)
#    0.000    1.250    5.000    1.500    0.000    1.500 
#    2.250    0.000    0.000    0.000    0.000    0.000 
#    0.000    0.000    0.000    0.000    0.000    0.000 
#
# Total GULP energy -89233.769288 kJ/mol
# GULP energy per Si atom -5577.110581 kJ/mol
# Density = 2.027105 g / cm^3
# Si number density = 20.317290 Si / 1000 Ang^3
#
#
#
# Elastic Constant Matrix: (Units=GPa)
#
#
# Indices 1 2 3 4 5 6 
#
# 1 54.2289 30.5174 29.2910 1.4394 3.3968 -18.0873
# 2 30.5174 80.8370 33.6765 14.5111 0.8003 -27.4577
# 3 29.2910 33.6765 146.7637 -0.5394 6.7407 -7.9131
# 4 1.4394 14.5111 -0.5394 29.5167 0.2473 0.6207
# 5 3.3968 0.8003 6.7407 0.2473 30.4177 1.1055
# 6 -18.0873 -27.4577 -7.9131 0.6207 1.1055 25.7090
#
#
#
# Elastic Compliance Matrix: (Units=1/GPa)
#
#
# Indices 1 2 3 4 5 6 
#
# 1 0.027576 -0.004214 -0.003665 0.000390 -0.002664 0.013878
# 2 -0.004214 0.026139 -0.003902 -0.013222 -0.000120 0.024076
# 3 -0.003665 -0.003902 0.008277 0.002347 -0.001189 -0.004204
# 4 0.000390 -0.013222 0.002347 0.040700 -0.000034 -0.014105
# 5 -0.002664 -0.000120 -0.001189 -0.000034 0.033578 -0.003811
# 6 0.013878 0.024076 -0.004204 -0.014105 -0.003811 0.073585
#
#
# Mechanical properties :
#
#
# Convention : Reuss Voigt Hill
#
# Bulk Modulus (GPa) = 26.01989 52.08883 39.05436
# Shear Modulus (GPa) = 20.30641 29.68500 24.99571
#
# Velocity S-wave (km/s) = 3.16486 3.82654 3.51132
# Velocity P-wave (km/s) = 5.11759 6.72433 5.97521
#
# Compressibility (1/GPa) = 0.03843214
#
# Stress axis : x y z
#
# Youngs Moduli (GPa) = 36.26288 38.25647 120.81667
#
# Poissons Ratio (x) = 0.16120 0.44277
# Poissons Ratio (y) = 0.15280 0.47142
# Poissons Ratio (z) = 0.13290 0.14928
#
# Static dielectric constant tensor:
#      x y z
#    x 1.706740 0.019830 -0.015040 
#    y 0.019830 1.732370 0.017770 
#    z -0.015040 0.017770 1.743830 
# 
# From -- ./inp_files/188034.got.cif
#   From: 2010.05.17/outbox.cif.g08.bks.cpg/sg2_95_cif.got.tgz:188034.got - 2010.06.03 11:33:40.
