data_PCOD9005943
_publ_section_title
;
Structure prediction by ZEFSAII (Michael W. Deem and Ramdas Pophale) SiO2 
 PCOD9005943
Probable space group: P -1
;
_chemical_formula_sum "Si O2"
_cell_formula_units_Z 16
_cell_length_a 12.145690
_cell_length_b 11.487680
_cell_length_c 9.169057
_cell_angle_alpha 64.385860
_cell_angle_beta 48.756850
_cell_angle_gamma 56.291425
_cell_volume 795.686596
_symmetry_space_group_name_H-M "P -1"
_symmetry_group_IT_number 2
_symmetry_cell_setting 'triclinic'
loop_
_space_group_symop_operation_xyz
x,y,z
-x,-y,-z
loop_
_atom_site_type_symbol
_atom_site_label
_atom_site_fract_x
_atom_site_fract_y
_atom_site_fract_z
Si Si1 0.109203 0.872548 0.769175
Si Si2 0.380064 0.808376 0.126869
Si Si3 0.740992 0.706854 0.908791
Si Si4 0.841434 0.581230 0.187766
Si Si5 0.107496 0.829485 0.137068
Si Si6 0.039312 0.569394 0.288525
Si Si7 0.115839 0.079974 0.303809
Si Si8 0.660829 0.379406 0.484363
O O1 0.260406 0.756288 0.618522
O O2 0.961436 0.860020 0.818632
O O3 0.117198 0.842568 0.948340
O O4 0.049446 0.043018 0.730123
O O5 0.266703 0.825975 0.076994
O O6 0.367941 0.685019 0.304763
O O7 0.288348 0.955088 0.210930
O O8 0.563324 0.779494 0.961601
O O9 0.820822 0.550864 0.857786
O O10 0.852853 0.790458 0.725903
O O11 0.731652 0.691509 0.102633
O O12 0.775677 0.462945 0.351460
O O13 0.895188 0.632605 0.261979
O O14 0.000000 0.500000 0.000000
O O15 0.092854 0.684373 0.246571
O O16 0.000000 0.500000 0.500000
O O17 0.000000 0.000000 0.500000
O O18 0.500000 0.500000 0.500000
#
# Coordination Sequence:
#
# PCOD9005943 Si02
#       8
#     2   2   2   2   2   2   2   2
#     4  10  21  41  66  90 119 168 210 261 300 380
#     4  11  24  40  62  96 129 169 201 263 321 382
#     4  11  23  41  60  94 128 161 207 267 321 364
#     4  10  21  38  64  89 122 162 212 260 303 363
#     4  10  23  40  63  91 128 169 210 243 322 379
#     4  11  23  37  62  91 125 164 214 257 301 381
#     4  11  22  39  72  90 118 160 221 265 306 370
#     4  12  22  39  65  98 127 161 212 263 320 361
#
# _framework density 20.108419000000001
#
# number of rings (size 3 to 8) (size 9 to 14) (size 15 to 20)
#    0.000    1.250    2.500    4.875    3.500    0.500 
#    2.250    0.000    0.000    1.500    0.000    0.000 
#    0.000    0.000    0.000    0.000    0.000    0.000 
#
# Total GULP energy -89144.340365 kJ/mol
# GULP energy per Si atom -5571.521273 kJ/mol
# Density = 2.006265 g / cm^3
# Si number density = 20.108419 Si / 1000 Ang^3
#
#
#
# Elastic Constant Matrix: (Units=GPa)
#
#
# Indices 1 2 3 4 5 6 
#
# 1 80.1587 34.3103 26.1443 2.8050 -7.5209 -10.1349
# 2 34.3103 98.7723 9.8086 10.0764 -20.1034 -2.8236
# 3 26.1443 9.8086 52.9193 -4.8835 0.0432 -1.0268
# 4 2.8050 10.0764 -4.8835 32.4038 -1.9601 -4.1475
# 5 -7.5209 -20.1034 0.0432 -1.9601 31.6057 -8.2679
# 6 -10.1349 -2.8236 -1.0268 -4.1475 -8.2679 40.4489
#
#
#
# Elastic Compliance Matrix: (Units=1/GPa)
#
#
# Indices 1 2 3 4 5 6 
#
# 1 0.017894 -0.004770 -0.007925 -0.000559 0.002344 0.004371
# 2 -0.004770 0.013760 -0.000491 -0.003351 0.007665 0.000976
# 3 -0.007925 -0.000491 0.023245 0.004006 -0.002375 -0.001504
# 4 -0.000559 -0.003351 0.004006 0.033007 0.000624 0.003240
# 5 0.002344 0.007665 -0.002375 0.000624 0.039523 0.009205
# 6 0.004371 0.000976 -0.001504 0.003240 0.009205 0.028061
#
#
# Mechanical properties :
#
#
# Convention : Reuss Voigt Hill
#
# Bulk Modulus (GPa) = 35.05261 41.37521 38.21391
# Shear Modulus (GPa) = 26.12739 31.66417 28.89578
#
# Velocity S-wave (km/s) = 3.60853 3.97252 3.79489
# Velocity P-wave (km/s) = 5.90183 6.45461 6.18440
#
# Compressibility (1/GPa) = 0.02852854
#
# Stress axis : x y z
#
# Youngs Moduli (GPa) = 55.88568 72.67553 43.01963
#
# Poissons Ratio (x) = 0.34664 0.34092
# Poissons Ratio (y) = 0.26656 0.02110
# Poissons Ratio (z) = 0.44288 0.03565
#
# Static dielectric constant tensor:
#      x y z
#    x 1.770250 0.047040 -0.001450 
#    y 0.047040 1.876470 -0.084870 
#    z -0.001450 -0.084870 1.785690 
# 
# From -- ./inp_files/262281.got.cif
#   From: 2010.05.17/outbox.cif.g08.bks.cpg/sg2_132_cif.got.tgz:262281.got - 2010.06.03 11:33:40.
