data_PCOD9005955
_publ_section_title
;
Structure prediction by ZEFSAII (Michael W. Deem and Ramdas Pophale) SiO2 
 PCOD9005955
Probable space group: P -1
;
_chemical_formula_sum "Si O2"
_cell_formula_units_Z 12
_cell_length_a 14.234989
_cell_length_b 8.440841
_cell_length_c 12.372908
_cell_angle_alpha 137.302045
_cell_angle_beta 151.017705
_cell_angle_gamma 60.263565
_cell_volume 436.963080
_symmetry_space_group_name_H-M "P -1"
_symmetry_group_IT_number 2
_symmetry_cell_setting 'triclinic'
loop_
_space_group_symop_operation_xyz
x,y,z
-x,-y,-z
loop_
_atom_site_type_symbol
_atom_site_label
_atom_site_fract_x
_atom_site_fract_y
_atom_site_fract_z
Si Si1 0.416644 0.199517 0.801109
Si Si2 0.183678 0.991356 0.059848
Si Si3 0.470935 0.555197 0.622194
Si Si4 0.911989 0.271973 0.645685
Si Si5 0.791395 0.109689 0.215700
Si Si6 0.197788 0.827524 0.213897
O O1 0.394651 0.026707 0.584521
O O2 0.186378 0.009416 0.533442
O O3 0.600163 0.200535 0.066280
O O4 0.500000 0.500000 0.000000
O O5 0.383050 0.267703 0.436306
O O6 0.162173 0.883248 0.862130
O O7 0.199957 0.809186 0.077836
O O8 0.978898 0.057886 0.893551
O O9 0.500000 0.500000 0.500000
O O10 0.284425 0.646841 0.497207
O O11 0.688485 0.806543 0.996035
O O12 0.888106 0.467771 0.977798
O O13 0.941558 0.250512 0.537202
#
# Coordination Sequence:
#
# PCOD9005955 Si02
#       6
#     2   2   2   2   2   2
#     4  11  24  38  62  91 122 155 199 254 298 345
#     4   9  20  37  64  90 116 162 203 239 298 365
#     4   8  15  31  57  87 111 148 198 241 279 344
#     4  10  21  39  63  87 120 161 198 243 303 358
#     4  10  21  38  64  90 119 157 204 247 294 359
#     4  10  22  39  63  86 125 156 197 248 302 355
#
# _framework density 27.462274000000001
#
# number of rings (size 3 to 8) (size 9 to 14) (size 15 to 20)
#    0.000    2.333    0.000    2.500    9.333    1.333 
#    0.000    0.833    3.667    0.000    0.000    0.000 
#    0.000    0.000    0.000    0.000    0.000    0.000 
#
# Total GULP energy -67047.674189 kJ/mol
# GULP energy per Si atom -5587.306182 kJ/mol
# Density = 2.739977 g / cm^3
# Si number density = 27.462274 Si / 1000 Ang^3
#
#
#
# Elastic Constant Matrix: (Units=GPa)
#
#
# Indices 1 2 3 4 5 6 
#
# 1 125.7031 31.5001 37.7589 -1.2823 -32.8754 17.9062
# 2 31.5001 154.2058 77.7804 23.3455 -7.9734 22.7829
# 3 37.7589 77.7804 164.3479 20.8649 -30.7112 22.5605
# 4 -1.2823 23.3455 20.8649 67.4092 10.8896 0.8568
# 5 -32.8754 -7.9734 -30.7112 10.8896 35.6974 -2.0669
# 6 17.9062 22.7829 22.5605 0.8568 -2.0669 39.2011
#
#
#
# Elastic Compliance Matrix: (Units=1/GPa)
#
#
# Indices 1 2 3 4 5 6 
#
# 1 0.011597 -0.001372 0.000860 -0.001335 0.011268 -0.004371
# 2 -0.001372 0.009254 -0.003919 -0.001626 -0.002222 -0.002578
# 3 0.000860 -0.003919 0.010490 -0.003407 0.009775 -0.003562
# 4 -0.001335 -0.001626 -0.003407 0.017987 -0.009860 0.002603
# 5 0.011268 -0.002222 0.009775 -0.009860 0.048924 -0.006686
# 6 -0.004371 -0.002578 -0.003562 0.002603 -0.006686 0.030645
#
#
# Mechanical properties :
#
#
# Convention : Reuss Voigt Hill
#
# Bulk Modulus (GPa) = 44.48750 82.03728 63.26239
# Shear Modulus (GPa) = 34.42297 48.27604 41.34951
#
# Velocity S-wave (km/s) = 3.54427 4.19729 3.88452
# Velocity P-wave (km/s) = 5.74315 7.30939 6.57309
#
# Compressibility (1/GPa) = 0.02247822
#
# Stress axis : x y z
#
# Youngs Moduli (GPa) = 86.23186 108.05963 95.32907
#
# Poissons Ratio (x) = 0.14828 -0.08200
# Poissons Ratio (y) = 0.11833 0.37362
# Poissons Ratio (z) = -0.07418 0.42352
#
# Static dielectric constant tensor:
#      x y z
#    x 2.298430 -0.009470 0.196130 
#    y -0.009470 2.170820 0.095150 
#    z 0.196130 0.095150 2.206540 
# 
# From -- ./inp_files/222256.got.cif
#   From: 2010.05.17/outbox.cif.g08.bks.cpg/sg2_112_cif.got.tgz:222256.got - 2010.06.03 11:33:40.
