data_PCOD9005904
_publ_section_title
;
Structure prediction by ZEFSAII (Michael W. Deem and Ramdas Pophale) SiO2 
 PCOD9005904
Probable space group: P -1
;
_chemical_formula_sum "Si O2"
_cell_formula_units_Z 14
_cell_length_a 7.185220
_cell_length_b 5.155558
_cell_length_c 15.268475
_cell_angle_alpha 68.766622
_cell_angle_beta 94.592679
_cell_angle_gamma 93.873485
_cell_volume 525.060115
_symmetry_space_group_name_H-M "P -1"
_symmetry_group_IT_number 2
_symmetry_cell_setting 'triclinic'
loop_
_space_group_symop_operation_xyz
x,y,z
-x,-y,-z
loop_
_atom_site_type_symbol
_atom_site_label
_atom_site_fract_x
_atom_site_fract_y
_atom_site_fract_z
Si Si1 0.692710 0.414464 0.824642
Si Si2 0.277553 0.734893 0.546328
Si Si3 0.809888 0.796330 0.944588
Si Si4 0.508174 0.190035 0.610696
Si Si5 0.380563 0.769725 0.791868
Si Si6 0.964097 0.462243 0.289649
Si Si7 0.803728 0.945990 0.113372
O O1 0.737026 0.098508 0.880104
O O2 0.479038 0.492372 0.799245
O O3 0.823622 0.534901 0.735847
O O4 0.744697 0.578978 0.895966
O O5 0.424876 0.487909 0.590690
O O6 0.295539 0.791027 0.436296
O O7 0.172556 0.746560 0.746295
O O8 0.090911 0.621675 0.602680
O O9 0.032798 0.838137 0.939036
O O10 0.760043 0.757560 0.049400
O O11 0.362288 0.010330 0.564740
O O12 0.506301 0.009737 0.719493
O O13 0.356014 0.866345 0.877962
O O14 0.889854 0.757050 0.216284
#
# Coordination Sequence:
#
# PCOD9005904 Si02
#       7
#     2   2   2   2   2   2   2
#     4  11  25  39  58  85 120 146 195 235 286 330
#     4   9  17  32  57  81 113 144 184 227 280 330
#     4  10  24  41  57  86 115 152 190 244 278 341
#     4   9  18  32  54  87 109 143 187 229 272 340
#     4  11  22  37  61  86 113 154 189 237 280 345
#     4  10  21  39  59  86 113 156 186 237 280 346
#     4  10  21  38  64  79 116 152 196 230 293 330
#
# _framework density 26.663616999999999
#
# number of rings (size 3 to 8) (size 9 to 14) (size 15 to 20)
#    0.000    2.000    2.857    0.000    4.000    2.857 
#    0.000    0.714    0.000    0.000    0.000   13.000 
#    0.000    0.000    0.000    0.000    0.000    0.000 
#
# Total GULP energy -78367.037159 kJ/mol
# GULP energy per Si atom -5597.645511 kJ/mol
# Density = 2.660293 g / cm^3
# Si number density = 26.663617 Si / 1000 Ang^3
#
#
#
# Elastic Constant Matrix: (Units=GPa)
#
#
# Indices 1 2 3 4 5 6 
#
# 1 106.9761 20.1795 45.1332 15.7114 -47.0800 -14.0194
# 2 20.1795 136.7331 29.9807 10.4036 -7.4576 -4.9848
# 3 45.1332 29.9807 110.6995 13.9590 -54.9392 -15.3418
# 4 15.7114 10.4036 13.9590 39.5989 1.6099 -7.5417
# 5 -47.0800 -7.4576 -54.9392 1.6099 52.1614 13.8086
# 6 -14.0194 -4.9848 -15.3418 -7.5417 13.8086 31.0652
#
#
#
# Elastic Compliance Matrix: (Units=1/GPa)
#
#
# Indices 1 2 3 4 5 6 
#
# 1 0.018986 -0.002011 0.005451 -0.010253 0.023426 -0.001965
# 2 -0.002011 0.008162 -0.003659 0.000279 -0.004711 0.000757
# 3 0.005451 -0.003659 0.024301 -0.011553 0.031074 -0.002744
# 4 -0.010253 0.000279 -0.011553 0.036172 -0.025048 0.009628
# 5 0.023426 -0.004711 0.031074 -0.025048 0.077174 -0.015223
# 6 -0.001965 0.000757 -0.002744 0.009628 -0.015223 0.039174
#
#
# Mechanical properties :
#
#
# Convention : Reuss Voigt Hill
#
# Bulk Modulus (GPa) = 19.60388 60.55504 40.07946
# Shear Modulus (GPa) = 22.58252 41.83945 32.21098
#
# Velocity S-wave (km/s) = 2.91338 3.96556 3.47947
# Velocity P-wave (km/s) = 4.32265 6.61268 5.58627
#
# Compressibility (1/GPa) = 0.05101032
#
# Stress axis : x y z
#
# Youngs Moduli (GPa) = 52.67116 122.51919 41.15132
#
# Poissons Ratio (x) = 0.24638 -0.22431
# Poissons Ratio (y) = 0.10592 0.15056
# Poissons Ratio (z) = -0.28710 0.44827
#
# Static dielectric constant tensor:
#      x y z
#    x 2.105990 0.046000 -0.009580 
#    y 0.046000 2.066350 -0.033980 
#    z -0.009580 -0.033980 2.132620 
# 
# From -- ./inp_files/488265.got.cif
#   From: 2010.05.17/outbox.cif.g08.bks.cpg/sg2_245_cif.got.tgz:488265.got - 2010.06.03 11:33:40.
