data_PCOD9005755
_publ_section_title
;
Structure prediction by ZEFSAII (Michael W. Deem and Ramdas Pophale) SiO2 
 PCOD9005755
Probable space group: P -1
;
_chemical_formula_sum "Si O2"
_cell_formula_units_Z 16
_cell_length_a 15.908901
_cell_length_b 8.920608
_cell_length_c 12.172359
_cell_angle_alpha 88.815315
_cell_angle_beta 24.890387
_cell_angle_gamma 93.941020
_cell_volume 711.023211
_symmetry_space_group_name_H-M "P -1"
_symmetry_group_IT_number 2
_symmetry_cell_setting 'triclinic'
loop_
_space_group_symop_operation_xyz
x,y,z
-x,-y,-z
loop_
_atom_site_type_symbol
_atom_site_label
_atom_site_fract_x
_atom_site_fract_y
_atom_site_fract_z
Si Si1 0.951588 0.377371 0.155553
Si Si2 0.180226 0.097854 0.905611
Si Si3 0.856053 0.286055 0.701509
Si Si4 0.752201 0.891591 0.419545
Si Si5 0.473265 0.259161 0.738861
Si Si6 0.564523 0.986357 0.048979
Si Si7 0.487896 0.431123 0.224791
Si Si8 0.137419 0.513459 0.510622
O O1 0.714956 0.290497 0.430901
O O2 0.973107 0.466790 0.244514
O O3 0.000000 0.500000 0.000000
O O4 0.082914 0.247420 0.999219
O O5 0.272342 0.065796 0.679398
O O6 0.344779 0.146961 0.804427
O O7 0.990502 0.959401 0.161888
O O8 0.883824 0.342936 0.542491
O O9 0.043666 0.363977 0.552977
O O10 0.777601 0.106352 0.809291
O O11 0.670729 0.362529 0.961873
O O12 0.607891 0.963600 0.670501
O O13 0.675345 0.709071 0.527039
O O14 0.429855 0.429851 0.792059
O O15 0.422397 0.178708 0.918605
O O16 0.500000 0.000000 0.000000
O O17 0.364015 0.501557 0.277405
#
# Coordination Sequence:
#
# PCOD9005755 Si02
#       8
#     2   2   2   2   2   2   2   2
#     4  11  23  41  65  96 130 171 208 271 318 379
#     4  11  23  43  65  95 135 164 223 260 320 391
#     4  10  22  38  64  90 123 168 205 270 312 379
#     4  10  24  43  64  92 134 170 205 276 318 377
#     4  11  24  41  69  96 127 175 215 264 324 382
#     4  11  23  44  66  94 132 170 218 269 326 376
#     4  10  21  40  62  92 125 166 208 260 320 372
#     4  10  21  38  63  92 126 159 219 252 322 379
#
# _framework density 22.502782
#
# number of rings (size 3 to 8) (size 9 to 14) (size 15 to 20)
#    0.000    1.500    1.250    4.125    1.750    5.500 
#    0.000    0.625    0.000    0.000    0.000    0.000 
#    0.000    0.000    0.000    0.000    0.000    0.000 
#
# Total GULP energy -89495.942912 kJ/mol
# GULP energy per Si atom -5593.496432 kJ/mol
# Density = 2.245156 g / cm^3
# Si number density = 22.502782 Si / 1000 Ang^3
#
#
#
# Elastic Constant Matrix: (Units=GPa)
#
#
# Indices 1 2 3 4 5 6 
#
# 1 95.3559 -2.2161 32.3207 -20.6607 -4.1868 11.1416
# 2 -2.2161 71.2517 13.8357 -29.8668 2.5665 1.5929
# 3 32.3207 13.8357 61.9811 -33.6862 12.3117 -3.1417
# 4 -20.6607 -29.8668 -33.6862 52.5921 5.6540 -4.7693
# 5 -4.1868 2.5665 12.3117 5.6540 40.6858 -1.5104
# 6 11.1416 1.5929 -3.1417 -4.7693 -1.5104 16.8043
#
#
#
# Elastic Compliance Matrix: (Units=1/GPa)
#
#
# Indices 1 2 3 4 5 6 
#
# 1 0.015586 0.002237 -0.010712 -0.001069 0.004390 -0.012458
# 2 0.002237 0.019764 0.003283 0.014735 -0.004018 0.001078
# 3 -0.010712 0.003283 0.039795 0.026745 -0.016312 0.020355
# 4 -0.001069 0.014735 0.026745 0.047197 -0.015085 0.016352
# 5 0.004390 -0.004018 -0.016312 -0.015085 0.032057 -0.006980
# 6 -0.012458 0.001078 0.020355 0.016352 -0.006980 0.075485
#
#
# Mechanical properties :
#
#
# Convention : Reuss Voigt Hill
#
# Bulk Modulus (GPa) = 15.44146 35.16326 25.30236
# Shear Modulus (GPa) = 19.09446 34.32633 26.71039
#
# Velocity S-wave (km/s) = 2.91613 3.90991 3.44900
# Velocity P-wave (km/s) = 4.26794 6.00360 5.20858
#
# Compressibility (1/GPa) = 0.06476072
#
# Stress axis : x y z
#
# Youngs Moduli (GPa) = 64.15842 50.59708 25.12900
#
# Poissons Ratio (x) = -0.11318 0.26918
# Poissons Ratio (y) = -0.14352 -0.08249
# Poissons Ratio (z) = 0.68725 -0.16610
#
# Static dielectric constant tensor:
#      x y z
#    x 1.818080 0.014250 -0.001120 
#    y 0.014250 1.882580 0.007940 
#    z -0.001120 0.007940 1.829320 
# 
# From -- ./inp_files/447322.got.cif
#   From: 2010.05.17/outbox.cif.g08.bks.cpg/sg2_224_cif.got.tgz:447322.got - 2010.06.03 11:33:40.
