data_PCOD9005412
_publ_section_title
;
Structure prediction by ZEFSAII (Michael W. Deem and Ramdas Pophale) SiO2 
 PCOD9005412
Probable space group: P -1
;
_chemical_formula_sum "Si O2"
_cell_formula_units_Z 16
_cell_length_a 28.665279
_cell_length_b 5.375918
_cell_length_c 5.211497
_cell_angle_alpha 61.295572
_cell_angle_beta 69.787101
_cell_angle_gamma 73.224722
_cell_volume 653.645261
_symmetry_space_group_name_H-M "P -1"
_symmetry_group_IT_number 2
_symmetry_cell_setting 'triclinic'
loop_
_space_group_symop_operation_xyz
x,y,z
-x,-y,-z
loop_
_atom_site_type_symbol
_atom_site_label
_atom_site_fract_x
_atom_site_fract_y
_atom_site_fract_z
Si Si1 0.270857 0.881278 0.284372
Si Si2 0.981121 0.688374 0.192328
Si Si3 0.610707 0.796069 0.439731
Si Si4 0.176085 0.830323 0.212885
Si Si5 0.860759 0.791849 0.402026
Si Si6 0.710109 0.549180 0.137443
Si Si7 0.371128 0.638064 0.988116
Si Si8 0.517902 0.810282 0.308568
O O1 0.260731 0.718767 0.639591
O O2 0.331827 0.828457 0.165525
O O3 0.236185 0.775502 0.184380
O O4 0.257661 0.220617 0.138898
O O5 0.920836 0.744131 0.282615
O O6 0.000000 0.500000 0.500000
O O7 0.000000 0.500000 0.000000
O O8 0.000000 0.000000 0.000000
O O9 0.671194 0.704730 0.355032
O O10 0.594523 0.588765 0.790535
O O11 0.578338 0.759441 0.266195
O O12 0.603156 0.134774 0.333725
O O13 0.153932 0.015640 0.411788
O O14 0.156006 0.524712 0.391947
O O15 0.162067 0.027724 0.892769
O O16 0.669531 0.483954 0.044292
O O17 0.500000 0.500000 0.500000
O O18 0.500000 0.000000 0.500000
O O19 0.500000 0.000000 0.000000
#
# Coordination Sequence:
#
# PCOD9005412 Si02
#       8
#     2   2   2   2   2   2   2   2
#     4  10  23  37  58  92 118 174 212 268 320 385
#     4  12  24  44  72 100 136 175 228 287 338 401
#     4  10  23  39  61  93 120 167 209 274 320 385
#     4  12  26  44  69  96 144 177 227 275 334 411
#     4  12  26  45  68 103 134 184 224 278 344 401
#     4  10  21  38  62  86 123 158 223 262 324 380
#     4  10  21  38  63  87 123 159 220 262 324 380
#     4  12  28  47  73 102 138 177 223 272 340 411
#
# _framework density 24.478110999999998
#
# number of rings (size 3 to 8) (size 9 to 14) (size 15 to 20)
#    0.000    1.000    0.000    6.000    7.000    0.000 
#    0.000    0.000    0.000    0.000    0.000    0.000 
#    0.000    0.000    0.000    0.000    0.000    0.000 
#
# Total GULP energy -89506.007918 kJ/mol
# GULP energy per Si atom -5594.125495 kJ/mol
# Density = 2.442240 g / cm^3
# Si number density = 24.478111 Si / 1000 Ang^3
#
#
#
# Elastic Constant Matrix: (Units=GPa)
#
#
# Indices 1 2 3 4 5 6 
#
# 1 143.5563 35.4255 42.2294 -11.8236 1.9406 -9.0347
# 2 35.4255 154.1521 80.3120 -20.0276 -2.4112 12.2926
# 3 42.2294 80.3120 205.7251 -39.7558 46.1034 11.0060
# 4 -11.8236 -20.0276 -39.7558 82.3282 -5.8242 -14.3969
# 5 1.9406 -2.4112 46.1034 -5.8242 68.1369 -5.7029
# 6 -9.0347 12.2926 11.0060 -14.3969 -5.7029 51.2657
#
#
#
# Elastic Compliance Matrix: (Units=1/GPa)
#
#
# Indices 1 2 3 4 5 6 
#
# 1 0.007833 -0.001183 -0.001339 0.000643 0.000883 0.002230
# 2 -0.001183 0.008874 -0.003755 0.000169 0.002805 -0.001171
# 3 -0.001339 -0.003755 0.008383 0.002349 -0.005658 -0.001105
# 4 0.000643 0.000169 0.002349 0.014017 -0.000111 0.003493
# 5 0.000883 0.002805 -0.005658 -0.000111 0.018800 0.002758
# 6 0.002230 -0.001171 -0.001105 0.003493 0.002758 0.021705
#
#
# Mechanical properties :
#
#
# Convention : Reuss Voigt Hill
#
# Bulk Modulus (GPa) = 79.76656 91.04082 85.40369
# Shear Modulus (GPa) = 51.89690 63.37728 57.63709
#
# Velocity S-wave (km/s) = 4.60949 5.09388 4.85773
# Velocity P-wave (km/s) = 7.80945 8.47764 8.15039
#
# Compressibility (1/GPa) = 0.01253658
#
# Stress axis : x y z
#
# Youngs Moduli (GPa) = 127.66316 112.68309 119.29550
#
# Poissons Ratio (x) = 0.13331 0.15973
# Poissons Ratio (y) = 0.15103 0.44793
# Poissons Ratio (z) = 0.17093 0.42310
#
# Static dielectric constant tensor:
#      x y z
#    x 1.895640 -0.108640 -0.073400 
#    y -0.108640 2.126030 0.065260 
#    z -0.073400 0.065260 1.940490 
# 
# From -- ./inp_files/125691.got.cif
#   From: 2010.05.17/outbox.cif.g08.bks.cpg/sg2_63_cif.got.tgz:125691.got - 2010.06.03 11:33:40.
