data_PCOD9005169
_publ_section_title
;
Structure prediction by ZEFSAII (Michael W. Deem and Ramdas Pophale) SiO2 
 PCOD9005169
Probable space group: P -1
;
_chemical_formula_sum "Si O2"
_cell_formula_units_Z 14
_cell_length_a 4.986619
_cell_length_b 11.766909
_cell_length_c 14.352214
_cell_angle_alpha 61.685642
_cell_angle_beta 77.442754
_cell_angle_gamma 59.373768
_cell_volume 637.647169
_symmetry_space_group_name_H-M "P -1"
_symmetry_group_IT_number 2
_symmetry_cell_setting 'triclinic'
loop_
_space_group_symop_operation_xyz
x,y,z
-x,-y,-z
loop_
_atom_site_type_symbol
_atom_site_label
_atom_site_fract_x
_atom_site_fract_y
_atom_site_fract_z
Si Si1 0.011938 0.306635 0.000412
Si Si2 0.536351 0.156040 0.532741
Si Si3 0.708635 0.160657 0.956812
Si Si4 0.375237 0.604066 0.264685
Si Si5 0.082835 0.181240 0.397327
Si Si6 0.792804 0.603984 0.391163
Si Si7 0.929474 0.412801 0.172472
O O1 0.946658 0.335830 0.103211
O O2 0.367861 0.183491 0.000386
O O3 0.979887 0.458725 0.902424
O O4 0.784291 0.257079 0.987735
O O5 0.243865 0.179300 0.483575
O O6 0.424997 0.241747 0.603640
O O7 0.732900 0.216629 0.435136
O O8 0.751044 0.982326 0.593622
O O9 0.679971 0.237816 0.828985
O O10 0.000000 0.000000 0.000000
O O11 0.573689 0.561149 0.362295
O O12 0.588036 0.493036 0.212952
O O13 0.046312 0.609579 0.301177
O O14 0.121322 0.290817 0.281776
O O15 0.000000 0.500000 0.500000
#
# Coordination Sequence:
#
# PCOD9005169 Si02
#       7
#     2   2   2   2   2   2   2
#     4  10  24  40  65  93 120 159 207 256 300 374
#     4  10  22  38  56  88 119 156 207 244 302 366
#     4  11  24  44  64  91 128 162 201 255 313 364
#     4  11  24  38  61  89 119 160 202 247 299 366
#     4  10  21  38  61  83 120 159 195 257 302 355
#     4  12  23  39  61  88 123 160 201 251 301 358
#     4  10  22  41  63  91 122 158 208 251 309 357
#
# _framework density 21.955714
#
# number of rings (size 3 to 8) (size 9 to 14) (size 15 to 20)
#    0.000    1.429    0.000    5.143    0.000   12.000 
#    0.000    0.000    0.000    0.000    0.000    0.000 
#    0.000    0.000    0.000    0.000    0.000    0.000 
#
# Total GULP energy -78335.584068 kJ/mol
# GULP energy per Si atom -5595.398862 kJ/mol
# Density = 2.190574 g / cm^3
# Si number density = 21.955714 Si / 1000 Ang^3
#
#
#
# Elastic Constant Matrix: (Units=GPa)
#
#
# Indices 1 2 3 4 5 6 
#
# 1 70.3149 -3.3714 -15.4078 5.0516 4.6976 0.6518
# 2 -3.3714 77.8542 27.3193 3.8476 3.6422 1.1268
# 3 -15.4078 27.3193 68.2420 -2.7754 -0.9141 -14.3515
# 4 5.0516 3.8476 -2.7754 30.6898 -2.9701 7.5140
# 5 4.6976 3.6422 -0.9141 -2.9701 24.2982 0.8494
# 6 0.6518 1.1268 -14.3515 7.5140 0.8494 19.1582
#
#
#
# Elastic Compliance Matrix: (Units=1/GPa)
#
#
# Indices 1 2 3 4 5 6 
#
# 1 0.015614 -0.000648 0.004526 -0.003482 -0.003331 0.004411
# 2 -0.000648 0.015853 -0.007881 -0.001320 -0.002493 -0.006186
# 3 0.004526 -0.007881 0.022535 -0.002101 0.000268 0.018002
# 4 -0.003482 -0.001320 -0.002101 0.037738 0.005980 -0.016444
# 5 -0.003331 -0.002493 0.000268 0.005980 0.043047 -0.003793
# 6 0.004411 -0.006186 0.018002 -0.016444 -0.003793 0.072514
#
#
# Mechanical properties :
#
#
# Convention : Reuss Voigt Hill
#
# Bulk Modulus (GPa) = 21.74049 25.94346 23.84197
# Shear Modulus (GPa) = 21.67902 28.68731 25.18317
#
# Velocity S-wave (km/s) = 3.14570 3.61861 3.39041
# Velocity P-wave (km/s) = 4.80805 5.41305 5.11949
#
# Compressibility (1/GPa) = 0.04599713
#
# Stress axis : x y z
#
# Youngs Moduli (GPa) = 64.04393 63.07860 44.37596
#
# Poissons Ratio (x) = 0.04088 -0.20086
# Poissons Ratio (y) = 0.04150 0.34972
# Poissons Ratio (z) = -0.28988 0.49711
#
# Static dielectric constant tensor:
#      x y z
#    x 1.768970 -0.008200 0.010700 
#    y -0.008200 1.808330 -0.039090 
#    z 0.010700 -0.039090 1.814010 
# 
# From -- ./inp_files/482075.got.cif
#   From: 2010.05.17/outbox.cif.g08.bks.cpg/sg2_242_cif.got.tgz:482075.got - 2010.06.03 11:33:40.
