data_PCOD9005253
_publ_section_title
;
Structure prediction by ZEFSAII (Michael W. Deem and Ramdas Pophale) SiO2 
 PCOD9005253
Probable space group: P -1
;
_chemical_formula_sum "Si O2"
_cell_formula_units_Z 16
_cell_length_a 11.532300
_cell_length_b 14.603739
_cell_length_c 9.512430
_cell_angle_alpha 110.013867
_cell_angle_beta 34.971230
_cell_angle_gamma 86.010295
_cell_volume 655.694976
_symmetry_space_group_name_H-M "P -1"
_symmetry_group_IT_number 2
_symmetry_cell_setting 'triclinic'
loop_
_space_group_symop_operation_xyz
x,y,z
-x,-y,-z
loop_
_atom_site_type_symbol
_atom_site_label
_atom_site_fract_x
_atom_site_fract_y
_atom_site_fract_z
Si Si1 0.974992 0.063743 0.237882
Si Si2 0.569419 0.089897 0.504537
Si Si3 0.588750 0.064179 0.039791
Si Si4 0.550501 0.709660 0.864927
Si Si5 0.338018 0.666951 0.330476
Si Si6 0.894818 0.439951 0.658572
Si Si7 0.655883 0.543281 0.418658
Si Si8 0.261784 0.285459 0.707358
O O1 0.723957 0.067984 0.482532
O O2 0.874507 0.192268 0.323199
O O3 0.214858 0.945981 0.845529
O O4 0.133948 0.042265 0.209541
O O5 0.318752 0.232939 0.782354
O O6 0.500000 0.000000 0.500000
O O7 0.620845 0.150678 0.958476
O O8 0.368206 0.168960 0.431345
O O9 0.500000 0.000000 0.000000
O O10 0.579188 0.608366 0.681554
O O11 0.847698 0.663304 0.558994
O O12 0.435341 0.701994 0.118523
O O13 0.190169 0.618929 0.393221
O O14 0.614035 0.553087 0.071525
O O15 0.000000 0.500000 0.500000
O O16 0.500000 0.500000 0.500000
O O17 0.599569 0.655893 0.438487
O O18 0.958210 0.410783 0.052614
#
# Coordination Sequence:
#
# PCOD9005253 Si02
#       8
#     2   2   2   2   2   2   2   2
#     4  10  23  40  61  93 122 162 216 249 311 377
#     4  10  23  43  63  89 126 169 212 264 313 373
#     4  10  21  40  66  91 129 167 208 265 317 380
#     4  10  22  38  61  92 122 161 208 251 316 375
#     4  10  21  38  61  89 122 154 199 261 302 372
#     4   9  20  39  56  85 122 156 199 244 310 368
#     4  10  22  40  63  92 123 166 208 256 318 373
#     4   9  22  42  62  92 126 163 214 263 308 382
#
# _framework density 24.401588
#
# number of rings (size 3 to 8) (size 9 to 14) (size 15 to 20)
#    0.000    2.250    0.000    0.750    1.750   12.500 
#    9.000    1.250    0.000    0.000    0.000    0.000 
#    0.000    0.000    0.000    0.000    0.000    0.000 
#
# Total GULP energy -89340.465280 kJ/mol
# GULP energy per Si atom -5583.779080 kJ/mol
# Density = 2.434605 g / cm^3
# Si number density = 24.401588 Si / 1000 Ang^3
#
#
#
# Elastic Constant Matrix: (Units=GPa)
#
#
# Indices 1 2 3 4 5 6 
#
# 1 118.5946 46.9674 38.9402 -6.6301 -17.5519 39.6200
# 2 46.9674 112.5907 37.8094 8.8159 -20.1668 33.5832
# 3 38.9402 37.8094 73.1885 17.8298 -12.9231 14.7222
# 4 -6.6301 8.8159 17.8298 33.0856 1.5790 -0.9831
# 5 -17.5519 -20.1668 -12.9231 1.5790 47.3189 2.1536
# 6 39.6200 33.5832 14.7222 -0.9831 2.1536 53.6940
#
#
#
# Elastic Compliance Matrix: (Units=1/GPa)
#
#
# Indices 1 2 3 4 5 6 
#
# 1 0.014675 -0.001455 -0.006393 0.006376 0.003237 -0.008179
# 2 -0.001455 0.013740 -0.003513 -0.002488 0.004749 -0.006793
# 3 -0.006393 -0.003513 0.022282 -0.012463 0.002611 0.000472
# 4 0.006376 -0.002488 -0.012463 0.039080 -0.003454 0.001123
# 5 0.003237 0.004749 0.002611 -0.003454 0.025512 -0.007161
# 6 -0.008179 -0.006793 0.000472 0.001123 -0.007161 0.029086
#
#
# Mechanical properties :
#
#
# Convention : Reuss Voigt Hill
#
# Bulk Modulus (GPa) = 35.74545 61.31197 48.52871
# Shear Modulus (GPa) = 28.34107 38.86349 33.60228
#
# Velocity S-wave (km/s) = 3.41169 3.99515 3.71489
# Velocity P-wave (km/s) = 5.49547 6.81633 6.19122
#
# Compressibility (1/GPa) = 0.02797559
#
# Stress axis : x y z
#
# Youngs Moduli (GPa) = 68.14148 72.78057 44.87950
#
# Poissons Ratio (x) = 0.10589 0.28692
# Poissons Ratio (y) = 0.09914 0.15766
# Poissons Ratio (z) = 0.43563 0.25567
#
# Static dielectric constant tensor:
#      x y z
#    x 2.045470 -0.047310 0.039620 
#    y -0.047310 1.911060 0.027780 
#    z 0.039620 0.027780 2.125470 
# 
# From -- ./inp_files/434182.got.cif
#   From: 2010.05.17/outbox.cif.g08.bks.cpg/sg2_218_cif.got.tgz:434182.got - 2010.06.03 11:33:40.
