data_PCOD9005537
_publ_section_title
;
Structure prediction by ZEFSAII (Michael W. Deem and Ramdas Pophale) SiO2 
 PCOD9005537
Probable space group: P -1
;
_chemical_formula_sum "Si O2"
_cell_formula_units_Z 16
_cell_length_a 17.297843
_cell_length_b 5.314178
_cell_length_c 13.527445
_cell_angle_alpha 84.653895
_cell_angle_beta 133.310004
_cell_angle_gamma 67.257715
_cell_volume 705.549600
_symmetry_space_group_name_H-M "P -1"
_symmetry_group_IT_number 2
_symmetry_cell_setting 'triclinic'
loop_
_space_group_symop_operation_xyz
x,y,z
-x,-y,-z
loop_
_atom_site_type_symbol
_atom_site_label
_atom_site_fract_x
_atom_site_fract_y
_atom_site_fract_z
Si Si1 0.338928 0.484795 0.916436
Si Si2 0.188926 0.365144 0.661365
Si Si3 0.965556 0.056406 0.799055
Si Si4 0.611250 0.243040 0.237280
Si Si5 0.946640 0.862667 0.319466
Si Si6 0.324733 0.610429 0.516281
Si Si7 0.116103 0.534501 0.091521
Si Si8 0.622328 0.948948 0.552878
O O1 0.318096 0.266918 0.841124
O O2 0.366840 0.653571 0.851906
O O3 0.185654 0.762149 0.809550
O O4 0.465906 0.316723 0.107138
O O5 0.106831 0.311741 0.668461
O O6 0.081451 0.724292 0.508266
O O7 0.256096 0.131769 0.633552
O O8 0.837858 0.098099 0.639514
O O9 0.908334 0.243225 0.845575
O O10 0.007627 0.205128 0.751646
O O11 0.093225 0.702625 0.960376
O O12 0.620842 0.436199 0.323962
O O13 0.345670 0.303692 0.497036
O O14 0.393520 0.744426 0.513722
O O15 0.260088 0.206674 0.255597
O O16 0.000000 0.500000 0.000000
O O17 0.500000 0.000000 0.500000
#
# Coordination Sequence:
#
# PCOD9005537 Si02
#       8
#     2   2   2   2   2   2   2   2
#     4  10  21  41  58  90 133 174 216 274 336 389
#     4  10  21  38  62  92 130 172 217 273 338 389
#     4  10  22  39  65  91 129 165 225 269 332 403
#     4  10  23  38  64  89 128 176 223 268 329 410
#     4  10  22  37  60  96 126 170 217 275 331 390
#     4  11  24  43  70  99 129 176 227 269 337 412
#     4  10  21  41  64  93 124 172 214 278 339 396
#     4  11  25  46  70  99 135 173 220 284 343 406
#
# _framework density 22.677354999999999
#
# number of rings (size 3 to 8) (size 9 to 14) (size 15 to 20)
#    0.000    1.750    1.250    1.875    5.250    4.000 
#    2.250    0.000    0.000    0.000    0.000    0.000 
#    0.000    0.000    0.000    0.000    0.000    0.000 
#
# Total GULP energy -89180.438756 kJ/mol
# GULP energy per Si atom -5573.777422 kJ/mol
# Density = 2.262574 g / cm^3
# Si number density = 22.677355 Si / 1000 Ang^3
#
#
#
# Elastic Constant Matrix: (Units=GPa)
#
#
# Indices 1 2 3 4 5 6 
#
# 1 77.0756 5.8722 28.8680 -5.8151 2.5830 1.0712
# 2 5.8722 30.9843 10.6131 13.0911 -3.7924 9.4611
# 3 28.8680 10.6131 109.1741 14.5185 12.3403 -8.4474
# 4 -5.8151 13.0911 14.5185 22.5455 10.7325 3.2919
# 5 2.5830 -3.7924 12.3403 10.7325 37.0746 4.0084
# 6 1.0712 9.4611 -8.4474 3.2919 4.0084 24.8907
#
#
#
# Elastic Compliance Matrix: (Units=1/GPa)
#
#
# Indices 1 2 3 4 5 6 
#
# 1 0.016718 -0.007748 -0.005134 0.014269 -0.004302 -0.000711
# 2 -0.007748 0.063254 -0.002483 -0.044937 0.023262 -0.022356
# 3 -0.005134 -0.002483 0.012620 -0.007783 -0.002589 0.006894
# 4 0.014269 -0.044937 -0.007783 0.092735 -0.030546 0.006480
# 5 -0.004302 0.023262 -0.002589 -0.030546 0.040658 -0.012043
# 6 -0.000711 -0.022356 0.006894 0.006480 -0.012043 0.052126
#
#
# Mechanical properties :
#
#
# Convention : Reuss Voigt Hill
#
# Bulk Modulus (GPa) = 16.16539 34.21561 25.19050
# Shear Modulus (GPa) = 15.17631 28.36086 21.76859
#
# Velocity S-wave (km/s) = 2.58975 3.54025 3.10163
# Velocity P-wave (km/s) = 4.01077 5.64198 4.89481
#
# Compressibility (1/GPa) = 0.06186057
#
# Stress axis : x y z
#
# Youngs Moduli (GPa) = 59.81606 15.80940 79.24172
#
# Poissons Ratio (x) = 0.12249 0.40679
# Poissons Ratio (y) = 0.46347 0.19679
# Poissons Ratio (z) = 0.30707 0.03926
#
# Static dielectric constant tensor:
#      x y z
#    x 1.833990 -0.007770 0.009010 
#    y -0.007770 1.957720 -0.043760 
#    z 0.009010 -0.043760 1.901440 
# 
# From -- ./inp_files/78403.got.cif
#   From: 2010.05.17/outbox.cif.g08.bks.cpg/sg2_40_cif.got.tgz:78403.got - 2010.06.03 11:33:40.
