data_PCOD9005499
_publ_section_title
;
Structure prediction by ZEFSAII (Michael W. Deem and Ramdas Pophale) SiO2 
 PCOD9005499
Probable space group: P -1
;
_chemical_formula_sum "Si O2"
_cell_formula_units_Z 14
_cell_length_a 8.069818
_cell_length_b 5.292815
_cell_length_c 12.919534
_cell_angle_alpha 89.032847
_cell_angle_beta 96.574776
_cell_angle_gamma 72.198054
_cell_volume 521.156877
_symmetry_space_group_name_H-M "P -1"
_symmetry_group_IT_number 2
_symmetry_cell_setting 'triclinic'
loop_
_space_group_symop_operation_xyz
x,y,z
-x,-y,-z
loop_
_atom_site_type_symbol
_atom_site_label
_atom_site_fract_x
_atom_site_fract_y
_atom_site_fract_z
Si Si1 0.042280 0.767893 0.288474
Si Si2 0.609414 0.645421 0.072447
Si Si3 0.984859 0.460624 0.119912
Si Si4 0.367665 0.132554 0.147507
Si Si5 0.994556 0.263512 0.409307
Si Si6 0.553148 0.498206 0.678971
Si Si7 0.313531 0.343560 0.517083
O O1 0.983039 0.740197 0.168603
O O2 0.995234 0.518551 0.338738
O O3 0.250952 0.703166 0.299831
O O4 0.960725 0.039541 0.338675
O O5 0.791559 0.444569 0.127108
O O6 0.492689 0.829370 0.152057
O O7 0.500000 0.500000 0.000000
O O8 0.653310 0.812137 0.978463
O O9 0.163811 0.233806 0.169085
O O10 0.000000 0.500000 0.000000
O O11 0.460354 0.307523 0.223726
O O12 0.839419 0.373135 0.479420
O O13 0.184800 0.173202 0.479435
O O14 0.423526 0.339444 0.629061
O O15 0.565848 0.670818 0.574760
#
# Coordination Sequence:
#
# PCOD9005499 Si02
#       7
#     2   2   2   2   2   2   2
#     4  10  22  42  63  93 123 170 209 259 318 380
#     4  10  21  38  62  91 120 162 210 257 318 377
#     4   9  20  42  60  92 126 165 208 260 322 378
#     4   9  20  40  60  86 127 161 205 263 310 385
#     4  10  22  40  64  89 128 161 215 259 312 380
#     4   9  19  39  60  88 126 161 211 253 322 372
#     4   9  20  37  62  91 121 169 204 266 312 377
#
# _framework density 26.863313999999999
#
# number of rings (size 3 to 8) (size 9 to 14) (size 15 to 20)
#    0.000    2.571    0.000    0.000    2.000    7.429 
#   28.286    2.857    0.000    0.000    0.000    0.000 
#    0.000    0.000    0.000    0.000    0.000    0.000 
#
# Total GULP energy -78159.793392 kJ/mol
# GULP energy per Si atom -5582.842385 kJ/mol
# Density = 2.680217 g / cm^3
# Si number density = 26.863314 Si / 1000 Ang^3
#
#
#
# Elastic Constant Matrix: (Units=GPa)
#
#
# Indices 1 2 3 4 5 6 
#
# 1 115.8754 42.6501 34.5572 9.8924 23.4078 -27.7171
# 2 42.6501 120.9362 59.8888 42.3001 0.8294 0.7037
# 3 34.5572 59.8888 197.5408 40.1096 24.4151 0.6184
# 4 9.8924 42.3001 40.1096 57.6649 -4.4534 -4.7685
# 5 23.4078 0.8294 24.4151 -4.4534 51.8341 2.1983
# 6 -27.7171 0.7037 0.6184 -4.7685 2.1983 31.4393
#
#
#
# Elastic Compliance Matrix: (Units=1/GPa)
#
#
# Indices 1 2 3 4 5 6 
#
# 1 0.016059 -0.006492 -0.000637 0.003158 -0.007226 0.015300
# 2 -0.006492 0.014526 -0.001889 -0.008607 0.003169 -0.007538
# 3 -0.000637 -0.001889 0.006878 -0.003617 -0.003191 -0.000980
# 4 0.003158 -0.008607 -0.003617 0.026383 0.002390 0.006882
# 5 -0.007226 0.003169 -0.003191 0.002390 0.024541 -0.007732
# 6 0.015300 -0.007538 -0.000980 0.006882 -0.007732 0.047068
#
#
# Mechanical properties :
#
#
# Convention : Reuss Voigt Hill
#
# Bulk Modulus (GPa) = 51.47203 78.72717 65.09960
# Shear Modulus (GPa) = 31.25630 48.00476 39.63053
#
# Velocity S-wave (km/s) = 3.41476 4.23188 3.84509
# Velocity P-wave (km/s) = 5.89489 7.29716 6.63319
#
# Compressibility (1/GPa) = 0.01942803
#
# Stress axis : x y z
#
# Youngs Moduli (GPa) = 62.26927 68.84096 145.38732
#
# Poissons Ratio (x) = 0.44691 0.09263
# Poissons Ratio (y) = 0.40425 0.27461
# Poissons Ratio (z) = 0.03967 0.13003
#
# Static dielectric constant tensor:
#      x y z
#    x 2.178480 0.044170 -0.070740 
#    y 0.044170 2.210330 -0.140860 
#    z -0.070740 -0.140860 2.225200 
# 
# From -- ./inp_files/322378.got.cif
#   From: 2010.05.17/outbox.cif.g08.bks.cpg/sg2_162_cif.got.tgz:322378.got - 2010.06.03 11:33:40.
