data_PCOD9005604
_publ_section_title
;
Structure prediction by ZEFSAII (Michael W. Deem and Ramdas Pophale) SiO2 
 PCOD9005604
Probable space group: P -1
;
_chemical_formula_sum "Si O2"
_cell_formula_units_Z 16
_cell_length_a 15.890639
_cell_length_b 14.693467
_cell_length_c 14.021049
_cell_angle_alpha 29.623669
_cell_angle_beta 143.480297
_cell_angle_gamma 152.299163
_cell_volume 743.960296
_symmetry_space_group_name_H-M "P -1"
_symmetry_group_IT_number 2
_symmetry_cell_setting 'triclinic'
loop_
_space_group_symop_operation_xyz
x,y,z
-x,-y,-z
loop_
_atom_site_type_symbol
_atom_site_label
_atom_site_fract_x
_atom_site_fract_y
_atom_site_fract_z
Si Si1 0.466882 0.300738 0.077279
Si Si2 0.760111 0.284196 0.064330
Si Si3 0.299435 0.536002 0.332301
Si Si4 0.296494 0.161096 0.626133
Si Si5 0.904766 0.119217 0.784867
Si Si6 0.169300 0.639076 0.642911
Si Si7 0.403284 0.160907 0.942098
Si Si8 0.084052 0.611089 0.178453
O O1 0.629662 0.284686 0.243244
O O2 0.281381 0.050091 0.171034
O O3 0.500000 0.500000 0.000000
O O4 0.444407 0.327687 0.918485
O O5 0.947821 0.536252 0.034473
O O6 0.794913 0.095865 0.263434
O O7 0.703097 0.296136 0.895822
O O8 0.589982 0.202308 0.050707
O O9 0.206998 0.286123 0.424128
O O10 0.513393 0.670796 0.413188
O O11 0.196840 0.517630 0.348250
O O12 0.343011 0.184237 0.761223
O O13 0.841075 0.160621 0.589141
O O14 0.052433 0.392143 0.702280
O O15 0.000000 0.000000 0.000000
O O16 0.060953 0.539942 0.733258
O O17 0.236396 0.893353 0.067936
#
# Coordination Sequence:
#
# PCOD9005604 Si02
#       8
#     2   2   2   2   2   2   2   2
#     4  12  24  45  73 100 137 178 225 283 351 401
#     4  11  21  41  66  90 136 173 217 265 331 382
#     4  10  21  38  62  96 130 178 215 269 320 395
#     4  10  21  40  63  94 136 172 221 267 331 382
#     4  11  24  46  72  96 132 173 224 283 338 407
#     4  11  25  44  68 104 132 175 226 281 339 405
#     4  11  22  41  66  95 132 173 216 280 323 396
#     4  12  22  40  67  98 128 173 226 263 332 399
#
# _framework density 21.506523999999999
#
# number of rings (size 3 to 8) (size 9 to 14) (size 15 to 20)
#    0.000    1.000    6.250    1.500    0.000    1.500 
#    0.000    3.750    0.000    0.000    0.000    0.000 
#    0.000    0.000    0.000    0.000    0.000    0.000 
#
# Total GULP energy -89130.263855 kJ/mol
# GULP energy per Si atom -5570.641491 kJ/mol
# Density = 2.145757 g / cm^3
# Si number density = 21.506524 Si / 1000 Ang^3
#
#
#
# Elastic Constant Matrix: (Units=GPa)
#
#
# Indices 1 2 3 4 5 6 
#
# 1 120.3584 37.8376 35.1041 7.3957 3.0741 22.4548
# 2 37.8376 88.8855 18.0360 0.5804 5.5386 21.0305
# 3 35.1041 18.0360 86.5058 -6.1679 11.2466 13.7775
# 4 7.3957 0.5804 -6.1679 21.4265 -2.3119 3.0782
# 5 3.0741 5.5386 11.2466 -2.3119 26.4194 -2.9003
# 6 22.4548 21.0305 13.7775 3.0782 -2.9003 47.7023
#
#
#
# Elastic Compliance Matrix: (Units=1/GPa)
#
#
# Indices 1 2 3 4 5 6 
#
# 1 0.011209 -0.003436 -0.003832 -0.004500 0.000397 -0.002341
# 2 -0.003436 0.014070 -0.000341 0.001081 -0.002829 -0.004729
# 3 -0.003832 -0.000341 0.014783 0.005412 -0.005632 -0.003007
# 4 -0.004500 0.001081 0.005412 0.050414 0.002070 -0.003048
# 5 0.000397 -0.002829 -0.005632 0.002070 0.041534 0.005079
# 6 -0.002341 -0.004729 -0.003007 -0.003048 0.005079 0.025524
#
#
# Mechanical properties :
#
#
# Convention : Reuss Voigt Hill
#
# Bulk Modulus (GPa) = 40.25001 53.07835 46.66418
# Shear Modulus (GPa) = 27.61894 32.76112 30.19003
#
# Velocity S-wave (km/s) = 3.58748 3.90720 3.75075
# Velocity P-wave (km/s) = 5.99299 6.71480 6.36414
#
# Compressibility (1/GPa) = 0.02484471
#
# Stress axis : x y z
#
# Youngs Moduli (GPa) = 89.21132 71.07138 67.64456
#
# Poissons Ratio (x) = 0.24418 0.25922
# Poissons Ratio (y) = 0.30650 0.02309
# Poissons Ratio (z) = 0.34186 0.02426
#
# Static dielectric constant tensor:
#      x y z
#    x 1.851280 -0.061490 -0.006920 
#    y -0.061490 1.827080 0.032730 
#    z -0.006920 0.032730 1.855050 
# 
# From -- ./inp_files/533615.got.cif
#   From: 2010.05.17/outbox.cif.g08.bks.cpg/sg2_267_cif.got.tgz:533615.got - 2010.06.03 11:33:40.
