data_PCOD9005590
_publ_section_title
;
Structure prediction by ZEFSAII (Michael W. Deem and Ramdas Pophale) SiO2 
 PCOD9005590
Probable space group: P -1
;
_chemical_formula_sum "Si O2"
_cell_formula_units_Z 16
_cell_length_a 8.760554
_cell_length_b 21.680064
_cell_length_c 12.254857
_cell_angle_alpha 26.881274
_cell_angle_beta 82.845205
_cell_angle_gamma 64.592106
_cell_volume 736.622730
_symmetry_space_group_name_H-M "P -1"
_symmetry_group_IT_number 2
_symmetry_cell_setting 'triclinic'
loop_
_space_group_symop_operation_xyz
x,y,z
-x,-y,-z
loop_
_atom_site_type_symbol
_atom_site_label
_atom_site_fract_x
_atom_site_fract_y
_atom_site_fract_z
Si Si1 0.074431 0.595458 0.790743
Si Si2 0.275821 0.684150 0.787717
Si Si3 0.904758 0.152472 0.861719
Si Si4 0.690662 0.039701 0.737830
Si Si5 0.770503 0.684805 0.278913
Si Si6 0.460429 0.420516 0.879108
Si Si7 0.428704 0.702331 0.171085
Si Si8 0.307029 0.214835 0.630887
O O1 0.105852 0.692094 0.728175
O O2 0.301971 0.439822 0.947692
O O3 0.878318 0.744347 0.486791
O O4 0.000000 0.500000 0.000000
O O5 0.247766 0.863932 0.486196
O O6 0.500000 0.500000 0.000000
O O7 0.339589 0.634474 0.987750
O O8 0.712447 0.361133 0.496135
O O9 0.797986 0.143179 0.988990
O O10 0.000000 0.000000 0.000000
O O11 0.111764 0.101488 0.970723
O O12 0.454470 0.215727 0.536258
O O13 0.692631 0.886061 0.931668
O O14 0.595125 0.691296 0.238043
O O15 0.785634 0.661298 0.446305
O O16 0.000000 0.500000 0.500000
O O17 0.553740 0.282540 0.983696
O O18 0.500000 0.500000 0.500000
O O19 0.500000 0.000000 0.000000
#
# Coordination Sequence:
#
# PCOD9005590 Si02
#       8
#     2   2   2   2   2   2   2   2
#     4  11  22  37  62  97 127 164 214 264 314 375
#     4  10  22  41  64  90 128 168 210 261 314 374
#     4  11  21  38  66  97 124 161 212 266 315 375
#     4  11  23  39  62  95 124 161 213 265 313 371
#     4  11  22  38  60  92 131 165 204 260 320 378
#     4  10  21  42  64  91 127 170 211 258 317 379
#     4  10  22  39  63  93 127 167 209 258 319 379
#     4  10  21  38  62  95 125 158 206 264 317 371
#
# _framework density 21.720752999999998
#
# number of rings (size 3 to 8) (size 9 to 14) (size 15 to 20)
#    0.000    1.500    0.000    7.500    0.000    7.000 
#    0.000    2.500    0.000    4.500    0.000    0.000 
#    0.000    0.000    0.000    0.000    0.000    0.000 
#
# Total GULP energy -89249.089117 kJ/mol
# GULP energy per Si atom -5578.068070 kJ/mol
# Density = 2.167132 g / cm^3
# Si number density = 21.720753 Si / 1000 Ang^3
#
#
#
# Elastic Constant Matrix: (Units=GPa)
#
#
# Indices 1 2 3 4 5 6 
#
# 1 172.8244 64.0811 39.1090 3.6719 16.3991 22.7577
# 2 64.0811 129.7177 20.4008 -10.1997 20.4258 -7.0474
# 3 39.1090 20.4008 80.2629 6.7161 2.1907 12.6105
# 4 3.6719 -10.1997 6.7161 31.5994 9.9333 9.3965
# 5 16.3991 20.4258 2.1907 9.9333 44.7722 6.1504
# 6 22.7577 -7.0474 12.6105 9.3965 6.1504 48.3975
#
#
#
# Elastic Compliance Matrix: (Units=1/GPa)
#
#
# Indices 1 2 3 4 5 6 
#
# 1 0.008322 -0.003873 -0.002440 -0.000426 -0.000561 -0.003688
# 2 -0.003873 0.011345 -0.001850 0.005087 -0.005295 0.003640
# 3 -0.002440 -0.001850 0.014746 -0.003344 0.002113 -0.002583
# 4 -0.000426 0.005087 -0.003344 0.038478 -0.009934 -0.004396
# 5 -0.000561 -0.005295 0.002113 -0.009934 0.027416 -0.002613
# 6 -0.003688 0.003640 -0.002583 -0.004396 -0.002613 0.024785
#
#
# Mechanical properties :
#
#
# Convention : Reuss Voigt Hill
#
# Bulk Modulus (GPa) = 55.28653 69.99856 62.64255
# Shear Modulus (GPa) = 33.91021 42.23475 38.07248
#
# Velocity S-wave (km/s) = 3.95548 4.41437 4.19121
# Velocity P-wave (km/s) = 6.80952 7.63405 7.23355
#
# Compressibility (1/GPa) = 0.01808759
#
# Stress axis : x y z
#
# Youngs Moduli (GPa) = 120.15805 88.14638 67.81367
#
# Poissons Ratio (x) = 0.34139 0.16550
# Poissons Ratio (y) = 0.46536 0.12542
# Poissons Ratio (z) = 0.29324 0.16303
#
# Static dielectric constant tensor:
#      x y z
#    x 1.891530 -0.043910 -0.015240 
#    y -0.043910 1.879850 0.064210 
#    z -0.015240 0.064210 1.887520 
# 
# From -- ./inp_files/404528.got.cif
#   From: 2010.05.17/outbox.cif.g08.bks.cpg/sg2_203_cif.got.tgz:404528.got - 2010.06.03 11:33:40.
