data_PCOD9005710
_publ_section_title
;
Structure prediction by ZEFSAII (Michael W. Deem and Ramdas Pophale) SiO2 
 PCOD9005710
Probable space group: P -1
;
_chemical_formula_sum "Si O2"
_cell_formula_units_Z 16
_cell_length_a 24.363818
_cell_length_b 11.480984
_cell_length_c 22.961059
_cell_angle_alpha 33.868286
_cell_angle_beta 167.526419
_cell_angle_gamma 145.486530
_cell_volume 768.370666
_symmetry_space_group_name_H-M "P -1"
_symmetry_group_IT_number 2
_symmetry_cell_setting 'triclinic'
loop_
_space_group_symop_operation_xyz
x,y,z
-x,-y,-z
loop_
_atom_site_type_symbol
_atom_site_label
_atom_site_fract_x
_atom_site_fract_y
_atom_site_fract_z
Si Si1 0.232565 0.292941 0.367502
Si Si2 0.902031 0.243460 0.417653
Si Si3 0.504953 0.985214 0.157994
Si Si4 0.698385 0.692406 0.102792
Si Si5 0.323364 0.764900 0.240279
Si Si6 0.649838 0.774341 0.882113
Si Si7 0.915408 0.455035 0.623996
Si Si8 0.045560 0.854751 0.663461
O O1 0.315115 0.164289 0.561281
O O2 0.283471 0.543958 0.324896
O O3 0.421509 0.241405 0.531747
O O4 0.936609 0.237305 0.066511
O O5 0.025501 0.394157 0.433860
O O6 0.028607 0.308491 0.582819
O O7 0.600695 0.201763 0.131489
O O8 0.937938 0.002368 0.539049
O O9 0.330298 0.854665 0.983631
O O10 0.385554 0.093049 0.045639
O O11 0.500000 0.500000 0.000000
O O12 0.711174 0.706429 0.040639
O O13 0.344641 0.974635 0.213517
O O14 0.365389 0.667123 0.618499
O O15 0.860879 0.696718 0.089419
O O16 0.940640 0.619054 0.635726
O O17 0.000000 0.000000 0.500000
#
# Coordination Sequence:
#
# PCOD9005710 Si02
#       8
#     2   2   2   2   2   2   2   2
#     4  10  21  38  63  91 119 157 194 246 301 356
#     4  10  22  36  58  82 116 161 197 253 284 353
#     4  11  22  36  62  85 118 161 198 255 292 350
#     4  11  21  33  50  86 124 148 188 231 304 363
#     4  10  21  39  61  90 125 151 194 245 302 368
#     4  12  23  37  59  85 122 158 189 243 301 371
#     4  11  25  38  58  82 118 165 202 234 297 347
#     4   9  23  41  56  83 115 160 218 249 280 341
#
# _framework density 20.823284000000001
#
# number of rings (size 3 to 8) (size 9 to 14) (size 15 to 20)
#    0.000    1.500    2.500    2.250    8.750    2.000 
#    0.000    0.000    0.000    1.500    0.000    0.000 
#    0.000    0.000    0.000    0.000    0.000    0.000 
#
# Total GULP energy -89166.307943 kJ/mol
# GULP energy per Si atom -5572.894246 kJ/mol
# Density = 2.077589 g / cm^3
# Si number density = 20.823284 Si / 1000 Ang^3
#
#
#
# Elastic Constant Matrix: (Units=GPa)
#
#
# Indices 1 2 3 4 5 6 
#
# 1 38.4295 38.2993 21.7028 2.2615 0.6266 -7.3092
# 2 38.2993 170.5445 40.8894 -0.5799 4.2326 -32.8777
# 3 21.7028 40.8894 59.7652 -3.4576 -1.6384 -10.7876
# 4 2.2615 -0.5799 -3.4576 35.4107 -2.5068 -1.1160
# 5 0.6266 4.2326 -1.6384 -2.5068 25.8223 0.2409
# 6 -7.3092 -32.8777 -10.7876 -1.1160 0.2409 32.7077
#
#
#
# Elastic Compliance Matrix: (Units=1/GPa)
#
#
# Indices 1 2 3 4 5 6 
#
# 1 0.037950 -0.006404 -0.009870 -0.003593 -0.000834 -0.001328
# 2 -0.006404 0.009392 -0.002840 0.000397 -0.001592 0.007098
# 3 -0.009870 -0.002840 0.022974 0.003082 0.002438 0.002604
# 4 -0.003593 0.000397 0.003082 0.029041 0.003022 0.001581
# 5 -0.000834 -0.001592 0.002438 0.003022 0.039466 -0.001170
# 6 -0.001328 0.007098 0.002604 0.001581 -0.001170 0.038334
#
#
# Mechanical properties :
#
#
# Convention : Reuss Voigt Hill
#
# Bulk Modulus (GPa) = 31.16310 52.28024 41.72167
# Shear Modulus (GPa) = 22.11602 29.97800 26.04701
#
# Velocity S-wave (km/s) = 3.26249 3.79837 3.54059
# Velocity P-wave (km/s) = 5.40276 6.66318 6.06580
#
# Compressibility (1/GPa) = 0.03208923
#
# Stress axis : x y z
#
# Youngs Moduli (GPa) = 26.35036 106.47698 43.52670
#
# Poissons Ratio (x) = 0.68183 0.42962
# Poissons Ratio (y) = 0.16874 0.12360
# Poissons Ratio (z) = 0.26009 0.30236
#
# Static dielectric constant tensor:
#      x y z
#    x 1.792110 -0.013860 0.136800 
#    y -0.013860 1.748670 -0.029420 
#    z 0.136800 -0.029420 1.923150 
# 
# From -- ./inp_files/75853.got.cif
#   From: 2010.05.17/outbox.cif.g08.bks.cpg/sg2_38_cif.got.tgz:75853.got - 2010.06.03 11:33:40.
