data_PCOD9005658
_publ_section_title
;
Structure prediction by ZEFSAII (Michael W. Deem and Ramdas Pophale) SiO2 
 PCOD9005658
Probable space group: P -1
;
_chemical_formula_sum "Si O2"
_cell_formula_units_Z 14
_cell_length_a 10.723247
_cell_length_b 11.605104
_cell_length_c 8.245086
_cell_angle_alpha 36.950509
_cell_angle_beta 57.013002
_cell_angle_gamma 63.472139
_cell_volume 517.222043
_symmetry_space_group_name_H-M "P -1"
_symmetry_group_IT_number 2
_symmetry_cell_setting 'triclinic'
loop_
_space_group_symop_operation_xyz
x,y,z
-x,-y,-z
loop_
_atom_site_type_symbol
_atom_site_label
_atom_site_fract_x
_atom_site_fract_y
_atom_site_fract_z
Si Si1 0.213662 0.921476 0.588228
Si Si2 0.552423 0.979570 0.255905
Si Si3 0.456567 0.407774 0.884657
Si Si4 0.278898 0.453771 0.626050
Si Si5 0.966671 0.768834 0.128902
Si Si6 0.775693 0.725698 0.599513
Si Si7 0.200264 0.889696 0.265115
O O1 0.390459 0.891674 0.474082
O O2 0.153494 0.898637 0.474646
O O3 0.185819 0.139406 0.426879
O O4 0.132786 0.783947 0.928350
O O5 0.667704 0.865135 0.414708
O O6 0.527121 0.195757 0.097732
O O7 0.640257 0.010169 0.990598
O O8 0.367124 0.399743 0.787169
O O9 0.593557 0.546660 0.603239
O O10 0.330214 0.439283 0.073238
O O11 0.139984 0.329305 0.817354
O O12 0.222077 0.671167 0.445022
O O13 0.915010 0.678569 0.437388
O O14 0.909333 0.991115 0.908849
#
# Coordination Sequence:
#
# PCOD9005658 Si02
#       7
#     2   2   2   2   2   2   2
#     4  11  20  36  62  91 120 156 197 242 301 353
#     4   9  19  37  64  90 114 155 205 246 291 348
#     4   9  18  37  61  88 121 151 200 254 285 344
#     4  10  22  39  61  93 119 152 203 246 295 350
#     4  11  23  39  61  89 126 158 190 244 302 358
#     4  10  21  38  63  88 118 161 201 241 295 353
#     4  10  22  40  65  88 117 157 200 249 290 348
#
# _framework density 27.067679999999999
#
# number of rings (size 3 to 8) (size 9 to 14) (size 15 to 20)
#    0.000    2.000    0.000    4.714    0.000    6.857 
#    0.000    4.286    0.000   15.429    0.000    0.000 
#    0.000    0.000    0.000    0.000    0.000    0.000 
#
# Total GULP energy -78435.238905 kJ/mol
# GULP energy per Si atom -5602.517065 kJ/mol
# Density = 2.700607 g / cm^3
# Si number density = 27.067680 Si / 1000 Ang^3
#
#
#
# Elastic Constant Matrix: (Units=GPa)
#
#
# Indices 1 2 3 4 5 6 
#
# 1 75.4667 19.9347 27.0630 9.2582 -20.5465 -5.8990
# 2 19.9347 118.0959 45.4361 24.5741 -1.1527 -12.1332
# 3 27.0630 45.4361 166.7926 43.0116 -30.8792 -9.9163
# 4 9.2582 24.5741 43.0116 53.2765 -1.4938 -10.0487
# 5 -20.5465 -1.1527 -30.8792 -1.4938 48.0295 15.8234
# 6 -5.8990 -12.1332 -9.9163 -10.0487 15.8234 26.5222
#
#
#
# Elastic Compliance Matrix: (Units=1/GPa)
#
#
# Indices 1 2 3 4 5 6 
#
# 1 0.016031 -0.002455 -0.000255 -0.001765 0.007502 -0.002797
# 2 -0.002455 0.010707 -0.002599 -0.001524 -0.004275 0.005354
# 3 -0.000255 -0.002599 0.009718 -0.007303 0.007436 -0.004815
# 4 -0.001765 -0.001524 -0.007303 0.027648 -0.008488 0.011719
# 5 0.007502 -0.004275 0.007436 -0.008488 0.035699 -0.022021
# 6 -0.002797 0.005354 -0.004815 0.011719 -0.022021 0.055309
#
#
# Mechanical properties :
#
#
# Convention : Reuss Voigt Hill
#
# Bulk Modulus (GPa) = 38.69905 60.58029 49.63967
# Shear Modulus (GPa) = 28.67929 43.42706 36.05317
#
# Velocity S-wave (km/s) = 3.25859 4.00983 3.65357
# Velocity P-wave (km/s) = 5.33723 6.62329 6.01473
#
# Compressibility (1/GPa) = 0.02584043
#
# Stress axis : x y z
#
# Youngs Moduli (GPa) = 62.37901 93.39351 102.89953
#
# Poissons Ratio (x) = 0.22928 0.02620
# Poissons Ratio (y) = 0.15314 0.26739
# Poissons Ratio (z) = 0.01588 0.24269
#
# Static dielectric constant tensor:
#      x y z
#    x 2.078160 -0.003890 -0.031270 
#    y -0.003890 2.121050 0.037010 
#    z -0.031270 0.037010 2.128800 
# 
# From -- ./inp_files/271306.got.cif
#   From: 2010.05.17/outbox.cif.g08.bks.cpg/sg2_136_cif.got.tgz:271306.got - 2010.06.03 11:33:40.
