data_PCOD9005118
_publ_section_title
;
Structure prediction by ZEFSAII (Michael W. Deem and Ramdas Pophale) SiO2 
 PCOD9005118
Probable space group: P -1
;
_chemical_formula_sum "Si O2"
_cell_formula_units_Z 14
_cell_length_a 13.951516
_cell_length_b 8.673938
_cell_length_c 14.186238
_cell_angle_alpha 121.886523
_cell_angle_beta 25.180984
_cell_angle_gamma 107.211765
_cell_volume 535.625148
_symmetry_space_group_name_H-M "P -1"
_symmetry_group_IT_number 2
_symmetry_cell_setting 'triclinic'
loop_
_space_group_symop_operation_xyz
x,y,z
-x,-y,-z
loop_
_atom_site_type_symbol
_atom_site_label
_atom_site_fract_x
_atom_site_fract_y
_atom_site_fract_z
Si Si1 0.160108 0.172351 0.836115
Si Si2 0.384905 0.647396 0.242795
Si Si3 0.723613 0.484172 0.205462
Si Si4 0.895878 0.948002 0.670177
Si Si5 0.300437 0.327935 0.329549
Si Si6 0.431302 0.278572 0.381729
Si Si7 0.365704 0.121265 0.817274
O O1 0.185299 0.382438 0.891675
O O2 0.141630 0.131456 0.949851
O O3 0.395033 0.989426 0.508163
O O4 0.923176 0.260834 0.002647
O O5 0.287946 0.531232 0.362538
O O6 0.603812 0.691490 0.106088
O O7 0.130036 0.867906 0.510731
O O8 0.500000 0.500000 0.000000
O O9 0.535933 0.429816 0.299499
O O10 0.625845 0.631376 0.432176
O O11 0.843316 0.756606 0.636417
O O12 0.000000 0.000000 0.500000
O O13 0.607733 0.146012 0.006974
O O14 0.210539 0.328508 0.517566
O O15 0.591217 0.032537 0.183428
#
# Coordination Sequence:
#
# PCOD9005118 Si02
#       7
#     2   2   2   2   2   2   2
#     4   9  19  39  61  89 121 166 210 257 320 385
#     4  12  25  44  67  96 132 176 220 269 326 392
#     4   9  19  37  61  89 122 162 208 257 322 386
#     4  11  24  46  69  94 127 171 223 272 322 385
#     4  11  25  44  68  95 131 173 216 272 329 384
#     4  10  21  38  60  92 127 160 208 265 320 386
#     4  10  22  38  61  91 128 163 213 264 316 383
#
# _framework density 26.137685000000001
#
# number of rings (size 3 to 8) (size 9 to 14) (size 15 to 20)
#    0.000    1.714    1.429    2.143    4.000    2.857 
#    7.714    0.000    0.000    0.000    0.000    0.000 
#    0.000    0.000    0.000    0.000    0.000    0.000 
#
# Total GULP energy -78094.414998 kJ/mol
# GULP energy per Si atom -5578.172500 kJ/mol
# Density = 2.607819 g / cm^3
# Si number density = 26.137685 Si / 1000 Ang^3
#
#
#
# Elastic Constant Matrix: (Units=GPa)
#
#
# Indices 1 2 3 4 5 6 
#
# 1 113.3477 6.7851 9.5955 13.4204 4.4359 -15.8600
# 2 6.7851 87.0919 -6.3236 17.3695 9.1986 -14.9135
# 3 9.5955 -6.3236 71.6408 4.5856 2.0962 6.1282
# 4 13.4204 17.3695 4.5856 19.2142 0.1644 3.0421
# 5 4.4359 9.1986 2.0962 0.1644 42.3489 11.0400
# 6 -15.8600 -14.9135 6.1282 3.0421 11.0400 48.2877
#
#
#
# Elastic Compliance Matrix: (Units=1/GPa)
#
#
# Indices 1 2 3 4 5 6 
#
# 1 0.010958 0.002535 -0.000977 -0.010619 -0.003145 0.005894
# 2 0.002535 0.017408 0.001877 -0.019267 -0.006314 0.008628
# 3 -0.000977 0.001877 0.014652 -0.004321 -0.000710 -0.001166
# 4 -0.010619 -0.019267 -0.004321 0.080379 0.009397 -0.016102
# 5 -0.003145 -0.006314 -0.000710 0.009397 0.027883 -0.009860
# 6 0.005894 0.008628 -0.001166 -0.016102 -0.009860 0.028727
#
#
# Mechanical properties :
#
#
# Convention : Reuss Voigt Hill
#
# Bulk Modulus (GPa) = 20.04468 32.46606 26.25537
# Shear Modulus (GPa) = 26.34816 39.43837 32.89327
#
# Velocity S-wave (km/s) = 3.17843 3.88863 3.55133
# Velocity P-wave (km/s) = 4.59950 5.71052 5.18486
#
# Compressibility (1/GPa) = 0.04988856
#
# Stress axis : x y z
#
# Youngs Moduli (GPa) = 91.25412 57.44530 68.24970
#
# Poissons Ratio (x) = -0.14560 0.06665
# Poissons Ratio (y) = -0.23129 -0.12810
# Poissons Ratio (z) = 0.08911 -0.10783
#
# Static dielectric constant tensor:
#      x y z
#    x 2.112100 -0.034520 -0.031710 
#    y -0.034520 2.039060 -0.064030 
#    z -0.031710 -0.064030 2.318740 
# 
# From -- ./inp_files/530092.got.cif
#   From: 2010.05.17/outbox.cif.g08.bks.cpg/sg2_266_cif.got.tgz:530092.got - 2010.06.03 11:33:40.
