data_PCOD9005758
_publ_section_title
;
Structure prediction by ZEFSAII (Michael W. Deem and Ramdas Pophale) SiO2 
 PCOD9005758
Probable space group: P -1
;
_chemical_formula_sum "Si O2"
_cell_formula_units_Z 16
_cell_length_a 9.894124
_cell_length_b 10.691278
_cell_length_c 9.304995
_cell_angle_alpha 115.476386
_cell_angle_beta 75.794313
_cell_angle_gamma 127.089549
_cell_volume 708.681237
_symmetry_space_group_name_H-M "P -1"
_symmetry_group_IT_number 2
_symmetry_cell_setting 'triclinic'
loop_
_space_group_symop_operation_xyz
x,y,z
-x,-y,-z
loop_
_atom_site_type_symbol
_atom_site_label
_atom_site_fract_x
_atom_site_fract_y
_atom_site_fract_z
Si Si1 0.189821 0.603480 0.940129
Si Si2 0.680970 0.541256 0.955588
Si Si3 0.286330 0.749863 0.410976
Si Si4 0.110155 0.369582 0.315563
Si Si5 0.929502 0.887032 0.226337
Si Si6 0.355489 0.052759 0.722369
Si Si7 0.036764 0.296633 0.624256
Si Si8 0.814993 0.102491 0.038613
O O1 0.163536 0.483899 0.752468
O O2 0.237008 0.786850 0.976587
O O3 0.295971 0.590873 0.032255
O O4 0.000000 0.500000 0.000000
O O5 0.730197 0.585820 0.798721
O O6 0.334725 0.883251 0.590166
O O7 0.500000 0.500000 0.000000
O O8 0.813349 0.709281 0.088959
O O9 0.159090 0.559377 0.405030
O O10 0.465021 0.801704 0.322243
O O11 0.158185 0.760555 0.345484
O O12 0.085944 0.302136 0.448377
O O13 0.954751 0.239532 0.186724
O O14 0.806082 0.949499 0.291147
O O15 0.956600 0.838141 0.351076
O O16 0.098796 0.965306 0.121167
O O17 0.333403 0.042579 0.895082
#
# Coordination Sequence:
#
# PCOD9005758 Si02
#       8
#     2   2   2   2   2   2   2   2
#     4  11  18  36  64  93 118 152 212 260 294 349
#     4  10  21  38  63  92 127 158 193 259 318 348
#     4  11  22  38  62  88 125 155 200 260 304 354
#     4  11  20  37  69  92 113 158 215 247 297 366
#     4  10  23  39  62  88 128 163 202 253 300 369
#     4  11  24  40  58  89 129 167 196 245 320 364
#     4  11  20  37  65  94 114 157 212 255 294 360
#     4  11  20  40  66  91 117 163 212 249 294 371
#
# _framework density 22.577147
#
# number of rings (size 3 to 8) (size 9 to 14) (size 15 to 20)
#    0.000    1.250    6.250    2.250    0.000    0.500 
#    0.000    8.750    2.750    0.000    0.000    0.000 
#    0.000    0.000    0.000    0.000    0.000    0.000 
#
# Total GULP energy -89287.939580 kJ/mol
# GULP energy per Si atom -5580.496224 kJ/mol
# Density = 2.252576 g / cm^3
# Si number density = 22.577147 Si / 1000 Ang^3
#
#
#
# Elastic Constant Matrix: (Units=GPa)
#
#
# Indices 1 2 3 4 5 6 
#
# 1 140.4569 26.9805 72.0996 -40.7040 -19.3894 -10.2571
# 2 26.9805 60.9506 39.2201 -22.6702 -10.8374 6.4760
# 3 72.0996 39.2201 157.1135 -29.9625 -14.8910 -4.9235
# 4 -40.7040 -22.6702 -29.9625 48.2487 4.7484 3.0554
# 5 -19.3894 -10.8374 -14.8910 4.7484 32.8653 -7.6946
# 6 -10.2571 6.4760 -4.9235 3.0554 -7.6946 23.6150
#
#
#
# Elastic Compliance Matrix: (Units=1/GPa)
#
#
# Indices 1 2 3 4 5 6 
#
# 1 0.012226 -0.000031 -0.003498 0.007195 0.005883 0.005575
# 2 -0.000031 0.023668 -0.004205 0.008682 0.002853 -0.007574
# 3 -0.003498 -0.004205 0.009302 0.000623 0.001108 0.001854
# 4 0.007195 0.008682 0.000623 0.031186 0.002321 -0.002405
# 5 0.005883 0.002853 0.001108 0.002321 0.038329 0.014193
# 6 0.005575 -0.007574 0.001854 -0.002405 0.014193 0.052167
#
#
# Mechanical properties :
#
#
# Convention : Reuss Voigt Hill
#
# Bulk Modulus (GPa) = 33.64034 70.56903 52.10468
# Shear Modulus (GPa) = 26.00733 35.62718 30.81725
#
# Velocity S-wave (km/s) = 3.39769 3.97674 3.69857
# Velocity P-wave (km/s) = 5.50681 7.23952 6.43178
#
# Compressibility (1/GPa) = 0.02972622
#
# Stress axis : x y z
#
# Youngs Moduli (GPa) = 81.79529 42.25197 107.50632
#
# Poissons Ratio (x) = 0.00131 0.37608
# Poissons Ratio (y) = 0.00254 0.45208
# Poissons Ratio (z) = 0.28613 0.17768
#
# Static dielectric constant tensor:
#      x y z
#    x 1.884040 -0.080860 -0.027460 
#    y -0.080860 1.915300 0.059050 
#    z -0.027460 0.059050 1.880360 
# 
# From -- ./inp_files/258516.got.cif
#   From: 2010.05.17/outbox.cif.g08.bks.cpg/sg2_130_cif.got.tgz:258516.got - 2010.06.03 11:33:40.
