data_PCOD9005888
_publ_section_title
;
Structure prediction by ZEFSAII (Michael W. Deem and Ramdas Pophale) SiO2 
 PCOD9005888
Probable space group: P -1
;
_chemical_formula_sum "Si O2"
_cell_formula_units_Z 12
_cell_length_a 26.248811
_cell_length_b 9.884668
_cell_length_c 27.067408
_cell_angle_alpha 155.372412
_cell_angle_beta 11.025530
_cell_angle_gamma 154.137664
_cell_volume 557.156113
_symmetry_space_group_name_H-M "P -1"
_symmetry_group_IT_number 2
_symmetry_cell_setting 'triclinic'
loop_
_space_group_symop_operation_xyz
x,y,z
-x,-y,-z
loop_
_atom_site_type_symbol
_atom_site_label
_atom_site_fract_x
_atom_site_fract_y
_atom_site_fract_z
Si Si1 0.273435 0.855848 0.205427
Si Si2 0.076851 0.373789 0.063142
Si Si3 0.513985 0.804393 0.549243
Si Si4 0.894229 0.897197 0.901337
Si Si5 0.369749 0.271200 0.346377
Si Si6 0.309858 0.679948 0.853067
O O1 0.217422 0.469706 0.125349
O O2 0.342573 0.989040 0.238545
O O3 0.000000 0.000000 0.500000
O O4 0.500000 0.000000 0.000000
O O5 0.387179 0.460559 0.811063
O O6 0.071233 0.562091 0.078318
O O7 0.889951 0.539799 0.334593
O O8 0.000000 0.000000 0.000000
O O9 0.500000 0.500000 0.500000
O O10 0.561181 0.635994 0.396095
O O11 0.785534 0.038736 0.378613
O O12 0.250901 0.979544 0.870565
O O13 0.797734 0.116687 0.021195
O O14 0.469078 0.142481 0.261945
#
# Coordination Sequence:
#
# PCOD9005888 Si02
#       6
#     2   2   2   2   2   2
#     4  12  27  49  65  90 133 174 228 268 313 397
#     4  10  22  39  62  96 132 161 206 261 330 381
#     4  10  21  38  64 100 134 162 209 263 327 389
#     4  11  24  41  67  96 127 181 211 263 332 372
#     4  10  24  42  64  96 125 168 218 267 318 378
#     4   9  23  38  68  95 134 153 219 266 322 383
#
# _framework density 21.537949999999999
#
# number of rings (size 3 to 8) (size 9 to 14) (size 15 to 20)
#    1.000    0.667    0.000    4.500    7.000    4.667 
#    0.000    0.833    0.000    0.000    0.000    0.000 
#    0.000    0.000    0.000    0.000    0.000    0.000 
#
# Total GULP energy -67062.524073 kJ/mol
# GULP energy per Si atom -5588.543673 kJ/mol
# Density = 2.148893 g / cm^3
# Si number density = 21.537950 Si / 1000 Ang^3
#
#
#
# Elastic Constant Matrix: (Units=GPa)
#
#
# Indices 1 2 3 4 5 6 
#
# 1 78.7467 20.5183 10.7819 -0.2782 13.5253 19.6843
# 2 20.5183 131.9501 41.2996 -4.5122 20.0784 13.5075
# 3 10.7819 41.2996 145.4155 -17.1522 21.2829 2.2076
# 4 -0.2782 -4.5122 -17.1522 36.1821 3.5033 4.1836
# 5 13.5253 20.0784 21.2829 3.5033 28.1547 4.9755
# 6 19.6843 13.5075 2.2076 4.1836 4.9755 40.7631
#
#
#
# Elastic Compliance Matrix: (Units=1/GPa)
#
#
# Indices 1 2 3 4 5 6 
#
# 1 0.015606 -0.000844 0.000252 0.001496 -0.006091 -0.006680
# 2 -0.000844 0.009199 -0.001725 0.001011 -0.004608 -0.002089
# 3 0.000252 -0.001725 0.008773 0.004509 -0.006130 0.000260
# 4 0.001496 0.001011 0.004509 0.031103 -0.008099 -0.003505
# 5 -0.006091 -0.004608 -0.006130 -0.008099 0.047399 -0.000154
# 6 -0.006680 -0.002089 0.000260 -0.003505 -0.000154 0.028814
#
#
# Mechanical properties :
#
#
# Convention : Reuss Voigt Hill
#
# Bulk Modulus (GPa) = 34.54830 55.70132 45.12481
# Shear Modulus (GPa) = 32.22164 39.92082 36.07123
#
# Velocity S-wave (km/s) = 3.87206 4.30991 4.09684
# Velocity P-wave (km/s) = 6.00550 7.11935 6.58602
#
# Compressibility (1/GPa) = 0.02894499
#
# Stress axis : x y z
#
# Youngs Moduli (GPa) = 64.07962 108.70487 113.98471
#
# Poissons Ratio (x) = 0.09171 -0.02872
# Poissons Ratio (y) = 0.05406 0.19660
# Poissons Ratio (z) = -0.01615 0.18749
#
# Static dielectric constant tensor:
#      x y z
#    x 1.953530 0.100740 -0.008710 
#    y 0.100740 1.849570 -0.011450 
#    z -0.008710 -0.011450 1.785770 
# 
# From -- ./inp_files/592240.got.cif
#   From: 2010.05.17/outbox.cif.g08.bks.cpg/sg2_297_cif.got.tgz:592240.got - 2010.06.03 11:33:40.
