data_PCOD9005104
_publ_section_title
;
Structure prediction by ZEFSAII (Michael W. Deem and Ramdas Pophale) SiO2 
 PCOD9005104
Probable space group: P -1
;
_chemical_formula_sum "Si O2"
_cell_formula_units_Z 16
_cell_length_a 5.314791
_cell_length_b 23.892820
_cell_length_c 9.032661
_cell_angle_alpha 49.748378
_cell_angle_beta 50.259367
_cell_angle_gamma 55.858806
_cell_volume 651.349769
_symmetry_space_group_name_H-M "P -1"
_symmetry_group_IT_number 2
_symmetry_cell_setting 'triclinic'
loop_
_space_group_symop_operation_xyz
x,y,z
-x,-y,-z
loop_
_atom_site_type_symbol
_atom_site_label
_atom_site_fract_x
_atom_site_fract_y
_atom_site_fract_z
Si Si1 0.442135 0.059091 0.131920
Si Si2 0.073071 0.132117 0.413001
Si Si3 0.658234 0.362781 0.013139
Si Si4 0.650937 0.804776 0.299988
Si Si5 0.602699 0.511953 0.607970
Si Si6 0.428598 0.665380 0.578545
Si Si7 0.256568 0.280600 0.111673
Si Si8 0.872417 0.910926 0.198045
O O1 0.173162 0.076173 0.334273
O O2 0.522059 0.973336 0.187177
O O3 0.363782 0.129244 0.927838
O O4 0.820055 0.061789 0.035932
O O5 0.295863 0.193609 0.203996
O O6 0.135942 0.092893 0.615196
O O7 0.680917 0.177548 0.497678
O O8 0.474669 0.362772 0.240733
O O9 0.566740 0.305445 0.025469
O O10 0.052533 0.334772 0.964856
O O11 0.529556 0.445534 0.850680
O O12 0.648864 0.725465 0.364103
O O13 0.925747 0.824609 0.270219
O O14 0.500000 0.500000 0.500000
O O15 0.452094 0.596020 0.580212
O O16 0.000000 0.500000 0.500000
O O17 0.032455 0.705584 0.676072
#
# Coordination Sequence:
#
# PCOD9005104 Si02
#       8
#     2   2   2   2   2   2   2   2
#     4  10  22  37  60  91 129 165 213 269 323 386
#     4  10  21  38  60  91 127 164 221 263 323 384
#     4  10  21  42  68  87 124 173 209 257 314 392
#     4  10  21  41  62  90 125 165 216 266 323 390
#     4  12  27  42  62  99 134 161 210 268 321 383
#     4   9  23  42  66  88 126 169 215 260 323 384
#     4   9  21  38  70  91 121 166 225 257 315 379
#     4  10  21  39  60  90 127 170 211 265 328 388
#
# _framework density 24.564377
#
# number of rings (size 3 to 8) (size 9 to 14) (size 15 to 20)
#    0.750    1.250    0.000    2.625    1.750    4.000 
#    2.250    0.000    0.000    0.000    0.000    0.000 
#    0.000    0.000    0.000    0.000    0.000    0.000 
#
# Total GULP energy -89280.306767 kJ/mol
# GULP energy per Si atom -5580.019173 kJ/mol
# Density = 2.450847 g / cm^3
# Si number density = 24.564377 Si / 1000 Ang^3
#
#
#
# Elastic Constant Matrix: (Units=GPa)
#
#
# Indices 1 2 3 4 5 6 
#
# 1 92.9152 21.8512 28.0616 -2.9079 12.3064 22.3987
# 2 21.8512 83.5174 36.8416 -12.6566 13.7988 18.8966
# 3 28.0616 36.8416 74.7359 -17.1524 12.5069 8.1568
# 4 -2.9079 -12.6566 -17.1524 43.4736 -4.3271 -7.3618
# 5 12.3064 13.7988 12.5069 -4.3271 31.6107 -3.6014
# 6 22.3987 18.8966 8.1568 -7.3618 -3.6014 31.1873
#
#
#
# Elastic Compliance Matrix: (Units=1/GPa)
#
#
# Indices 1 2 3 4 5 6 
#
# 1 0.015656 0.001470 -0.004873 -0.003208 -0.006659 -0.012387
# 2 0.001470 0.018485 -0.007263 0.000024 -0.007036 -0.011163
# 3 -0.004873 -0.007263 0.019997 0.005950 -0.001586 0.003892
# 4 -0.003208 0.000024 0.005950 0.026739 0.003392 0.007437
# 5 -0.006659 -0.007036 -0.001586 0.003392 0.040087 0.014890
# 6 -0.012387 -0.011163 0.003892 0.007437 0.014890 0.050181
#
#
# Mechanical properties :
#
#
# Convention : Reuss Voigt Hill
#
# Bulk Modulus (GPa) = 30.48243 47.18638 38.83440
# Shear Modulus (GPa) = 24.58060 32.21526 28.39793
#
# Velocity S-wave (km/s) = 3.16675 3.62534 3.40378
# Velocity P-wave (km/s) = 5.08008 6.06425 5.59385
#
# Compressibility (1/GPa) = 0.03280578
#
# Stress axis : x y z
#
# Youngs Moduli (GPa) = 63.87297 54.09906 50.00785
#
# Poissons Ratio (x) = -0.07953 0.24370
# Poissons Ratio (y) = -0.09390 0.36320
# Poissons Ratio (z) = 0.31126 0.39291
#
# Static dielectric constant tensor:
#      x y z
#    x 2.056300 0.036490 -0.025280 
#    y 0.036490 2.049500 -0.105180 
#    z -0.025280 -0.105180 1.993560 
# 
# From -- ./inp_files/142502.got.cif
#   From: 2010.05.17/outbox.cif.g08.bks.cpg/sg2_72_cif.got.tgz:142502.got - 2010.06.03 11:33:40.
