data_PCOD9005868
_publ_section_title
;
Structure prediction by ZEFSAII (Michael W. Deem and Ramdas Pophale) SiO2 
 PCOD9005868
Probable space group: P -1
;
_chemical_formula_sum "Si O2"
_cell_formula_units_Z 14
_cell_length_a 9.519966
_cell_length_b 8.969308
_cell_length_c 12.114539
_cell_angle_alpha 69.528134
_cell_angle_beta 117.279543
_cell_angle_gamma 65.938357
_cell_volume 629.778696
_symmetry_space_group_name_H-M "P -1"
_symmetry_group_IT_number 2
_symmetry_cell_setting 'triclinic'
loop_
_space_group_symop_operation_xyz
x,y,z
-x,-y,-z
loop_
_atom_site_type_symbol
_atom_site_label
_atom_site_fract_x
_atom_site_fract_y
_atom_site_fract_z
Si Si1 0.492929 0.970332 0.281282
Si Si2 0.699937 0.317310 0.041010
Si Si3 0.460011 0.359105 0.457571
Si Si4 0.212332 0.440219 0.142976
Si Si5 0.688275 0.980344 0.023130
Si Si6 0.071368 0.281466 0.622583
Si Si7 0.902532 0.079103 0.566765
O O1 0.551257 0.775172 0.422837
O O2 0.702734 0.900778 0.313958
O O3 0.385991 0.179673 0.260708
O O4 0.324031 0.035625 0.107375
O O5 0.652822 0.188867 0.988006
O O6 0.500000 0.500000 0.000000
O O7 0.741637 0.441011 0.949059
O O8 0.914158 0.126400 0.237117
O O9 0.500000 0.500000 0.500000
O O10 0.253896 0.482619 0.269566
O O11 0.669988 0.184913 0.499077
O O12 0.000000 0.500000 0.000000
O O13 0.886480 0.776631 0.218254
O O14 0.500000 0.000000 0.000000
O O15 0.000000 0.500000 0.500000
O O16 0.897102 0.272345 0.529976
O O17 0.000000 0.000000 0.500000
#
# Coordination Sequence:
#
# PCOD9005868 Si02
#       7
#     2   2   2   2   2   2   2
#     4  11  23  42  66  97 137 177 228 290 345 416
#     4  11  22  41  67  98 136 185 236 286 345 418
#     4  12  26  47  71 102 139 184 235 293 355 419
#     4  12  27  45  66  97 136 184 230 286 353 418
#     4   9  20  39  63  96 135 177 228 285 342 409
#     4  10  21  38  63  97 132 176 223 276 342 413
#     4  11  24  42  66  97 134 177 229 284 341 411
#
# _framework density 22.230029999999999
#
# number of rings (size 3 to 8) (size 9 to 14) (size 15 to 20)
#    0.000    1.143    0.000    7.286    0.000    9.143 
#    0.000    5.000    0.000    0.000    0.000    0.000 
#    0.000    0.000    0.000    0.000    0.000    0.000 
#
# Total GULP energy -78174.011613 kJ/mol
# GULP energy per Si atom -5583.857972 kJ/mol
# Density = 2.217943 g / cm^3
# Si number density = 22.230030 Si / 1000 Ang^3
#
#
#
# Elastic Constant Matrix: (Units=GPa)
#
#
# Indices 1 2 3 4 5 6 
#
# 1 137.3596 49.4478 48.8583 10.5230 -12.6888 13.0103
# 2 49.4478 113.2810 58.3282 11.4484 0.2141 18.0779
# 3 48.8583 58.3282 85.7864 25.6745 -15.0840 16.8074
# 4 10.5230 11.4484 25.6745 42.9193 3.2538 -1.5153
# 5 -12.6888 0.2141 -15.0840 3.2538 48.5774 -13.3940
# 6 13.0103 18.0779 16.8074 -1.5153 -13.3940 50.7902
#
#
#
# Elastic Compliance Matrix: (Units=1/GPa)
#
#
# Indices 1 2 3 4 5 6 
#
# 1 0.009527 -0.002243 -0.003800 0.000437 0.001280 -0.000034
# 2 -0.002243 0.015226 -0.010266 0.002898 -0.004756 -0.002615
# 3 -0.003800 -0.010266 0.026433 -0.012794 0.007416 -0.002546
# 4 0.000437 0.002898 -0.012794 0.030560 -0.005192 0.002633
# 5 0.001280 -0.004756 0.007416 -0.005192 0.025071 0.005368
# 6 -0.000034 -0.002615 -0.002546 0.002633 0.005368 0.022965
#
#
# Mechanical properties :
#
#
# Convention : Reuss Voigt Hill
#
# Bulk Modulus (GPa) = 53.85756 72.18841 63.02299
# Shear Modulus (GPa) = 29.65736 40.44357 35.05047
#
# Velocity S-wave (km/s) = 3.65651 4.26998 3.97510
# Velocity P-wave (km/s) = 6.48897 7.54017 7.03423
#
# Compressibility (1/GPa) = 0.01856750
#
# Stress axis : x y z
#
# Youngs Moduli (GPa) = 104.96126 65.67508 37.83083
#
# Poissons Ratio (x) = 0.14733 0.14376
# Poissons Ratio (y) = 0.23545 0.38839
# Poissons Ratio (z) = 0.39887 0.67425
#
# Static dielectric constant tensor:
#      x y z
#    x 1.756540 -0.013170 0.099690 
#    y -0.013170 1.814550 -0.016240 
#    z 0.099690 -0.016240 1.772180 
# 
# From -- ./inp_files/183380.got.cif
#   From: 2010.05.17/outbox.cif.g08.bks.cpg/sg2_92_cif.got.tgz:183380.got - 2010.06.03 11:33:40.
