data_PCOD9005812
_publ_section_title
;
Structure prediction by ZEFSAII (Michael W. Deem and Ramdas Pophale) SiO2 
 PCOD9005812
Probable space group: P -1
;
_chemical_formula_sum "Si O2"
_cell_formula_units_Z 14
_cell_length_a 5.299310
_cell_length_b 16.674673
_cell_length_c 8.242827
_cell_angle_alpha 93.921799
_cell_angle_beta 48.441842
_cell_angle_gamma 99.551506
_cell_volume 536.613707
_symmetry_space_group_name_H-M "P -1"
_symmetry_group_IT_number 2
_symmetry_cell_setting 'triclinic'
loop_
_space_group_symop_operation_xyz
x,y,z
-x,-y,-z
loop_
_atom_site_type_symbol
_atom_site_label
_atom_site_fract_x
_atom_site_fract_y
_atom_site_fract_z
Si Si1 0.677385 0.335643 0.569714
Si Si2 0.474237 0.908282 0.929570
Si Si3 0.082985 0.625849 0.049274
Si Si4 0.388478 0.772599 0.726050
Si Si5 0.181874 0.801638 0.320607
Si Si6 0.193189 0.944991 0.536295
Si Si7 0.113178 0.519210 0.693285
O O1 0.757280 0.274261 0.381724
O O2 0.692712 0.282947 0.717466
O O3 0.928370 0.419786 0.430616
O O4 0.291571 0.354149 0.741724
O O5 0.348610 0.865240 0.805558
O O6 0.871822 0.900943 0.768407
O O7 0.233414 0.849207 0.139987
O O8 0.500000 0.000000 0.000000
O O9 0.142981 0.563502 0.161678
O O10 0.297776 0.710755 0.907722
O O11 0.096915 0.572853 0.870860
O O12 0.788079 0.781680 0.525478
O O13 0.356439 0.873358 0.373886
O O14 0.500000 0.000000 0.500000
O O15 0.000000 0.000000 0.500000
O O16 0.500000 0.500000 0.500000
#
# Coordination Sequence:
#
# PCOD9005812 Si02
#       7
#     2   2   2   2   2   2   2
#     4  10  21  38  63  94 129 173 220 279 338 415
#     4  11  24  45  65  93 131 178 229 288 355 424
#     4   9  17  35  65  93 126 174 219 268 337 416
#     4  10  23  40  63  91 132 167 223 274 342 406
#     4  11  25  41  62  94 131 170 223 285 350 414
#     4  11  26  47  71 100 138 181 239 301 362 432
#     4   8  16  33  61  96 131 169 216 268 337 411
#
# _framework density 26.089531000000001
#
# number of rings (size 3 to 8) (size 9 to 14) (size 15 to 20)
#    0.000    2.000    1.429    0.857    4.000    6.286 
#    2.571    0.714    0.000   35.143    0.000    0.000 
#    0.000    0.000    0.000    0.000    0.000    0.000 
#
# Total GULP energy -78040.388258 kJ/mol
# GULP energy per Si atom -5574.313447 kJ/mol
# Density = 2.603015 g / cm^3
# Si number density = 26.089531 Si / 1000 Ang^3
#
#
#
# Elastic Constant Matrix: (Units=GPa)
#
#
# Indices 1 2 3 4 5 6 
#
# 1 58.9711 36.0579 8.1079 -9.1099 -0.5068 2.8996
# 2 36.0579 197.2564 47.6020 -5.8207 11.1300 18.7111
# 3 8.1079 47.6020 114.6139 -17.5874 -2.2294 3.6959
# 4 -9.1099 -5.8207 -17.5874 79.4261 13.2122 15.4780
# 5 -0.5068 11.1300 -2.2294 13.2122 12.8773 -1.4103
# 6 2.8996 18.7111 3.6959 15.4780 -1.4103 49.3605
#
#
#
# Elastic Compliance Matrix: (Units=1/GPa)
#
#
# Indices 1 2 3 4 5 6 
#
# 1 0.019472 -0.003731 0.000491 0.001740 0.002263 -0.000247
# 2 -0.003731 0.007202 -0.002555 0.001594 -0.008786 -0.003070
# 3 0.000491 -0.002555 0.010081 0.001821 0.002068 -0.000327
# 4 0.001740 0.001594 0.001821 0.018070 -0.020311 -0.007089
# 5 0.002263 -0.008786 0.002068 -0.020311 0.107904 0.012494
# 6 -0.000247 -0.003070 -0.000327 -0.007089 0.012494 0.024042
#
#
# Mechanical properties :
#
#
# Convention : Reuss Voigt Hill
#
# Bulk Modulus (GPa) = 39.73512 61.59746 50.66629
# Shear Modulus (GPa) = 24.18400 46.93770 35.56085
#
# Velocity S-wave (km/s) = 3.04791 4.24618 3.69593
# Velocity P-wave (km/s) = 5.25830 6.90662 6.13804
#
# Compressibility (1/GPa) = 0.02516666
#
# Stress axis : x y z
#
# Youngs Moduli (GPa) = 51.35695 138.85064 99.19250
#
# Poissons Ratio (x) = 0.51801 -0.04871
# Poissons Ratio (y) = 0.19160 0.25339
# Poissons Ratio (z) = -0.02522 0.35470
#
# Static dielectric constant tensor:
#      x y z
#    x 2.112240 -0.009740 0.186370 
#    y -0.009740 2.169550 0.035650 
#    z 0.186370 0.035650 2.133020 
# 
# From -- ./inp_files/135212.got.cif
#   From: 2010.05.17/outbox.cif.g08.bks.cpg/sg2_68_cif.got.tgz:135212.got - 2010.06.03 11:33:40.
