data_PCOD9005368
_publ_section_title
;
Structure prediction by ZEFSAII (Michael W. Deem and Ramdas Pophale) SiO2 
 PCOD9005368
Probable space group: P -1
;
_chemical_formula_sum "Si O2"
_cell_formula_units_Z 12
_cell_length_a 18.461067
_cell_length_b 8.776336
_cell_length_c 18.171159
_cell_angle_alpha 28.693376
_cell_angle_beta 22.794372
_cell_angle_gamma 34.601713
_cell_volume 545.986616
_symmetry_space_group_name_H-M "P -1"
_symmetry_group_IT_number 2
_symmetry_cell_setting 'triclinic'
loop_
_space_group_symop_operation_xyz
x,y,z
-x,-y,-z
loop_
_atom_site_type_symbol
_atom_site_label
_atom_site_fract_x
_atom_site_fract_y
_atom_site_fract_z
Si Si1 0.075224 0.301059 0.944437
Si Si2 0.471405 0.836821 0.981547
Si Si3 0.750142 0.273308 0.147136
Si Si4 0.404577 0.318977 0.542415
Si Si5 0.570534 0.093555 0.177579
Si Si6 0.803317 0.893963 0.755447
O O1 0.909081 0.211646 0.085362
O O2 0.222088 0.496170 0.675932
O O3 0.000000 0.500000 0.000000
O O4 0.208013 0.998071 0.976805
O O5 0.503610 0.453092 0.107573
O O6 0.284172 0.928023 0.165435
O O7 0.466390 0.962250 0.849623
O O8 0.647087 0.945909 0.816600
O O9 0.562214 0.437701 0.292058
O O10 0.688618 0.957199 0.300094
O O11 0.818972 0.522058 0.919233
O O12 0.512752 0.145650 0.584356
O O13 0.000000 0.000000 0.500000
#
# Coordination Sequence:
#
# PCOD9005368 Si02
#       6
#     2   2   2   2   2   2
#     4  10  21  38  61  97 128 157 206 264 313 369
#     4  10  21  44  65  87 132 165 212 252 305 386
#     4  11  21  43  65  94 123 164 213 258 314 371
#     4   9  22  40  66  93 122 167 205 261 316 362
#     4   9  20  44  63  92 123 167 209 255 315 362
#     4  11  24  42  66  95 125 168 208 258 312 372
#
# _framework density 21.978560999999999
#
# number of rings (size 3 to 8) (size 9 to 14) (size 15 to 20)
#    1.000    1.000    1.667    1.500    0.000    3.333 
#   12.000    1.667    0.000    0.000    0.000    0.000 
#    0.000    0.000    0.000    0.000    0.000    0.000 
#
# Total GULP energy -67001.265953 kJ/mol
# GULP energy per Si atom -5583.438829 kJ/mol
# Density = 2.192854 g / cm^3
# Si number density = 21.978561 Si / 1000 Ang^3
#
#
#
# Elastic Constant Matrix: (Units=GPa)
#
#
# Indices 1 2 3 4 5 6 
#
# 1 134.8602 13.2628 32.9065 4.0688 -5.7902 9.7814
# 2 13.2628 84.7918 24.3808 16.4346 -5.3291 19.8334
# 3 32.9065 24.3808 130.5850 31.3198 14.4035 9.8917
# 4 4.0688 16.4346 31.3198 30.8835 3.6020 7.8684
# 5 -5.7902 -5.3291 14.4035 3.6020 22.2488 5.7563
# 6 9.7814 19.8334 9.8917 7.8684 5.7563 37.0675
#
#
#
# Elastic Compliance Matrix: (Units=1/GPa)
#
#
# Indices 1 2 3 4 5 6 
#
# 1 0.008435 0.000009 -0.002888 0.001950 0.004413 -0.002559
# 2 0.000009 0.015757 -0.001944 -0.005299 0.007970 -0.008027
# 3 -0.002888 -0.001944 0.011921 -0.010278 -0.007791 0.002013
# 4 0.001950 -0.005299 -0.010278 0.046630 -0.000423 -0.004769
# 5 0.004413 0.007970 -0.007791 -0.000423 0.056218 -0.011990
# 6 -0.002559 -0.008027 0.002013 -0.004769 -0.011990 0.034285
#
#
# Mechanical properties :
#
#
# Convention : Reuss Voigt Hill
#
# Bulk Modulus (GPa) = 37.78388 54.59302 46.18845
# Shear Modulus (GPa) = 26.08039 36.68577 31.38308
#
# Velocity S-wave (km/s) = 3.44848 4.08997 3.78285
# Velocity P-wave (km/s) = 5.75192 6.87000 6.33568
#
# Compressibility (1/GPa) = 0.02646632
#
# Stress axis : x y z
#
# Youngs Moduli (GPa) = 118.55158 63.46473 83.88852
#
# Poissons Ratio (x) = -0.00058 0.24226
# Poissons Ratio (y) = -0.00108 0.16310
# Poissons Ratio (z) = 0.34236 0.12339
#
# Static dielectric constant tensor:
#      x y z
#    x 1.817670 -0.001040 0.038260 
#    y -0.001040 1.850970 -0.023990 
#    z 0.038260 -0.023990 1.818870 
# 
# From -- ./inp_files/600840.got.cif
#   From: 2010.05.17/outbox.cif.g08.bks.cpg/sg2_301_cif.got.tgz:600840.got - 2010.06.03 11:33:40.
