data_PCOD9005011
_publ_section_title
;
Structure prediction by ZEFSAII (Michael W. Deem and Ramdas Pophale) SiO2 
 PCOD9005011
Probable space group: P -1
;
_chemical_formula_sum "Si O2"
_cell_formula_units_Z 16
_cell_length_a 9.651162
_cell_length_b 9.967411
_cell_length_c 8.132429
_cell_angle_alpha 123.640904
_cell_angle_beta 91.789786
_cell_angle_gamma 107.308638
_cell_volume 602.592108
_symmetry_space_group_name_H-M "P -1"
_symmetry_group_IT_number 2
_symmetry_cell_setting 'triclinic'
loop_
_space_group_symop_operation_xyz
x,y,z
-x,-y,-z
loop_
_atom_site_type_symbol
_atom_site_label
_atom_site_fract_x
_atom_site_fract_y
_atom_site_fract_z
Si Si1 0.894764 0.948566 0.301897
Si Si2 0.964396 0.486383 0.248135
Si Si3 0.720600 0.542955 0.081556
Si Si4 0.485402 0.578565 0.319291
Si Si5 0.139795 0.914125 0.083806
Si Si6 0.673663 0.053178 0.180971
Si Si7 0.764474 0.447045 0.503601
Si Si8 0.584582 0.982048 0.652829
O O1 0.784849 0.746640 0.174197
O O2 0.012070 0.979437 0.177521
O O3 0.784883 0.046311 0.325768
O O4 0.000000 0.000000 0.500000
O O5 0.870363 0.510437 0.107628
O O6 0.886683 0.547512 0.440151
O O7 0.139816 0.570134 0.345704
O O8 0.934674 0.282289 0.114881
O O9 0.614064 0.514434 0.219498
O O10 0.612522 0.435648 0.860238
O O11 0.360628 0.485498 0.390171
O O12 0.559987 0.778626 0.513593
O O13 0.240631 0.914464 0.246325
O O14 0.262275 0.013795 0.018553
O O15 0.690461 0.252396 0.297708
O O16 0.503676 0.958950 0.167325
O O17 0.500000 0.000000 0.500000
#
# Coordination Sequence:
#
# PCOD9005011 Si02
#       8
#     2   2   2   2   2   2   2   2
#     4  12  24  39  60  88 118 152 194 241 293 343
#     4  10  21  38  60  87 115 149 190 236 288 343
#     4  11  23  38  58  85 118 150 191 238 285 341
#     4  10  22  39  56  83 116 152 192 233 284 340
#     4  11  23  39  61  87 117 154 194 239 291 344
#     4  10  22  40  61  86 118 154 193 238 287 346
#     4   9  20  39  61  84 114 150 191 233 284 346
#     4  11  21  38  62  87 118 153 194 240 288 344
#
# _framework density 26.551960999999999
#
# number of rings (size 3 to 8) (size 9 to 14) (size 15 to 20)
#    0.000    1.500    0.000    5.250    0.000    5.500 
#    0.000    3.750    0.000    0.000    0.000    0.000 
#    0.000    0.000    0.000    0.000    0.000    0.000 
#
# Total GULP energy -89517.354601 kJ/mol
# GULP energy per Si atom -5594.834663 kJ/mol
# Density = 2.649153 g / cm^3
# Si number density = 26.551961 Si / 1000 Ang^3
#
#
#
# Elastic Constant Matrix: (Units=GPa)
#
#
# Indices 1 2 3 4 5 6 
#
# 1 180.3847 2.4364 32.9896 -9.8487 -15.9346 0.8707
# 2 2.4364 33.1593 7.4246 5.6078 -3.3286 -7.8289
# 3 32.9896 7.4246 110.8888 -0.1628 4.7921 9.0147
# 4 -9.8487 5.6078 -0.1628 35.5948 7.6545 0.4306
# 5 -15.9346 -3.3286 4.7921 7.6545 56.3777 -16.3611
# 6 0.8707 -7.8289 9.0147 0.4306 -16.3611 33.9636
#
#
#
# Elastic Compliance Matrix: (Units=1/GPa)
#
#
# Indices 1 2 3 4 5 6 
#
# 1 0.006172 0.000416 -0.002086 0.001131 0.002245 0.001558
# 2 0.000416 0.036037 -0.003918 -0.007314 0.007333 0.012961
# 3 -0.002086 -0.003918 0.010475 0.000873 -0.003356 -0.005257
# 4 0.001131 -0.007314 0.000873 0.030891 -0.005881 -0.005171
# 5 0.002245 0.007333 -0.003356 -0.005881 0.023997 0.014158
# 6 0.001558 0.012961 -0.005257 -0.005171 0.014158 0.040672
#
#
# Mechanical properties :
#
#
# Convention : Reuss Voigt Hill
#
# Bulk Modulus (GPa) = 24.09208 45.57047 34.83127
# Shear Modulus (GPa) = 28.85889 43.95935 36.40912
#
# Velocity S-wave (km/s) = 3.30037 4.07332 3.70704
# Velocity P-wave (km/s) = 4.85968 6.27077 5.60977
#
# Compressibility (1/GPa) = 0.04150742
#
# Stress axis : x y z
#
# Youngs Moduli (GPa) = 162.01763 27.74906 95.46841
#
# Poissons Ratio (x) = -0.01153 0.19916
# Poissons Ratio (y) = -0.06734 0.37403
# Poissons Ratio (z) = 0.33799 0.10872
#
# Static dielectric constant tensor:
#      x y z
#    x 2.053210 0.031200 -0.025230 
#    y 0.031200 2.155050 -0.141300 
#    z -0.025230 -0.141300 2.109770 
# 
# From -- ./inp_files/190837.got.cif
#   From: 2010.05.17/outbox.cif.g08.bks.cpg/sg2_96_cif.got.tgz:190837.got - 2010.06.03 11:33:40.
