data_PCOD9005074
_publ_section_title
;
Structure prediction by ZEFSAII (Michael W. Deem and Ramdas Pophale) SiO2 
 PCOD9005074
Probable space group: P -1
;
_chemical_formula_sum "Si O2"
_cell_formula_units_Z 16
_cell_length_a 8.919530
_cell_length_b 13.371506
_cell_length_c 14.916042
_cell_angle_alpha 54.934559
_cell_angle_beta 140.892321
_cell_angle_gamma 95.408961
_cell_volume 672.686480
_symmetry_space_group_name_H-M "P -1"
_symmetry_group_IT_number 2
_symmetry_cell_setting 'triclinic'
loop_
_space_group_symop_operation_xyz
x,y,z
-x,-y,-z
loop_
_atom_site_type_symbol
_atom_site_label
_atom_site_fract_x
_atom_site_fract_y
_atom_site_fract_z
Si Si1 0.747192 0.453920 0.947875
Si Si2 0.791860 0.550860 0.287857
Si Si3 0.977945 0.709125 0.202579
Si Si4 0.228660 0.816466 0.606464
Si Si5 0.115897 0.135370 0.405118
Si Si6 0.676624 0.505595 0.688866
Si Si7 0.464959 0.048970 0.856864
Si Si8 0.305400 0.273021 0.543021
O O1 0.500895 0.428799 0.829453
O O2 0.805423 0.483896 0.859026
O O3 0.537376 0.630536 0.811706
O O4 0.014769 0.280855 0.215473
O O5 0.000000 0.500000 0.500000
O O6 0.725981 0.704407 0.134156
O O7 0.948374 0.428703 0.335543
O O8 0.321592 0.568448 0.484783
O O9 0.060321 0.658388 0.163703
O O10 0.800788 0.894177 0.045378
O O11 0.175034 0.805639 0.692921
O O12 0.250358 0.956148 0.528198
O O13 0.891006 0.884376 0.369427
O O14 0.343038 0.133476 0.578747
O O15 0.609534 0.650002 0.524154
O O16 0.460712 0.193554 0.752971
O O17 0.500000 0.000000 0.000000
#
# Coordination Sequence:
#
# PCOD9005074 Si02
#       8
#     2   2   2   2   2   2   2   2
#     4  12  21  40  70  95 125 173 213 262 321 387
#     4  11  19  35  64  93 118 157 211 264 312 370
#     4  10  21  38  60  89 130 168 199 261 326 391
#     4  10  22  41  64 101 127 156 218 284 312 368
#     4  10  22  41  64  93 129 166 220 266 320 368
#     4  10  23  41  57  91 132 167 210 250 325 399
#     4  11  20  38  65  97 123 160 214 268 326 373
#     4  10  23  41  59  89 134 164 206 268 317 379
#
# _framework density 23.785225000000001
#
# number of rings (size 3 to 8) (size 9 to 14) (size 15 to 20)
#    0.000    1.500    3.750    2.625    0.000    1.000 
#    6.750    0.625    0.000    0.000    0.000    0.000 
#    0.000    0.000    0.000    0.000    0.000    0.000 
#
# Total GULP energy -89073.556152 kJ/mol
# GULP energy per Si atom -5567.097259 kJ/mol
# Density = 2.373109 g / cm^3
# Si number density = 23.785225 Si / 1000 Ang^3
#
#
#
# Elastic Constant Matrix: (Units=GPa)
#
#
# Indices 1 2 3 4 5 6 
#
# 1 98.2755 17.1709 45.8697 -9.7108 -30.8403 -13.0047
# 2 17.1709 71.4845 27.1529 -8.9460 -3.8695 -8.1609
# 3 45.8697 27.1529 82.2187 -11.3229 -29.4557 -14.8054
# 4 -9.7108 -8.9460 -11.3229 41.4126 -0.5525 -0.6060
# 5 -30.8403 -3.8695 -29.4557 -0.5525 41.9491 2.7034
# 6 -13.0047 -8.1609 -14.8054 -0.6060 2.7034 29.8190
#
#
#
# Elastic Compliance Matrix: (Units=1/GPa)
#
#
# Indices 1 2 3 4 5 6 
#
# 1 0.015724 -0.000871 -0.004621 0.002396 0.008032 0.003645
# 2 -0.000871 0.016556 -0.005518 0.001848 -0.003074 0.001728
# 3 -0.004621 -0.005518 0.022439 0.004110 0.011475 0.006659
# 4 0.002396 0.001848 0.004110 0.026352 0.004928 0.003680
# 5 0.008032 -0.003074 0.011475 0.004928 0.037254 0.005081
# 6 0.003645 0.001728 0.006659 0.003680 0.005081 0.038519
#
#
# Mechanical properties :
#
#
# Convention : Reuss Voigt Hill
#
# Bulk Modulus (GPa) = 30.58074 48.04062 39.31068
# Shear Modulus (GPa) = 26.34857 33.42181 29.88519
#
# Velocity S-wave (km/s) = 3.33193 3.75260 3.54850
# Velocity P-wave (km/s) = 5.26187 6.24640 5.77515
#
# Compressibility (1/GPa) = 0.03270032
#
# Stress axis : x y z
#
# Youngs Moduli (GPa) = 63.59676 60.40027 44.56499
#
# Poissons Ratio (x) = 0.05261 0.20593
# Poissons Ratio (y) = 0.05539 0.24589
# Poissons Ratio (z) = 0.29388 0.33327
#
# Static dielectric constant tensor:
#      x y z
#    x 1.989240 0.052770 -0.056170 
#    y 0.052770 2.086630 0.039250 
#    z -0.056170 0.039250 1.981560 
# 
# From -- ./inp_files/505374.got.cif
#   From: 2010.05.17/outbox.cif.g08.bks.cpg/sg2_253_cif.got.tgz:505374.got - 2010.06.03 11:33:40.
