data_PCOD9005492
_publ_section_title
;
Structure prediction by ZEFSAII (Michael W. Deem and Ramdas Pophale) SiO2 
 PCOD9005492
Probable space group: P -1
;
_chemical_formula_sum "Si O2"
_cell_formula_units_Z 16
_cell_length_a 9.248625
_cell_length_b 15.037442
_cell_length_c 21.269544
_cell_angle_alpha 159.156148
_cell_angle_beta 143.342302
_cell_angle_gamma 39.153263
_cell_volume 623.775031
_symmetry_space_group_name_H-M "P -1"
_symmetry_group_IT_number 2
_symmetry_cell_setting 'triclinic'
loop_
_space_group_symop_operation_xyz
x,y,z
-x,-y,-z
loop_
_atom_site_type_symbol
_atom_site_label
_atom_site_fract_x
_atom_site_fract_y
_atom_site_fract_z
Si Si1 0.976236 0.377563 0.138516
Si Si2 0.853791 0.322007 0.917835
Si Si3 0.504449 0.741051 0.791578
Si Si4 0.504207 0.412000 0.698064
Si Si5 0.771270 0.795675 0.127811
Si Si6 0.370871 0.008985 0.209422
Si Si7 0.950296 0.471185 0.537692
Si Si8 0.631864 0.875174 0.347336
O O1 0.870707 0.671907 0.295327
O O2 0.262088 0.313826 0.208430
O O3 0.957460 0.275820 0.993000
O O4 0.794596 0.218970 0.008111
O O5 0.866119 0.613072 0.097788
O O6 0.577851 0.266286 0.787339
O O7 0.007423 0.167585 0.815927
O O8 0.519515 0.525380 0.707947
O O9 0.251575 0.718749 0.653626
O O10 0.500000 0.000000 0.000000
O O11 0.618186 0.611149 0.912259
O O12 0.222320 0.398751 0.610528
O O13 0.643339 0.132561 0.558245
O O14 0.580760 0.010170 0.231717
O O15 0.515177 0.953571 0.289662
O O16 0.183553 0.260361 0.310188
O O17 0.000000 0.500000 0.500000
#
# Coordination Sequence:
#
# PCOD9005492 Si02
#       8
#     2   2   2   2   2   2   2   2
#     4  11  20  39  65 100 121 171 220 260 310 379
#     4  10  21  38  62  90 135 169 207 253 322 390
#     4  11  23  40  66  94 122 164 222 265 318 374
#     4  11  24  40  65  94 132 171 212 261 326 384
#     4  11  22  40  60  98 133 173 205 256 333 375
#     4  11  20  40  67  93 130 166 216 263 310 382
#     4  10  21  41  62  94 120 172 210 271 309 372
#     4  11  21  40  65  97 127 170 218 263 310 377
#
# _framework density 25.650274
#
# number of rings (size 3 to 8) (size 9 to 14) (size 15 to 20)
#    0.000    1.250    6.250    2.250    1.750    1.500 
#    4.500    0.000    0.000    2.250    0.000    0.000 
#    0.000    0.000    0.000    0.000    0.000    0.000 
#
# Total GULP energy -89612.696543 kJ/mol
# GULP energy per Si atom -5600.793534 kJ/mol
# Density = 2.559189 g / cm^3
# Si number density = 25.650274 Si / 1000 Ang^3
#
#
#
# Elastic Constant Matrix: (Units=GPa)
#
#
# Indices 1 2 3 4 5 6 
#
# 1 120.5541 38.0833 6.5768 6.7129 -13.3443 -34.2937
# 2 38.0833 109.4527 56.8888 16.0579 -1.3477 -38.0322
# 3 6.5768 56.8888 86.2980 14.9150 -5.9683 -25.5233
# 4 6.7129 16.0579 14.9150 58.1674 -12.0789 -3.2687
# 5 -13.3443 -1.3477 -5.9683 -12.0789 28.6116 6.5757
# 6 -34.2937 -38.0322 -25.5233 -3.2687 6.5757 47.5051
#
#
#
# Elastic Compliance Matrix: (Units=1/GPa)
#
#
# Indices 1 2 3 4 5 6 
#
# 1 0.011716 -0.003575 0.003863 -0.000032 0.004468 0.007051
# 2 -0.003575 0.018278 -0.009415 -0.002993 -0.005778 0.007588
# 3 0.003863 -0.009415 0.019590 -0.001858 0.003473 0.005168
# 4 -0.000032 -0.002993 -0.001858 0.020122 0.008695 -0.003236
# 5 0.004468 -0.005778 0.003473 0.008695 0.042258 -0.004786
# 6 0.007051 0.007588 0.005168 -0.003236 -0.004786 0.035432
#
#
# Mechanical properties :
#
#
# Convention : Reuss Voigt Hill
#
# Bulk Modulus (GPa) = 31.91747 57.71140 44.81443
# Shear Modulus (GPa) = 28.39447 41.17386 34.78416
#
# Velocity S-wave (km/s) = 3.33075 4.01084 3.68651
# Velocity P-wave (km/s) = 5.22132 6.63305 5.96907
#
# Compressibility (1/GPa) = 0.03133081
#
# Stress axis : x y z
#
# Youngs Moduli (GPa) = 85.35684 54.70955 51.04753
#
# Poissons Ratio (x) = 0.19558 -0.19722
# Poissons Ratio (y) = 0.30514 0.48061
# Poissons Ratio (z) = -0.32977 0.51509
#
# Static dielectric constant tensor:
#      x y z
#    x 2.020920 0.033120 0.012760 
#    y 0.033120 2.064270 -0.037890 
#    z 0.012760 -0.037890 2.010950 
# 
# From -- ./inp_files/608366.got.cif
#   From: 2010.05.17/outbox.cif.g08.bks.cpg/sg2_305_cif.got.tgz:608366.got - 2010.06.03 11:33:40.
