data_PCOD9005089
_publ_section_title
;
Structure prediction by ZEFSAII (Michael W. Deem and Ramdas Pophale) SiO2 
 PCOD9005089
Probable space group: P -1
;
_chemical_formula_sum "Si O2"
_cell_formula_units_Z 16
_cell_length_a 12.693775
_cell_length_b 14.137242
_cell_length_c 10.045945
_cell_angle_alpha 112.716947
_cell_angle_beta 85.900542
_cell_angle_gamma 149.673557
_cell_volume 694.402678
_symmetry_space_group_name_H-M "P -1"
_symmetry_group_IT_number 2
_symmetry_cell_setting 'triclinic'
loop_
_space_group_symop_operation_xyz
x,y,z
-x,-y,-z
loop_
_atom_site_type_symbol
_atom_site_label
_atom_site_fract_x
_atom_site_fract_y
_atom_site_fract_z
Si Si1 0.562418 0.304042 0.077387
Si Si2 0.958694 0.986146 0.340691
Si Si3 0.033162 0.514396 0.845078
Si Si4 0.802420 0.135879 0.517347
Si Si5 0.081828 0.787846 0.921600
Si Si6 0.206756 0.002821 0.294274
Si Si7 0.722311 0.534992 0.456427
Si Si8 0.445924 0.656275 0.191048
O O1 0.651056 0.425186 0.995386
O O2 0.724288 0.345395 0.117017
O O3 0.598527 0.415044 0.254545
O O4 0.273625 0.014279 0.931247
O O5 0.156630 0.247132 0.417349
O O6 0.027089 0.939604 0.241115
O O7 0.000000 0.000000 0.500000
O O8 0.677567 0.782203 0.242682
O O9 0.812337 0.255350 0.649917
O O10 0.070831 0.655779 0.846726
O O11 0.000000 0.500000 0.000000
O O12 0.860460 0.110729 0.623234
O O13 0.036191 0.328342 0.498648
O O14 0.556822 0.867401 0.330224
O O15 0.798527 0.579839 0.826889
O O16 0.196674 0.914826 0.126329
O O17 0.491917 0.297968 0.440784
#
# Coordination Sequence:
#
# PCOD9005089 Si02
#       8
#     2   2   2   2   2   2   2   2
#     4  10  22  41  61  90 123 152 198 241 296 354
#     4  11  22  40  61  87 117 160 201 242 296 350
#     4  11  19  40  69  85 118 158 200 239 291 358
#     4  10  21  38  60  91 119 155 198 242 295 344
#     4  11  23  40  62  91 117 161 195 245 296 349
#     4  11  20  39  62  85 117 158 206 238 290 354
#     4   9  20  38  61  84 116 155 199 245 285 351
#     4  11  23  39  58  87 126 153 190 254 294 346
#
# _framework density 23.041385999999999
#
# number of rings (size 3 to 8) (size 9 to 14) (size 15 to 20)
#    0.000    1.500    5.000    1.500    0.000    3.000 
#    2.250    1.875    0.000    0.000    0.000    0.000 
#    0.000    0.000    0.000    0.000    0.000    0.000 
#
# Total GULP energy -89430.611227 kJ/mol
# GULP energy per Si atom -5589.413202 kJ/mol
# Density = 2.298894 g / cm^3
# Si number density = 23.041386 Si / 1000 Ang^3
#
#
#
# Elastic Constant Matrix: (Units=GPa)
#
#
# Indices 1 2 3 4 5 6 
#
# 1 89.5263 16.7642 9.2862 9.1640 -16.0463 5.5612
# 2 16.7642 86.8487 4.2988 40.7811 -2.1545 8.7117
# 3 9.2862 4.2988 76.5322 11.5015 -7.2674 0.2070
# 4 9.1640 40.7811 11.5015 42.6270 -0.1125 0.9008
# 5 -16.0463 -2.1545 -7.2674 -0.1125 37.4604 4.3139
# 6 5.5612 8.7117 0.2070 0.9008 4.3139 22.8148
#
#
#
# Elastic Compliance Matrix: (Units=1/GPa)
#
#
# Indices 1 2 3 4 5 6 
#
# 1 0.012875 -0.001421 -0.000765 -0.001110 0.005699 -0.003622
# 2 -0.001421 0.022868 0.002415 -0.022051 0.002021 -0.007919
# 3 -0.000765 0.002415 0.014173 -0.005939 0.002674 -0.001136
# 4 -0.001110 -0.022051 -0.005939 0.046226 -0.003633 0.007606
# 5 0.005699 0.002021 0.002674 -0.003633 0.030663 -0.007839
# 6 -0.003622 -0.007919 -0.001136 0.007606 -0.007839 0.048930
#
#
# Mechanical properties :
#
#
# Convention : Reuss Voigt Hill
#
# Bulk Modulus (GPa) = 19.85118 34.84506 27.34812
# Shear Modulus (GPa) = 26.03225 35.41765 30.72495
#
# Velocity S-wave (km/s) = 3.36490 3.92488 3.65563
# Velocity P-wave (km/s) = 4.87144 5.97455 5.45097
#
# Compressibility (1/GPa) = 0.05037485
#
# Stress axis : x y z
#
# Youngs Moduli (GPa) = 77.66691 43.72921 70.55638
#
# Poissons Ratio (x) = 0.06216 0.05395
# Poissons Ratio (y) = 0.11040 -0.17041
# Poissons Ratio (z) = 0.05939 -0.10561
#
# Static dielectric constant tensor:
#      x y z
#    x 1.839100 0.046460 -0.014040 
#    y 0.046460 1.878780 0.033990 
#    z -0.014040 0.033990 1.905730 
# 
# From -- ./inp_files/270553.got.cif
#   From: 2010.05.17/outbox.cif.g08.bks.cpg/sg2_136_cif.got.tgz:270553.got - 2010.06.03 11:33:40.
