data_PCOD9005171
_publ_section_title
;
Structure prediction by ZEFSAII (Michael W. Deem and Ramdas Pophale) SiO2 
 PCOD9005171
Probable space group: P -1
;
_chemical_formula_sum "Si O2"
_cell_formula_units_Z 16
_cell_length_a 8.589385
_cell_length_b 6.805429
_cell_length_c 14.989657
_cell_angle_alpha 102.610358
_cell_angle_beta 103.016989
_cell_angle_gamma 51.629365
_cell_volume 665.764049
_symmetry_space_group_name_H-M "P -1"
_symmetry_group_IT_number 2
_symmetry_cell_setting 'triclinic'
loop_
_space_group_symop_operation_xyz
x,y,z
-x,-y,-z
loop_
_atom_site_type_symbol
_atom_site_label
_atom_site_fract_x
_atom_site_fract_y
_atom_site_fract_z
Si Si1 0.703321 0.867228 0.125044
Si Si2 0.732553 0.767926 0.523969
Si Si3 0.032459 0.927178 0.101394
Si Si4 0.797225 0.953566 0.396446
Si Si5 0.295622 0.356716 0.078790
Si Si6 0.639043 0.623646 0.661127
Si Si7 0.177198 0.886362 0.392461
Si Si8 0.964830 0.623265 0.812708
O O1 0.853590 0.926593 0.116411
O O2 0.820662 0.650491 0.194122
O O3 0.491948 0.137516 0.135692
O O4 0.668724 0.731700 0.027514
O O5 0.717225 0.585147 0.564385
O O6 0.500000 0.000000 0.500000
O O7 0.831431 0.718954 0.433922
O O8 0.823075 0.878984 0.607741
O O9 0.229442 0.638140 0.107317
O O10 0.037122 0.136521 0.173538
O O11 0.000000 0.000000 0.000000
O O12 0.583509 0.122901 0.339399
O O13 0.782726 0.114655 0.496355
O O14 0.973678 0.915106 0.357789
O O15 0.112025 0.364293 0.094657
O O16 0.653992 0.375392 0.657877
O O17 0.800017 0.626428 0.737027
#
# Coordination Sequence:
#
# PCOD9005171 Si02
#       8
#     2   2   2   2   2   2   2   2
#     4  10  21  38  61  86 110 149 198 238 285 341
#     4   8  17  32  53  84 107 136 191 226 266 338
#     4  11  19  37  61  86 114 146 194 239 283 337
#     4   8  18  37  55  83 106 140 194 233 263 338
#     4  10  21  38  61  84 111 153 193 238 284 345
#     4  11  21  34  57  78 112 154 176 229 299 334
#     4   9  18  36  58  79 109 143 188 232 271 334
#     4  11  23  37  54  86 123 149 187 242 294 342
#
# _framework density 24.032537999999999
#
# number of rings (size 3 to 8) (size 9 to 14) (size 15 to 20)
#    0.750    1.500    2.500    1.125    0.000    5.000 
#    0.000    0.000    0.000    0.000    0.000    0.000 
#    0.000    0.000    0.000    0.000    0.000    0.000 
#
# Total GULP energy -89241.438535 kJ/mol
# GULP energy per Si atom -5577.589908 kJ/mol
# Density = 2.397784 g / cm^3
# Si number density = 24.032538 Si / 1000 Ang^3
#
#
#
# Elastic Constant Matrix: (Units=GPa)
#
#
# Indices 1 2 3 4 5 6 
#
# 1 65.2593 38.6859 1.3300 -6.2374 12.5627 -9.9425
# 2 38.6859 182.7685 28.0850 1.5361 23.3365 -6.9372
# 3 1.3300 28.0850 78.9969 -7.7428 20.9305 -7.5547
# 4 -6.2374 1.5361 -7.7428 24.9080 -0.8290 13.1128
# 5 12.5627 23.3365 20.9305 -0.8290 30.6764 -6.7350
# 6 -9.9425 -6.9372 -7.5547 13.1128 -6.7350 39.3134
#
#
#
# Elastic Compliance Matrix: (Units=1/GPa)
#
#
# Indices 1 2 3 4 5 6 
#
# 1 0.019623 -0.003765 0.003543 0.004881 -0.006984 0.002155
# 2 -0.003765 0.006899 -0.001948 -0.002160 -0.002391 0.000201
# 3 0.003543 -0.001948 0.016868 0.005943 -0.011346 -0.000132
# 4 0.004881 -0.002160 0.005943 0.051766 -0.006613 -0.016404
# 5 -0.006984 -0.002391 -0.011346 -0.006613 0.046099 0.005735
# 6 0.002155 0.000201 -0.000132 -0.016404 0.005735 0.032446
#
#
# Mechanical properties :
#
#
# Convention : Reuss Voigt Hill
#
# Bulk Modulus (GPa) = 25.60919 51.46962 38.53940
# Shear Modulus (GPa) = 26.17012 36.24115 31.20564
#
# Velocity S-wave (km/s) = 3.30350 3.88751 3.60734
# Velocity P-wave (km/s) = 5.02294 6.45085 5.78115
#
# Compressibility (1/GPa) = 0.03904849
#
# Stress axis : x y z
#
# Youngs Moduli (GPa) = 50.96147 144.95129 59.28475
#
# Poissons Ratio (x) = 0.54580 -0.21006
# Poissons Ratio (y) = 0.19189 0.11550
# Poissons Ratio (z) = -0.18057 0.28239
#
# Static dielectric constant tensor:
#      x y z
#    x 1.920620 -0.023350 -0.048830 
#    y -0.023350 1.929740 -0.022060 
#    z -0.048830 -0.022060 1.998660 
# 
# From -- ./inp_files/585339.got.cif
#   From: 2010.05.17/outbox.cif.g08.bks.cpg/sg2_293_cif.got.tgz:585339.got - 2010.06.03 11:33:40.
