data_PCOD9005558
_publ_section_title
;
Structure prediction by ZEFSAII (Michael W. Deem and Ramdas Pophale) SiO2 
 PCOD9005558
Probable space group: P -1
;
_chemical_formula_sum "Si O2"
_cell_formula_units_Z 14
_cell_length_a 9.139978
_cell_length_b 9.513741
_cell_length_c 8.137909
_cell_angle_alpha 59.119212
_cell_angle_beta 108.811007
_cell_angle_gamma 98.166895
_cell_volume 574.640724
_symmetry_space_group_name_H-M "P -1"
_symmetry_group_IT_number 2
_symmetry_cell_setting 'triclinic'
loop_
_space_group_symop_operation_xyz
x,y,z
-x,-y,-z
loop_
_atom_site_type_symbol
_atom_site_label
_atom_site_fract_x
_atom_site_fract_y
_atom_site_fract_z
Si Si1 0.075222 0.501760 0.710575
Si Si2 0.663915 0.331230 0.120475
Si Si3 0.954675 0.842541 0.178580
Si Si4 0.320608 0.956571 0.927679
Si Si5 0.770799 0.570799 0.725639
Si Si6 0.277186 0.709657 0.362811
Si Si7 0.546754 0.807596 0.631501
O O1 0.953868 0.571391 0.759123
O O2 0.000000 0.500000 0.500000
O O3 0.234730 0.588339 0.748350
O O4 0.092355 0.307168 0.864735
O O5 0.710312 0.149142 0.182745
O O6 0.494894 0.288961 0.156938
O O7 0.698854 0.452235 0.909429
O O8 0.119781 0.782022 0.349814
O O9 0.803728 0.892733 0.199226
O O10 0.000000 0.000000 0.000000
O O11 0.285440 0.830639 0.137051
O O12 0.500000 0.000000 0.000000
O O13 0.723780 0.475519 0.597639
O O14 0.710089 0.749943 0.650478
O O15 0.429684 0.733992 0.503215
O O16 0.500000 0.000000 0.500000
#
# Coordination Sequence:
#
# PCOD9005558 Si02
#       7
#     2   2   2   2   2   2   2
#     4  11  24  43  68  98 130 173 221 271 329 392
#     4  11  24  42  65  95 130 175 222 264 328 402
#     4   9  20  40  65  89 123 168 213 262 319 387
#     4  10  21  38  62  93 126 165 213 266 321 379
#     4  10  23  43  64  90 128 173 216 265 325 397
#     4   9  20  40  61  85 121 168 212 258 319 381
#     4  12  25  40  62  96 132 168 218 278 327 376
#
# _framework density 24.363049
#
# number of rings (size 3 to 8) (size 9 to 14) (size 15 to 20)
#    0.000    1.714    0.000    4.714    0.000    9.143 
#    0.000    2.143    0.000    0.000    0.000    0.000 
#    0.000    0.000    0.000    0.000    0.000    0.000 
#
# Total GULP energy -77984.855456 kJ/mol
# GULP energy per Si atom -5570.346818 kJ/mol
# Density = 2.430760 g / cm^3
# Si number density = 24.363049 Si / 1000 Ang^3
#
#
#
# Elastic Constant Matrix: (Units=GPa)
#
#
# Indices 1 2 3 4 5 6 
#
# 1 124.0895 57.8508 -0.0257 -18.2754 -5.7129 -33.6472
# 2 57.8508 122.6488 14.2293 -19.7443 8.9077 -18.2821
# 3 -0.0257 14.2293 46.6256 5.5198 -6.8368 -5.0172
# 4 -18.2754 -19.7443 5.5198 32.3320 4.3829 6.5724
# 5 -5.7129 8.9077 -6.8368 4.3829 26.2104 -5.6763
# 6 -33.6472 -18.2821 -5.0172 6.5724 -5.6763 53.8193
#
#
#
# Elastic Compliance Matrix: (Units=1/GPa)
#
#
# Indices 1 2 3 4 5 6 
#
# 1 0.013284 -0.006012 0.003613 0.000746 0.007333 0.007282
# 2 -0.006012 0.013352 -0.006486 0.007450 -0.009154 -0.001703
# 3 0.003613 -0.006486 0.026920 -0.009251 0.012650 0.005029
# 4 0.000746 0.007450 -0.009251 0.039976 -0.012344 -0.004049
# 5 0.007333 -0.009154 0.012650 -0.012344 0.050276 0.009464
# 6 0.007282 -0.001703 0.005029 -0.004049 0.009464 0.024516
#
#
# Mechanical properties :
#
#
# Convention : Reuss Voigt Hill
#
# Bulk Modulus (GPa) = 27.94380 48.60807 38.27594
# Shear Modulus (GPa) = 25.24959 37.22630 31.23795
#
# Velocity S-wave (km/s) = 3.22279 3.91318 3.58465
# Velocity P-wave (km/s) = 5.03420 6.35706 5.73391
#
# Compressibility (1/GPa) = 0.03578611
#
# Stress axis : x y z
#
# Youngs Moduli (GPa) = 75.27647 74.89608 37.14720
#
# Poissons Ratio (x) = 0.45028 -0.13420
# Poissons Ratio (y) = 0.45257 0.24092
# Poissons Ratio (z) = -0.27194 0.48574
#
# Static dielectric constant tensor:
#      x y z
#    x 1.794400 -0.127040 -0.025800 
#    y -0.127040 1.924140 -0.057380 
#    z -0.025800 -0.057380 2.122240 
# 
# From -- ./inp_files/157597.got.cif
#   From: 2010.05.17/outbox.cif.g08.bks.cpg/sg2_79_cif.got.tgz:157597.got - 2010.06.03 11:33:40.
