data_PCOD9005298
_publ_section_title
;
Structure prediction by ZEFSAII (Michael W. Deem and Ramdas Pophale) SiO2 
 PCOD9005298
Probable space group: P -1
;
_chemical_formula_sum "Si O2"
_cell_formula_units_Z 16
_cell_length_a 15.437956
_cell_length_b 21.871603
_cell_length_c 8.532627
_cell_angle_alpha 47.710518
_cell_angle_beta 122.574475
_cell_angle_gamma 158.628729
_cell_volume 733.900190
_symmetry_space_group_name_H-M "P -1"
_symmetry_group_IT_number 2
_symmetry_cell_setting 'triclinic'
loop_
_space_group_symop_operation_xyz
x,y,z
-x,-y,-z
loop_
_atom_site_type_symbol
_atom_site_label
_atom_site_fract_x
_atom_site_fract_y
_atom_site_fract_z
Si Si1 0.011705 0.914904 0.094893
Si Si2 0.875981 0.982866 0.315335
Si Si3 0.119026 0.546862 0.691366
Si Si4 0.358182 0.064612 0.591975
Si Si5 0.463714 0.715130 0.144672
Si Si6 0.602643 0.160335 0.960327
Si Si7 0.040634 0.282150 0.454016
Si Si8 0.273370 0.833840 0.446914
O O1 0.959792 0.873911 0.927247
O O2 0.304640 0.101163 0.064523
O O3 0.870727 0.743446 0.357498
O O4 0.000000 0.000000 0.000000
O O5 0.819337 0.008638 0.347945
O O6 0.604417 0.770839 0.330527
O O7 0.000000 0.000000 0.500000
O O8 0.391333 0.709354 0.632323
O O9 0.176067 0.669815 0.635982
O O10 0.000000 0.500000 0.500000
O O11 0.882783 0.329418 0.918519
O O12 0.484310 0.098430 0.786069
O O13 0.181173 0.893414 0.584927
O O14 0.378531 0.740652 0.088490
O O15 0.259988 0.505735 0.231476
O O16 0.398042 0.954115 0.200885
O O17 0.931468 0.250900 0.552095
O O18 0.500000 0.000000 0.500000
#
# Coordination Sequence:
#
# PCOD9005298 Si02
#       8
#     2   2   2   2   2   2   2   2
#     4  10  22  41  67  91 122 162 204 265 313 360
#     4   9  19  42  66  85 125 166 197 255 318 368
#     4  10  22  39  62  91 123 167 213 252 308 368
#     4  10  21  38  61  91 124 165 204 260 309 366
#     4   9  21  38  66  88 120 165 200 256 311 362
#     4  10  21  44  61  84 130 169 209 251 317 368
#     4  12  21  40  64  93 126 158 214 257 309 375
#     4  12  23  40  62  92 126 172 209 261 310 369
#
# _framework density 21.801328000000002
#
# number of rings (size 3 to 8) (size 9 to 14) (size 15 to 20)
#    0.750    1.000    3.750    0.750    0.000    3.000 
#    2.250    1.875    5.500    0.000    0.000    0.000 
#    0.000    0.000    0.000    0.000    0.000    0.000 
#
# Total GULP energy -89176.322747 kJ/mol
# GULP energy per Si atom -5573.520172 kJ/mol
# Density = 2.175171 g / cm^3
# Si number density = 21.801328 Si / 1000 Ang^3
#
#
#
# Elastic Constant Matrix: (Units=GPa)
#
#
# Indices 1 2 3 4 5 6 
#
# 1 92.9887 1.5035 8.5627 8.2115 -5.1907 -17.7387
# 2 1.5035 65.0205 6.8681 3.4122 -1.4727 -11.6369
# 3 8.5627 6.8681 59.4191 3.0181 -3.3135 5.6231
# 4 8.2115 3.4122 3.0181 29.7690 4.6965 5.3488
# 5 -5.1907 -1.4727 -3.3135 4.6965 26.9189 -1.0563
# 6 -17.7387 -11.6369 5.6231 5.3488 -1.0563 22.4027
#
#
#
# Elastic Compliance Matrix: (Units=1/GPa)
#
#
# Indices 1 2 3 4 5 6 
#
# 1 0.015236 0.003589 -0.003541 -0.008056 0.004770 0.016965
# 2 0.003589 0.018752 -0.003646 -0.005930 0.002894 0.015050
# 3 -0.003541 -0.003646 0.018662 0.001095 0.000847 -0.009603
# 4 -0.008056 -0.005930 0.001095 0.041540 -0.009780 -0.020113
# 5 0.004770 0.002894 0.000847 -0.009780 0.040402 0.009307
# 6 0.016965 0.015050 -0.009603 -0.020113 0.009307 0.073540
#
#
# Mechanical properties :
#
#
# Convention : Reuss Voigt Hill
#
# Bulk Modulus (GPa) = 22.00058 27.92188 24.96123
# Shear Modulus (GPa) = 21.69390 29.18438 25.43914
#
# Velocity S-wave (km/s) = 3.15790 3.66273 3.41964
# Velocity P-wave (km/s) = 4.83836 5.54280 5.20252
#
# Compressibility (1/GPa) = 0.04545335
#
# Stress axis : x y z
#
# Youngs Moduli (GPa) = 65.63426 53.32697 53.58546
#
# Poissons Ratio (x) = -0.19138 0.18973
# Poissons Ratio (y) = -0.23555 0.19539
# Poissons Ratio (z) = 0.23240 0.19445
#
# Static dielectric constant tensor:
#      x y z
#    x 1.886900 -0.006750 -0.073390 
#    y -0.006750 1.777210 0.026740 
#    z -0.073390 0.026740 1.961840 
# 
# From -- ./inp_files/338437.got.cif
#   From: 2010.05.17/outbox.cif.g08.bks.cpg/sg2_170_cif.got.tgz:338437.got - 2010.06.03 11:33:40.
