data_PCOD9005762
_publ_section_title
;
Structure prediction by ZEFSAII (Michael W. Deem and Ramdas Pophale) SiO2 
 PCOD9005762
Probable space group: P -1
;
_chemical_formula_sum "Si O2"
_cell_formula_units_Z 15
_cell_length_a 7.736936
_cell_length_b 12.429031
_cell_length_c 8.490768
_cell_angle_alpha 130.753142
_cell_angle_beta 73.213882
_cell_angle_gamma 101.706917
_cell_volume 592.046660
_symmetry_space_group_name_H-M "P -1"
_symmetry_group_IT_number 2
_symmetry_cell_setting 'triclinic'
loop_
_space_group_symop_operation_xyz
x,y,z
-x,-y,-z
loop_
_atom_site_type_symbol
_atom_site_label
_atom_site_fract_x
_atom_site_fract_y
_atom_site_fract_z
Si Si1 0.486757 0.414430 0.654389
Si Si2 0.805476 0.467862 0.941032
Si Si3 0.761757 0.945437 0.464410
Si Si4 0.957936 0.623227 0.753532
Si Si5 0.640922 0.701569 0.733836
Si Si6 0.122698 0.797109 0.147786
Si Si7 0.500000 0.000000 0.000000
Si Si8 0.634947 0.135401 0.414118
O O1 0.554750 0.561423 0.701297
O O2 0.352829 0.337508 0.489470
O O3 0.645123 0.304036 0.542523
O O4 0.363354 0.451961 0.867965
O O5 0.840739 0.537313 0.830666
O O6 0.781211 0.304402 0.847806
O O7 0.000000 0.500000 0.000000
O O8 0.563482 0.879107 0.465795
O O9 0.918748 0.833021 0.293793
O O10 0.788302 0.044412 0.708807
O O11 0.767188 0.051177 0.413424
O O12 0.833359 0.729078 0.789914
O O13 0.000000 0.500000 0.500000
O O14 0.103729 0.712909 0.906234
O O15 0.521422 0.837687 0.906733
O O16 0.381808 0.938292 0.820251
#
# Coordination Sequence:
#
# PCOD9005762 Si02
#       8
#     2   2   2   2   2   2   1   2
#     4  10  22  40  66  95 133 172 224 274 333 400
#     4  10  21  38  63  92 129 173 218 266 325 394
#     4  10  22  40  66  91 132 173 220 271 325 398
#     4  11  23  41  67  95 131 176 223 280 337 394
#     4  10  22  40  64  97 131 172 217 278 337 399
#     4  10  22  41  61  95 130 172 223 268 329 400
#     4  10  22  38  62  94 134 166 212 270 340 392
#     4  10  21  40  64  95 128 174 216 273 328 390
#
# _framework density 25.335842
#
# number of rings (size 3 to 8) (size 9 to 14) (size 15 to 20)
#    0.000    1.867    0.000    4.000    3.733    2.667 
#    2.400    0.000    0.000    6.400    0.000    0.000 
#    0.000    0.000    0.000    0.000    0.000    0.000 
#
# Total GULP energy -83611.948640 kJ/mol
# GULP energy per Si atom -5574.129909 kJ/mol
# Density = 2.527818 g / cm^3
# Si number density = 25.335842 Si / 1000 Ang^3
#
#
#
# Elastic Constant Matrix: (Units=GPa)
#
#
# Indices 1 2 3 4 5 6 
#
# 1 48.9755 10.4645 28.1918 -0.8001 16.9988 -24.6411
# 2 10.4645 102.7967 48.6142 18.8121 8.4065 -30.6370
# 3 28.1918 48.6142 147.1541 9.5214 -0.2063 -13.9637
# 4 -0.8001 18.8121 9.5214 49.8824 5.2855 8.7795
# 5 16.9988 8.4065 -0.2063 5.2855 32.9209 -1.4980
# 6 -24.6411 -30.6370 -13.9637 8.7795 -1.4980 47.2851
#
#
#
# Elastic Compliance Matrix: (Units=1/GPa)
#
#
# Indices 1 2 3 4 5 6 
#
# 1 0.046615 0.011124 -0.009670 -0.003982 -0.025031 0.028590
# 2 0.011124 0.018856 -0.006213 -0.007901 -0.008539 0.017376
# 3 -0.009670 -0.006213 0.010097 0.000654 0.006265 -0.006006
# 4 -0.003982 -0.007901 0.000654 0.024936 -0.000456 -0.011645
# 5 -0.025031 -0.008539 0.006265 -0.000456 0.044901 -0.015219
# 6 0.028590 0.017376 -0.006006 -0.011645 -0.015219 0.047212
#
#
# Mechanical properties :
#
#
# Convention : Reuss Voigt Hill
#
# Bulk Modulus (GPa) = 15.13951 52.60748 33.87349
# Shear Modulus (GPa) = 22.30627 40.12807 31.21717
#
# Velocity S-wave (km/s) = 2.97041 3.98407 3.51399
# Velocity P-wave (km/s) = 4.21343 6.47865 5.46470
#
# Compressibility (1/GPa) = 0.06605233
#
# Stress axis : x y z
#
# Youngs Moduli (GPa) = 21.45213 53.03241 99.03737
#
# Poissons Ratio (x) = -0.58995 0.95770
# Poissons Ratio (y) = -0.23864 0.61527
# Poissons Ratio (z) = 0.20744 0.32947
#
# Static dielectric constant tensor:
#      x y z
#    x 2.030670 0.012840 0.037870 
#    y 0.012840 2.053140 -0.039190 
#    z 0.037870 -0.039190 2.067510 
# 
# From -- ./inp_files/183129.got.cif
#   From: 2010.05.17/outbox.cif.g08.bks.cpg/sg2_92_cif.got.tgz:183129.got - 2010.06.03 11:33:40.
