data_PCOD9005077
_publ_section_title
;
Structure prediction by ZEFSAII (Michael W. Deem and Ramdas Pophale) SiO2 
 PCOD9005077
Probable space group: P -1
;
_chemical_formula_sum "Si O2"
_cell_formula_units_Z 12
_cell_length_a 11.958910
_cell_length_b 8.224682
_cell_length_c 12.355317
_cell_angle_alpha 99.953128
_cell_angle_beta 58.833957
_cell_angle_gamma 52.814010
_cell_volume 581.374416
_symmetry_space_group_name_H-M "P -1"
_symmetry_group_IT_number 2
_symmetry_cell_setting 'triclinic'
loop_
_space_group_symop_operation_xyz
x,y,z
-x,-y,-z
loop_
_atom_site_type_symbol
_atom_site_label
_atom_site_fract_x
_atom_site_fract_y
_atom_site_fract_z
Si Si1 0.490022 0.906817 0.386571
Si Si2 0.886303 0.290521 0.060861
Si Si3 0.207869 0.021604 0.383663
Si Si4 0.294452 0.093249 0.909574
Si Si5 0.282557 0.558714 0.304225
Si Si6 0.671284 0.608791 0.980060
O O1 0.253926 0.089244 0.472676
O O2 0.605915 0.902618 0.238013
O O3 0.500000 0.000000 0.500000
O O4 0.650355 0.577649 0.274624
O O5 0.062894 0.247944 0.005194
O O6 0.819912 0.375078 0.977018
O O7 0.000000 0.000000 0.000000
O O8 0.259644 0.777249 0.359826
O O9 0.402245 0.867956 0.180414
O O10 0.940789 0.300250 0.517341
O O11 0.481205 0.762244 0.808560
O O12 0.271571 0.255214 0.033245
O O13 0.279731 0.528244 0.173299
#
# Coordination Sequence:
#
# PCOD9005077 Si02
#       6
#     2   2   2   2   2   2
#     4  10  22  40  61  88 120 161 195 255 298 349
#     4  10  21  40  61  89 119 155 206 248 291 367
#     4   9  22  38  58  86 126 152 203 242 293 361
#     4  10  21  38  60  90 118 150 206 244 295 363
#     4  11  21  39  61  88 122 160 192 251 301 357
#     4  10  21  38  62  85 119 162 196 245 303 351
#
# _framework density 20.640741999999999
#
# number of rings (size 3 to 8) (size 9 to 14) (size 15 to 20)
#    0.000    2.333    0.000    5.000    4.667    2.667 
#    9.000    1.667    0.000    0.000    0.000    0.000 
#    0.000    0.000    0.000    0.000    0.000    0.000 
#
# Total GULP energy -66982.278395 kJ/mol
# GULP energy per Si atom -5581.856533 kJ/mol
# Density = 2.059376 g / cm^3
# Si number density = 20.640742 Si / 1000 Ang^3
#
#
#
# Elastic Constant Matrix: (Units=GPa)
#
#
# Indices 1 2 3 4 5 6 
#
# 1 96.5173 -16.9743 24.8505 -15.6614 -2.8573 -8.6699
# 2 -16.9743 45.3458 4.5134 13.9730 8.0745 -9.4961
# 3 24.8505 4.5134 38.4039 1.8286 -8.0008 -11.9253
# 4 -15.6614 13.9730 1.8286 18.2572 -1.3362 -6.4711
# 5 -2.8573 8.0745 -8.0008 -1.3362 40.2500 7.4061
# 6 -8.6699 -9.4961 -11.9253 -6.4711 7.4061 24.3360
#
#
#
# Elastic Compliance Matrix: (Units=1/GPa)
#
#
# Indices 1 2 3 4 5 6 
#
# 1 0.016782 0.005057 -0.010395 0.013996 -0.002792 0.007430
# 2 0.005057 0.034125 -0.005159 -0.018162 -0.010109 0.010836
# 3 -0.010395 -0.005159 0.037854 -0.004874 0.005865 0.009752
# 4 0.013996 -0.018162 -0.004874 0.087730 0.003299 0.017835
# 5 -0.002792 -0.010109 0.005865 0.003299 0.029839 -0.010269
# 6 0.007430 0.010836 0.009752 0.017835 -0.010269 0.060613
#
#
# Mechanical properties :
#
#
# Convention : Reuss Voigt Hill
#
# Bulk Modulus (GPa) = 14.75639 22.78291 18.76965
# Shear Modulus (GPa) = 16.10164 27.76047 21.93106
#
# Velocity S-wave (km/s) = 2.79604 3.67132 3.26316
# Velocity P-wave (km/s) = 4.19386 5.38825 4.82813
#
# Compressibility (1/GPa) = 0.06776726
#
# Stress axis : x y z
#
# Youngs Moduli (GPa) = 59.58609 29.30393 26.41734
#
# Poissons Ratio (x) = -0.14819 0.27461
# Poissons Ratio (y) = -0.30133 0.13629
# Poissons Ratio (z) = 0.61939 0.15118
#
# Static dielectric constant tensor:
#      x y z
#    x 1.771950 0.008660 0.005920 
#    y 0.008660 1.732600 0.018280 
#    z 0.005920 0.018280 1.767370 
# 
# From -- ./inp_files/157171.got.cif
#   From: 2010.05.17/outbox.cif.g08.bks.cpg/sg2_79_cif.got.tgz:157171.got - 2010.06.03 11:33:40.
