data_PCOD9005821
_publ_section_title
;
Structure prediction by ZEFSAII (Michael W. Deem and Ramdas Pophale) SiO2 
 PCOD9005821
Probable space group: P -1
;
_chemical_formula_sum "Si O2"
_cell_formula_units_Z 16
_cell_length_a 20.243350
_cell_length_b 6.514752
_cell_length_c 19.855056
_cell_angle_alpha 64.550990
_cell_angle_beta 20.842273
_cell_angle_gamma 75.572156
_cell_volume 740.537617
_symmetry_space_group_name_H-M "P -1"
_symmetry_group_IT_number 2
_symmetry_cell_setting 'triclinic'
loop_
_space_group_symop_operation_xyz
x,y,z
-x,-y,-z
loop_
_atom_site_type_symbol
_atom_site_label
_atom_site_fract_x
_atom_site_fract_y
_atom_site_fract_z
Si Si1 0.299989 0.584895 0.373282
Si Si2 0.284916 0.724095 0.518038
Si Si3 0.824295 0.413905 0.999424
Si Si4 0.449865 0.521396 0.639546
Si Si5 0.210217 0.093995 0.829336
Si Si6 0.563498 0.827478 0.869272
Si Si7 0.181306 0.448862 0.366230
Si Si8 0.582105 0.324765 0.116948
O O1 0.249338 0.575087 0.501443
O O2 0.143223 0.409739 0.488336
O O3 0.489675 0.517051 0.195234
O O4 0.358799 0.873563 0.255078
O O5 0.406660 0.617913 0.464181
O O6 0.422080 0.030082 0.333570
O O7 0.048686 0.641372 0.777039
O O8 0.640877 0.439785 0.209886
O O9 0.786789 0.412346 0.955426
O O10 0.808368 0.145309 0.076319
O O11 0.261246 0.330799 0.797731
O O12 0.593995 0.785908 0.426010
O O13 0.000000 0.000000 0.000000
O O14 0.763820 0.771802 0.683125
O O15 0.417109 0.691368 0.962137
O O16 0.408873 0.696388 0.097568
O O17 0.000000 0.500000 0.500000
#
# Coordination Sequence:
#
# PCOD9005821 Si02
#       8
#     2   2   2   2   2   2   2   2
#     4  10  21  42  62  87 129 167 203 261 309 360
#     4  11  23  41  62  94 125 162 218 257 309 378
#     4  12  24  40  68  91 122 174 204 258 324 365
#     4  11  24  43  64  93 127 160 211 261 310 379
#     4  11  24  44  66  93 126 164 207 260 318 377
#     4   9  21  41  61  88 131 161 203 260 304 364
#     4  10  21  38  63  95 123 164 207 252 308 369
#     4  10  22  42  62  91 129 166 210 262 309 368
#
# _framework density 21.605924000000002
#
# number of rings (size 3 to 8) (size 9 to 14) (size 15 to 20)
#    0.000    1.500    3.750    0.750    1.750    3.000 
#    6.750    0.000    0.000    0.000    0.000    0.000 
#    0.000    0.000    0.000    0.000    0.000    0.000 
#
# Total GULP energy -89303.655494 kJ/mol
# GULP energy per Si atom -5581.478468 kJ/mol
# Density = 2.155675 g / cm^3
# Si number density = 21.605924 Si / 1000 Ang^3
#
#
#
# Elastic Constant Matrix: (Units=GPa)
#
#
# Indices 1 2 3 4 5 6 
#
# 1 104.0324 19.4178 9.5873 14.3429 -21.2084 -5.6239
# 2 19.4178 67.7303 10.6223 13.5925 -16.9564 -14.1370
# 3 9.5873 10.6223 37.5862 3.2721 -20.5567 4.4786
# 4 14.3429 13.5925 3.2721 22.9523 -1.5831 2.2895
# 5 -21.2084 -16.9564 -20.5567 -1.5831 37.1122 5.6197
# 6 -5.6239 -14.1370 4.4786 2.2895 5.6197 39.2593
#
#
#
# Elastic Compliance Matrix: (Units=1/GPa)
#
#
# Indices 1 2 3 4 5 6 
#
# 1 0.012009 -0.000279 0.001406 -0.007137 0.007079 0.000862
# 2 -0.000279 0.020801 -0.002049 -0.012143 0.006563 0.007453
# 3 0.001406 -0.002049 0.041108 -0.003042 0.023787 -0.008453
# 4 -0.007137 -0.012143 -0.003042 0.055829 -0.007843 -0.007181
# 5 0.007079 0.006563 0.023787 -0.007843 0.047695 -0.005706
# 6 0.000862 0.007453 -0.008453 -0.007181 -0.005706 0.030479
#
#
# Mechanical properties :
#
#
# Convention : Reuss Voigt Hill
#
# Bulk Modulus (GPa) = 13.87455 32.06706 22.97080
# Shear Modulus (GPa) = 21.38680 31.17952 26.28316
#
# Velocity S-wave (km/s) = 3.14961 3.80294 3.49159
# Velocity P-wave (km/s) = 4.43422 5.84441 5.18746
#
# Compressibility (1/GPa) = 0.07207443
#
# Stress axis : x y z
#
# Youngs Moduli (GPa) = 83.27361 48.07364 24.32625
#
# Poissons Ratio (x) = 0.01340 -0.03420
# Poissons Ratio (y) = 0.02321 0.04984
# Poissons Ratio (z) = -0.11707 0.09850
#
# Static dielectric constant tensor:
#      x y z
#    x 1.821080 0.018440 -0.006830 
#    y 0.018440 1.774920 0.010130 
#    z -0.006830 0.010130 1.779280 
# 
# From -- ./inp_files/12924.got.cif
#   From: 2010.05.17/outbox.cif.g08.bks.cpg/sg2_7_cif.got.tgz:12924.got - 2010.06.03 11:33:40.
