data_PCOD9005396
_publ_section_title
;
Structure prediction by ZEFSAII (Michael W. Deem and Ramdas Pophale) SiO2 
 PCOD9005396
Probable space group: P -1
;
_chemical_formula_sum "Si O2"
_cell_formula_units_Z 16
_cell_length_a 10.879279
_cell_length_b 10.971581
_cell_length_c 16.441331
_cell_angle_alpha 56.306535
_cell_angle_beta 145.407679
_cell_angle_gamma 101.317975
_cell_volume 773.397587
_symmetry_space_group_name_H-M "P -1"
_symmetry_group_IT_number 2
_symmetry_cell_setting 'triclinic'
loop_
_space_group_symop_operation_xyz
x,y,z
-x,-y,-z
loop_
_atom_site_type_symbol
_atom_site_label
_atom_site_fract_x
_atom_site_fract_y
_atom_site_fract_z
Si Si1 0.214637 0.835792 0.092974
Si Si2 0.701510 0.117363 0.610710
Si Si3 0.377834 0.543332 0.614144
Si Si4 0.799269 0.848174 0.972077
Si Si5 0.100035 0.411534 0.732436
Si Si6 0.529762 0.476811 0.145796
Si Si7 0.065952 0.703783 0.693916
Si Si8 0.380708 0.988096 0.568926
O O1 0.424175 0.655444 0.231921
O O2 0.321556 0.948903 0.144334
O O3 0.072565 0.794181 0.101216
O O4 0.979826 0.972378 0.854367
O O5 0.632902 0.313593 0.504370
O O6 0.489106 0.099836 0.548374
O O7 0.698419 0.073708 0.530309
O O8 0.087202 0.586517 0.437485
O O9 0.460080 0.566247 0.739396
O O10 0.620401 0.841440 0.808068
O O11 0.828102 0.736003 0.107232
O O12 0.353478 0.400483 0.841607
O O13 0.952322 0.599310 0.629412
O O14 0.732933 0.313948 0.259048
O O15 0.251812 0.580866 0.913946
O O16 0.857562 0.890857 0.546235
#
# Coordination Sequence:
#
# PCOD9005396 Si02
#       8
#     2   2   2   2   2   2   2   2
#     4  10  22  40  59  90 126 150 192 248 294 357
#     4  10  23  39  58  96 123 150 194 244 292 368
#     4  12  22  38  65  85 122 164 188 239 313 339
#     4  10  21  39  59  90 122 150 198 247 288 357
#     4  10  21  38  62  85 117 157 199 242 291 345
#     4   9  22  39  59  88 116 152 209 248 276 356
#     4   9  20  40  64  80 116 156 198 248 290 338
#     4  10  21  40  60  87 125 151 194 245 296 354
#
# _framework density 20.687937000000002
#
# number of rings (size 3 to 8) (size 9 to 14) (size 15 to 20)
#    0.750    1.250    1.250    1.875    3.500    0.500 
#    0.000    6.875    0.000    0.000    0.000    0.000 
#    0.000    0.000    0.000    0.000    0.000    0.000 
#
# Total GULP energy -89264.658810 kJ/mol
# GULP energy per Si atom -5579.041176 kJ/mol
# Density = 2.064085 g / cm^3
# Si number density = 20.687937 Si / 1000 Ang^3
#
#
#
# Elastic Constant Matrix: (Units=GPa)
#
#
# Indices 1 2 3 4 5 6 
#
# 1 29.8286 -1.3411 10.1500 -16.9617 -5.2928 -0.2253
# 2 -1.3411 42.8934 9.5707 3.5504 -5.6913 -2.5411
# 3 10.1500 9.5707 54.7116 2.4930 -7.3443 -8.5369
# 4 -16.9617 3.5504 2.4930 31.4913 -1.6508 -9.4128
# 5 -5.2928 -5.6913 -7.3443 -1.6508 20.5678 1.1385
# 6 -0.2253 -2.5411 -8.5369 -9.4128 1.1385 26.0092
#
#
#
# Elastic Compliance Matrix: (Units=1/GPa)
#
#
# Indices 1 2 3 4 5 6 
#
# 1 0.061080 0.003741 -0.009963 0.037192 0.015605 0.010401
# 2 0.003741 0.025247 -0.004109 0.000102 0.006439 0.000905
# 3 -0.009963 -0.004109 0.022315 -0.005029 0.003595 0.004859
# 4 0.037192 0.000102 -0.005029 0.058564 0.011431 0.019376
# 5 0.015605 0.006439 0.003595 0.011431 0.056418 0.003612
# 6 0.010401 0.000905 0.004859 0.019376 0.003612 0.047075
#
#
# Mechanical properties :
#
#
# Convention : Reuss Voigt Hill
#
# Bulk Modulus (GPa) = 11.36638 18.24364 14.80501
# Shear Modulus (GPa) = 15.59144 22.88393 19.23769
#
# Velocity S-wave (km/s) = 2.74825 3.32949 3.05273
# Velocity P-wave (km/s) = 3.94672 4.85987 4.42690
#
# Compressibility (1/GPa) = 0.08797875
#
# Stress axis : x y z
#
# Youngs Moduli (GPa) = 16.37206 39.60850 44.81347
#
# Poissons Ratio (x) = -0.14817 0.44647
# Poissons Ratio (y) = -0.06125 0.18416
# Poissons Ratio (z) = 0.16311 0.16277
#
# Static dielectric constant tensor:
#      x y z
#    x 1.726260 0.009190 -0.010240 
#    y 0.009190 1.773100 0.015720 
#    z -0.010240 0.015720 1.712720 
# 
# From -- ./inp_files/524122.got.cif
#   From: 2010.05.17/outbox.cif.g08.bks.cpg/sg2_263_cif.got.tgz:524122.got - 2010.06.03 11:33:40.
