data_PCOD9005333
_publ_section_title
;
Structure prediction by ZEFSAII (Michael W. Deem and Ramdas Pophale) SiO2 
 PCOD9005333
Probable space group: P -1
;
_chemical_formula_sum "Si O2"
_cell_formula_units_Z 14
_cell_length_a 11.334298
_cell_length_b 8.247461
_cell_length_c 8.764750
_cell_angle_alpha 88.924904
_cell_angle_beta 41.067041
_cell_angle_gamma 93.557595
_cell_volume 534.518233
_symmetry_space_group_name_H-M "P -1"
_symmetry_group_IT_number 2
_symmetry_cell_setting 'triclinic'
loop_
_space_group_symop_operation_xyz
x,y,z
-x,-y,-z
loop_
_atom_site_type_symbol
_atom_site_label
_atom_site_fract_x
_atom_site_fract_y
_atom_site_fract_z
Si Si1 0.907731 0.669208 0.433932
Si Si2 0.781243 0.189388 0.677026
Si Si3 0.167168 0.932128 0.080662
Si Si4 0.246125 0.278039 0.853778
Si Si5 0.556651 0.186111 0.384329
Si Si6 0.872703 0.342417 0.288073
Si Si7 0.411225 0.328864 0.023834
O O1 0.851458 0.503635 0.402461
O O2 0.754817 0.712043 0.697578
O O3 0.094127 0.668379 0.351572
O O4 0.980155 0.816783 0.246919
O O5 0.864796 0.199561 0.427745
O O6 0.810251 0.038582 0.760887
O O7 0.572608 0.214618 0.866008
O O8 0.339933 0.835452 0.873246
O O9 0.183210 0.088746 0.958150
O O10 0.346814 0.341659 0.911171
O O11 0.066190 0.362746 0.018500
O O12 0.382862 0.280542 0.578892
O O13 0.710975 0.283260 0.335471
O O14 0.500000 0.000000 0.500000
O O15 0.500000 0.500000 0.000000
#
# Coordination Sequence:
#
# PCOD9005333 Si02
#       7
#     2   2   2   2   2   2   2
#     4  10  22  40  60  94 128 148 203 258 294 367
#     4  10  21  38  61  93 121 157 196 255 301 351
#     4   9  24  43  57  89 133 152 202 257 300 352
#     4  11  22  40  65  90 118 165 207 243 301 373
#     4  10  23  45  59  88 125 163 206 249 294 371
#     4  12  21  39  71  86 119 166 203 244 312 352
#     4  12  20  35  66  93 120 160 203 247 305 357
#
# _framework density 26.191811000000001
#
# number of rings (size 3 to 8) (size 9 to 14) (size 15 to 20)
#    0.857    0.571    4.286    1.286    0.000    5.714 
#    7.714    0.714    0.000    0.000    0.000    0.000 
#    0.000    0.000    0.000    0.000    0.000    0.000 
#
# Total GULP energy -78346.660451 kJ/mol
# GULP energy per Si atom -5596.190032 kJ/mol
# Density = 2.613220 g / cm^3
# Si number density = 26.191811 Si / 1000 Ang^3
#
#
#
# Elastic Constant Matrix: (Units=GPa)
#
#
# Indices 1 2 3 4 5 6 
#
# 1 85.5483 25.5471 35.0774 0.2264 -22.8070 1.0197
# 2 25.5471 98.5947 44.5529 0.2790 -6.0570 24.7906
# 3 35.0774 44.5529 204.3780 9.2833 -15.7689 14.6155
# 4 0.2264 0.2790 9.2833 36.4412 2.8432 1.7395
# 5 -22.8070 -6.0570 -15.7689 2.8432 43.5873 -9.5187
# 6 1.0197 24.7906 14.6155 1.7395 -9.5187 27.9435
#
#
#
# Elastic Compliance Matrix: (Units=1/GPa)
#
#
# Indices 1 2 3 4 5 6 
#
# 1 0.016026 -0.004815 -0.001524 -0.000726 0.008861 0.007548
# 2 -0.004815 0.015562 -0.001946 0.001413 -0.004242 -0.014145
# 3 -0.001524 -0.001946 0.005778 -0.001481 0.000938 -0.000828
# 4 -0.000726 0.001413 -0.001481 0.028228 -0.003288 -0.003329
# 5 0.008861 -0.004242 0.000938 -0.003288 0.030501 0.013544
# 6 0.007548 -0.014145 -0.000828 -0.003329 0.013544 0.053315
#
#
# Mechanical properties :
#
#
# Convention : Reuss Voigt Hill
#
# Bulk Modulus (GPa) = 48.08807 66.54177 57.31492
# Shear Modulus (GPa) = 28.91654 40.48398 34.70026
#
# Velocity S-wave (km/s) = 3.32630 3.93577 3.64380
# Velocity P-wave (km/s) = 5.75779 6.79076 6.29550
#
# Compressibility (1/GPa) = 0.02079518
#
# Stress axis : x y z
#
# Youngs Moduli (GPa) = 62.39669 64.26059 173.08500
#
# Poissons Ratio (x) = 0.30944 0.26378
# Poissons Ratio (y) = 0.30047 0.33678
# Poissons Ratio (z) = 0.09509 0.12504
#
# Static dielectric constant tensor:
#      x y z
#    x 2.062370 -0.072710 0.005830 
#    y -0.072710 2.103090 -0.035660 
#    z 0.005830 -0.035660 2.044470 
# 
# From -- ./inp_files/447740.got.cif
#   From: 2010.05.17/outbox.cif.g08.bks.cpg/sg2_224_cif.got.tgz:447740.got - 2010.06.03 11:33:40.
