data_PCOD9005386
_publ_section_title
;
Structure prediction by ZEFSAII (Michael W. Deem and Ramdas Pophale) SiO2 
 PCOD9005386
Probable space group: P -1
;
_chemical_formula_sum "Si O2"
_cell_formula_units_Z 16
_cell_length_a 9.512393
_cell_length_b 15.144608
_cell_length_c 8.912125
_cell_angle_alpha 60.185550
_cell_angle_beta 104.908056
_cell_angle_gamma 61.843987
_cell_volume 752.180130
_symmetry_space_group_name_H-M "P -1"
_symmetry_group_IT_number 2
_symmetry_cell_setting 'triclinic'
loop_
_space_group_symop_operation_xyz
x,y,z
-x,-y,-z
loop_
_atom_site_type_symbol
_atom_site_label
_atom_site_fract_x
_atom_site_fract_y
_atom_site_fract_z
Si Si1 0.031797 0.359420 0.965252
Si Si2 0.047095 0.372104 0.320284
Si Si3 0.920517 0.138216 0.273755
Si Si4 0.210094 0.695413 0.623352
Si Si5 0.439560 0.452000 0.392821
Si Si6 0.111227 0.987684 0.891714
Si Si7 0.307304 0.051555 0.314661
Si Si8 0.493424 0.821326 0.309449
O O1 0.035200 0.472210 0.809575
O O2 0.804572 0.425873 0.817025
O O3 0.070943 0.348626 0.165227
O O4 0.201017 0.199531 0.075671
O O5 0.273849 0.251415 0.561161
O O6 0.892953 0.363548 0.344123
O O7 0.766441 0.273653 0.227375
O O8 0.843614 0.131569 0.101849
O O9 0.123885 0.103790 0.327277
O O10 0.000000 0.000000 0.500000
O O11 0.419948 0.592857 0.674137
O O12 0.045157 0.854030 0.362128
O O13 0.500000 0.500000 0.500000
O O14 0.489095 0.309685 0.568156
O O15 0.331854 0.927551 0.043982
O O16 0.000000 0.000000 0.000000
O O17 0.500000 0.000000 0.500000
O O18 0.382283 0.921941 0.342006
#
# Coordination Sequence:
#
# PCOD9005386 Si02
#       8
#     2   2   2   2   2   2   2   2
#     4  10  23  42  66  93 137 180 226 263 344 406
#     4  10  22  44  64  96 138 177 222 280 326 406
#     4  10  21  38  62 101 137 160 219 286 326 385
#     4  11  22  43  68  99 134 171 231 283 326 396
#     4  11  26  43  69  96 134 184 223 275 341 411
#     4  11  21  37  70 101 137 176 220 279 339 391
#     4  12  21  39  71  98 129 176 222 268 332 397
#     4  11  22  41  68  99 132 179 224 268 336 407
#
# _framework density 21.2715
#
# number of rings (size 3 to 8) (size 9 to 14) (size 15 to 20)
#    0.000    1.250    5.000    0.750    3.500    1.000 
#    0.000    2.500    2.750    0.000    0.000    0.000 
#    0.000    0.000    0.000    0.000    0.000    0.000 
#
# Total GULP energy -89430.084266 kJ/mol
# GULP energy per Si atom -5589.380267 kJ/mol
# Density = 2.122308 g / cm^3
# Si number density = 21.271500 Si / 1000 Ang^3
#
#
#
# Elastic Constant Matrix: (Units=GPa)
#
#
# Indices 1 2 3 4 5 6 
#
# 1 81.4313 39.5436 22.4208 2.7813 6.6431 21.6463
# 2 39.5436 131.4401 28.4064 1.2151 12.6582 18.6863
# 3 22.4208 28.4064 91.2522 -7.8529 22.9967 11.9362
# 4 2.7813 1.2151 -7.8529 37.4011 7.1307 0.6485
# 5 6.6431 12.6582 22.9967 7.1307 37.6520 3.1652
# 6 21.6463 18.6863 11.9362 0.6485 3.1652 27.2379
#
#
#
# Elastic Compliance Matrix: (Units=1/GPa)
#
#
# Indices 1 2 3 4 5 6 
#
# 1 0.017272 -0.003273 -0.002103 -0.001535 0.000518 -0.010583
# 2 -0.003273 0.009477 -0.001355 -0.000005 -0.001517 -0.003130
# 3 -0.002103 -0.001355 0.015023 0.005136 -0.009065 -0.003051
# 4 -0.001535 -0.000005 0.005136 0.029544 -0.008396 -0.000755
# 5 0.000518 -0.001517 -0.009065 -0.008396 0.034033 0.000847
# 6 -0.010583 -0.003130 -0.003051 -0.000755 0.000847 0.048528
#
#
# Mechanical properties :
#
#
# Convention : Reuss Voigt Hill
#
# Bulk Modulus (GPa) = 35.32327 53.87391 44.59859
# Shear Modulus (GPa) = 28.28463 34.70839 31.49651
#
# Velocity S-wave (km/s) = 3.65046 4.04379 3.85215
# Velocity P-wave (km/s) = 5.86598 6.86912 6.38727
#
# Compressibility (1/GPa) = 0.02830995
#
# Stress axis : x y z
#
# Youngs Moduli (GPa) = 57.89682 105.52336 66.56595
#
# Poissons Ratio (x) = 0.34537 0.14001
# Poissons Ratio (y) = 0.18949 0.09017
# Poissons Ratio (z) = 0.12177 0.14294
#
# Static dielectric constant tensor:
#      x y z
#    x 1.825320 0.059040 -0.058070 
#    y 0.059040 1.810370 -0.029390 
#    z -0.058070 -0.029390 1.834570 
# 
# From -- ./inp_files/205976.got.cif
#   From: 2010.05.17/outbox.cif.g08.bks.cpg/sg2_103_cif.got.tgz:205976.got - 2010.06.03 11:33:40.
