data_PCOD9005652
_publ_section_title
;
Structure prediction by ZEFSAII (Michael W. Deem and Ramdas Pophale) SiO2 
 PCOD9005652
Probable space group: P -1
;
_chemical_formula_sum "Si O2"
_cell_formula_units_Z 12
_cell_length_a 11.738565
_cell_length_b 5.265674
_cell_length_c 10.296441
_cell_angle_alpha 85.442743
_cell_angle_beta 67.386124
_cell_angle_gamma 123.809854
_cell_volume 451.022006
_symmetry_space_group_name_H-M "P -1"
_symmetry_group_IT_number 2
_symmetry_cell_setting 'triclinic'
loop_
_space_group_symop_operation_xyz
x,y,z
-x,-y,-z
loop_
_atom_site_type_symbol
_atom_site_label
_atom_site_fract_x
_atom_site_fract_y
_atom_site_fract_z
Si Si1 0.452628 0.677731 0.601305
Si Si2 0.549718 0.483957 0.780231
Si Si3 0.134962 0.385912 0.886019
Si Si4 0.145723 0.399043 0.422513
Si Si5 0.004918 0.555888 0.271436
Si Si6 0.265221 0.282759 0.044184
O O1 0.500000 0.500000 0.500000
O O2 0.546161 0.746891 0.693461
O O3 0.263412 0.440808 0.725051
O O4 0.500000 0.000000 0.500000
O O5 0.677607 0.484344 0.645944
O O6 0.625492 0.554192 0.885187
O O7 0.359465 0.217887 0.904637
O O8 0.078533 0.569886 0.829186
O O9 0.233108 0.502812 0.973038
O O10 0.000000 0.000000 0.000000
O O11 0.113816 0.540413 0.553390
O O12 0.121924 0.509645 0.290399
O O13 0.000000 0.000000 0.500000
O O14 0.107674 0.942522 0.181631
#
# Coordination Sequence:
#
# PCOD9005652 Si02
#       6
#     2   2   2   2   2   2
#     4  11  25  44  71 101 133 177 222 279 338 393
#     4  10  21  39  64  89 131 159 213 267 319 392
#     4   9  20  42  65  93 135 170 223 275 332 400
#     4  11  22  35  58  90 118 159 204 260 319 374
#     4  10  21  38  63  87 123 161 215 259 323 388
#     4   9  19  39  62  89 122 166 210 264 321 388
#
# _framework density 26.606241000000001
#
# number of rings (size 3 to 8) (size 9 to 14) (size 15 to 20)
#    0.000    2.000    1.667    1.000    2.333    2.000 
#    0.000   15.000    0.000    0.000    0.000    0.000 
#    0.000    0.000    0.000    0.000    0.000    0.000 
#
# Total GULP energy -66911.281340 kJ/mol
# GULP energy per Si atom -5575.940112 kJ/mol
# Density = 2.654568 g / cm^3
# Si number density = 26.606241 Si / 1000 Ang^3
#
#
#
# Elastic Constant Matrix: (Units=GPa)
#
#
# Indices 1 2 3 4 5 6 
#
# 1 201.8493 24.8226 82.3287 -7.7421 51.4304 -21.4537
# 2 24.8226 53.6566 30.6059 -12.8604 10.8622 -15.6000
# 3 82.3287 30.6059 169.1728 -12.9033 8.9590 -13.3029
# 4 -7.7421 -12.8604 -12.9033 20.0812 -4.0011 10.2536
# 5 51.4304 10.8622 8.9590 -4.0011 98.3885 1.5824
# 6 -21.4537 -15.6000 -13.3029 10.2536 1.5824 28.5900
#
#
#
# Elastic Compliance Matrix: (Units=1/GPa)
#
#
# Indices 1 2 3 4 5 6 
#
# 1 0.007826 0.000073 -0.003383 -0.002734 -0.003991 0.005539
# 2 0.000073 0.025856 -0.003133 0.009235 -0.002385 0.009525
# 3 -0.003383 -0.003133 0.008149 0.003066 0.001524 -0.001641
# 4 -0.002734 0.009235 0.003066 0.067454 0.003194 -0.019954
# 5 -0.003991 -0.002385 0.001524 0.003194 0.012592 -0.005430
# 6 0.005539 0.009525 -0.001641 -0.019954 -0.005430 0.051024
#
#
# Mechanical properties :
#
#
# Convention : Reuss Voigt Hill
#
# Bulk Modulus (GPa) = 34.55129 77.79927 56.17528
# Shear Modulus (GPa) = 25.58378 48.54003 37.06191
#
# Velocity S-wave (km/s) = 3.10428 4.27592 3.73631
# Velocity P-wave (km/s) = 5.08558 7.32683 6.30657
#
# Compressibility (1/GPa) = 0.02894248
#
# Stress axis : x y z
#
# Youngs Moduli (GPa) = 127.77919 38.67550 122.71995
#
# Poissons Ratio (x) = -0.00281 0.41519
# Poissons Ratio (y) = -0.00927 0.38453
# Poissons Ratio (z) = 0.43231 0.12119
#
# Static dielectric constant tensor:
#      x y z
#    x 5.287480 0.735210 -1.294470 
#    y 0.735210 2.273810 -0.153340 
#    z -1.294470 -0.153340 2.661040 
# 
# From -- ./inp_files/63592.got.cif
#   From: 2010.05.17/outbox.cif.g08.bks.cpg/sg2_32_cif.got.tgz:63592.got - 2010.06.03 11:33:40.
