data_PCOD9005431
_publ_section_title
;
Structure prediction by ZEFSAII (Michael W. Deem and Ramdas Pophale) SiO2 
 PCOD9005431
Probable space group: P -1
;
_chemical_formula_sum "Si O2"
_cell_formula_units_Z 16
_cell_length_a 16.906845
_cell_length_b 7.907987
_cell_length_c 9.196426
_cell_angle_alpha 114.743454
_cell_angle_beta 59.032565
_cell_angle_gamma 126.006310
_cell_volume 840.848742
_symmetry_space_group_name_H-M "P -1"
_symmetry_group_IT_number 2
_symmetry_cell_setting 'triclinic'
loop_
_space_group_symop_operation_xyz
x,y,z
-x,-y,-z
loop_
_atom_site_type_symbol
_atom_site_label
_atom_site_fract_x
_atom_site_fract_y
_atom_site_fract_z
Si Si1 0.887576 0.910257 0.998345
Si Si2 0.834202 0.196967 0.992417
Si Si3 0.007309 0.911507 0.307782
Si Si4 0.442548 0.030831 0.206408
Si Si5 0.436134 0.620380 0.552381
Si Si6 0.425279 0.660206 0.238208
Si Si7 0.801899 0.602054 0.216214
Si Si8 0.363635 0.199015 0.102105
O O1 0.852909 0.092486 0.083424
O O2 0.809015 0.709383 0.091045
O O3 0.915376 0.891809 0.798476
O O4 0.000000 0.000000 0.000000
O O5 0.933069 0.230701 0.810519
O O6 0.730661 0.009196 0.950903
O O7 0.823564 0.403821 0.103369
O O8 0.893962 0.775576 0.292048
O O9 0.000000 0.000000 0.500000
O O10 0.524519 0.183672 0.302653
O O11 0.381291 0.141697 0.229078
O O12 0.379843 0.807435 0.268006
O O13 0.500000 0.000000 0.000000
O O14 0.500000 0.500000 0.500000
O O15 0.453798 0.690974 0.392839
O O16 0.312247 0.476209 0.638721
O O17 0.351928 0.410140 0.192444
O O18 0.532749 0.733458 0.070935
#
# Coordination Sequence:
#
# PCOD9005431 Si02
#       8
#     2   2   2   2   2   2   2   2
#     4   8  20  38  65  86 119 159 204 243 312 371
#     4  10  22  38  69  89 122 165 210 247 310 376
#     4   9  21  40  65  93 124 152 201 264 311 362
#     4  10  21  40  58  84 121 161 212 247 304 379
#     4  12  25  38  63  95 128 164 216 266 309 362
#     4  10  22  39  59  84 128 164 205 263 307 364
#     4  11  22  42  64  87 124 169 207 249 311 377
#     4  10  21  38  62  88 121 166 209 247 319 367
#
# _framework density 19.028393999999999
#
# number of rings (size 3 to 8) (size 9 to 14) (size 15 to 20)
#    0.750    1.250    1.250    2.250    3.500    1.000 
#    0.000    0.625    0.000    0.000    0.000    0.000 
#    0.000    0.000    0.000    0.000    0.000    0.000 
#
# Total GULP energy -89092.318652 kJ/mol
# GULP energy per Si atom -5568.269916 kJ/mol
# Density = 1.898508 g / cm^3
# Si number density = 19.028394 Si / 1000 Ang^3
#
#
#
# Elastic Constant Matrix: (Units=GPa)
#
#
# Indices 1 2 3 4 5 6 
#
# 1 65.4410 40.1752 47.5464 -9.4333 0.2175 -15.3477
# 2 40.1752 100.4429 46.5207 1.3531 10.9077 -18.9111
# 3 47.5464 46.5207 102.0222 -0.7420 20.0981 -15.3706
# 4 -9.4333 1.3531 -0.7420 25.9242 -1.4822 10.1348
# 5 0.2175 10.9077 20.0981 -1.4822 31.9022 -3.5981
# 6 -15.3477 -18.9111 -15.3706 10.1348 -3.5981 38.5720
#
#
#
# Elastic Compliance Matrix: (Units=1/GPa)
#
#
# Indices 1 2 3 4 5 6 
#
# 1 0.031470 -0.007599 -0.013113 0.011492 0.011360 0.001611
# 2 -0.007599 0.015324 -0.002045 -0.005723 -0.003619 0.004840
# 3 -0.013113 -0.002045 0.019340 -0.005493 -0.011440 0.001863
# 4 0.011492 -0.005723 -0.005493 0.048134 0.006166 -0.012494
# 5 0.011360 -0.003619 -0.011440 0.006166 0.040034 0.000301
# 6 0.001611 0.004840 0.001863 -0.012494 0.000301 0.032993
#
#
# Mechanical properties :
#
#
# Convention : Reuss Voigt Hill
#
# Bulk Modulus (GPa) = 48.49875 59.59897 54.04886
# Shear Modulus (GPa) = 20.86085 28.19060 24.52573
#
# Velocity S-wave (km/s) = 3.31464 3.85320 3.59402
# Velocity P-wave (km/s) = 6.33971 7.15439 6.75934
#
# Compressibility (1/GPa) = 0.02061909
#
# Stress axis : x y z
#
# Youngs Moduli (GPa) = 31.77620 65.25563 51.70640
#
# Poissons Ratio (x) = 0.49590 0.67801
# Poissons Ratio (y) = 0.24148 0.10576
# Poissons Ratio (z) = 0.41667 0.13348
#
# Static dielectric constant tensor:
#      x y z
#    x 1.705520 -0.029380 -0.011400 
#    y -0.029380 1.767110 -0.034190 
#    z -0.011400 -0.034190 1.687710 
# 
# From -- ./inp_files/327714.got.cif
#   From: 2010.05.17/outbox.cif.g08.bks.cpg/sg2_164_cif.got.tgz:327714.got - 2010.06.03 11:33:40.
