data_PCOD9005532
_publ_section_title
;
Structure prediction by ZEFSAII (Michael W. Deem and Ramdas Pophale) SiO2 
 PCOD9005532
Probable space group: P -1
;
_chemical_formula_sum "Si O2"
_cell_formula_units_Z 16
_cell_length_a 6.708465
_cell_length_b 18.183573
_cell_length_c 7.861914
_cell_angle_alpha 85.326265
_cell_angle_beta 88.966171
_cell_angle_gamma 133.659264
_cell_volume 687.828072
_symmetry_space_group_name_H-M "P -1"
_symmetry_group_IT_number 2
_symmetry_cell_setting 'triclinic'
loop_
_space_group_symop_operation_xyz
x,y,z
-x,-y,-z
loop_
_atom_site_type_symbol
_atom_site_label
_atom_site_fract_x
_atom_site_fract_y
_atom_site_fract_z
Si Si1 0.157813 0.706975 0.615430
Si Si2 0.695978 0.415918 0.443630
Si Si3 0.595556 0.577218 0.834295
Si Si4 0.882417 0.740898 0.363731
Si Si5 0.410235 0.898828 0.812717
Si Si6 0.005341 0.072368 0.607122
Si Si7 0.142677 0.214490 0.030701
Si Si8 0.700688 0.891973 0.078060
O O1 0.321378 0.673433 0.600144
O O2 0.312807 0.805648 0.714288
O O3 0.859060 0.612881 0.722610
O O4 0.079021 0.727560 0.435990
O O5 0.644723 0.460798 0.284633
O O6 0.438597 0.362871 0.584388
O O7 0.000000 0.500000 0.500000
O O8 0.500000 0.500000 0.000000
O O9 0.710066 0.682525 0.892104
O O10 0.921334 0.773722 0.161926
O O11 0.937464 0.828251 0.462363
O O12 0.699035 0.999968 0.711092
O O13 0.480914 0.890473 0.004634
O O14 0.140444 0.879868 0.847954
O O15 0.253626 0.116131 0.726260
O O16 0.000000 0.000000 0.500000
O O17 0.333492 0.192903 0.007360
O O18 0.000000 0.000000 0.000000
#
# Coordination Sequence:
#
# PCOD9005532 Si02
#       8
#     2   2   2   2   2   2   2   2
#     4  10  23  42  64  92 126 165 211 264 319 386
#     4  11  25  43  65  91 128 170 211 263 329 385
#     4  10  24  43  66  94 127 164 214 273 321 372
#     4  10  24  41  62  94 129 166 210 270 319 370
#     4  10  21  39  63  88 123 168 208 253 316 371
#     4  10  21  38  62  92 128 167 211 259 314 381
#     4  10  22  40  62  91 127 161 212 265 309 381
#     4   9  20  37  59  86 122 164 203 258 307 363
#
# _framework density 23.261624999999999
#
# number of rings (size 3 to 8) (size 9 to 14) (size 15 to 20)
#    0.000    2.000    0.000    1.500    3.500   14.500 
#    4.500    1.250    0.000    0.000    0.000    0.000 
#    0.000    0.000    0.000    0.000    0.000    0.000 
#
# Total GULP energy -89426.925872 kJ/mol
# GULP energy per Si atom -5589.182867 kJ/mol
# Density = 2.320868 g / cm^3
# Si number density = 23.261625 Si / 1000 Ang^3
#
#
#
# Elastic Constant Matrix: (Units=GPa)
#
#
# Indices 1 2 3 4 5 6 
#
# 1 69.3539 24.1264 27.9770 -7.1291 6.4203 20.4078
# 2 24.1264 76.6150 14.3249 -5.3698 -2.9343 21.1494
# 3 27.9770 14.3249 65.8983 -7.9998 7.2337 16.0317
# 4 -7.1291 -5.3698 -7.9998 35.4306 -5.1376 0.2388
# 5 6.4203 -2.9343 7.2337 -5.1376 29.7522 5.3085
# 6 20.4078 21.1494 16.0317 0.2388 5.3085 34.7459
#
#
#
# Elastic Compliance Matrix: (Units=1/GPa)
#
#
# Indices 1 2 3 4 5 6 
#
# 1 0.020333 -0.003304 -0.005765 0.002090 -0.001697 -0.007027
# 2 -0.003304 0.016972 -0.000290 0.002554 0.004497 -0.008961
# 3 -0.005765 -0.000290 0.019524 0.002934 -0.002107 -0.005144
# 4 0.002090 0.002554 0.002934 0.030494 0.005272 -0.005151
# 5 -0.001697 0.004497 -0.002107 0.005272 0.036996 -0.006457
# 6 -0.007027 -0.008961 -0.005144 -0.005151 -0.006457 0.041757
#
#
# Mechanical properties :
#
#
# Convention : Reuss Voigt Hill
#
# Bulk Modulus (GPa) = 26.23876 38.30264 32.27070
# Shear Modulus (GPa) = 25.31680 29.68167 27.49923
#
# Velocity S-wave (km/s) = 3.30259 3.57598 3.44200
# Velocity P-wave (km/s) = 5.08401 5.79240 5.44973
#
# Compressibility (1/GPa) = 0.03811155
#
# Stress axis : x y z
#
# Youngs Moduli (GPa) = 49.18052 58.92111 51.21825
#
# Poissons Ratio (x) = 0.19468 0.29526
# Poissons Ratio (y) = 0.16249 0.01486
# Poissons Ratio (z) = 0.28351 0.01710
#
# Static dielectric constant tensor:
#      x y z
#    x 1.861960 -0.010170 -0.005660 
#    y -0.010170 1.875650 0.012120 
#    z -0.005660 0.012120 1.908540 
# 
# From -- ./inp_files/138960.got.cif
#   From: 2010.05.17/outbox.cif.g08.bks.cpg/sg2_70_cif.got.tgz:138960.got - 2010.06.03 11:33:40.
