data_PCOD9005685
_publ_section_title
;
Structure prediction by ZEFSAII (Michael W. Deem and Ramdas Pophale) SiO2 
 PCOD9005685
Probable space group: P -1
;
_chemical_formula_sum "Si O2"
_cell_formula_units_Z 10
_cell_length_a 5.590516
_cell_length_b 11.884465
_cell_length_c 14.257857
_cell_angle_alpha 142.432603
_cell_angle_beta 81.036732
_cell_angle_gamma 75.237527
_cell_volume 443.905184
_symmetry_space_group_name_H-M "P -1"
_symmetry_group_IT_number 2
_symmetry_cell_setting 'triclinic'
loop_
_space_group_symop_operation_xyz
x,y,z
-x,-y,-z
loop_
_atom_site_type_symbol
_atom_site_label
_atom_site_fract_x
_atom_site_fract_y
_atom_site_fract_z
Si Si1 0.338327 0.380684 0.954546
Si Si2 0.164941 0.449836 0.225629
Si Si3 0.047010 0.649916 0.665434
Si Si4 0.266785 0.741519 0.551003
Si Si5 0.480410 0.064796 0.437108
O O1 0.557665 0.107903 0.728578
O O2 0.500000 0.500000 0.000000
O O3 0.308959 0.376106 0.065591
O O4 0.000000 0.500000 0.000000
O O5 0.247802 0.591471 0.374621
O O6 0.176389 0.271380 0.179026
O O7 0.803606 0.659494 0.366107
O O8 0.035823 0.825637 0.709853
O O9 0.395228 0.456453 0.554650
O O10 0.000000 0.500000 0.500000
O O11 0.249637 0.947861 0.638572
O O12 0.500000 0.000000 0.500000
#
# Coordination Sequence:
#
# PCOD9005685 Si02
#       5
#     2   2   2   2   2
#     4  12  27  42  61  92 130 167 211 257 310 372
#     4  10  21  38  63  89 125 164 205 257 309 370
#     4   8  16  34  60  90 117 157 205 251 312 366
#     4   9  18  34  62  89 120 161 206 254 306 372
#     4  11  22  38  61  89 125 166 209 253 310 368
#
# _framework density 22.527334
#
# number of rings (size 3 to 8) (size 9 to 14) (size 15 to 20)
#    0.000    2.000    2.000    1.200    5.600    1.600 
#    0.000    1.000    0.000   40.800    0.000    0.000 
#    0.000    0.000    0.000    0.000    0.000    0.000 
#
# Total GULP energy -55692.620977 kJ/mol
# GULP energy per Si atom -5569.262098 kJ/mol
# Density = 2.247606 g / cm^3
# Si number density = 22.527334 Si / 1000 Ang^3
#
#
#
# Elastic Constant Matrix: (Units=GPa)
#
#
# Indices 1 2 3 4 5 6 
#
# 1 78.8019 64.6674 7.2022 -27.6879 6.1888 27.8555
# 2 64.6674 181.8141 72.6900 -59.0861 0.2948 52.5992
# 3 7.2022 72.6900 100.3376 -46.8978 -2.9941 34.0096
# 4 -27.6879 -59.0861 -46.8978 53.7111 -6.0176 -9.3096
# 5 6.1888 0.2948 -2.9941 -6.0176 18.5856 -0.1256
# 6 27.8555 52.5992 34.0096 -9.3096 -0.1256 59.3617
#
#
#
# Elastic Compliance Matrix: (Units=1/GPa)
#
#
# Indices 1 2 3 4 5 6 
#
# 1 0.027997 -0.006074 0.016197 0.019421 -0.000423 -0.013990
# 2 -0.006074 0.013212 -0.003448 0.007835 0.003756 -0.005645
# 3 0.016197 -0.003448 0.031867 0.030319 0.009490 -0.018027
# 4 0.019421 0.007835 0.030319 0.061636 0.018090 -0.023721
# 5 -0.000423 0.003756 0.009490 0.018090 0.061235 -0.005600
# 6 -0.013990 -0.005645 -0.018027 -0.023721 -0.005600 0.035008
#
#
# Mechanical properties :
#
#
# Convention : Reuss Voigt Hill
#
# Bulk Modulus (GPa) = 11.57072 72.23030 41.90051
# Shear Modulus (GPa) = 20.29109 40.75794 30.52452
#
# Velocity S-wave (km/s) = 3.00448 4.25816 3.68502
# Velocity P-wave (km/s) = 4.14527 7.50393 6.06186
#
# Compressibility (1/GPa) = 0.08642506
#
# Stress axis : x y z
#
# Youngs Moduli (GPa) = 35.71868 75.68708 31.38084
#
# Poissons Ratio (x) = 0.45974 -0.50829
# Poissons Ratio (y) = 0.21696 0.10821
# Poissons Ratio (z) = -0.57855 0.26100
#
# Static dielectric constant tensor:
#      x y z
#    x 2.032010 0.033670 -0.114270 
#    y 0.033670 1.956980 -0.030940 
#    z -0.114270 -0.030940 1.830520 
# 
# From -- ./inp_files/2207.got.cif
#   From: 2010.05.17/outbox.cif.g08.bks.cpg/sg2_2_cif.got.tgz:2207.got - 2010.06.03 11:33:40.
