data_PCOD9005060
_publ_section_title
;
Structure prediction by ZEFSAII (Michael W. Deem and Ramdas Pophale) SiO2 
 PCOD9005060
Probable space group: P -1
;
_chemical_formula_sum "Si O2"
_cell_formula_units_Z 16
_cell_length_a 12.531238
_cell_length_b 15.278024
_cell_length_c 10.260487
_cell_angle_alpha 53.585531
_cell_angle_beta 32.470801
_cell_angle_gamma 43.057726
_cell_volume 718.633009
_symmetry_space_group_name_H-M "P -1"
_symmetry_group_IT_number 2
_symmetry_cell_setting 'triclinic'
loop_
_space_group_symop_operation_xyz
x,y,z
-x,-y,-z
loop_
_atom_site_type_symbol
_atom_site_label
_atom_site_fract_x
_atom_site_fract_y
_atom_site_fract_z
Si Si1 0.767662 0.935862 0.111213
Si Si2 0.529757 0.377711 0.458108
Si Si3 0.864831 0.352648 0.771405
Si Si4 0.203766 0.409932 0.001085
Si Si5 0.495404 0.417224 0.898639
Si Si6 0.260555 0.818167 0.782782
Si Si7 0.384581 0.167645 0.402038
Si Si8 0.037013 0.308199 0.053891
O O1 0.710203 0.897567 0.343910
O O2 0.530944 0.074792 0.213168
O O3 0.010279 0.934054 0.883959
O O4 0.809580 0.826407 0.061417
O O5 0.348855 0.417866 0.723749
O O6 0.476870 0.489949 0.312581
O O7 0.561075 0.257883 0.450899
O O8 0.783967 0.325708 0.302599
O O9 0.743685 0.335148 0.785200
O O10 0.136845 0.299647 0.515653
O O11 0.696597 0.498298 0.865995
O O12 0.821938 0.275770 0.996345
O O13 0.381013 0.355125 0.986823
O O14 0.011361 0.562596 0.089843
O O15 0.111590 0.326571 0.104669
O O16 0.414461 0.828037 0.727211
#
# Coordination Sequence:
#
# PCOD9005060 Si02
#       8
#     2   2   2   2   2   2   2   2
#     4   9  18  29  45  69  96 117 146 194 232 263
#     4   9  17  29  46  69  93 114 145 189 229 267
#     4   9  19  33  45  65  97 124 150 185 222 268
#     4  10  17  28  49  70  89 117 150 183 228 275
#     4   9  17  32  47  65  97 124 146 187 228 264
#     4   9  17  30  47  69  95 118 148 187 227 271
#     4  10  17  29  48  67  89 124 157 182 225 274
#     4   9  17  28  42  68  94 113 141 186 231 268
#
# _framework density 22.264493999999999
#
# number of rings (size 3 to 8) (size 9 to 14) (size 15 to 20)
#    0.000    2.750    0.000    4.875    0.000    1.000 
#    0.000   10.625    0.000    0.750    0.000    8.750 
#    0.000    0.000    0.000    0.000    0.000    0.000 
#
# Total GULP energy -89095.680472 kJ/mol
# GULP energy per Si atom -5568.480030 kJ/mol
# Density = 2.221382 g / cm^3
# Si number density = 22.264494 Si / 1000 Ang^3
#
#
#
# Elastic Constant Matrix: (Units=GPa)
#
#
# Indices 1 2 3 4 5 6 
#
# 1 110.2326 21.7768 24.1125 13.6251 -20.9149 29.4003
# 2 21.7768 48.0802 40.6155 22.8130 -7.8212 18.9578
# 3 24.1125 40.6155 89.3238 30.2852 -8.8318 5.1006
# 4 13.6251 22.8130 30.2852 34.7164 0.2165 8.6437
# 5 -20.9149 -7.8212 -8.8318 0.2165 28.3259 -2.9804
# 6 29.4003 18.9578 5.1006 8.6437 -2.9804 30.8451
#
#
#
# Elastic Compliance Matrix: (Units=1/GPa)
#
#
# Indices 1 2 3 4 5 6 
#
# 1 0.015113 0.004996 -0.003775 -0.002173 0.009768 -0.015299
# 2 0.004996 0.054508 -0.018686 -0.013995 0.009832 -0.030302
# 3 -0.003775 -0.018686 0.023468 -0.010244 0.000939 0.014164
# 4 -0.002173 -0.013995 -0.010244 0.048367 -0.009251 -0.002081
# 5 0.009768 0.009832 0.000939 -0.009251 0.044689 -0.008598
# 6 -0.015299 -0.030302 0.014164 -0.002081 -0.008598 0.063036
#
#
# Mechanical properties :
#
#
# Convention : Reuss Voigt Hill
#
# Bulk Modulus (GPa) = 17.19417 46.73848 31.96633
# Shear Modulus (GPa) = 16.47458 29.51961 22.99709
#
# Velocity S-wave (km/s) = 2.72315 3.64519 3.21737
# Velocity P-wave (km/s) = 4.19843 6.22531 5.30949
#
# Compressibility (1/GPa) = 0.05815926
#
# Stress axis : x y z
#
# Youngs Moduli (GPa) = 66.16925 18.34587 42.61075
#
# Poissons Ratio (x) = -0.09166 0.16087
# Poissons Ratio (y) = -0.33060 0.79622
# Poissons Ratio (z) = 0.24981 0.34281
#
# Static dielectric constant tensor:
#      x y z
#    x 1.905450 -0.007920 -0.040230 
#    y -0.007920 1.966520 0.047070 
#    z -0.040230 0.047070 1.869260 
# 
# From -- ./inp_files/429945.got.cif
#   From: 2010.05.17/outbox.cif.g08.bks.cpg/sg2_215_cif.got.tgz:429945.got - 2010.06.03 11:33:40.
