data_PCOD9005709
_publ_section_title
;
Structure prediction by ZEFSAII (Michael W. Deem and Ramdas Pophale) SiO2 
 PCOD9005709
Probable space group: P -1
;
_chemical_formula_sum "Si O2"
_cell_formula_units_Z 15
_cell_length_a 14.886486
_cell_length_b 8.911937
_cell_length_c 9.544771
_cell_angle_alpha 82.047123
_cell_angle_beta 151.719912
_cell_angle_gamma 108.317111
_cell_volume 541.906688
_symmetry_space_group_name_H-M "P -1"
_symmetry_group_IT_number 2
_symmetry_cell_setting 'triclinic'
loop_
_space_group_symop_operation_xyz
x,y,z
-x,-y,-z
loop_
_atom_site_type_symbol
_atom_site_label
_atom_site_fract_x
_atom_site_fract_y
_atom_site_fract_z
Si Si1 0.534797 0.677560 0.878968
Si Si2 0.324967 0.050934 0.188331
Si Si3 0.865074 0.224428 0.275627
Si Si4 0.708568 0.962538 0.297563
Si Si5 0.849478 0.642398 0.862390
Si Si6 0.482374 0.326667 0.744400
Si Si7 0.000000 0.000000 0.000000
Si Si8 0.091355 0.485987 0.347411
O O1 0.576588 0.769938 0.775462
O O2 0.523453 0.491327 0.872066
O O3 0.305522 0.646248 0.624376
O O4 0.683120 0.814094 0.172938
O O5 0.500000 0.000000 0.500000
O O6 0.214414 0.918736 0.931175
O O7 0.157716 0.031462 0.077344
O O8 0.684417 0.290817 0.031321
O O9 0.056145 0.373849 0.449721
O O10 0.883836 0.132085 0.454955
O O11 0.702660 0.860058 0.445064
O O12 0.500000 0.000000 0.000000
O O13 0.620678 0.638658 0.540093
O O14 0.888156 0.595130 0.762036
O O15 0.020714 0.825690 0.090497
O O16 0.892420 0.527013 0.046977
#
# Coordination Sequence:
#
# PCOD9005709 Si02
#       8
#     2   2   2   2   2   2   1   2
#     4  10  22  39  64  90 121 161 208 258 310 370
#     4  11  23  38  59  90 127 170 206 252 318 376
#     4  10  21  39  62  85 126 164 206 254 315 370
#     4   9  20  41  65  86 119 165 209 253 315 373
#     4  10  22  36  58  88 126 156 199 256 306 369
#     4  10  21  38  63  91 118 163 211 260 306 367
#     4  12  22  38  60  90 128 166 210 250 302 388
#     4  10  21  40  58  89 128 160 196 258 315 368
#
# _framework density 27.680043000000001
#
# number of rings (size 3 to 8) (size 9 to 14) (size 15 to 20)
#    0.000    1.867    1.333    2.000    5.600    2.667 
#    0.000    5.333    2.933    0.000    0.000    0.000 
#    0.000    0.000    0.000    0.000    0.000    0.000 
#
# Total GULP energy -83769.906701 kJ/mol
# GULP energy per Si atom -5584.660447 kJ/mol
# Density = 2.761704 g / cm^3
# Si number density = 27.680043 Si / 1000 Ang^3
#
#
#
# Elastic Constant Matrix: (Units=GPa)
#
#
# Indices 1 2 3 4 5 6 
#
# 1 131.4730 69.1102 29.5162 1.8108 11.0062 24.8165
# 2 69.1102 172.7263 51.7050 -8.7483 10.8050 29.4164
# 3 29.5162 51.7050 94.5870 -13.4660 18.1011 12.1228
# 4 1.8108 -8.7483 -13.4660 43.2951 -0.6855 0.1188
# 5 11.0062 10.8050 18.1011 -0.6855 33.1779 12.3408
# 6 24.8165 29.4164 12.1228 0.1188 12.3408 62.8040
#
#
#
# Elastic Compliance Matrix: (Units=1/GPa)
#
#
# Indices 1 2 3 4 5 6 
#
# 1 0.010110 -0.003399 -0.001065 -0.001450 -0.000949 -0.002008
# 2 -0.003399 0.008516 -0.003394 0.000830 0.001040 -0.002197
# 3 -0.001065 -0.003394 0.014485 0.003759 -0.006551 0.000494
# 4 -0.001450 0.000830 0.003759 0.024477 -0.001204 -0.000351
# 5 -0.000949 0.001040 -0.006551 -0.001204 0.035857 -0.005891
# 6 -0.002008 -0.002197 0.000494 -0.000351 -0.005891 0.018808
#
#
# Mechanical properties :
#
#
# Convention : Reuss Voigt Hill
#
# Bulk Modulus (GPa) = 57.48051 77.71655 67.59853
# Shear Modulus (GPa) = 37.37839 44.41905 40.89872
#
# Velocity S-wave (km/s) = 3.67873 4.01026 3.84806
# Velocity P-wave (km/s) = 6.23339 7.04135 6.64965
#
# Compressibility (1/GPa) = 0.01739720
#
# Stress axis : x y z
#
# Youngs Moduli (GPa) = 98.91058 117.41938 69.03585
#
# Poissons Ratio (x) = 0.39906 0.07349
# Poissons Ratio (y) = 0.33616 0.23432
# Poissons Ratio (z) = 0.10529 0.39855
#
# Static dielectric constant tensor:
#      x y z
#    x 2.280480 -0.047820 -0.034500 
#    y -0.047820 2.111070 0.039360 
#    z -0.034500 0.039360 2.231360 
# 
# From -- ./inp_files/447429.got.cif
#   From: 2010.05.17/outbox.cif.g08.bks.cpg/sg2_224_cif.got.tgz:447429.got - 2010.06.03 11:33:40.
