data_PCOD9005502
_publ_section_title
;
Structure prediction by ZEFSAII (Michael W. Deem and Ramdas Pophale) SiO2 
 PCOD9005502
Probable space group: P -1
;
_chemical_formula_sum "Si O2"
_cell_formula_units_Z 16
_cell_length_a 11.763767
_cell_length_b 12.353856
_cell_length_c 15.846348
_cell_angle_alpha 27.399927
_cell_angle_beta 49.508044
_cell_angle_gamma 40.232309
_cell_volume 681.369922
_symmetry_space_group_name_H-M "P -1"
_symmetry_group_IT_number 2
_symmetry_cell_setting 'triclinic'
loop_
_space_group_symop_operation_xyz
x,y,z
-x,-y,-z
loop_
_atom_site_type_symbol
_atom_site_label
_atom_site_fract_x
_atom_site_fract_y
_atom_site_fract_z
Si Si1 0.756427 0.036587 0.931764
Si Si2 0.063905 0.158221 0.419609
Si Si3 0.382351 0.450977 0.887307
Si Si4 0.558843 0.974221 0.705173
Si Si5 0.820124 0.605574 0.352356
Si Si6 0.469061 0.266772 0.281266
Si Si7 0.922303 0.259086 0.794979
Si Si8 0.128217 0.434123 0.908940
O O1 0.566464 0.305160 0.851310
O O2 0.891826 0.138885 0.806772
O O3 0.781269 0.833428 0.139243
O O4 0.758195 0.886654 0.949370
O O5 0.274308 0.022957 0.415099
O O6 0.941479 0.298209 0.464754
O O7 0.994126 0.430344 0.206675
O O8 0.000000 0.000000 0.500000
O O9 0.390463 0.661208 0.802080
O O10 0.241155 0.552675 0.810195
O O11 0.382028 0.212322 0.109010
O O12 0.513391 0.809704 0.772656
O O13 0.378376 0.273038 0.601828
O O14 0.942822 0.637764 0.338503
O O15 0.268608 0.511255 0.232588
O O16 0.500000 0.000000 0.500000
O O17 0.000000 0.000000 0.000000
O O18 0.000000 0.500000 0.000000
#
# Coordination Sequence:
#
# PCOD9005502 Si02
#       8
#     2   2   2   2   2   2   2   2
#     4   8  18  33  56  89 123 158 204 273 309 371
#     4  11  24  41  63  89 132 173 209 270 332 389
#     4  10  21  38  62  91 122 169 220 263 320 388
#     4  11  22  42  67  92 125 169 229 264 321 399
#     4   9  19  37  63  90 121 166 218 261 314 387
#     4  11  24  40  65  99 137 167 210 281 337 382
#     4   9  17  36  64  90 124 168 215 260 325 381
#     4  11  21  36  58  90 124 158 218 268 317 379
#
# _framework density 23.482105000000001
#
# number of rings (size 3 to 8) (size 9 to 14) (size 15 to 20)
#    0.000    2.000    2.500    1.500    1.750    1.500 
#    0.000    3.125    0.000    0.000    0.000    0.000 
#    0.000    0.000    0.000    0.000    0.000    0.000 
#
# Total GULP energy -89235.308941 kJ/mol
# GULP energy per Si atom -5577.206809 kJ/mol
# Density = 2.342866 g / cm^3
# Si number density = 23.482105 Si / 1000 Ang^3
#
#
#
# Elastic Constant Matrix: (Units=GPa)
#
#
# Indices 1 2 3 4 5 6 
#
# 1 130.3006 60.5290 10.3998 -2.6740 -28.7244 -7.9853
# 2 60.5290 123.7241 24.5765 -17.4958 -17.6645 -9.2835
# 3 10.3998 24.5765 42.2660 -6.9687 -9.0596 -3.2681
# 4 -2.6740 -17.4958 -6.9687 15.2623 9.9400 2.5892
# 5 -28.7244 -17.6645 -9.0596 9.9400 41.6967 0.2205
# 6 -7.9853 -9.2835 -3.2681 2.5892 0.2205 40.2292
#
#
#
# Elastic Compliance Matrix: (Units=1/GPa)
#
#
# Indices 1 2 3 4 5 6 
#
# 1 0.012311 -0.006348 0.000874 -0.010531 0.008483 0.001681
# 2 -0.006348 0.013769 -0.004665 0.014379 -0.002985 0.000629
# 3 0.000874 -0.004665 0.027814 0.005086 0.003451 0.001010
# 4 -0.010531 0.014379 0.005086 0.098587 -0.023536 -0.004575
# 5 0.008483 -0.002985 0.003451 -0.023536 0.034909 0.002599
# 6 0.001681 0.000629 0.001010 -0.004575 0.002599 0.025699
#
#
# Mechanical properties :
#
#
# Convention : Reuss Voigt Hill
#
# Bulk Modulus (GPa) = 29.74794 54.14459 41.94627
# Shear Modulus (GPa) = 20.44399 32.82331 26.63365
#
# Velocity S-wave (km/s) = 2.95383 3.74277 3.37146
# Velocity P-wave (km/s) = 4.93248 6.46418 5.74956
#
# Compressibility (1/GPa) = 0.03361577
#
# Stress axis : x y z
#
# Youngs Moduli (GPa) = 81.23002 72.62517 35.95372
#
# Poissons Ratio (x) = 0.46105 -0.03143
# Poissons Ratio (y) = 0.51567 0.16771
# Poissons Ratio (z) = -0.07101 0.33878
#
# Static dielectric constant tensor:
#      x y z
#    x 1.726560 0.028370 0.076670 
#    y 0.028370 1.891790 -0.083880 
#    z 0.076670 -0.083880 1.984850 
# 
# From -- ./inp_files/259009.got.cif
#   From: 2010.05.17/outbox.cif.g08.bks.cpg/sg2_130_cif.got.tgz:259009.got - 2010.06.03 11:33:40.
