data_PCOD9005050
_publ_section_title
;
Structure prediction by ZEFSAII (Michael W. Deem and Ramdas Pophale) SiO2 
 PCOD9005050
Probable space group: P -1
;
_chemical_formula_sum "Si O2"
_cell_formula_units_Z 14
_cell_length_a 11.772753
_cell_length_b 9.634079
_cell_length_c 11.791680
_cell_angle_alpha 142.964593
_cell_angle_beta 71.812929
_cell_angle_gamma 80.925092
_cell_volume 538.101544
_symmetry_space_group_name_H-M "P -1"
_symmetry_group_IT_number 2
_symmetry_cell_setting 'triclinic'
loop_
_space_group_symop_operation_xyz
x,y,z
-x,-y,-z
loop_
_atom_site_type_symbol
_atom_site_label
_atom_site_fract_x
_atom_site_fract_y
_atom_site_fract_z
Si Si1 0.837090 0.206762 0.477590
Si Si2 0.128926 0.095268 0.403265
Si Si3 0.743211 0.771745 0.725537
Si Si4 0.741247 0.749898 0.371021
Si Si5 0.560942 0.785728 0.065273
Si Si6 0.281272 0.067479 0.752672
Si Si7 0.341891 0.633528 0.846223
O O1 0.793782 0.476294 0.582485
O O2 0.853340 0.952115 0.234878
O O3 0.995246 0.078231 0.416347
O O4 0.673700 0.418125 0.749444
O O5 0.112907 0.334350 0.476383
O O6 0.137786 0.214473 0.596276
O O7 0.300030 0.751632 0.068765
O O8 0.571355 0.964555 0.830377
O O9 0.707570 0.055926 0.992489
O O10 0.763075 0.452793 0.207363
O O11 0.560363 0.065921 0.691453
O O12 0.732475 0.769688 0.252488
O O13 0.703777 0.780594 0.048467
O O14 0.465180 0.690661 0.450310
#
# Coordination Sequence:
#
# PCOD9005050 Si02
#       7
#     2   2   2   2   2   2   2
#     4  12  22  39  57  91 123 144 191 237 294 339
#     4   9  22  39  61  84 114 162 186 230 290 344
#     4   9  20  41  61  83 116 155 190 236 281 346
#     4  10  21  42  60  84 113 154 201 231 280 345
#     4  10  21  38  60  89 111 152 191 241 285 331
#     4  11  23  37  63  86 115 151 192 246 282 334
#     4   9  19  39  60  83 112 151 197 228 280 341
#
# _framework density 26.017395
#
# number of rings (size 3 to 8) (size 9 to 14) (size 15 to 20)
#    0.857    1.143    1.429    2.571    0.000    5.714 
#    5.143    2.143    0.000    0.000    0.000    0.000 
#    0.000    0.000    0.000    0.000    0.000    0.000 
#
# Total GULP energy -78179.180198 kJ/mol
# GULP energy per Si atom -5584.227157 kJ/mol
# Density = 2.595818 g / cm^3
# Si number density = 26.017395 Si / 1000 Ang^3
#
#
#
# Elastic Constant Matrix: (Units=GPa)
#
#
# Indices 1 2 3 4 5 6 
#
# 1 188.1621 9.2347 4.4120 1.4755 23.1410 -1.9039
# 2 9.2347 72.8630 2.9523 14.6584 5.0581 14.1897
# 3 4.4120 2.9523 66.2073 -3.9850 13.8902 3.3374
# 4 1.4755 14.6584 -3.9850 22.8384 8.5484 7.6030
# 5 23.1410 5.0581 13.8902 8.5484 35.1703 0.6886
# 6 -1.9039 14.1897 3.3374 7.6030 0.6886 31.3544
#
#
#
# Elastic Compliance Matrix: (Units=1/GPa)
#
#
# Indices 1 2 3 4 5 6 
#
# 1 0.005882 -0.000907 0.000684 0.001884 -0.004474 0.000336
# 2 -0.000907 0.016756 -0.001234 -0.009593 0.001108 -0.005205
# 3 0.000684 -0.001234 0.017707 0.008324 -0.009228 -0.003100
# 4 0.001884 -0.009593 0.008324 0.061635 -0.017913 -0.010982
# 5 -0.004474 0.001108 -0.009228 -0.017913 0.039144 0.003693
# 6 0.000336 -0.005205 -0.003100 -0.010982 0.003693 0.037181
#
#
# Mechanical properties :
#
#
# Convention : Reuss Voigt Hill
#
# Bulk Modulus (GPa) = 26.71703 40.04782 33.38242
# Shear Modulus (GPa) = 25.81356 38.58151 32.19754
#
# Velocity S-wave (km/s) = 3.15328 3.85504 3.52168
# Velocity P-wave (km/s) = 4.85271 5.93643 5.42172
#
# Compressibility (1/GPa) = 0.03742931
#
# Stress axis : x y z
#
# Youngs Moduli (GPa) = 170.01165 59.67997 56.47522
#
# Poissons Ratio (x) = 0.05414 -0.03861
# Poissons Ratio (y) = 0.15422 0.06971
# Poissons Ratio (z) = -0.11623 0.07366
#
# Static dielectric constant tensor:
#      x y z
#    x 2.156700 0.029450 -0.040240 
#    y 0.029450 2.065890 0.000790 
#    z -0.040240 0.000790 2.025580 
# 
# From -- ./inp_files/518406.got.cif
#   From: 2010.05.17/outbox.cif.g08.bks.cpg/sg2_260_cif.got.tgz:518406.got - 2010.06.03 11:33:40.
