data_PCOD9005650
_publ_section_title
;
Structure prediction by ZEFSAII (Michael W. Deem and Ramdas Pophale) SiO2 
 PCOD9005650
Probable space group: P -1
;
_chemical_formula_sum "Si O2"
_cell_formula_units_Z 16
_cell_length_a 22.308979
_cell_length_b 8.128764
_cell_length_c 5.840463
_cell_angle_alpha 59.645246
_cell_angle_beta 133.097681
_cell_angle_gamma 131.289222
_cell_volume 578.226427
_symmetry_space_group_name_H-M "P -1"
_symmetry_group_IT_number 2
_symmetry_cell_setting 'triclinic'
loop_
_space_group_symop_operation_xyz
x,y,z
-x,-y,-z
loop_
_atom_site_type_symbol
_atom_site_label
_atom_site_fract_x
_atom_site_fract_y
_atom_site_fract_z
Si Si1 0.701020 0.160222 0.312915
Si Si2 0.742427 0.541775 0.878962
Si Si3 0.924700 0.330296 0.243868
Si Si4 0.548330 0.852390 0.778076
Si Si5 0.668221 0.783315 0.799304
Si Si6 0.042612 0.274384 0.197391
Si Si7 0.632566 0.405200 0.263436
Si Si8 0.125993 0.042364 0.358756
O O1 0.631001 0.232862 0.199331
O O2 0.726180 0.019936 0.655176
O O3 0.772273 0.401395 0.219234
O O4 0.642104 0.989630 0.078881
O O5 0.667237 0.608449 0.737271
O O6 0.691682 0.389938 0.638111
O O7 0.822634 0.770262 0.827738
O O8 0.000000 0.500000 0.500000
O O9 0.986279 0.267337 0.280231
O O10 0.846055 0.121691 0.325642
O O11 0.896857 0.476832 0.912403
O O12 0.576567 0.783967 0.661983
O O13 0.470848 0.662459 0.871112
O O14 0.500000 0.000000 0.500000
O O15 0.688095 0.661977 0.151149
O O16 0.105365 0.159965 0.434571
O O17 0.965067 0.134174 0.899050
#
# Coordination Sequence:
#
# PCOD9005650 Si02
#       8
#     2   2   2   2   2   2   2   2
#     4  11  23  43  62  89 123 161 210 255 310 369
#     4  11  25  42  59  91 129 165 205 252 313 373
#     4   9  18  35  60  91 121 148 195 247 295 356
#     4  12  22  41  68  89 119 162 208 265 312 362
#     4  11  25  40  64  89 120 160 207 257 309 370
#     4   9  19  38  63  94 118 154 204 250 296 356
#     4  11  24  42  62  90 122 160 209 260 313 371
#     4  10  21  38  63  87 122 162 199 248 302 363
#
# _framework density 27.670824
#
# number of rings (size 3 to 8) (size 9 to 14) (size 15 to 20)
#    0.000    1.500    2.500    1.875    0.000    4.000 
#    0.000    7.500    0.000    0.000    0.000    0.000 
#    0.000    0.000    0.000    0.000    0.000    0.000 
#
# Total GULP energy -89366.231064 kJ/mol
# GULP energy per Si atom -5585.389441 kJ/mol
# Density = 2.760784 g / cm^3
# Si number density = 27.670824 Si / 1000 Ang^3
#
#
#
# Elastic Constant Matrix: (Units=GPa)
#
#
# Indices 1 2 3 4 5 6 
#
# 1 110.0862 57.9138 14.5378 -0.6567 -7.4306 -38.2857
# 2 57.9138 150.8123 69.2973 -46.0213 -19.3567 19.8062
# 3 14.5378 69.2973 134.7435 -51.7776 -12.1201 6.9159
# 4 -0.6567 -46.0213 -51.7776 56.5656 4.4705 -15.3944
# 5 -7.4306 -19.3567 -12.1201 4.4705 30.7950 -7.5683
# 6 -38.2857 19.8062 6.9159 -15.3944 -7.5683 47.5227
#
#
#
# Elastic Compliance Matrix: (Units=1/GPa)
#
#
# Indices 1 2 3 4 5 6 
#
# 1 0.026566 -0.015273 0.003237 -0.002093 0.005131 0.027436
# 2 -0.015273 0.018980 -0.004782 0.006067 0.001216 -0.017360
# 3 0.003237 -0.004782 0.013226 0.009728 0.003123 0.006325
# 4 -0.002093 0.006067 0.009728 0.032713 0.003756 0.005565
# 5 0.005131 0.001216 0.003123 0.003756 0.037714 0.010396
# 6 0.027436 -0.017360 0.006325 0.005565 0.010396 0.052919
#
#
# Mechanical properties :
#
#
# Convention : Reuss Voigt Hill
#
# Bulk Modulus (GPa) = 39.77887 75.45998 57.61942
# Shear Modulus (GPa) = 22.30835 43.90287 33.10561
#
# Velocity S-wave (km/s) = 2.84245 3.98755 3.46267
# Velocity P-wave (km/s) = 5.01794 6.96639 6.07084
#
# Compressibility (1/GPa) = 0.02513898
#
# Stress axis : x y z
#
# Youngs Moduli (GPa) = 37.64155 52.68663 75.60940
#
# Poissons Ratio (x) = 0.80466 -0.24479
# Poissons Ratio (y) = 0.57488 0.36154
# Poissons Ratio (z) = -0.12186 0.25193
#
# Static dielectric constant tensor:
#      x y z
#    x 2.184170 0.081170 -0.039590 
#    y 0.081170 2.143330 -0.041900 
#    z -0.039590 -0.041900 2.156880 
# 
# From -- ./inp_files/126089.got.cif
#   From: 2010.05.17/outbox.cif.g08.bks.cpg/sg2_64_cif.got.tgz:126089.got - 2010.06.03 11:33:40.
