data_PCOD9005488
_publ_section_title
;
Structure prediction by ZEFSAII (Michael W. Deem and Ramdas Pophale) SiO2 
 PCOD9005488
Probable space group: P -1
;
_chemical_formula_sum "Si O2"
_cell_formula_units_Z 16
_cell_length_a 15.036994
_cell_length_b 19.269628
_cell_length_c 12.265939
_cell_angle_alpha 137.131022
_cell_angle_beta 153.767314
_cell_angle_gamma 28.734502
_cell_volume 730.805653
_symmetry_space_group_name_H-M "P -1"
_symmetry_group_IT_number 2
_symmetry_cell_setting 'triclinic'
loop_
_space_group_symop_operation_xyz
x,y,z
-x,-y,-z
loop_
_atom_site_type_symbol
_atom_site_label
_atom_site_fract_x
_atom_site_fract_y
_atom_site_fract_z
Si Si1 0.153007 0.299489 0.856941
Si Si2 0.835626 0.703253 0.468818
Si Si3 0.135127 0.550910 0.841122
Si Si4 0.157663 0.865618 0.350615
Si Si5 0.189111 0.699323 0.672971
Si Si6 0.154405 0.946641 0.989873
Si Si7 0.720353 0.001547 0.195921
Si Si8 0.837503 0.615457 0.799724
O O1 0.958799 0.277838 0.576883
O O2 0.041967 0.440743 0.835531
O O3 0.498922 0.152263 0.051652
O O4 0.113379 0.336774 0.983367
O O5 0.858582 0.573411 0.319912
O O6 0.999102 0.657438 0.710597
O O7 0.003919 0.705677 0.566224
O O8 0.491445 0.857644 0.271532
O O9 0.926339 0.641260 0.819003
O O10 0.469425 0.457745 0.126095
O O11 0.167028 0.970640 0.548268
O O12 0.496781 0.708961 0.531518
O O13 0.013558 0.928614 0.145792
O O14 0.969865 0.870650 0.237477
O O15 0.164365 0.827223 0.818911
O O16 0.000000 0.000000 0.000000
O O17 0.500000 0.000000 0.000000
#
# Coordination Sequence:
#
# PCOD9005488 Si02
#       8
#     2   2   2   2   2   2   2   2
#     4  10  21  40  64  92 128 160 207 256 314 371
#     4  10  21  40  62  90 127 165 211 262 311 374
#     4  10  21  38  62  90 130 165 207 258 318 367
#     4  10  22  40  63  88 128 163 206 258 318 368
#     4  11  22  39  65  92 120 171 215 253 318 382
#     4  11  24  41  65  92 123 170 214 265 319 371
#     4  10  21  41  64  92 122 166 207 254 314 382
#     4  10  21  41  62  94 130 164 204 264 311 370
#
# _framework density 21.893646
#
# number of rings (size 3 to 8) (size 9 to 14) (size 15 to 20)
#    0.000    1.750    1.250    2.625    1.750    1.000 
#   11.250    0.000    0.000    0.000    0.000    0.000 
#    0.000    0.000    0.000    0.000    0.000    0.000 
#
# Total GULP energy -89458.631246 kJ/mol
# GULP energy per Si atom -5591.164453 kJ/mol
# Density = 2.184382 g / cm^3
# Si number density = 21.893646 Si / 1000 Ang^3
#
#
#
# Elastic Constant Matrix: (Units=GPa)
#
#
# Indices 1 2 3 4 5 6 
#
# 1 104.9839 9.0130 35.2857 -21.8515 8.9553 -19.1111
# 2 9.0130 37.8290 24.1142 -11.6903 -0.8634 -2.0560
# 3 35.2857 24.1142 124.3014 -24.0781 -3.4643 -13.8857
# 4 -21.8515 -11.6903 -24.0781 36.4598 -2.9513 1.4413
# 5 8.9553 -0.8634 -3.4643 -2.9513 46.7534 -1.4809
# 6 -19.1111 -2.0560 -13.8857 1.4413 -1.4809 29.2057
#
#
#
# Elastic Compliance Matrix: (Units=1/GPa)
#
#
# Indices 1 2 3 4 5 6 
#
# 1 0.012858 0.000323 -0.001763 0.006202 -0.001968 0.007193
# 2 0.000323 0.031677 -0.004844 0.007208 0.000613 -0.000187
# 3 -0.001763 -0.004844 0.010785 0.004491 0.001441 0.003484
# 4 0.006202 0.007208 0.004491 0.036365 0.001732 0.004995
# 5 -0.001968 0.000613 0.001441 0.001732 0.022008 0.000471
# 6 0.007193 -0.000187 0.003484 0.004995 0.000471 0.040367
#
#
# Mechanical properties :
#
#
# Convention : Reuss Voigt Hill
#
# Bulk Modulus (GPa) = 23.39115 44.88223 34.13669
# Shear Modulus (GPa) = 27.64275 35.73056 31.68665
#
# Velocity S-wave (km/s) = 3.55715 4.04419 3.80847
# Velocity P-wave (km/s) = 5.25150 6.50784 5.91313
#
# Compressibility (1/GPa) = 0.04275120
#
# Stress axis : x y z
#
# Youngs Moduli (GPa) = 77.77170 31.56838 92.72518
#
# Poissons Ratio (x) = -0.01019 0.16344
# Poissons Ratio (y) = -0.02510 0.44920
# Poissons Ratio (z) = 0.13708 0.15293
#
# Static dielectric constant tensor:
#      x y z
#    x 1.782790 0.021370 -0.005330 
#    y 0.021370 1.839900 0.013430 
#    z -0.005330 0.013430 1.787950 
# 
# From -- ./inp_files/411269.got.cif
#   From: 2010.05.17/outbox.cif.g08.bks.cpg/sg2_206_cif.got.tgz:411269.got - 2010.06.03 11:33:40.
