data_PCOD9005594
_publ_section_title
;
Structure prediction by ZEFSAII (Michael W. Deem and Ramdas Pophale) SiO2 
 PCOD9005594
Probable space group: P -1
;
_chemical_formula_sum "Si O2"
_cell_formula_units_Z 16
_cell_length_a 10.821474
_cell_length_b 14.483637
_cell_length_c 11.374459
_cell_angle_alpha 119.393775
_cell_angle_beta 127.862761
_cell_angle_gamma 105.183691
_cell_volume 704.114468
_symmetry_space_group_name_H-M "P -1"
_symmetry_group_IT_number 2
_symmetry_cell_setting 'triclinic'
loop_
_space_group_symop_operation_xyz
x,y,z
-x,-y,-z
loop_
_atom_site_type_symbol
_atom_site_label
_atom_site_fract_x
_atom_site_fract_y
_atom_site_fract_z
Si Si1 0.043634 0.702195 0.135706
Si Si2 0.858693 0.674371 0.253279
Si Si3 0.294786 0.695764 0.837917
Si Si4 0.093420 0.952076 0.207530
Si Si5 0.383330 0.257082 0.759845
Si Si6 0.613086 0.827388 0.866965
Si Si7 0.792795 0.144824 0.200793
Si Si8 0.403502 0.712414 0.431944
O O1 0.252098 0.719428 0.272275
O O2 0.042206 0.749110 0.295964
O O3 0.108927 0.835374 0.170378
O O4 0.751484 0.483697 0.805376
O O5 0.804410 0.770077 0.287781
O O6 0.989940 0.715064 0.481093
O O7 0.579921 0.453426 0.936263
O O8 0.490659 0.771992 0.890749
O O9 0.240415 0.790536 0.882704
O O10 0.000000 0.500000 0.500000
O O11 0.417365 0.706519 0.027030
O O12 0.213864 0.087553 0.470939
O O13 0.282061 0.098022 0.302553
O O14 0.778113 0.812229 0.929558
O O15 0.388061 0.720417 0.568255
O O16 0.821257 0.041255 0.111406
O O17 0.500000 0.000000 0.000000
#
# Coordination Sequence:
#
# PCOD9005594 Si02
#       8
#     2   2   2   2   2   2   2   2
#     4  11  25  43  73  97 133 180 233 280 336 396
#     4  11  21  43  65  99 140 178 213 287 347 400
#     4  11  23  40  63 103 132 173 222 279 344 409
#     4  12  25  46  69 102 133 182 233 276 334 406
#     4  11  24  38  69 100 139 170 225 280 347 406
#     4  11  25  44  66  95 138 177 222 279 338 409
#     4  10  21  38  62  95 133 175 214 269 342 394
#     4  11  26  49  66  97 139 183 232 276 331 399
#
# _framework density 22.723576999999999
#
# number of rings (size 3 to 8) (size 9 to 14) (size 15 to 20)
#    0.000    1.000    3.750    3.000    5.250    1.500 
#    4.500    0.000    0.000    0.000    0.000    0.000 
#    0.000    0.000    0.000    0.000    0.000    0.000 
#
# Total GULP energy -89327.781471 kJ/mol
# GULP energy per Si atom -5582.986342 kJ/mol
# Density = 2.267186 g / cm^3
# Si number density = 22.723577 Si / 1000 Ang^3
#
#
#
# Elastic Constant Matrix: (Units=GPa)
#
#
# Indices 1 2 3 4 5 6 
#
# 1 25.1213 -1.9443 0.6483 8.3867 -4.1667 -1.0013
# 2 -1.9443 72.9470 18.6099 1.8801 -6.6935 -24.3282
# 3 0.6483 18.6099 62.5440 -0.6131 -1.4442 -8.7120
# 4 8.3867 1.8801 -0.6131 31.5169 -3.7145 0.0193
# 5 -4.1667 -6.6935 -1.4442 -3.7145 36.0737 -2.2589
# 6 -1.0013 -24.3282 -8.7120 0.0193 -2.2589 27.0858
#
#
#
# Elastic Compliance Matrix: (Units=1/GPa)
#
#
# Indices 1 2 3 4 5 6 
#
# 1 0.045085 0.003995 -0.000902 -0.011661 0.005050 0.005394
# 2 0.003995 0.021554 -0.003739 -0.001808 0.005299 0.018748
# 3 -0.000902 -0.003739 0.017431 0.000815 0.000123 0.002225
# 4 -0.011661 -0.001808 0.000815 0.035177 0.001868 -0.001662
# 5 0.005050 0.005299 0.000123 0.001868 0.029953 0.007482
# 6 0.005394 0.018748 0.002225 -0.001662 0.007482 0.055299
#
#
# Mechanical properties :
#
#
# Convention : Reuss Voigt Hill
#
# Bulk Modulus (GPa) = 12.08055 21.69334 16.88694
# Shear Modulus (GPa) = 21.42376 28.48849 24.95612
#
# Velocity S-wave (km/s) = 3.07383 3.54460 3.31758
# Velocity P-wave (km/s) = 4.23389 5.13026 4.70348
#
# Compressibility (1/GPa) = 0.08277769
#
# Stress axis : x y z
#
# Youngs Moduli (GPa) = 22.18035 46.39445 57.36803
#
# Poissons Ratio (x) = -0.18533 0.05176
# Poissons Ratio (y) = -0.08860 0.21448
# Poissons Ratio (z) = 0.02001 0.17346
#
# Static dielectric constant tensor:
#      x y z
#    x 1.866380 -0.003810 0.006820 
#    y -0.003810 1.898430 0.074140 
#    z 0.006820 0.074140 1.841390 
# 
# From -- ./inp_files/428610.got.cif
#   From: 2010.05.17/outbox.cif.g08.bks.cpg/sg2_215_cif.got.tgz:428610.got - 2010.06.03 11:33:40.
