data_PCOD9005372
_publ_section_title
;
Structure prediction by ZEFSAII (Michael W. Deem and Ramdas Pophale) SiO2 
 PCOD9005372
Probable space group: P -1
;
_chemical_formula_sum "Si O2"
_cell_formula_units_Z 14
_cell_length_a 21.489622
_cell_length_b 5.420593
_cell_length_c 5.408309
_cell_angle_alpha 103.498606
_cell_angle_beta 70.833934
_cell_angle_gamma 100.580504
_cell_volume 574.697716
_symmetry_space_group_name_H-M "P -1"
_symmetry_group_IT_number 2
_symmetry_cell_setting 'triclinic'
loop_
_space_group_symop_operation_xyz
x,y,z
-x,-y,-z
loop_
_atom_site_type_symbol
_atom_site_label
_atom_site_fract_x
_atom_site_fract_y
_atom_site_fract_z
Si Si1 0.954827 0.245454 0.912042
Si Si2 0.264588 0.150806 0.748987
Si Si3 0.075582 0.941659 0.591464
Si Si4 0.424566 0.373128 0.102712
Si Si5 0.199897 0.257670 0.363802
Si Si6 0.307009 0.627926 0.525115
Si Si7 0.543631 0.779309 0.472337
O O1 0.922567 0.257505 0.684797
O O2 0.907398 0.164497 0.186558
O O3 0.002377 0.023226 0.751233
O O4 0.000000 0.500000 0.000000
O O5 0.301602 0.434313 0.719644
O O6 0.230927 0.104263 0.510758
O O7 0.304742 0.912857 0.676681
O O8 0.216682 0.169002 0.048637
O O9 0.122506 0.194851 0.506396
O O10 0.372629 0.567771 0.283243
O O11 0.500000 0.500000 0.000000
O O12 0.409415 0.247197 0.829140
O O13 0.424554 0.180050 0.288596
O O14 0.241328 0.531269 0.426280
O O15 0.500000 0.500000 0.500000
O O16 0.500000 0.000000 0.500000
#
# Coordination Sequence:
#
# PCOD9005372 Si02
#       7
#     2   2   2   2   2   2   2
#     4  10  21  38  61  97 130 168 207 266 322 379
#     4  10  25  42  67  93 134 170 226 276 329 389
#     4  10  21  39  62  91 131 164 219 259 321 388
#     4  10  23  42  66  96 127 169 214 269 334 397
#     4  10  24  42  65  96 129 180 224 271 328 393
#     4  10  26  44  68  95 135 171 222 279 333 392
#     4  10  22  39  60  90 123 156 206 252 315 389
#
# _framework density 24.360631999999999
#
# number of rings (size 3 to 8) (size 9 to 14) (size 15 to 20)
#    0.857    1.143    0.000    1.714    4.000    6.857 
#    0.000    0.000    0.000    0.000    0.000    0.000 
#    0.000    0.000    0.000    0.000    0.000    0.000 
#
# Total GULP energy -78087.193934 kJ/mol
# GULP energy per Si atom -5577.656710 kJ/mol
# Density = 2.430519 g / cm^3
# Si number density = 24.360632 Si / 1000 Ang^3
#
#
#
# Elastic Constant Matrix: (Units=GPa)
#
#
# Indices 1 2 3 4 5 6 
#
# 1 43.1879 20.1224 19.6563 -8.2631 13.4508 16.1197
# 2 20.1224 111.6331 46.0547 -2.7164 3.6728 -3.6256
# 3 19.6563 46.0547 184.4622 -42.0701 26.6296 -2.0575
# 4 -8.2631 -2.7164 -42.0701 27.0374 0.4903 -0.2472
# 5 13.4508 3.6728 26.6296 0.4903 44.6324 -6.0745
# 6 16.1197 -3.6256 -2.0575 -0.2472 -6.0745 40.2478
#
#
#
# Elastic Compliance Matrix: (Units=1/GPa)
#
#
# Indices 1 2 3 4 5 6 
#
# 1 0.041697 -0.008921 0.004333 0.018722 -0.017315 -0.019780
# 2 -0.008921 0.012389 -0.004995 -0.009305 0.005459 0.005200
# 3 0.004333 -0.004995 0.011819 0.019343 -0.008533 -0.002750
# 4 0.018722 -0.009305 0.019343 0.072117 -0.018530 -0.009701
# 5 -0.017315 0.005459 -0.008533 -0.018530 0.034106 0.012024
# 6 -0.019780 0.005200 -0.002750 -0.009701 0.012024 0.034851
#
#
# Mechanical properties :
#
#
# Convention : Reuss Voigt Hill
#
# Bulk Modulus (GPa) = 21.39507 56.77221 39.08364
# Shear Modulus (GPa) = 20.68468 39.28020 29.98244
#
# Velocity S-wave (km/s) = 2.91710 4.01988 3.51205
# Velocity P-wave (km/s) = 4.48861 6.70085 5.70303
#
# Compressibility (1/GPa) = 0.04673975
#
# Stress axis : x y z
#
# Youngs Moduli (GPa) = 23.98281 80.71360 84.60761
#
# Poissons Ratio (x) = 0.72003 -0.36660
# Poissons Ratio (y) = 0.21394 0.42262
# Poissons Ratio (z) = -0.10392 0.40317
#
# Static dielectric constant tensor:
#      x y z
#    x -1.132930 -1.877950 -1.904280 
#    y -1.877950 0.814030 -1.220480 
#    z -1.904280 -1.220480 0.746720 
# 
# From -- ./inp_files/125463.got.cif
#   From: 2010.05.17/outbox.cif.g08.bks.cpg/sg2_63_cif.got.tgz:125463.got - 2010.06.03 11:33:40.
