data_PCOD9005369
_publ_section_title
;
Structure prediction by ZEFSAII (Michael W. Deem and Ramdas Pophale) SiO2 
 PCOD9005369
Probable space group: P -1
;
_chemical_formula_sum "Si O2"
_cell_formula_units_Z 16
_cell_length_a 21.763427
_cell_length_b 7.892348
_cell_length_c 8.695252
_cell_angle_alpha 130.296052
_cell_angle_beta 139.848484
_cell_angle_gamma 56.642376
_cell_volume 729.831593
_symmetry_space_group_name_H-M "P -1"
_symmetry_group_IT_number 2
_symmetry_cell_setting 'triclinic'
loop_
_space_group_symop_operation_xyz
x,y,z
-x,-y,-z
loop_
_atom_site_type_symbol
_atom_site_label
_atom_site_fract_x
_atom_site_fract_y
_atom_site_fract_z
Si Si1 0.697926 0.076362 0.295997
Si Si2 0.875161 0.190041 0.549761
Si Si3 0.059713 0.011853 0.965786
Si Si4 0.600990 0.562983 0.294194
Si Si5 0.806332 0.263041 0.131135
Si Si6 0.626160 0.213311 0.568531
Si Si7 0.584717 0.735889 0.700593
Si Si8 0.786320 0.645333 0.534178
O O1 0.810466 0.073980 0.479554
O O2 0.654531 0.318976 0.293033
O O3 0.664312 0.082137 0.411393
O O4 0.656758 0.888547 0.005599
O O5 0.844002 0.133686 0.283091
O O6 0.843516 0.457404 0.646041
O O7 0.984307 0.121106 0.759818
O O8 0.112114 0.778214 0.865626
O O9 0.148419 0.157484 0.232955
O O10 0.000000 0.000000 0.000000
O O11 0.586786 0.712813 0.507340
O O12 0.675918 0.673495 0.393810
O O13 0.500000 0.500000 0.000000
O O14 0.788292 0.518718 0.300431
O O15 0.706894 0.187694 0.838577
O O16 0.610067 0.479825 0.655299
O O17 0.521524 0.163849 0.390894
#
# Coordination Sequence:
#
# PCOD9005369 Si02
#       8
#     2   2   2   2   2   2   2   2
#     4  10  21  39  61  90 123 168 209 258 314 373
#     4   9  22  44  60  90 126 161 210 262 307 374
#     4  12  24  41  66  94 123 165 214 260 319 375
#     4  10  21  38  61  97 129 161 215 257 308 378
#     4  10  23  40  64  88 125 161 207 259 313 377
#     4  10  21  40  57  93 130 163 205 262 317 375
#     4  10  22  36  65  87 127 171 207 256 317 372
#     4   9  23  40  64  90 127 168 203 258 314 369
#
# _framework density 21.922865999999999
#
# number of rings (size 3 to 8) (size 9 to 14) (size 15 to 20)
#    0.750    1.250    0.000    2.625    1.750    4.000 
#    0.000    0.000    0.000    0.000    0.000    0.000 
#    0.000    0.000    0.000    0.000    0.000    0.000 
#
# Total GULP energy -89355.288007 kJ/mol
# GULP energy per Si atom -5584.705500 kJ/mol
# Density = 2.187297 g / cm^3
# Si number density = 21.922866 Si / 1000 Ang^3
#
#
#
# Elastic Constant Matrix: (Units=GPa)
#
#
# Indices 1 2 3 4 5 6 
#
# 1 161.7201 36.1293 68.9359 10.0706 8.2410 -18.9057
# 2 36.1293 36.8797 37.7662 -8.8090 5.3942 3.2238
# 3 68.9359 37.7662 145.7519 1.4795 6.2560 -8.9145
# 4 10.0706 -8.8090 1.4795 35.3809 -7.0695 -1.6967
# 5 8.2410 5.3942 6.2560 -7.0695 37.8357 -1.3727
# 6 -18.9057 3.2238 -8.9145 -1.6967 -1.3727 29.3331
#
#
#
# Elastic Compliance Matrix: (Units=1/GPa)
#
#
# Indices 1 2 3 4 5 6 
#
# 1 0.010385 -0.010029 -0.001783 -0.005304 -0.001278 0.006887
# 2 -0.010029 0.051944 -0.009690 0.015250 -0.001288 -0.014296
# 3 -0.001783 -0.009690 0.010429 -0.002254 -0.000269 0.002942
# 4 -0.005304 0.015250 -0.002254 0.034635 0.005698 -0.003509
# 5 -0.001278 -0.001288 -0.000269 0.005698 0.028033 0.000877
# 6 0.006887 -0.014296 0.002942 -0.003509 0.000877 0.040833
#
#
# Mechanical properties :
#
#
# Convention : Reuss Voigt Hill
#
# Bulk Modulus (GPa) = 33.60915 70.00161 51.80538
# Shear Modulus (GPa) = 21.81688 33.94461 27.88074
#
# Velocity S-wave (km/s) = 3.15805 3.93920 3.57005
# Velocity P-wave (km/s) = 5.35365 7.25878 6.37775
#
# Compressibility (1/GPa) = 0.02975380
#
# Stress axis : x y z
#
# Youngs Moduli (GPa) = 96.29573 19.25166 95.88362
#
# Poissons Ratio (x) = 0.19308 0.17096
# Poissons Ratio (y) = 0.96579 0.92907
# Poissons Ratio (z) = 0.17169 0.18654
#
# Static dielectric constant tensor:
#      x y z
#    x 1.810120 0.012820 -0.028680 
#    y 0.012820 1.854700 0.002440 
#    z -0.028680 0.002440 1.760960 
# 
# From -- ./inp_files/343093.got.cif
#   From: 2010.05.17/outbox.cif.g08.bks.cpg/sg2_172_cif.got.tgz:343093.got - 2010.06.03 11:33:40.
