data_PCOD9005615
_publ_section_title
;
Structure prediction by ZEFSAII (Michael W. Deem and Ramdas Pophale) SiO2 
 PCOD9005615
Probable space group: P -1
;
_chemical_formula_sum "Si O2"
_cell_formula_units_Z 16
_cell_length_a 28.475158
_cell_length_b 16.667976
_cell_length_c 22.635807
_cell_angle_alpha 20.954173
_cell_angle_beta 168.873675
_cell_angle_gamma 160.056147
_cell_volume 696.274708
_symmetry_space_group_name_H-M "P -1"
_symmetry_group_IT_number 2
_symmetry_cell_setting 'triclinic'
loop_
_space_group_symop_operation_xyz
x,y,z
-x,-y,-z
loop_
_atom_site_type_symbol
_atom_site_label
_atom_site_fract_x
_atom_site_fract_y
_atom_site_fract_z
Si Si1 0.719960 0.634908 0.555953
Si Si2 0.123422 0.514109 0.273107
Si Si3 0.837467 0.836978 0.358310
Si Si4 0.704467 0.934336 0.861673
Si Si5 0.210617 0.661188 0.860698
Si Si6 0.400192 0.779050 0.213888
Si Si7 0.902661 0.053612 0.574835
Si Si8 0.117379 0.889993 0.166244
O O1 0.828248 0.555209 0.685689
O O2 0.614950 0.401907 0.627518
O O3 0.924631 0.852877 0.693847
O O4 0.495139 0.731107 0.190811
O O5 0.290417 0.411276 0.594219
O O6 0.201819 0.788679 0.193696
O O7 0.813003 0.379424 0.987786
O O8 0.029660 0.777505 0.591980
O O9 0.000000 0.000000 0.500000
O O10 0.675921 0.986574 0.028280
O O11 0.816187 0.948106 0.923152
O O12 0.394615 0.849835 0.544460
O O13 0.845018 0.820998 0.160673
O O14 0.201130 0.759487 0.715505
O O15 0.088068 0.375659 0.912841
O O16 0.680215 0.886793 0.457488
O O17 0.000000 0.000000 0.000000
#
# Coordination Sequence:
#
# PCOD9005615 Si02
#       8
#     2   2   2   2   2   2   2   2
#     4  12  23  39  69 104 148 190 227 276 358 433
#     4  11  21  40  65 101 144 183 227 285 353 422
#     4  10  21  38  62  97 142 182 219 275 346 419
#     4  11  25  46  74 105 134 186 243 301 350 415
#     4  12  25  45  70 100 144 190 230 289 354 418
#     4  11  23  37  62 102 147 183 225 275 343 434
#     4  12  25  41  67 108 145 182 234 285 354 430
#     4  11  26  52  77  98 134 188 251 301 358 409
#
# _framework density 22.979434999999999
#
# number of rings (size 3 to 8) (size 9 to 14) (size 15 to 20)
#    0.000    0.750    2.500    6.375    1.750    0.500 
#    0.000    0.625    0.000    0.000    0.000    0.000 
#    0.000    0.000    0.000    0.000    0.000    0.000 
#
# Total GULP energy -89439.445937 kJ/mol
# GULP energy per Si atom -5589.965371 kJ/mol
# Density = 2.292713 g / cm^3
# Si number density = 22.979435 Si / 1000 Ang^3
#
#
#
# Elastic Constant Matrix: (Units=GPa)
#
#
# Indices 1 2 3 4 5 6 
#
# 1 125.4917 7.3523 46.8217 -5.6163 7.5773 11.8733
# 2 7.3523 36.9150 9.3032 -1.7167 -1.1071 4.6516
# 3 46.8217 9.3032 93.0327 -18.4941 -16.7013 3.4715
# 4 -5.6163 -1.7167 -18.4941 41.1051 2.2651 -5.5640
# 5 7.5773 -1.1071 -16.7013 2.2651 50.2920 -16.9227
# 6 11.8733 4.6516 3.4715 -5.5640 -16.9227 38.2370
#
#
#
# Elastic Compliance Matrix: (Units=1/GPa)
#
#
# Indices 1 2 3 4 5 6 
#
# 1 0.011387 -0.000051 -0.006973 -0.002044 -0.005893 -0.005802
# 2 -0.000051 0.028301 -0.003095 -0.000665 -0.001713 -0.004001
# 3 -0.006973 -0.003095 0.017234 0.006982 0.008298 0.005665
# 4 -0.002044 -0.000665 0.006982 0.027735 0.003229 0.005547
# 5 -0.005893 -0.001713 0.008298 0.003229 0.028123 0.014201
# 6 -0.005802 -0.004001 0.005665 0.005547 0.014201 0.035019
#
#
# Mechanical properties :
#
#
# Convention : Reuss Voigt Hill
#
# Bulk Modulus (GPa) = 27.26031 42.48819 34.87425
# Shear Modulus (GPa) = 27.73699 38.72430 33.23065
#
# Velocity S-wave (km/s) = 3.47801 4.10954 3.80689
# Velocity P-wave (km/s) = 5.29315 6.40684 5.87643
#
# Compressibility (1/GPa) = 0.03668336
#
# Stress axis : x y z
#
# Youngs Moduli (GPa) = 87.82153 35.33413 58.02468
#
# Poissons Ratio (x) = 0.00181 0.40463
# Poissons Ratio (y) = 0.00449 0.17957
# Poissons Ratio (z) = 0.61242 0.10935
#
# Static dielectric constant tensor:
#      x y z
#    x 1.957960 0.042480 -0.035480 
#    y 0.042480 1.876250 -0.030930 
#    z -0.035480 -0.030930 1.967000 
# 
# From -- ./inp_files/614550.got.cif
#   From: 2010.05.17/outbox.cif.g08.bks.cpg/sg2_308_cif.got.tgz:614550.got - 2010.06.03 11:33:40.
