data_PCOD9005336
_publ_section_title
;
Structure prediction by ZEFSAII (Michael W. Deem and Ramdas Pophale) SiO2 
 PCOD9005336
Probable space group: P -1
;
_chemical_formula_sum "Si O2"
_cell_formula_units_Z 16
_cell_length_a 25.967833
_cell_length_b 10.215609
_cell_length_c 8.978021
_cell_angle_alpha 58.953495
_cell_angle_beta 128.278003
_cell_angle_gamma 154.101024
_cell_volume 810.620971
_symmetry_space_group_name_H-M "P -1"
_symmetry_group_IT_number 2
_symmetry_cell_setting 'triclinic'
loop_
_space_group_symop_operation_xyz
x,y,z
-x,-y,-z
loop_
_atom_site_type_symbol
_atom_site_label
_atom_site_fract_x
_atom_site_fract_y
_atom_site_fract_z
Si Si1 0.276655 0.780553 0.807369
Si Si2 0.123385 0.351940 0.528755
Si Si3 0.645468 0.153903 0.548690
Si Si4 0.643048 0.854607 0.542488
Si Si5 0.635205 0.278769 0.778033
Si Si6 0.949821 0.261334 0.151527
Si Si7 0.170333 0.063825 0.162127
Si Si8 0.929887 0.436862 0.269850
O O1 0.172025 0.468786 0.714095
O O2 0.194518 0.720844 0.806007
O O3 0.340343 0.009464 0.656507
O O4 0.369076 0.853061 0.019737
O O5 0.243278 0.543780 0.528879
O O6 0.070719 0.408959 0.342788
O O7 0.000000 0.000000 0.500000
O O8 0.663198 0.242285 0.697557
O O9 0.659411 0.002326 0.625039
O O10 0.502732 0.916378 0.378035
O O11 0.500000 0.500000 0.500000
O O12 0.743664 0.917384 0.681784
O O13 0.746280 0.627322 0.807487
O O14 0.888262 0.219909 0.207966
O O15 0.000000 0.500000 0.000000
O O16 0.864147 0.989782 0.043933
O O17 0.036886 0.760809 0.190781
O O18 0.000000 0.500000 0.500000
#
# Coordination Sequence:
#
# PCOD9005336 Si02
#       8
#     2   2   2   2   2   2   2   2
#     4  11  24  40  66  97 127 165 215 269 325 377
#     4  11  23  40  61  92 128 167 209 260 327 383
#     4  10  24  44  66  88 135 171 210 272 323 380
#     4  11  22  45  69  88 126 175 217 258 324 388
#     4  11  25  43  65  95 129 169 218 268 327 377
#     4  10  21  38  61  93 127 166 206 258 323 379
#     4  11  23  40  67  97 125 176 215 255 330 390
#     4  11  20  38  64  95 133 160 209 274 315 373
#
# _framework density 19.737953000000001
#
# number of rings (size 3 to 8) (size 9 to 14) (size 15 to 20)
#    0.000    1.250    3.750    3.000    7.000    2.500 
#    2.250    0.625    0.000    0.000    0.000    0.000 
#    0.000    0.000    0.000    0.000    0.000    0.000 
#
# Total GULP energy -89349.203713 kJ/mol
# GULP energy per Si atom -5584.325232 kJ/mol
# Density = 1.969303 g / cm^3
# Si number density = 19.737953 Si / 1000 Ang^3
#
#
#
# Elastic Constant Matrix: (Units=GPa)
#
#
# Indices 1 2 3 4 5 6 
#
# 1 105.3998 42.1398 23.5259 -0.2592 -19.1863 -11.3167
# 2 42.1398 105.3847 2.8848 13.9728 -13.8322 -9.4251
# 3 23.5259 2.8848 84.4361 2.3786 -13.4169 -21.5328
# 4 -0.2592 13.9728 2.3786 23.1321 -10.4333 -2.5183
# 5 -19.1863 -13.8322 -13.4169 -10.4333 30.5054 3.8027
# 6 -11.3167 -9.4251 -21.5328 -2.5183 3.8027 24.3288
#
#
#
# Elastic Compliance Matrix: (Units=1/GPa)
#
#
# Indices 1 2 3 4 5 6 
#
# 1 0.013618 -0.005165 -0.002114 0.007075 0.007460 0.002028
# 2 -0.005165 0.012884 0.002250 -0.007401 0.000588 0.003722
# 3 -0.002114 0.002250 0.016789 0.000966 0.005664 0.013962
# 4 0.007075 -0.007401 0.000966 0.057436 0.020665 0.003994
# 5 0.007460 0.000588 0.005664 0.020665 0.046859 0.003526
# 6 0.002028 0.003722 0.013962 0.003994 0.003526 0.055709
#
#
# Mechanical properties :
#
#
# Convention : Reuss Voigt Hill
#
# Bulk Modulus (GPa) = 30.09113 48.03573 39.06343
# Shear Modulus (GPa) = 22.27852 30.70460 26.49156
#
# Velocity S-wave (km/s) = 3.36328 3.94840 3.66753
# Velocity P-wave (km/s) = 5.51005 6.72132 6.14560
#
# Compressibility (1/GPa) = 0.03323239
#
# Stress axis : x y z
#
# Youngs Moduli (GPa) = 73.43338 77.61478 59.56261
#
# Poissons Ratio (x) = 0.40088 0.12594
# Poissons Ratio (y) = 0.37928 -0.13402
# Poissons Ratio (z) = 0.15527 -0.17464
#
# Static dielectric constant tensor:
#      x y z
#    x 1.713510 -0.036100 0.004950 
#    y -0.036100 1.715900 -0.010300 
#    z 0.004950 -0.010300 1.700900 
# 
# From -- ./inp_files/225856.got.cif
#   From: 2010.05.17/outbox.cif.g08.bks.cpg/sg2_113_cif.got.tgz:225856.got - 2010.06.03 11:33:40.
