data_PCOD9005407
_publ_section_title
;
Structure prediction by ZEFSAII (Michael W. Deem and Ramdas Pophale) SiO2 
 PCOD9005407
Probable space group: P -1
;
_chemical_formula_sum "Si O2"
_cell_formula_units_Z 14
_cell_length_a 6.617646
_cell_length_b 17.079854
_cell_length_c 10.873209
_cell_angle_alpha 41.945675
_cell_angle_beta 81.937081
_cell_angle_gamma 103.557302
_cell_volume 698.747191
_symmetry_space_group_name_H-M "P -1"
_symmetry_group_IT_number 2
_symmetry_cell_setting 'triclinic'
loop_
_space_group_symop_operation_xyz
x,y,z
-x,-y,-z
loop_
_atom_site_type_symbol
_atom_site_label
_atom_site_fract_x
_atom_site_fract_y
_atom_site_fract_z
Si Si1 0.071416 0.570013 0.166641
Si Si2 0.179037 0.015817 0.576208
Si Si3 0.105836 0.719167 0.376460
Si Si4 0.160722 0.921588 0.340568
Si Si5 0.519493 0.225803 0.920826
Si Si6 0.254851 0.370099 0.714111
Si Si7 0.262198 0.799671 0.712855
O O1 0.295892 0.667302 0.121629
O O2 0.998091 0.414496 0.372468
O O3 0.858040 0.582850 0.226646
O O4 0.139404 0.642708 0.944370
O O5 0.193968 0.878719 0.729245
O O6 0.061829 0.054969 0.650792
O O7 0.452711 0.131923 0.394917
O O8 0.000000 0.000000 0.500000
O O9 0.146459 0.846076 0.304409
O O10 0.342427 0.748014 0.250513
O O11 0.919829 0.683782 0.323819
O O12 0.177028 0.832889 0.554198
O O13 0.399733 0.069361 0.152993
O O14 0.310139 0.257392 0.887756
O O15 0.500000 0.500000 0.500000
#
# Coordination Sequence:
#
# PCOD9005407 Si02
#       7
#     2   2   2   2   2   2   2
#     4  11  21  38  64  89 116 156 205 240 287 361
#     4   9  18  37  57  84 115 155 202 235 279 348
#     4  11  24  39  58  92 125 152 196 248 300 355
#     4  11  24  39  59  92 126 153 194 246 301 355
#     4  11  21  39  64  87 116 158 200 247 293 348
#     4  11  20  40  64  87 112 158 205 243 291 344
#     4  10  21  38  62  86 119 160 197 243 293 347
#
# _framework density 20.035857
#
# number of rings (size 3 to 8) (size 9 to 14) (size 15 to 20)
#    0.000    1.429    2.857    4.714    0.000    4.571 
#    0.000    0.714    0.000    0.000    0.000    0.000 
#    0.000    0.000    0.000    0.000    0.000    0.000 
#
# Total GULP energy -78182.142385 kJ/mol
# GULP energy per Si atom -5584.438742 kJ/mol
# Density = 1.999025 g / cm^3
# Si number density = 20.035857 Si / 1000 Ang^3
#
#
#
# Elastic Constant Matrix: (Units=GPa)
#
#
# Indices 1 2 3 4 5 6 
#
# 1 95.7159 5.5787 2.7641 -5.3193 -8.8954 -4.6791
# 2 5.5787 40.7638 -10.2427 -11.5228 -2.1703 -11.7392
# 3 2.7641 -10.2427 87.9955 -2.5285 2.0149 2.6610
# 4 -5.3193 -11.5228 -2.5285 16.7540 1.5810 4.6815
# 5 -8.8954 -2.1703 2.0149 1.5810 28.1596 -1.0273
# 6 -4.6791 -11.7392 2.6610 4.6815 -1.0273 14.1837
#
#
#
# Elastic Compliance Matrix: (Units=1/GPa)
#
#
# Indices 1 2 3 4 5 6 
#
# 1 0.011072 0.000187 -0.000444 0.002296 0.003538 0.003389
# 2 0.000187 0.038474 0.004245 0.020030 0.002496 0.024678
# 3 -0.000444 0.004245 0.012051 0.004846 -0.000968 -0.000564
# 4 0.002296 0.020030 0.004846 0.077832 -0.002793 -0.009466
# 5 0.003538 0.002496 -0.000968 -0.002793 0.037305 0.007039
# 6 0.003389 0.024678 -0.000564 -0.009466 0.007039 0.095786
#
#
# Mechanical properties :
#
#
# Convention : Reuss Voigt Hill
#
# Bulk Modulus (GPa) = 14.37366 24.51950 19.44658
# Shear Modulus (GPa) = 17.37710 26.91114 22.14412
#
# Velocity S-wave (km/s) = 2.94819 3.66888 3.32810
# Velocity P-wave (km/s) = 4.33343 5.49654 4.94927
#
# Compressibility (1/GPa) = 0.06957168
#
# Stress axis : x y z
#
# Youngs Moduli (GPa) = 90.32129 25.99141 82.98286
#
# Poissons Ratio (x) = -0.00485 0.03681
# Poissons Ratio (y) = -0.01685 -0.35223
# Poissons Ratio (z) = 0.04007 -0.11032
#
# Static dielectric constant tensor:
#      x y z
#    x 1.710140 -0.016190 0.010870 
#    y -0.016190 1.690630 0.019020 
#    z 0.010870 0.019020 1.743650 
# 
# From -- ./inp_files/368433.got.cif
#   From: 2010.05.17/outbox.cif.g08.bks.cpg/sg2_185_cif.got.tgz:368433.got - 2010.06.03 11:33:40.
