data_PCOD9005500
_publ_section_title
;
Structure prediction by ZEFSAII (Michael W. Deem and Ramdas Pophale) SiO2 
 PCOD9005500
Probable space group: P -1
;
_chemical_formula_sum "Si O2"
_cell_formula_units_Z 14
_cell_length_a 11.964389
_cell_length_b 9.934838
_cell_length_c 8.911162
_cell_angle_alpha 133.801119
_cell_angle_beta 69.032978
_cell_angle_gamma 124.835577
_cell_volume 626.225854
_symmetry_space_group_name_H-M "P -1"
_symmetry_group_IT_number 2
_symmetry_cell_setting 'triclinic'
loop_
_space_group_symop_operation_xyz
x,y,z
-x,-y,-z
loop_
_atom_site_type_symbol
_atom_site_label
_atom_site_fract_x
_atom_site_fract_y
_atom_site_fract_z
Si Si1 0.396700 0.688232 0.415196
Si Si2 0.403064 0.750944 0.814605
Si Si3 0.323907 0.029428 0.679392
Si Si4 0.138237 0.208205 0.782430
Si Si5 0.173562 0.042859 0.333364
Si Si6 0.162233 0.625088 0.043106
Si Si7 0.620628 0.734069 0.863080
O O1 0.411615 0.710730 0.605460
O O2 0.542828 0.824629 0.371191
O O3 0.349274 0.444010 0.218036
O O4 0.302485 0.791653 0.492261
O O5 0.251340 0.677646 0.888953
O O6 0.467966 0.634696 0.794588
O O7 0.500000 0.000000 0.000000
O O8 0.206102 0.086628 0.740287
O O9 0.360568 0.099036 0.888638
O O10 0.169470 0.195223 0.580897
O O11 0.190074 0.454581 0.987613
O O12 0.974225 0.077016 0.767381
O O13 0.283932 0.161387 0.245068
O O14 0.197431 0.859891 0.261785
O O15 0.000000 0.500000 0.000000
#
# Coordination Sequence:
#
# PCOD9005500 Si02
#       7
#     2   2   2   2   2   2   2
#     4  11  24  40  61  86 125 159 199 254 309 358
#     4  12  21  39  66  93 119 158 207 255 302 357
#     4  11  24  40  57  89 124 162 202 252 305 368
#     4  10  22  39  61  88 121 163 202 247 309 364
#     4  10  21  39  63  88 119 158 208 254 297 363
#     4  10  21  38  62  91 121 154 199 252 303 358
#     4  12  23  39  62  91 121 159 206 254 306 359
#
# _framework density 22.356152000000002
#
# number of rings (size 3 to 8) (size 9 to 14) (size 15 to 20)
#    0.000    1.143    2.857    3.429    0.000    1.714 
#    0.000    0.714    0.000    0.000    0.000    0.000 
#    0.000    0.000    0.000    0.000    0.000    0.000 
#
# Total GULP energy -78252.523867 kJ/mol
# GULP energy per Si atom -5589.465990 kJ/mol
# Density = 2.230527 g / cm^3
# Si number density = 22.356152 Si / 1000 Ang^3
#
#
#
# Elastic Constant Matrix: (Units=GPa)
#
#
# Indices 1 2 3 4 5 6 
#
# 1 105.5023 42.7646 13.9017 0.3774 -26.2339 -14.2156
# 2 42.7646 76.3148 22.1761 13.7385 -13.5296 4.4210
# 3 13.9017 22.1761 68.5037 12.5262 -18.8599 6.6550
# 4 0.3774 13.7385 12.5262 56.2283 -14.1995 -24.5870
# 5 -26.2339 -13.5296 -18.8599 -14.1995 30.4239 3.9026
# 6 -14.2156 4.4210 6.6550 -24.5870 3.9026 47.8878
#
#
#
# Elastic Compliance Matrix: (Units=1/GPa)
#
#
# Indices 1 2 3 4 5 6 
#
# 1 0.019192 -0.010818 0.000934 0.011187 0.016128 0.010996
# 2 -0.010818 0.021561 -0.003550 -0.009826 -0.005331 -0.009319
# 3 0.000934 -0.003550 0.019369 -0.002684 0.010535 -0.004323
# 4 0.011187 -0.009826 -0.002684 0.034005 0.016830 0.020688
# 5 0.016128 -0.005331 0.010535 0.016830 0.057797 0.007747
# 6 0.010996 -0.009319 -0.004323 0.020688 0.007747 0.035598
#
#
# Mechanical properties :
#
#
# Convention : Reuss Voigt Hill
#
# Bulk Modulus (GPa) = 30.07250 45.33397 37.70324
# Shear Modulus (GPa) = 22.17542 38.33990 30.25766
#
# Velocity S-wave (km/s) = 3.15289 4.14570 3.68290
# Velocity P-wave (km/s) = 5.17059 6.57555 5.91493
#
# Compressibility (1/GPa) = 0.03325297
#
# Stress axis : x y z
#
# Youngs Moduli (GPa) = 52.10427 46.38044 51.62976
#
# Poissons Ratio (x) = 0.50173 -0.04820
# Poissons Ratio (y) = 0.56365 0.18329
# Poissons Ratio (z) = -0.04864 0.16466
#
# Static dielectric constant tensor:
#      x y z
#    x 1.850340 -0.049870 -0.027740 
#    y -0.049870 1.813310 0.056340 
#    z -0.027740 0.056340 1.817280 
# 
# From -- ./inp_files/184625.got.cif
#   From: 2010.05.17/outbox.cif.g08.bks.cpg/sg2_93_cif.got.tgz:184625.got - 2010.06.03 11:33:40.
