data_PCOD9005282
_publ_section_title
;
Structure prediction by ZEFSAII (Michael W. Deem and Ramdas Pophale) SiO2 
 PCOD9005282
Probable space group: P -1
;
_chemical_formula_sum "Si O2"
_cell_formula_units_Z 16
_cell_length_a 14.967708
_cell_length_b 7.503840
_cell_length_c 8.811455
_cell_angle_alpha 110.321052
_cell_angle_beta 69.998621
_cell_angle_gamma 61.078543
_cell_volume 636.493957
_symmetry_space_group_name_H-M "P -1"
_symmetry_group_IT_number 2
_symmetry_cell_setting 'triclinic'
loop_
_space_group_symop_operation_xyz
x,y,z
-x,-y,-z
loop_
_atom_site_type_symbol
_atom_site_label
_atom_site_fract_x
_atom_site_fract_y
_atom_site_fract_z
Si Si1 0.674317 0.355329 0.753399
Si Si2 0.103360 0.823677 0.244301
Si Si3 0.891181 0.156227 0.240885
Si Si4 0.886895 0.588731 0.706067
Si Si5 0.277674 0.406067 0.752639
Si Si6 0.492226 0.764212 0.255489
Si Si7 0.370032 0.201276 0.238439
Si Si8 0.141254 0.229930 0.896180
O O1 0.813905 0.147003 0.690815
O O2 0.614239 0.254043 0.681986
O O3 0.672361 0.524899 0.681873
O O4 0.584550 0.557884 0.004180
O O5 0.086148 0.649024 0.293574
O O6 0.192171 0.638944 0.996802
O O7 0.972590 0.083740 0.323869
O O8 0.791327 0.447459 0.321717
O O9 0.838600 0.013176 0.239244
O O10 0.000000 0.000000 0.000000
O O11 0.749683 0.756666 0.747039
O O12 0.000000 0.500000 0.500000
O O13 0.865546 0.756570 0.912579
O O14 0.419255 0.300321 0.673254
O O15 0.249658 0.227889 0.768577
O O16 0.419583 0.051067 0.323598
O O17 0.500000 0.000000 0.000000
O O18 0.000000 0.500000 0.000000
#
# Coordination Sequence:
#
# PCOD9005282 Si02
#       8
#     2   2   2   2   2   2   2   2
#     4   8  15  26  43  66 102 132 161 221 280 299
#     4   8  15  29  45  68 105 132 173 214 263 322
#     4  10  17  28  49  76 104 141 180 230 271 315
#     4  10  20  33  52  82 119 146 175 227 288 335
#     4   9  18  28  45  78 110 131 175 236 273 310
#     4   9  16  27  42  70 100 133 170 221 265 321
#     4   9  17  30  50  73 101 141 178 221 265 320
#     4  11  18  32  52  77 108 148 183 224 270 331
#
# _framework density 25.137709000000001
#
# number of rings (size 3 to 8) (size 9 to 14) (size 15 to 20)
#    0.000    2.750    3.750    2.250    0.000    6.000 
#    0.000    0.000    0.000   18.750    0.000    4.375 
#    0.000    0.000    0.000    0.000    0.000    0.000 
#
# Total GULP energy -89555.301140 kJ/mol
# GULP energy per Si atom -5597.206321 kJ/mol
# Density = 2.508049 g / cm^3
# Si number density = 25.137709 Si / 1000 Ang^3
#
#
#
# Elastic Constant Matrix: (Units=GPa)
#
#
# Indices 1 2 3 4 5 6 
#
# 1 191.4631 81.3322 34.6452 -8.2766 -14.8793 -23.6756
# 2 81.3322 153.5600 22.3910 -3.2240 -5.3649 -32.8162
# 3 34.6452 22.3910 90.4511 -3.3481 -7.0435 -11.9334
# 4 -8.2766 -3.2240 -3.3481 37.7922 5.0500 2.6681
# 5 -14.8793 -5.3649 -7.0435 5.0500 34.8054 0.2765
# 6 -23.6756 -32.8162 -11.9334 2.6681 0.2765 42.2634
#
#
#
# Elastic Compliance Matrix: (Units=1/GPa)
#
#
# Indices 1 2 3 4 5 6 
#
# 1 0.007240 -0.003298 -0.001633 0.000806 0.002131 0.000969
# 2 -0.003298 0.009463 -0.000379 -0.000328 -0.000023 0.005414
# 3 -0.001633 -0.000379 0.012206 0.000315 0.001650 0.002207
# 4 0.000806 -0.000328 0.000315 0.027215 -0.003580 -0.001408
# 5 0.002131 -0.000023 0.001650 -0.003580 0.030479 0.001669
# 6 0.000969 0.005414 0.002207 -0.001408 0.001669 0.029109
#
#
# Mechanical properties :
#
#
# Convention : Reuss Voigt Hill
#
# Bulk Modulus (GPa) = 54.67575 79.13457 66.90516
# Shear Modulus (GPa) = 37.75618 42.77925 40.26771
#
# Velocity S-wave (km/s) = 3.87973 4.12976 4.00670
# Velocity P-wave (km/s) = 6.47051 7.36808 6.93383
#
# Compressibility (1/GPa) = 0.01828964
#
# Stress axis : x y z
#
# Youngs Moduli (GPa) = 138.12820 105.66945 81.92472
#
# Poissons Ratio (x) = 0.34848 0.13378
# Poissons Ratio (y) = 0.45553 0.03106
# Poissons Ratio (z) = 0.22555 0.04006
#
# Static dielectric constant tensor:
#      x y z
#    x 1.952360 0.007690 -0.015450 
#    y 0.007690 1.955460 0.053730 
#    z -0.015450 0.053730 2.105220 
# 
# From -- ./inp_files/295497.got.cif
#   From: 2010.05.17/outbox.cif.g08.bks.cpg/sg2_148_cif.got.tgz:295497.got - 2010.06.03 11:33:40.
