data_PCOD9005038
_publ_section_title
;
Structure prediction by ZEFSAII (Michael W. Deem and Ramdas Pophale) SiO2 
 PCOD9005038
Probable space group: P -1
;
_chemical_formula_sum "Si O2"
_cell_formula_units_Z 14
_cell_length_a 7.956181
_cell_length_b 9.031348
_cell_length_c 11.306496
_cell_angle_alpha 65.491291
_cell_angle_beta 85.718513
_cell_angle_gamma 49.128556
_cell_volume 535.636457
_symmetry_space_group_name_H-M "P -1"
_symmetry_group_IT_number 2
_symmetry_cell_setting 'triclinic'
loop_
_space_group_symop_operation_xyz
x,y,z
-x,-y,-z
loop_
_atom_site_type_symbol
_atom_site_label
_atom_site_fract_x
_atom_site_fract_y
_atom_site_fract_z
Si Si1 0.908489 0.269361 0.467702
Si Si2 0.986217 0.000312 0.139277
Si Si3 0.641481 0.737192 0.071953
Si Si4 0.492534 0.806842 0.807960
Si Si5 0.165342 0.010563 0.325462
Si Si6 0.693424 0.721019 0.345235
Si Si7 0.451224 0.526584 0.253418
O O1 0.965271 0.070925 0.603945
O O2 0.860094 0.469793 0.470061
O O3 0.661824 0.380101 0.384181
O O4 0.096081 0.167933 0.386651
O O5 0.048370 0.123120 0.167814
O O6 0.197192 0.737202 0.244598
O O7 0.728287 0.125741 0.140449
O O8 0.000000 0.000000 0.000000
O O9 0.767195 0.674384 0.216359
O O10 0.526844 0.635553 0.136622
O O11 0.682242 0.706954 0.936332
O O12 0.500000 0.000000 0.000000
O O13 0.567310 0.629391 0.764434
O O14 0.372498 0.053427 0.685855
O O15 0.434722 0.818714 0.347876
#
# Coordination Sequence:
#
# PCOD9005038 Si02
#       7
#     2   2   2   2   2   2   2
#     4  10  22  39  67  86 114 163 205 247 288 357
#     4  12  23  36  62  94 119 155 199 245 301 360
#     4   9  18  34  57  85 118 157 194 239 293 350
#     4  11  22  37  57  90 129 152 197 248 301 353
#     4  11  21  40  66  87 116 158 213 238 295 363
#     4  10  21  38  60  88 120 158 199 252 292 352
#     4  11  21  37  62  87 118 165 193 244 304 349
#
# _framework density 26.137131
#
# number of rings (size 3 to 8) (size 9 to 14) (size 15 to 20)
#    0.000    1.429    5.714    0.857    0.000    1.143 
#    0.000    1.429    0.000    9.429    0.000    0.000 
#    0.000    0.000    0.000    0.000    0.000    0.000 
#
# Total GULP energy -77975.597546 kJ/mol
# GULP energy per Si atom -5569.685539 kJ/mol
# Density = 2.607764 g / cm^3
# Si number density = 26.137131 Si / 1000 Ang^3
#
#
#
# Elastic Constant Matrix: (Units=GPa)
#
#
# Indices 1 2 3 4 5 6 
#
# 1 41.2862 20.7034 -5.1811 14.5766 6.3582 15.8082
# 2 20.7034 122.7800 -2.9115 9.9151 2.8590 20.6418
# 3 -5.1811 -2.9115 38.1744 -0.6171 4.5671 7.5147
# 4 14.5766 9.9151 -0.6171 42.8219 5.5645 -6.3491
# 5 6.3582 2.8590 4.5671 5.5645 15.1050 -5.0132
# 6 15.8082 20.6418 7.5147 -6.3491 -5.0132 55.0323
#
#
#
# Elastic Compliance Matrix: (Units=1/GPa)
#
#
# Indices 1 2 3 4 5 6 
#
# 1 0.040191 -0.002463 0.010482 -0.012627 -0.020059 -0.015336
# 2 -0.002463 0.009302 0.001183 -0.001577 -0.001585 -0.003269
# 3 0.010482 0.001183 0.031501 -0.002681 -0.016344 -0.009554
# 4 -0.012627 -0.001577 -0.002681 0.029369 -0.001804 0.007809
# 5 -0.020059 -0.001585 -0.016344 -0.001804 0.085933 0.016209
# 6 -0.015336 -0.003269 -0.009554 0.007809 0.016209 0.027485
#
#
# Mechanical properties :
#
#
# Convention : Reuss Voigt Hill
#
# Bulk Modulus (GPa) = 10.06069 25.27357 17.66713
# Shear Modulus (GPa) = 20.96335 35.23383 28.09859
#
# Velocity S-wave (km/s) = 2.83513 3.67555 3.28234
# Velocity P-wave (km/s) = 3.81770 5.26341 4.59773
#
# Compressibility (1/GPa) = 0.09939679
#
# Stress axis : x y z
#
# Youngs Moduli (GPa) = 24.88097 107.50393 31.74488
#
# Poissons Ratio (x) = 0.26483 -0.33274
# Poissons Ratio (y) = 0.06129 -0.03755
# Poissons Ratio (z) = -0.26079 -0.12716
#
# Static dielectric constant tensor:
#      x y z
#    x 2.234400 0.102330 0.094440 
#    y 0.102330 2.040200 0.009100 
#    z 0.094440 0.009100 2.341080 
# 
# From -- ./inp_files/178471.got.cif
#   From: 2010.05.17/outbox.cif.g08.bks.cpg/sg2_90_cif.got.tgz:178471.got - 2010.06.03 11:33:40.
