data_PCOD9005042
_publ_section_title
;
Structure prediction by ZEFSAII (Michael W. Deem and Ramdas Pophale) SiO2 
 PCOD9005042
Probable space group: P -1
;
_chemical_formula_sum "Si O2"
_cell_formula_units_Z 14
_cell_length_a 7.861324
_cell_length_b 17.599795
_cell_length_c 12.151158
_cell_angle_alpha 132.737816
_cell_angle_beta 108.850197
_cell_angle_gamma 35.217857
_cell_volume 596.497684
_symmetry_space_group_name_H-M "P -1"
_symmetry_group_IT_number 2
_symmetry_cell_setting 'triclinic'
loop_
_space_group_symop_operation_xyz
x,y,z
-x,-y,-z
loop_
_atom_site_type_symbol
_atom_site_label
_atom_site_fract_x
_atom_site_fract_y
_atom_site_fract_z
Si Si1 0.872336 0.648796 0.712296
Si Si2 0.378222 0.685608 0.066491
Si Si3 0.051141 0.695053 0.302214
Si Si4 0.154938 0.418239 0.761422
Si Si5 0.550070 0.405118 0.522198
Si Si6 0.205410 0.000681 0.587982
Si Si7 0.109178 0.973011 0.871270
O O1 0.453489 0.877936 0.839890
O O2 0.000000 0.500000 0.500000
O O3 0.906538 0.598028 0.798906
O O4 0.179293 0.579701 0.682000
O O5 0.623162 0.621624 0.145988
O O6 0.004921 0.852131 0.209339
O O7 0.597825 0.478658 0.870336
O O8 0.241032 0.818347 0.062409
O O9 0.163144 0.682079 0.428945
O O10 0.973153 0.612863 0.219558
O O11 0.786728 0.908556 0.405779
O O12 0.412325 0.233082 0.546014
O O13 0.500000 0.500000 0.500000
O O14 0.723790 0.211249 0.331975
O O15 0.000000 0.000000 0.500000
O O16 0.000000 0.000000 0.000000
#
# Coordination Sequence:
#
# PCOD9005042 Si02
#       7
#     2   2   2   2   2   2   2
#     4  10  21  41  66  91 126 171 212 264 325 382
#     4  11  23  41  63  93 129 169 213 267 325 383
#     4  12  23  39  63  96 128 164 216 272 322 385
#     4  11  22  41  66  94 126 171 218 267 324 383
#     4  11  22  39  63  92 126 171 219 265 320 391
#     4  10  21  38  60  88 123 162 205 261 321 378
#     4  11  23  43  66  92 128 172 215 268 328 386
#
# _framework density 23.470334999999999
#
# number of rings (size 3 to 8) (size 9 to 14) (size 15 to 20)
#    0.000    1.143    0.000    9.857    0.000    0.000 
#    0.000    4.286    0.000    0.000    0.000    0.000 
#    0.000    0.000    0.000    0.000    0.000    0.000 
#
# Total GULP energy -78088.380333 kJ/mol
# GULP energy per Si atom -5577.741452 kJ/mol
# Density = 2.341692 g / cm^3
# Si number density = 23.470335 Si / 1000 Ang^3
#
#
#
# Elastic Constant Matrix: (Units=GPa)
#
#
# Indices 1 2 3 4 5 6 
#
# 1 83.8632 19.4805 -10.4554 -5.0566 -1.7162 8.7744
# 2 19.4805 131.9998 7.0091 -10.1520 15.3737 13.6026
# 3 -10.4554 7.0091 64.2473 4.6092 -7.6008 -3.0209
# 4 -5.0566 -10.1520 4.6092 37.1412 5.6929 -5.3677
# 5 -1.7162 15.3737 -7.6008 5.6929 25.9562 1.2724
# 6 8.7744 13.6026 -3.0209 -5.3677 1.2724 32.2299
#
#
#
# Elastic Compliance Matrix: (Units=1/GPa)
#
#
# Indices 1 2 3 4 5 6 
#
# 1 0.013077 -0.002157 0.002599 0.000042 0.003017 -0.002518
# 2 -0.002157 0.009390 -0.002574 0.003267 -0.007037 -0.002795
# 3 0.002599 -0.002574 0.017464 -0.003506 0.007523 0.001135
# 4 0.000042 0.003267 -0.003506 0.030294 -0.009785 0.003713
# 5 0.003017 -0.007037 0.007523 -0.009785 0.047275 -0.000642
# 6 -0.002518 -0.002795 0.001135 0.003713 -0.000642 0.033642
#
#
# Mechanical properties :
#
#
# Convention : Reuss Voigt Hill
#
# Bulk Modulus (GPa) = 28.03677 34.68649 31.36163
# Shear Modulus (GPa) = 29.88759 36.67053 33.27906
#
# Velocity S-wave (km/s) = 3.57237 3.95703 3.76961
# Velocity P-wave (km/s) = 5.38399 5.97398 5.68664
#
# Compressibility (1/GPa) = 0.03566745
#
# Stress axis : x y z
#
# Youngs Moduli (GPa) = 76.47064 106.50097 57.26223
#
# Poissons Ratio (x) = 0.22967 -0.14882
# Poissons Ratio (y) = 0.16491 0.14737
# Poissons Ratio (z) = -0.19874 0.27410
#
# Static dielectric constant tensor:
#      x y z
#    x 2.045100 0.101830 -0.024250 
#    y 0.101830 2.021760 0.048990 
#    z -0.024250 0.048990 1.920880 
# 
# From -- ./inp_files/182834.got.cif
#   From: 2010.05.17/outbox.cif.g08.bks.cpg/sg2_92_cif.got.tgz:182834.got - 2010.06.03 11:33:40.
