data_PCOD9005048
_publ_section_title
;
Structure prediction by ZEFSAII (Michael W. Deem and Ramdas Pophale) SiO2 
 PCOD9005048
Probable space group: P -1
;
_chemical_formula_sum "Si O2"
_cell_formula_units_Z 16
_cell_length_a 9.317431
_cell_length_b 9.011366
_cell_length_c 14.228300
_cell_angle_alpha 86.098186
_cell_angle_beta 130.632161
_cell_angle_gamma 121.003779
_cell_volume 708.412172
_symmetry_space_group_name_H-M "P -1"
_symmetry_group_IT_number 2
_symmetry_cell_setting 'triclinic'
loop_
_space_group_symop_operation_xyz
x,y,z
-x,-y,-z
loop_
_atom_site_type_symbol
_atom_site_label
_atom_site_fract_x
_atom_site_fract_y
_atom_site_fract_z
Si Si1 0.755404 0.793767 0.880947
Si Si2 0.611028 0.248847 0.604540
Si Si3 0.540997 0.134691 0.377159
Si Si4 0.564172 0.880363 0.149539
Si Si5 0.049555 0.645653 0.592862
Si Si6 0.090594 0.120671 0.437345
Si Si7 0.222276 0.537854 0.149420
Si Si8 0.571661 0.230690 0.109011
O O1 0.616740 0.816742 0.740490
O O2 0.782972 0.638650 0.867509
O O3 0.589003 0.731296 0.904500
O O4 0.000000 0.000000 0.000000
O O5 0.668114 0.266748 0.517664
O O6 0.329889 0.162641 0.496809
O O7 0.763658 0.421281 0.735215
O O8 0.619188 0.082302 0.649892
O O9 0.726268 0.165268 0.376165
O O10 0.452980 0.735551 0.194823
O O11 0.489891 0.018836 0.104816
O O12 0.455873 0.759173 0.013109
O O13 0.855609 0.009791 0.273511
O O14 0.165288 0.637715 0.737122
O O15 0.000000 0.500000 0.500000
O O16 0.857659 0.680130 0.527210
O O17 0.000000 0.000000 0.500000
O O18 0.000000 0.500000 0.000000
#
# Coordination Sequence:
#
# PCOD9005048 Si02
#       8
#     2   2   2   2   2   2   2   2
#     4  11  24  42  63  89 125 168 210 259 320 372
#     4  11  23  42  65  95 127 164 216 259 327 376
#     4  10  23  42  63  91 127 167 206 266 315 380
#     4  10  21  41  65  93 124 162 215 255 320 372
#     4  10  21  38  60  88 130 164 204 254 314 370
#     4  11  20  37  65  92 123 165 202 263 312 381
#     4  12  25  42  64  90 129 169 212 263 311 384
#     4   9  21  40  63  91 122 164 206 261 308 374
#
# _framework density 22.585722000000001
#
# number of rings (size 3 to 8) (size 9 to 14) (size 15 to 20)
#    0.000    1.500    2.500    3.000    5.250    2.000 
#    2.250    0.000    0.000    0.000    0.000    0.000 
#    0.000    0.000    0.000    0.000    0.000    0.000 
#
# Total GULP energy -89432.248808 kJ/mol
# GULP energy per Si atom -5589.515550 kJ/mol
# Density = 2.253432 g / cm^3
# Si number density = 22.585722 Si / 1000 Ang^3
#
#
#
# Elastic Constant Matrix: (Units=GPa)
#
#
# Indices 1 2 3 4 5 6 
#
# 1 87.1172 16.0774 36.7889 -4.5390 -14.1801 -18.4818
# 2 16.0774 82.2118 16.4593 9.8289 2.4672 -33.0382
# 3 36.7889 16.4593 104.5400 11.6321 -22.9462 -18.4461
# 4 -4.5390 9.8289 11.6321 34.6706 -6.3179 -1.3419
# 5 -14.1801 2.4672 -22.9462 -6.3179 46.2301 -0.6301
# 6 -18.4818 -33.0382 -18.4461 -1.3419 -0.6301 39.8022
#
#
#
# Elastic Compliance Matrix: (Units=1/GPa)
#
#
# Indices 1 2 3 4 5 6 
#
# 1 0.015129 -0.000935 -0.004145 0.004413 0.003298 0.004529
# 2 -0.000935 0.019172 0.000246 -0.005356 -0.001710 0.015386
# 3 -0.004145 0.000246 0.013258 -0.004016 0.004807 0.004364
# 4 0.004413 -0.005356 -0.004016 0.032915 0.004102 -0.003084
# 5 0.003298 -0.001710 0.004807 0.004102 0.025719 0.002885
# 6 0.004529 0.015386 0.004364 -0.003084 0.002885 0.041963
#
#
# Mechanical properties :
#
#
# Convention : Reuss Voigt Hill
#
# Bulk Modulus (GPa) = 26.39179 45.83559 36.11369
# Shear Modulus (GPa) = 29.33330 37.77682 33.55506
#
# Velocity S-wave (km/s) = 3.60773 4.09418 3.85863
# Velocity P-wave (km/s) = 5.39118 6.53359 5.98969
#
# Compressibility (1/GPa) = 0.03789058
#
# Stress axis : x y z
#
# Youngs Moduli (GPa) = 66.09694 52.15871 75.42861
#
# Poissons Ratio (x) = 0.04879 0.31265
# Poissons Ratio (y) = 0.06183 -0.01856
# Poissons Ratio (z) = 0.27397 -0.01284
#
# Static dielectric constant tensor:
#      x y z
#    x 1.839080 0.050590 0.018040 
#    y 0.050590 1.877710 0.063850 
#    z 0.018040 0.063850 1.855640 
# 
# From -- ./inp_files/495299.got.cif
#   From: 2010.05.17/outbox.cif.g08.bks.cpg/sg2_248_cif.got.tgz:495299.got - 2010.06.03 11:33:40.
