data_PCOD9005964
_publ_section_title
;
Structure prediction by ZEFSAII (Michael W. Deem and Ramdas Pophale) SiO2 
 PCOD9005964
Probable space group: P -1
;
_chemical_formula_sum "Si O2"
_cell_formula_units_Z 16
_cell_length_a 14.725716
_cell_length_b 15.161638
_cell_length_c 8.869547
_cell_angle_alpha 51.843569
_cell_angle_beta 87.941035
_cell_angle_gamma 130.676334
_cell_volume 800.136870
_symmetry_space_group_name_H-M "P -1"
_symmetry_group_IT_number 2
_symmetry_cell_setting 'triclinic'
loop_
_space_group_symop_operation_xyz
x,y,z
-x,-y,-z
loop_
_atom_site_type_symbol
_atom_site_label
_atom_site_fract_x
_atom_site_fract_y
_atom_site_fract_z
Si Si1 0.755518 0.548243 0.427334
Si Si2 0.248813 0.877521 0.460065
Si Si3 0.773867 0.668452 0.745553
Si Si4 0.845527 0.833332 0.897275
Si Si5 0.533232 0.676031 0.100861
Si Si6 0.348768 0.890185 0.734819
Si Si7 0.405799 0.834769 0.317095
Si Si8 0.873027 0.559270 0.710951
O O1 0.579555 0.420593 0.640251
O O2 0.705712 0.386097 0.505656
O O3 0.857414 0.611385 0.501883
O O4 0.851450 0.741768 0.116702
O O5 0.230696 0.835340 0.684165
O O6 0.296813 0.813937 0.436775
O O7 0.070745 0.737647 0.550909
O O8 0.400121 0.130749 0.160631
O O9 0.773091 0.708040 0.874983
O O10 0.603055 0.516087 0.814411
O O11 0.793588 0.555215 0.849270
O O12 0.957490 0.911030 0.410308
O O13 0.703522 0.778672 0.005781
O O14 0.500000 0.000000 0.500000
O O15 0.447307 0.055397 0.690546
O O16 0.240788 0.673932 0.041527
O O17 0.500000 0.000000 0.000000
#
# Coordination Sequence:
#
# PCOD9005964 Si02
#       8
#     2   2   2   2   2   2   2   2
#     4  11  24  40  67  91 130 173 201 263 323 377
#     4  11  23  39  66  91 127 168 209 260 313 382
#     4  10  23  42  66  90 130 163 215 273 309 371
#     4  11  24  43  65  95 124 167 218 265 318 375
#     4  11  22  44  65  94 126 170 212 260 323 376
#     4  10  21  38  64  90 122 170 207 255 316 372
#     4  11  20  41  60  92 128 160 209 255 317 377
#     4  11  22  42  61  93 130 167 208 259 320 378
#
# _framework density 19.996579000000001
#
# number of rings (size 3 to 8) (size 9 to 14) (size 15 to 20)
#    0.000    1.250    3.750    3.375    5.250    2.500 
#    2.250    0.000    0.000    0.000    0.000    0.000 
#    0.000    0.000    0.000    0.000    0.000    0.000 
#
# Total GULP energy -89376.740065 kJ/mol
# GULP energy per Si atom -5586.046254 kJ/mol
# Density = 1.995107 g / cm^3
# Si number density = 19.996579 Si / 1000 Ang^3
#
#
#
# Elastic Constant Matrix: (Units=GPa)
#
#
# Indices 1 2 3 4 5 6 
#
# 1 78.1091 33.7485 23.9302 2.8647 -0.5313 12.5996
# 2 33.7485 97.6894 10.3459 -0.3400 0.3359 3.9713
# 3 23.9302 10.3459 51.8489 8.8147 5.4556 14.8431
# 4 2.8647 -0.3400 8.8147 28.0610 4.3398 2.8475
# 5 -0.5313 0.3359 5.4556 4.3398 23.5216 -8.1694
# 6 12.5996 3.9713 14.8431 2.8475 -8.1694 23.2044
#
#
#
# Elastic Compliance Matrix: (Units=1/GPa)
#
#
# Indices 1 2 3 4 5 6 
#
# 1 0.017635 -0.005280 -0.005694 0.000452 -0.000063 -0.005108
# 2 -0.005280 0.012063 -0.000358 0.000704 -0.000012 0.000941
# 3 -0.005694 -0.000358 0.029908 -0.004755 -0.013136 -0.020019
# 4 0.000452 0.000704 -0.004755 0.038773 -0.007718 -0.004800
# 5 -0.000063 -0.000012 -0.013136 -0.007718 0.057243 0.029539
# 6 -0.005108 0.000941 -0.020019 -0.004800 0.029539 0.069502
#
#
# Mechanical properties :
#
#
# Convention : Reuss Voigt Hill
#
# Bulk Modulus (GPa) = 27.06924 40.41074 33.73999
# Shear Modulus (GPa) = 19.22325 25.59892 22.41109
#
# Velocity S-wave (km/s) = 3.10389 3.58182 3.35139
# Velocity P-wave (km/s) = 5.13925 6.11217 5.64670
#
# Compressibility (1/GPa) = 0.03694230
#
# Stress axis : x y z
#
# Youngs Moduli (GPa) = 56.70484 82.90011 33.43602
#
# Poissons Ratio (x) = 0.43771 0.19038
# Poissons Ratio (y) = 0.29940 0.01197
# Poissons Ratio (z) = 0.32287 0.02967
#
# Static dielectric constant tensor:
#      x y z
#    x 1.721140 0.015690 0.005090 
#    y 0.015690 1.708720 0.001180 
#    z 0.005090 0.001180 1.696010 
# 
# From -- ./inp_files/312544.got.cif
#   From: 2010.05.17/outbox.cif.g08.bks.cpg/sg2_157_cif.got.tgz:312544.got - 2010.06.03 11:33:40.
