data_PCOD9005012
_publ_section_title
;
Structure prediction by ZEFSAII (Michael W. Deem and Ramdas Pophale) SiO2 
 PCOD9005012
Probable space group: P -1
;
_chemical_formula_sum "Si O2"
_cell_formula_units_Z 16
_cell_length_a 13.218890
_cell_length_b 16.512226
_cell_length_c 13.386986
_cell_angle_alpha 138.133577
_cell_angle_beta 157.651594
_cell_angle_gamma 54.241072
_cell_volume 675.873741
_symmetry_space_group_name_H-M "P -1"
_symmetry_group_IT_number 2
_symmetry_cell_setting 'triclinic'
loop_
_space_group_symop_operation_xyz
x,y,z
-x,-y,-z
loop_
_atom_site_type_symbol
_atom_site_label
_atom_site_fract_x
_atom_site_fract_y
_atom_site_fract_z
Si Si1 0.098111 0.754095 0.100135
Si Si2 0.924169 0.489982 0.615710
Si Si3 0.839011 0.085329 0.882970
Si Si4 0.910204 0.849294 0.487896
Si Si5 0.539678 0.319288 0.466820
Si Si6 0.277281 0.063838 0.884048
Si Si7 0.249450 0.758764 0.879013
Si Si8 0.725295 0.590295 0.971119
O O1 0.115508 0.873603 0.153746
O O2 0.314276 0.745063 0.376574
O O3 0.098641 0.646785 0.919877
O O4 0.784974 0.705189 0.820164
O O5 0.874149 0.400024 0.390886
O O6 0.603604 0.455334 0.333806
O O7 0.093787 0.444133 0.810513
O O8 0.500000 0.000000 0.500000
O O9 0.872934 0.202807 0.098370
O O10 0.000000 0.000000 0.000000
O O11 0.107557 0.810821 0.708771
O O12 0.598237 0.819449 0.228386
O O13 0.850504 0.750977 0.244901
O O14 0.110926 0.999140 0.775584
O O15 0.708596 0.482395 0.769691
O O16 0.471646 0.223077 0.219514
O O17 0.000000 0.000000 0.500000
O O18 0.500000 0.000000 0.000000
#
# Coordination Sequence:
#
# PCOD9005012 Si02
#       8
#     2   2   2   2   2   2   2   2
#     4  10  21  38  60  87 115 163 196 247 289 342
#     4   8  16  33  58  83 112 145 208 241 286 335
#     4  12  26  37  52  87 132 154 210 243 277 342
#     4  10  21  39  65  83 119 157 198 236 305 355
#     4  10  21  39  65  83 119 157 198 236 305 355
#     4  12  26  42  60  91 120 149 196 248 296 364
#     4  10  21  38  60  87 115 163 196 247 289 342
#     4   8  16  34  58  90 108 147 198 243 278 362
#
# _framework density 23.67306
#
# number of rings (size 3 to 8) (size 9 to 14) (size 15 to 20)
#    0.000    2.000    0.000    3.000    5.250    0.500 
#    0.000    1.250    0.000   10.500    0.000    0.000 
#    0.000    0.000    0.000    0.000    0.000    0.000 
#
# Total GULP energy -89113.140990 kJ/mol
# GULP energy per Si atom -5569.571312 kJ/mol
# Density = 2.361918 g / cm^3
# Si number density = 23.673060 Si / 1000 Ang^3
#
#
#
# Elastic Constant Matrix: (Units=GPa)
#
#
# Indices 1 2 3 4 5 6 
#
# 1 54.6204 31.6069 9.5184 7.1577 -10.5253 -24.5280
# 2 31.6069 91.3942 39.4296 -24.9362 -7.5278 -20.0919
# 3 9.5184 39.4296 92.9526 -25.2573 -12.0738 -17.7550
# 4 7.1577 -24.9362 -25.2573 54.4612 -18.3237 -6.8730
# 5 -10.5253 -7.5278 -12.0738 -18.3237 27.7819 8.5338
# 6 -24.5280 -20.0919 -17.7550 -6.8730 8.5338 46.5518
#
#
#
# Elastic Compliance Matrix: (Units=1/GPa)
#
#
# Indices 1 2 3 4 5 6 
#
# 1 0.029900 -0.010082 0.002279 -0.005157 0.002807 0.010996
# 2 -0.010082 0.020174 -0.002647 0.012292 0.007750 0.002779
# 3 0.002279 -0.002647 0.018077 0.012473 0.014334 0.006166
# 4 -0.005157 0.012292 0.012473 0.042302 0.032345 0.007662
# 5 0.002807 0.007750 0.014334 0.032345 0.065798 0.003005
# 6 0.010996 0.002779 0.006166 0.007662 0.003005 0.031407
#
#
# Mechanical properties :
#
#
# Convention : Reuss Voigt Hill
#
# Bulk Modulus (GPa) = 21.16459 44.45300 32.80880
# Shear Modulus (GPa) = 20.46608 36.31980 28.39294
#
# Velocity S-wave (km/s) = 2.94348 3.92117 3.46696
# Velocity P-wave (km/s) = 4.52900 6.27052 5.46952
#
# Compressibility (1/GPa) = 0.04724872
#
# Stress axis : x y z
#
# Youngs Moduli (GPa) = 33.44536 49.56982 55.31997
#
# Poissons Ratio (x) = 0.49975 -0.12605
# Poissons Ratio (y) = 0.33719 0.14645
# Poissons Ratio (z) = -0.07621 0.13123
#
# Static dielectric constant tensor:
#      x y z
#    x 1.737820 0.019030 0.136560 
#    y 0.019030 1.975920 0.057600 
#    z 0.136560 0.057600 1.696780 
# 
# From -- ./inp_files/535025.got.cif
#   From: 2010.05.17/outbox.cif.g08.bks.cpg/sg2_268_cif.got.tgz:535025.got - 2010.06.03 11:33:40.
