data_PCOD9005034
_publ_section_title
;
Structure prediction by ZEFSAII (Michael W. Deem and Ramdas Pophale) SiO2 
 PCOD9005034
Probable space group: P -1
;
_chemical_formula_sum "Si O2"
_cell_formula_units_Z 14
_cell_length_a 16.560126
_cell_length_b 7.409456
_cell_length_c 12.442284
_cell_angle_alpha 131.512240
_cell_angle_beta 33.984590
_cell_angle_gamma 121.230164
_cell_volume 637.251747
_symmetry_space_group_name_H-M "P -1"
_symmetry_group_IT_number 2
_symmetry_cell_setting 'triclinic'
loop_
_space_group_symop_operation_xyz
x,y,z
-x,-y,-z
loop_
_atom_site_type_symbol
_atom_site_label
_atom_site_fract_x
_atom_site_fract_y
_atom_site_fract_z
Si Si1 0.557058 0.861583 0.638935
Si Si2 0.255631 0.477757 0.216481
Si Si3 0.993149 0.829093 0.602359
Si Si4 0.306143 0.561339 0.806765
Si Si5 0.016816 0.638175 0.258256
Si Si6 0.259191 0.513411 0.600650
Si Si7 0.549197 0.395030 0.764990
O O1 0.405610 0.773036 0.813656
O O2 0.596117 0.685676 0.423910
O O3 0.677995 0.764080 0.553061
O O4 0.446384 0.865525 0.285178
O O5 0.139561 0.708343 0.445597
O O6 0.347011 0.448792 0.214797
O O7 0.153017 0.261763 0.221021
O O8 0.382802 0.499941 0.997801
O O9 0.994780 0.713249 0.435126
O O10 0.991295 0.113074 0.702589
O O11 0.245180 0.624074 0.778602
O O12 0.176248 0.520422 0.012927
O O13 0.891510 0.481271 0.292122
O O14 0.379570 0.622086 0.436710
#
# Coordination Sequence:
#
# PCOD9005034 Si02
#       7
#     2   2   2   2   2   2   2
#     4   9  21  39  58  87 117 147 195 240 282 346
#     4  10  22  39  54  88 118 151 193 244 279 350
#     4  10  22  37  60  84 118 153 194 238 285 342
#     4   9  21  39  59  85 120 148 195 240 283 348
#     4  11  20  38  61  85 115 159 189 235 294 337
#     4  10  21  38  60  88 117 151 193 238 281 357
#     4  11  21  39  62  84 121 151 190 242 296 332
#
# _framework density 21.969341
#
# number of rings (size 3 to 8) (size 9 to 14) (size 15 to 20)
#    0.857    1.143    1.429    2.143    2.000    0.571 
#    0.000    5.714    0.000    0.000    0.000    0.000 
#    0.000    0.000    0.000    0.000    0.000    0.000 
#
# Total GULP energy -78110.929901 kJ/mol
# GULP energy per Si atom -5579.352136 kJ/mol
# Density = 2.191934 g / cm^3
# Si number density = 21.969341 Si / 1000 Ang^3
#
#
#
# Elastic Constant Matrix: (Units=GPa)
#
#
# Indices 1 2 3 4 5 6 
#
# 1 68.9381 -4.7740 26.2040 -9.8312 -17.8037 8.8111
# 2 -4.7740 49.7216 13.3673 -8.4638 -9.1522 -7.6683
# 3 26.2040 13.3673 91.6249 -21.7528 -23.0655 13.2037
# 4 -9.8312 -8.4638 -21.7528 24.8747 4.0679 -8.2475
# 5 -17.8037 -9.1522 -23.0655 4.0679 30.3824 -5.8369
# 6 8.8111 -7.6683 13.2037 -8.2475 -5.8369 24.1715
#
#
#
# Elastic Compliance Matrix: (Units=1/GPa)
#
#
# Indices 1 2 3 4 5 6 
#
# 1 0.019254 0.005496 -0.002353 0.005892 0.010468 0.000549
# 2 0.005496 0.027771 -0.001809 0.013168 0.011337 0.015025
# 3 -0.002353 -0.001809 0.017186 0.010949 0.009046 -0.003184
# 4 0.005892 0.013168 0.010949 0.061262 0.011310 0.019683
# 5 0.010468 0.011337 0.009046 0.011310 0.049880 0.010743
# 6 0.000549 0.015025 -0.003184 0.019683 0.010743 0.056987
#
#
# Mechanical properties :
#
#
# Convention : Reuss Voigt Hill
#
# Bulk Modulus (GPa) = 14.95220 31.09770 23.02495
# Shear Modulus (GPa) = 19.84386 27.58487 23.71437
#
# Velocity S-wave (km/s) = 3.00868 3.54730 3.28903
# Velocity P-wave (km/s) = 4.34629 5.56449 4.99268
#
# Compressibility (1/GPa) = 0.06687981
#
# Stress axis : x y z
#
# Youngs Moduli (GPa) = 51.93593 36.00832 58.18550
#
# Poissons Ratio (x) = -0.19789 0.13694
# Poissons Ratio (y) = -0.28543 0.10523
# Poissons Ratio (z) = 0.12223 0.06512
#
# Static dielectric constant tensor:
#      x y z
#    x 1.819320 -0.008840 -0.019120 
#    y -0.008840 1.801530 -0.002040 
#    z -0.019120 -0.002040 1.808150 
# 
# From -- ./inp_files/413520.got.cif
#   From: 2010.05.17/outbox.cif.g08.bks.cpg/sg2_207_cif.got.tgz:413520.got - 2010.06.03 11:33:40.
