data_PCOD9005895
_publ_section_title
;
Structure prediction by ZEFSAII (Michael W. Deem and Ramdas Pophale) SiO2 
 PCOD9005895
Probable space group: P -1
;
_chemical_formula_sum "Si O2"
_cell_formula_units_Z 14
_cell_length_a 11.957499
_cell_length_b 9.631489
_cell_length_c 18.015043
_cell_angle_alpha 51.666489
_cell_angle_beta 150.633950
_cell_angle_gamma 141.516658
_cell_volume 619.948492
_symmetry_space_group_name_H-M "P -1"
_symmetry_group_IT_number 2
_symmetry_cell_setting 'triclinic'
loop_
_space_group_symop_operation_xyz
x,y,z
-x,-y,-z
loop_
_atom_site_type_symbol
_atom_site_label
_atom_site_fract_x
_atom_site_fract_y
_atom_site_fract_z
Si Si1 0.193079 0.714201 0.733212
Si Si2 0.794541 0.527463 0.311533
Si Si3 0.303928 0.254773 0.929541
Si Si4 0.186900 0.115081 0.143744
Si Si5 0.172076 0.311201 0.344405
Si Si6 0.765597 0.537744 0.837305
Si Si7 0.933032 0.822278 0.426312
O O1 0.084865 0.506503 0.682458
O O2 0.018913 0.644347 0.732472
O O3 0.117369 0.852022 0.595760
O O4 0.525820 0.836713 0.912339
O O5 0.688844 0.672856 0.173885
O O6 0.521894 0.269900 0.261545
O O7 0.956766 0.668514 0.432796
O O8 0.500000 0.500000 0.000000
O O9 0.971578 0.088493 0.821402
O O10 0.178580 0.298260 0.118578
O O11 0.000000 0.000000 0.000000
O O12 0.500000 0.500000 0.500000
O O13 0.163829 0.341350 0.241945
O O14 0.061338 0.061504 0.384753
O O15 0.414417 0.325473 0.706490
O O16 0.000000 0.500000 0.000000
#
# Coordination Sequence:
#
# PCOD9005895 Si02
#       7
#     2   2   2   2   2   2   2
#     4  11  23  42  72  94 134 183 222 271 342 398
#     4  10  23  44  68 100 134 172 226 285 336 388
#     4  10  21  38  64 102 128 168 221 274 334 389
#     4  11  21  41  68  98 134 166 223 281 332 399
#     4  12  27  48  67  98 142 181 227 274 340 413
#     4  11  28  44  70 102 133 179 231 280 341 400
#     4  11  25  47  66  99 140 175 226 287 331 403
#
# _framework density 22.582519000000001
#
# number of rings (size 3 to 8) (size 9 to 14) (size 15 to 20)
#    0.000    1.143    4.286    1.714    6.000    0.571 
#    5.143    0.714    0.000    0.000    0.000    0.000 
#    0.000    0.000    0.000    0.000    0.000    0.000 
#
# Total GULP energy -78073.684375 kJ/mol
# GULP energy per Si atom -5576.691741 kJ/mol
# Density = 2.253112 g / cm^3
# Si number density = 22.582519 Si / 1000 Ang^3
#
#
#
# Elastic Constant Matrix: (Units=GPa)
#
#
# Indices 1 2 3 4 5 6 
#
# 1 133.6039 38.0443 40.0598 8.3679 2.6631 2.0154
# 2 38.0443 122.5251 39.5964 17.2731 11.1472 25.1656
# 3 40.0598 39.5964 124.2266 -1.5945 -12.2587 20.5032
# 4 8.3679 17.2731 -1.5945 24.4180 1.9255 -5.6009
# 5 2.6631 11.1472 -12.2587 1.9255 40.0133 0.0105
# 6 2.0154 25.1656 20.5032 -5.6009 0.0105 50.9783
#
#
#
# Elastic Compliance Matrix: (Units=1/GPa)
#
#
# Indices 1 2 3 4 5 6 
#
# 1 0.008902 -0.001966 -0.002586 -0.001423 -0.000769 0.001503
# 2 -0.001966 0.012643 -0.002897 -0.009545 -0.003818 -0.006046
# 3 -0.002586 -0.002897 0.010653 0.002745 0.004111 -0.002451
# 4 -0.001423 -0.009545 0.002745 0.050390 0.001167 0.009200
# 5 -0.000769 -0.003818 0.004111 0.001167 0.027310 0.000384
# 6 0.001503 -0.006046 -0.002451 0.009200 0.000384 0.024538
#
#
# Mechanical properties :
#
#
# Convention : Reuss Voigt Hill
#
# Bulk Modulus (GPa) = 57.80782 68.41740 63.11261
# Shear Modulus (GPa) = 32.23688 40.59227 36.41457
#
# Velocity S-wave (km/s) = 3.78235 4.24430 4.01997
# Velocity P-wave (km/s) = 6.68797 7.37436 7.03953
#
# Compressibility (1/GPa) = 0.01729870
#
# Stress axis : x y z
#
# Youngs Moduli (GPa) = 112.33514 79.09346 93.87281
#
# Poissons Ratio (x) = 0.15553 0.24276
# Poissons Ratio (y) = 0.22090 0.27197
# Poissons Ratio (z) = 0.29050 0.22915
#
# Static dielectric constant tensor:
#      x y z
#    x 1.854840 -0.008610 -0.063470 
#    y -0.008610 1.893980 -0.101760 
#    z -0.063470 -0.101760 1.875120 
# 
# From -- ./inp_files/594064.got.cif
#   From: 2010.05.17/outbox.cif.g08.bks.cpg/sg2_298_cif.got.tgz:594064.got - 2010.06.03 11:33:40.
