data_PCOD9005006
_publ_section_title
;
Structure prediction by ZEFSAII (Michael W. Deem and Ramdas Pophale) SiO2 
 PCOD9005006
Probable space group: P -1
;
_chemical_formula_sum "Si O2"
_cell_formula_units_Z 16
_cell_length_a 19.199966
_cell_length_b 6.010263
_cell_length_c 18.887377
_cell_angle_alpha 121.204086
_cell_angle_beta 28.651614
_cell_angle_gamma 131.664274
_cell_volume 767.636683
_symmetry_space_group_name_H-M "P -1"
_symmetry_group_IT_number 2
_symmetry_cell_setting 'triclinic'
loop_
_space_group_symop_operation_xyz
x,y,z
-x,-y,-z
loop_
_atom_site_type_symbol
_atom_site_label
_atom_site_fract_x
_atom_site_fract_y
_atom_site_fract_z
Si Si1 0.650247 0.011062 0.080265
Si Si2 0.795416 0.217881 0.422645
Si Si3 0.875634 0.797061 0.873807
Si Si4 0.071178 0.850255 0.969532
Si Si5 0.533769 0.375704 0.321839
Si Si6 0.467967 0.858998 0.928411
Si Si7 0.613376 0.529686 0.674534
Si Si8 0.329617 0.005986 0.650820
O O1 0.665486 0.304804 0.152971
O O2 0.551255 0.950248 0.085422
O O3 0.531967 0.755193 0.199725
O O4 0.817570 0.998736 0.915277
O O5 0.773576 0.488131 0.517206
O O6 0.959270 0.207733 0.297937
O O7 0.622173 0.915809 0.551260
O O8 0.787324 0.205625 0.342539
O O9 0.713235 0.457325 0.963024
O O10 0.907299 0.954467 0.948032
O O11 0.242143 0.915484 0.789669
O O12 0.000000 0.500000 0.000000
O O13 0.000000 0.000000 0.000000
O O14 0.451546 0.463571 0.345136
O O15 0.624823 0.647516 0.340572
O O16 0.616279 0.801255 0.759972
O O17 0.500000 0.000000 0.000000
O O18 0.500000 0.000000 0.500000
#
# Coordination Sequence:
#
# PCOD9005006 Si02
#       8
#     2   2   2   2   2   2   2   2
#     4   9  20  38  65  87 124 164 211 278 338 407
#     4  11  23  38  59  90 131 175 224 282 343 401
#     4  11  25  40  63  97 137 176 222 285 355 407
#     4  12  29  46  66 102 149 191 240 296 351 410
#     4  10  21  38  60  86 123 176 231 275 326 398
#     4  10  22  43  72  97 122 166 225 284 355 427
#     4   9  19  39  60  91 122 158 217 267 335 405
#     4  12  24  39  61  92 128 185 244 278 333 409
#
# _framework density 20.843195000000001
#
# number of rings (size 3 to 8) (size 9 to 14) (size 15 to 20)
#    0.000    1.500    2.500    2.625    7.000    3.000 
#    0.000    0.625    0.000    7.500    0.000    0.000 
#    0.000    0.000    0.000    0.000    0.000    0.000 
#
# Total GULP energy -89238.594318 kJ/mol
# GULP energy per Si atom -5577.412145 kJ/mol
# Density = 2.079575 g / cm^3
# Si number density = 20.843195 Si / 1000 Ang^3
#
#
#
# Elastic Constant Matrix: (Units=GPa)
#
#
# Indices 1 2 3 4 5 6 
#
# 1 76.4629 38.3826 23.8610 31.4090 1.7423 1.0900
# 2 38.3826 52.9881 23.5980 12.7241 -2.7191 -0.5201
# 3 23.8610 23.5980 129.2400 39.3617 -24.2227 -4.7733
# 4 31.4090 12.7241 39.3617 42.5051 -10.2311 1.0029
# 5 1.7423 -2.7191 -24.2227 -10.2311 34.4050 12.0491
# 6 1.0900 -0.5201 -4.7733 1.0029 12.0491 27.4847
#
#
#
# Elastic Compliance Matrix: (Units=1/GPa)
#
#
# Indices 1 2 3 4 5 6 
#
# 1 0.030759 -0.018711 0.002940 -0.022049 -0.008781 0.003591
# 2 -0.018711 0.032448 -0.004722 0.009340 0.003422 -0.001305
# 3 0.002940 -0.004722 0.012320 -0.011020 0.004793 0.000235
# 4 -0.022049 0.009340 -0.011020 0.050253 0.011796 -0.007867
# 5 -0.008781 0.003422 0.004793 0.011796 0.042975 -0.018025
# 6 0.003591 -0.001305 0.000235 -0.007867 -0.018025 0.044447
#
#
# Mechanical properties :
#
#
# Convention : Reuss Voigt Hill
#
# Bulk Modulus (GPa) = 28.95016 47.81935 38.38475
# Shear Modulus (GPa) = 18.81804 32.40223 25.61014
#
# Velocity S-wave (km/s) = 3.00799 3.94708 3.50909
# Velocity P-wave (km/s) = 5.09741 6.61550 5.90544
#
# Compressibility (1/GPa) = 0.03454212
#
# Stress axis : x y z
#
# Youngs Moduli (GPa) = 32.51050 30.81819 81.16847
#
# Poissons Ratio (x) = 0.57663 -0.23860
# Poissons Ratio (y) = 0.60830 0.38324
# Poissons Ratio (z) = -0.09557 0.14551
#
# Static dielectric constant tensor:
#      x y z
#    x 1.757650 -0.056830 -0.033530 
#    y -0.056830 1.845580 0.012180 
#    z -0.033530 0.012180 1.776090 
# 
# From -- ./inp_files/53974.got.cif
#   From: 2010.05.17/outbox.cif.g08.bks.cpg/sg2_27_cif.got.tgz:53974.got - 2010.06.03 11:33:40.
