data_PCOD9005099
_publ_section_title
;
Structure prediction by ZEFSAII (Michael W. Deem and Ramdas Pophale) SiO2 
 PCOD9005099
Probable space group: P -1
;
_chemical_formula_sum "Si O2"
_cell_formula_units_Z 16
_cell_length_a 15.387631
_cell_length_b 15.742209
_cell_length_c 19.261786
_cell_angle_alpha 32.828727
_cell_angle_beta 146.247328
_cell_angle_gamma 161.984970
_cell_volume 767.599505
_symmetry_space_group_name_H-M "P -1"
_symmetry_group_IT_number 2
_symmetry_cell_setting 'triclinic'
loop_
_space_group_symop_operation_xyz
x,y,z
-x,-y,-z
loop_
_atom_site_type_symbol
_atom_site_label
_atom_site_fract_x
_atom_site_fract_y
_atom_site_fract_z
Si Si1 0.141443 0.978938 0.155839
Si Si2 0.851097 0.204346 0.922940
Si Si3 0.570333 0.285646 0.114112
Si Si4 0.218693 0.294939 0.295831
Si Si5 0.595518 0.502500 0.190913
Si Si6 0.144210 0.456496 0.257421
Si Si7 0.737487 0.888231 0.429831
Si Si8 0.240131 0.185639 0.784816
O O1 0.392780 0.112942 0.185302
O O2 0.304423 0.175092 0.198838
O O3 0.859347 0.654252 0.217643
O O4 0.000000 0.000000 0.000000
O O5 0.869094 0.367906 0.872431
O O6 0.091526 0.420157 0.874310
O O7 0.551085 0.940846 0.865413
O O8 0.867828 0.055347 0.077550
O O9 0.465635 0.370419 0.961809
O O10 0.087077 0.319356 0.241267
O O11 0.360170 0.282759 0.448321
O O12 0.450382 0.574452 0.209625
O O13 0.988720 0.005135 0.297723
O O14 0.702320 0.618466 0.260647
O O15 0.462824 0.674502 0.344776
O O16 0.909247 0.195101 0.335496
O O17 0.000000 0.000000 0.500000
#
# Coordination Sequence:
#
# PCOD9005099 Si02
#       8
#     2   2   2   2   2   2   2   2
#     4  10  17  28  49  71  97 140 183 211 248 304
#     4  11  22  34  49  76 115 145 169 207 258 319
#     4  10  18  31  47  70 104 142 175 208 253 305
#     4  11  21  36  56  75 102 140 180 220 260 306
#     4  10  18  30  46  71 105 140 176 211 251 304
#     4  11  22  37  57  78 103 138 179 223 265 306
#     4  10  20  38  59  78  96 126 181 240 276 290
#     4  11  22  34  50  77 114 146 170 206 258 319
#
# _framework density 20.844203
#
# number of rings (size 3 to 8) (size 9 to 14) (size 15 to 20)
#    0.000    1.500    0.000   11.250    0.000    1.000 
#    0.000    0.000    0.000    0.000    0.000    0.000 
#    0.000   70.000    0.000    0.000    0.000    0.000 
#
# Total GULP energy -89089.700488 kJ/mol
# GULP energy per Si atom -5568.106280 kJ/mol
# Density = 2.079676 g / cm^3
# Si number density = 20.844203 Si / 1000 Ang^3
#
#
#
# Elastic Constant Matrix: (Units=GPa)
#
#
# Indices 1 2 3 4 5 6 
#
# 1 50.3241 9.3890 11.9286 2.3425 -17.7586 15.0696
# 2 9.3890 124.9765 12.5214 8.3442 -8.3107 5.0273
# 3 11.9286 12.5214 10.3170 2.8538 -3.2947 1.6614
# 4 2.3425 8.3442 2.8538 29.9981 -2.8724 -4.7169
# 5 -17.7586 -8.3107 -3.2947 -2.8724 1.4600 14.6551
# 6 15.0696 5.0273 1.6614 -4.7169 14.6551 29.1326
#
#
#
# Elastic Compliance Matrix: (Units=1/GPa)
#
#
# Indices 1 2 3 4 5 6 
#
# 1 0.011482 -0.001003 -0.023807 0.000453 -0.030777 0.011147
# 2 -0.001003 0.008919 -0.010869 -0.001543 -0.004332 0.001529
# 3 -0.023807 -0.010869 0.147110 -0.008075 0.019870 -0.005502
# 4 0.000453 -0.001543 -0.008075 0.035538 0.003527 0.004473
# 5 -0.030777 -0.004332 0.019870 0.003527 -0.043471 0.037973
# 6 0.011147 0.001529 -0.005502 0.004473 0.037973 0.010231
#
#
# Mechanical properties :
#
#
# Convention : Reuss Voigt Hill
#
# Bulk Modulus (GPa) = 10.40002 28.14393 19.27197
# Shear Modulus (GPa) = 18.30040 22.23673 20.26856
#
# Velocity S-wave (km/s) = 2.96626 3.26974 3.12169
# Velocity P-wave (km/s) = 4.09045 5.27127 4.71795
#
# Compressibility (1/GPa) = 0.09615368
#
# Stress axis : x y z
#
# Youngs Moduli (GPa) = 87.09604 112.11777 6.79764
#
# Poissons Ratio (x) = 0.11240 0.16183
# Poissons Ratio (y) = 0.08732 0.07388
# Poissons Ratio (z) = 2.07353 1.21856
#
# Static dielectric constant tensor:
#      x y z
#    x 1.829100 -0.022850 -0.031310 
#    y -0.022850 1.792480 -0.002020 
#    z -0.031310 -0.002020 1.771610 
# 
# From -- ./inp_files/538916.got.cif
#   From: 2010.05.17/outbox.cif.g08.bks.cpg/sg2_270_cif.got.tgz:538916.got - 2010.06.03 11:33:40.
