data_PCOD9005636
_publ_section_title
;
Structure prediction by ZEFSAII (Michael W. Deem and Ramdas Pophale) SiO2 
 PCOD9005636
Probable space group: P -1
;
_chemical_formula_sum "Si O2"
_cell_formula_units_Z 16
_cell_length_a 6.773895
_cell_length_b 24.870309
_cell_length_c 7.623630
_cell_angle_alpha 143.511770
_cell_angle_beta 108.692219
_cell_angle_gamma 72.140944
_cell_volume 720.716516
_symmetry_space_group_name_H-M "P -1"
_symmetry_group_IT_number 2
_symmetry_cell_setting 'triclinic'
loop_
_space_group_symop_operation_xyz
x,y,z
-x,-y,-z
loop_
_atom_site_type_symbol
_atom_site_label
_atom_site_fract_x
_atom_site_fract_y
_atom_site_fract_z
Si Si1 0.235383 0.211642 0.624739
Si Si2 0.858668 0.919176 0.198685
Si Si3 0.354732 0.398039 0.271341
Si Si4 0.234821 0.438870 0.715346
Si Si5 0.252288 0.545143 0.334546
Si Si6 0.157288 0.862247 0.810885
Si Si7 0.383302 0.237555 0.326768
Si Si8 0.429844 0.018352 0.226703
O O1 0.323980 0.226045 0.487677
O O2 0.370352 0.124069 0.510428
O O3 0.995554 0.185861 0.489895
O O4 0.260215 0.303310 0.975261
O O5 0.631129 0.976125 0.275699
O O6 0.774173 0.823102 0.985565
O O7 0.000000 0.000000 0.500000
O O8 0.000558 0.880059 0.974318
O O9 0.263854 0.456559 0.564716
O O10 0.309639 0.455107 0.231910
O O11 0.599696 0.384671 0.356041
O O12 0.354027 0.342220 0.542181
O O13 0.991040 0.426910 0.645894
O O14 0.292243 0.517031 0.070266
O O15 0.376498 0.801744 0.737404
O O16 0.232125 0.960532 0.043469
O O17 0.500000 0.000000 0.000000
#
# Coordination Sequence:
#
# PCOD9005636 Si02
#       8
#     2   2   2   2   2   2   2   2
#     4  11  22  38  62  95 128 165 216 268 308 376
#     4  10  23  38  58  90 128 164 210 268 316 369
#     4  11  24  43  67 102 125 168 216 260 326 388
#     4  11  23  44  69  96 126 174 209 259 334 384
#     4  10  24  46  69  92 137 160 210 274 318 387
#     4  10  21  38  63  85 127 174 205 260 323 368
#     4  10  22  40  59  91 130 165 212 260 320 379
#     4  11  20  38  63  89 123 168 221 251 313 380
#
# _framework density 22.200130999999999
#
# number of rings (size 3 to 8) (size 9 to 14) (size 15 to 20)
#    0.000    1.500    5.000    1.125    0.000    8.000 
#    2.250    0.000    0.000    0.000    0.000    0.000 
#    0.000    0.000    0.000    0.000    0.000    0.000 
#
# Total GULP energy -89199.652646 kJ/mol
# GULP energy per Si atom -5574.978290 kJ/mol
# Density = 2.214960 g / cm^3
# Si number density = 22.200131 Si / 1000 Ang^3
#
#
#
# Elastic Constant Matrix: (Units=GPa)
#
#
# Indices 1 2 3 4 5 6 
#
# 1 110.2722 23.8020 22.0017 -3.0431 7.3704 -3.6456
# 2 23.8020 33.1789 14.2284 3.4405 0.3490 -5.3140
# 3 22.0017 14.2284 99.2945 -6.6146 22.6236 -8.7717
# 4 -3.0431 3.4405 -6.6146 20.7934 10.6155 -2.5740
# 5 7.3704 0.3490 22.6236 10.6155 36.8629 -6.7852
# 6 -3.6456 -5.3140 -8.7717 -2.5740 -6.7852 26.1992
#
#
#
# Elastic Compliance Matrix: (Units=1/GPa)
#
#
# Indices 1 2 3 4 5 6 
#
# 1 0.011308 -0.008583 -0.000217 0.004725 -0.003535 -0.000691
# 2 -0.008583 0.041856 -0.007146 -0.015451 0.011317 0.006316
# 3 -0.000217 -0.007146 0.014910 0.012374 -0.012320 0.001537
# 4 0.004725 -0.015451 0.012374 0.069869 -0.028291 0.001204
# 5 -0.003535 0.011317 -0.012320 -0.028291 0.044624 0.006456
# 6 -0.000691 0.006316 0.001537 0.001204 0.006456 0.041659
#
#
# Mechanical properties :
#
#
# Convention : Reuss Voigt Hill
#
# Bulk Modulus (GPa) = 27.63691 40.31219 33.97455
# Shear Modulus (GPa) = 18.64440 28.95201 23.79820
#
# Velocity S-wave (km/s) = 2.90113 3.61520 3.27767
# Velocity P-wave (km/s) = 4.86807 5.96860 5.44620
#
# Compressibility (1/GPa) = 0.03618349
#
# Stress axis : x y z
#
# Youngs Moduli (GPa) = 88.43236 23.89150 67.06827
#
# Poissons Ratio (x) = 0.20506 0.01454
# Poissons Ratio (y) = 0.75899 0.47926
# Poissons Ratio (z) = 0.01917 0.17072
#
# Static dielectric constant tensor:
#      x y z
#    x 1.817940 0.051680 0.033070 
#    y 0.051680 1.834040 -0.061120 
#    z 0.033070 -0.061120 1.858060 
# 
# From -- ./inp_files/143458.got.cif
#   From: 2010.05.17/outbox.cif.g08.bks.cpg/sg2_72_cif.got.tgz:143458.got - 2010.06.03 11:33:40.
