data_PCOD9005732
_publ_section_title
;
Structure prediction by ZEFSAII (Michael W. Deem and Ramdas Pophale) SiO2 
 PCOD9005732
Probable space group: P -1
;
_chemical_formula_sum "Si O2"
_cell_formula_units_Z 16
_cell_length_a 12.546965
_cell_length_b 11.614706
_cell_length_c 13.538216
_cell_angle_alpha 43.071186
_cell_angle_beta 145.221765
_cell_angle_gamma 147.342010
_cell_volume 602.374618
_symmetry_space_group_name_H-M "P -1"
_symmetry_group_IT_number 2
_symmetry_cell_setting 'triclinic'
loop_
_space_group_symop_operation_xyz
x,y,z
-x,-y,-z
loop_
_atom_site_type_symbol
_atom_site_label
_atom_site_fract_x
_atom_site_fract_y
_atom_site_fract_z
Si Si1 0.411625 0.785683 0.502260
Si Si2 0.353959 0.072293 0.885719
Si Si3 0.177765 0.239491 0.530629
Si Si4 0.391349 0.655389 0.765747
Si Si5 0.917499 0.591890 0.137866
Si Si6 0.128473 0.863218 0.445703
Si Si7 0.839968 0.951178 0.043619
Si Si8 0.008649 0.382900 0.173030
O O1 0.390557 0.622525 0.668082
O O2 0.164875 0.686228 0.323663
O O3 0.626273 0.891303 0.521505
O O4 0.500000 0.000000 0.500000
O O5 0.095602 0.845858 0.810359
O O6 0.394699 0.257476 0.732160
O O7 0.340817 0.102375 0.971575
O O8 0.500000 0.000000 0.000000
O O9 0.220986 0.419196 0.377388
O O10 0.000000 0.000000 0.500000
O O11 0.025618 0.212883 0.526010
O O12 0.284106 0.494298 0.878216
O O13 0.215445 0.720010 0.594354
O O14 0.664856 0.842973 0.885098
O O15 0.976085 0.795476 0.995790
O O16 0.871774 0.415554 0.134253
O O17 0.977287 0.861723 0.242161
O O18 0.000000 0.500000 0.000000
#
# Coordination Sequence:
#
# PCOD9005732 Si02
#       8
#     2   2   2   2   2   2   2   2
#     4  10  22  43  70  94 127 180 224 272 349 395
#     4  10  21  38  63  91 128 177 220 265 331 399
#     4   9  20  37  62  89 126 173 214 262 327 392
#     4  11  23  45  69  97 133 177 224 278 341 394
#     4  12  22  41  68  95 138 173 220 286 331 393
#     4  10  21  42  66  94 135 173 221 276 327 404
#     4  11  23  41  66  99 134 177 221 273 338 396
#     4  11  21  37  59  93 131 166 217 269 323 389
#
# _framework density 26.561544999999999
#
# number of rings (size 3 to 8) (size 9 to 14) (size 15 to 20)
#    0.000    1.500    5.000    1.125    1.750    0.500 
#    2.250    2.500    0.000    0.000    0.000    0.000 
#    0.000    0.000    0.000    0.000    0.000    0.000 
#
# Total GULP energy -89317.587236 kJ/mol
# GULP energy per Si atom -5582.349202 kJ/mol
# Density = 2.650109 g / cm^3
# Si number density = 26.561545 Si / 1000 Ang^3
#
#
#
# Elastic Constant Matrix: (Units=GPa)
#
#
# Indices 1 2 3 4 5 6 
#
# 1 80.8703 16.8234 30.2801 -5.7187 -9.2868 -0.9580
# 2 16.8234 66.5122 24.0653 -12.1963 -15.7212 0.6312
# 3 30.2801 24.0653 132.3699 -47.4213 -17.0866 18.0293
# 4 -5.7187 -12.1963 -47.4213 56.9063 6.8981 -11.9810
# 5 -9.2868 -15.7212 -17.0866 6.8981 44.7887 -0.5693
# 6 -0.9580 0.6312 18.0293 -11.9810 -0.5693 41.6975
#
#
#
# Elastic Compliance Matrix: (Units=1/GPa)
#
#
# Indices 1 2 3 4 5 6 
#
# 1 0.014195 -0.002421 -0.003528 -0.001872 0.001053 0.001364
# 2 -0.002421 0.017671 -0.001468 0.001928 0.004855 0.000932
# 3 -0.003528 -0.001468 0.012465 0.008858 0.002108 -0.002875
# 4 -0.001872 0.001928 0.008858 0.025962 -0.000286 0.003554
# 5 0.001053 0.004855 0.002108 -0.000286 0.025089 -0.000700
# 6 0.001364 0.000932 -0.002875 0.003554 -0.000700 0.026254
#
#
# Mechanical properties :
#
#
# Convention : Reuss Voigt Hill
#
# Bulk Modulus (GPa) = 33.90212 46.89890 40.40051
# Shear Modulus (GPa) = 34.17581 42.58409 38.37995
#
# Velocity S-wave (km/s) = 3.59090 4.00837 3.80537
# Velocity P-wave (km/s) = 5.47577 6.25442 5.87800
#
# Compressibility (1/GPa) = 0.02949668
#
# Stress axis : x y z
#
# Youngs Moduli (GPa) = 70.44866 56.59042 80.22230
#
# Poissons Ratio (x) = 0.13703 0.28299
# Poissons Ratio (y) = 0.17058 0.11778
# Poissons Ratio (z) = 0.24851 0.08308
#
# Static dielectric constant tensor:
#      x y z
#    x 2.104850 0.023700 -0.013480 
#    y 0.023700 2.136780 -0.002360 
#    z -0.013480 -0.002360 2.294900 
# 
# From -- ./inp_files/534279.got.cif
#   From: 2010.05.17/outbox.cif.g08.bks.cpg/sg2_268_cif.got.tgz:534279.got - 2010.06.03 11:33:40.
