data_PCOD9005383
_publ_section_title
;
Structure prediction by ZEFSAII (Michael W. Deem and Ramdas Pophale) SiO2 
 PCOD9005383
Probable space group: P -1
;
_chemical_formula_sum "Si O2"
_cell_formula_units_Z 16
_cell_length_a 16.077003
_cell_length_b 14.876149
_cell_length_c 15.488414
_cell_angle_alpha 42.824603
_cell_angle_beta 18.032054
_cell_angle_gamma 43.840345
_cell_volume 774.417887
_symmetry_space_group_name_H-M "P -1"
_symmetry_group_IT_number 2
_symmetry_cell_setting 'triclinic'
loop_
_space_group_symop_operation_xyz
x,y,z
-x,-y,-z
loop_
_atom_site_type_symbol
_atom_site_label
_atom_site_fract_x
_atom_site_fract_y
_atom_site_fract_z
Si Si1 0.263740 0.493582 0.128242
Si Si2 0.162699 0.798600 0.413850
Si Si3 0.003307 0.479705 0.220974
Si Si4 0.793849 0.334436 0.774159
Si Si5 0.477267 0.862459 0.345301
Si Si6 0.457279 0.557153 0.599817
Si Si7 0.915696 0.041033 0.795979
Si Si8 0.644711 0.857643 0.986393
O O1 0.132436 0.543511 0.131939
O O2 0.291861 0.614574 0.081163
O O3 0.059899 0.401566 0.439240
O O4 0.549921 0.400853 0.906700
O O5 0.157273 0.903304 0.268080
O O6 0.465308 0.765280 0.172982
O O7 0.033987 0.667868 0.604896
O O8 0.957843 0.846492 0.660264
O O9 0.716961 0.529059 0.425656
O O10 0.209070 0.491315 0.931601
O O11 0.857846 0.176246 0.812845
O O12 0.399643 0.717647 0.547742
O O13 0.579503 0.839838 0.162046
O O14 0.220105 0.971606 0.535763
O O15 0.728093 0.930146 0.089976
O O16 0.500000 0.500000 0.500000
O O17 0.500000 0.000000 0.000000
#
# Coordination Sequence:
#
# PCOD9005383 Si02
#       8
#     2   2   2   2   2   2   2   2
#     4  10  21  38  65  97 130 167 196 255 317 396
#     4  12  22  35  58  92 119 154 198 253 322 364
#     4  12  24  41  68  88 125 166 218 260 305 374
#     4  10  21  38  62 100 137 154 196 254 337 384
#     4  12  25  40  61  84 122 169 213 252 317 368
#     4  12  27  47  62  87 123 177 225 265 295 354
#     4  12  22  37  63  92 127 155 195 259 323 387
#     4  12  22  37  52  86 123 155 197 253 309 379
#
# _framework density 20.660679999999999
#
# number of rings (size 3 to 8) (size 9 to 14) (size 15 to 20)
#    0.000    0.500    3.750    6.000    1.750    0.000 
#    0.000    0.000    0.000    4.500    0.000    0.000 
#    0.000    0.000    0.000    0.000    0.000    0.000 
#
# Total GULP energy -89351.454454 kJ/mol
# GULP energy per Si atom -5584.465903 kJ/mol
# Density = 2.061366 g / cm^3
# Si number density = 20.660680 Si / 1000 Ang^3
#
#
#
# Elastic Constant Matrix: (Units=GPa)
#
#
# Indices 1 2 3 4 5 6 
#
# 1 72.7748 16.5089 -6.4263 2.1687 -7.2555 14.3776
# 2 16.5089 93.6919 18.3056 1.7408 0.3112 13.8712
# 3 -6.4263 18.3056 94.3414 0.3266 -9.7541 5.6013
# 4 2.1687 1.7408 0.3266 30.3871 -2.3265 -1.8065
# 5 -7.2555 0.3112 -9.7541 -2.3265 25.8628 2.3200
# 6 14.3776 13.8712 5.6013 -1.8065 2.3200 26.2390
#
#
#
# Elastic Compliance Matrix: (Units=1/GPa)
#
#
# Indices 1 2 3 4 5 6 
#
# 1 0.017046 -0.002154 0.002830 -0.001180 0.006619 -0.009472
# 2 -0.002154 0.012238 -0.002372 -0.000903 -0.001303 -0.004730
# 3 0.002830 -0.002372 0.012039 0.000038 0.005668 -0.003365
# 4 -0.001180 -0.000903 0.000038 0.033419 0.002413 0.003203
# 5 0.006619 -0.001303 0.005668 0.002413 0.043596 -0.007836
# 6 -0.009472 -0.004730 -0.003365 0.003203 -0.007836 0.047434
#
#
# Mechanical properties :
#
#
# Convention : Reuss Voigt Hill
#
# Bulk Modulus (GPa) = 26.36474 35.28716 30.82595
# Shear Modulus (GPa) = 27.50172 31.99242 29.74707
#
# Velocity S-wave (km/s) = 3.65240 3.93933 3.79857
# Velocity P-wave (km/s) = 5.52949 6.14878 5.84734
#
# Compressibility (1/GPa) = 0.03792945
#
# Stress axis : x y z
#
# Youngs Moduli (GPa) = 58.66489 81.71505 83.06671
#
# Poissons Ratio (x) = 0.17603 -0.23507
# Poissons Ratio (y) = 0.12637 0.19704
# Poissons Ratio (z) = -0.16602 0.19383
#
# Static dielectric constant tensor:
#      x y z
#    x 1.788220 0.064040 -0.019200 
#    y 0.064040 1.803360 -0.034570 
#    z -0.019200 -0.034570 1.751000 
# 
# From -- ./inp_files/474824.got.cif
#   From: 2010.05.17/outbox.cif.g08.bks.cpg/sg2_238_cif.got.tgz:474824.got - 2010.06.03 11:33:40.
