data_PCOD9005921
_publ_section_title
;
Structure prediction by ZEFSAII (Michael W. Deem and Ramdas Pophale) SiO2 
 PCOD9005921
Probable space group: P -1
;
_chemical_formula_sum "Si O2"
_cell_formula_units_Z 14
_cell_length_a 11.919573
_cell_length_b 8.889026
_cell_length_c 8.711286
_cell_angle_alpha 132.669131
_cell_angle_beta 77.777810
_cell_angle_gamma 80.300384
_cell_volume 597.512232
_symmetry_space_group_name_H-M "P -1"
_symmetry_group_IT_number 2
_symmetry_cell_setting 'triclinic'
loop_
_space_group_symop_operation_xyz
x,y,z
-x,-y,-z
loop_
_atom_site_type_symbol
_atom_site_label
_atom_site_fract_x
_atom_site_fract_y
_atom_site_fract_z
Si Si1 0.890262 0.629293 0.001636
Si Si2 0.359673 0.613002 0.705331
Si Si3 0.197251 0.148939 0.102581
Si Si4 0.309524 0.949088 0.520486
Si Si5 0.331884 0.539673 0.021575
Si Si6 0.707390 0.783386 0.594376
Si Si7 0.440158 0.095800 0.837026
O O1 0.914934 0.669136 0.843358
O O2 0.821394 0.897543 0.249234
O O3 0.791866 0.515053 0.974856
O O4 0.000000 0.500000 0.000000
O O5 0.500000 0.500000 0.500000
O O6 0.289481 0.460521 0.569919
O O7 0.265539 0.874545 0.873886
O O8 0.363696 0.596152 0.880055
O O9 0.315582 0.201450 0.050689
O O10 0.186759 0.191752 0.316356
O O11 0.299617 0.127932 0.514399
O O12 0.414683 0.936332 0.607563
O O13 0.312272 0.731405 0.285662
O O14 0.443666 0.303018 0.884720
O O15 0.564777 0.962513 0.805624
#
# Coordination Sequence:
#
# PCOD9005921 Si02
#       7
#     2   2   2   2   2   2   2
#     4  10  24  48  69  88 115 157 216 275 318 364
#     4  12  23  36  61  95 135 171 198 244 306 369
#     4  10  23  38  60  92 125 157 210 258 308 366
#     4  10  21  38  64  87 128 160 208 256 302 368
#     4  10  22  40  63  91 126 168 211 251 304 371
#     4  12  21  37  58  90 135 167 203 249 298 365
#     4  10  22  36  57  92 131 175 205 239 291 374
#
# _framework density 23.430482000000001
#
# number of rings (size 3 to 8) (size 9 to 14) (size 15 to 20)
#    0.000    1.714    5.714    0.857    0.000    6.857 
#    0.000    1.429    0.000    0.000    0.000    0.000 
#    0.000    0.000    0.000    0.000    0.000    0.000 
#
# Total GULP energy -78030.200518 kJ/mol
# GULP energy per Si atom -5573.585751 kJ/mol
# Density = 2.337715 g / cm^3
# Si number density = 23.430482 Si / 1000 Ang^3
#
#
#
# Elastic Constant Matrix: (Units=GPa)
#
#
# Indices 1 2 3 4 5 6 
#
# 1 59.3463 38.5545 30.6767 11.7877 22.3524 -21.8776
# 2 38.5545 173.0113 32.6048 8.0450 21.3868 -25.1445
# 3 30.6767 32.6048 105.2360 20.0623 33.1583 -1.2929
# 4 11.7877 8.0450 20.0623 38.1979 5.9398 3.2607
# 5 22.3524 21.3868 33.1583 5.9398 24.7736 -2.6855
# 6 -21.8776 -25.1445 -1.2929 3.2607 -2.6855 38.2599
#
#
#
# Elastic Compliance Matrix: (Units=1/GPa)
#
#
# Indices 1 2 3 4 5 6 
#
# 1 0.037102 -0.001697 0.000640 -0.008562 -0.028774 0.018832
# 2 -0.001697 0.007229 -0.000488 -0.000494 -0.003553 0.003557
# 3 0.000640 -0.000488 0.017634 -0.005835 -0.022407 -0.000434
# 4 -0.008562 -0.000494 -0.005835 0.031454 0.007600 -0.007565
# 5 -0.028774 -0.003553 -0.022407 0.007600 0.096105 -0.013447
# 6 0.018832 0.003557 -0.000434 -0.007565 -0.013447 0.038929
#
#
# Mechanical properties :
#
#
# Convention : Reuss Voigt Hill
#
# Bulk Modulus (GPa) = 16.98476 60.14064 38.56270
# Shear Modulus (GPa) = 19.90698 35.96346 27.93522
#
# Velocity S-wave (km/s) = 2.91798 3.92203 3.45666
# Velocity P-wave (km/s) = 4.31481 6.79950 5.69433
#
# Compressibility (1/GPa) = 0.05887632
#
# Stress axis : x y z
#
# Youngs Moduli (GPa) = 26.95283 138.32931 56.70791
#
# Poissons Ratio (x) = 0.23469 -0.03629
# Poissons Ratio (y) = 0.04573 0.02766
# Poissons Ratio (z) = -0.01725 0.06748
#
# Static dielectric constant tensor:
#      x y z
#    x 1.940330 0.015580 -0.051950 
#    y 0.015580 1.962360 -0.088950 
#    z -0.051950 -0.088950 2.044950 
# 
# From -- ./inp_files/296782.got.cif
#   From: 2010.05.17/outbox.cif.g08.bks.cpg/sg2_149_cif.got.tgz:296782.got - 2010.06.03 11:33:40.
