data_PCOD9005352
_publ_section_title
;
Structure prediction by ZEFSAII (Michael W. Deem and Ramdas Pophale) SiO2 
 PCOD9005352
Probable space group: P -1
;
_chemical_formula_sum "Si O2"
_cell_formula_units_Z 16
_cell_length_a 16.139583
_cell_length_b 12.759371
_cell_length_c 5.156532
_cell_angle_alpha 116.486779
_cell_angle_beta 42.217534
_cell_angle_gamma 124.648741
_cell_volume 586.393456
_symmetry_space_group_name_H-M "P -1"
_symmetry_group_IT_number 2
_symmetry_cell_setting 'triclinic'
loop_
_space_group_symop_operation_xyz
x,y,z
-x,-y,-z
loop_
_atom_site_type_symbol
_atom_site_label
_atom_site_fract_x
_atom_site_fract_y
_atom_site_fract_z
Si Si1 0.127958 0.059129 0.536228
Si Si2 0.584921 0.129886 0.190264
Si Si3 0.019552 0.199557 0.327793
Si Si4 0.371710 0.112422 0.350807
Si Si5 0.985879 0.375096 0.245909
Si Si6 0.507972 0.598495 0.821331
Si Si7 0.289888 0.701348 0.428130
Si Si8 0.231509 0.325750 0.362609
O O1 0.219692 0.052234 0.555270
O O2 0.209291 0.177084 0.293977
O O3 0.038705 0.120486 0.956481
O O4 0.058603 0.917061 0.424430
O O5 0.431492 0.117232 0.503137
O O6 0.655727 0.199062 0.357981
O O7 0.655181 0.222683 0.885188
O O8 0.580643 0.989306 0.013185
O O9 0.161821 0.303811 0.214614
O O10 0.935386 0.269887 0.474141
O O11 0.421944 0.257422 0.297289
O O12 0.870709 0.352485 0.276047
O O13 0.000000 0.500000 0.500000
O O14 0.124825 0.370075 0.811716
O O15 0.500000 0.500000 0.500000
O O16 0.614933 0.600599 0.805990
O O17 0.357408 0.598258 0.208604
#
# Coordination Sequence:
#
# PCOD9005352 Si02
#       8
#     2   2   2   2   2   2   2   2
#     4   9  19  37  60  94 130 164 213 279 334 407
#     4  10  23  43  66 104 133 178 226 286 347 404
#     4  10  21  38  61  95 126 170 219 270 343 397
#     4   9  20  38  65  94 138 173 225 279 342 405
#     4  11  25  43  64  93 134 177 230 280 333 405
#     4  10  22  44  66  97 137 179 230 276 340 406
#     4  11  25  45  73 100 138 180 230 286 344 404
#     4  10  22  40  67  95 127 174 220 279 335 406
#
# _framework density 27.285433000000001
#
# number of rings (size 3 to 8) (size 9 to 14) (size 15 to 20)
#    0.000    2.000    0.000    1.875    5.250    5.000 
#   11.250    2.500    0.000    0.000    0.000    0.000 
#    0.000    0.000    0.000    0.000    0.000    0.000 
#
# Total GULP energy -89349.876347 kJ/mol
# GULP energy per Si atom -5584.367272 kJ/mol
# Density = 2.722333 g / cm^3
# Si number density = 27.285433 Si / 1000 Ang^3
#
#
#
# Elastic Constant Matrix: (Units=GPa)
#
#
# Indices 1 2 3 4 5 6 
#
# 1 215.5476 67.1816 62.1234 11.3148 -21.1244 43.5102
# 2 67.1816 75.7982 46.5271 30.6153 -27.3344 30.8306
# 3 62.1234 46.5271 118.3292 18.5274 -20.1318 9.2822
# 4 11.3148 30.6153 18.5274 45.2272 3.9620 -8.4870
# 5 -21.1244 -27.3344 -20.1318 3.9620 57.7672 3.0629
# 6 43.5102 30.8306 9.2822 -8.4870 3.0629 65.7080
#
#
#
# Elastic Compliance Matrix: (Units=1/GPa)
#
#
# Indices 1 2 3 4 5 6 
#
# 1 0.007121 -0.007095 -0.001767 0.003777 -0.001598 -0.000574
# 2 -0.007095 0.077938 -0.008254 -0.058395 0.037534 -0.039997
# 3 -0.001767 -0.008254 0.011920 0.001892 -0.000720 0.003637
# 4 0.003777 -0.058395 0.001892 0.069325 -0.032206 0.035086
# 5 -0.001598 0.037534 -0.000720 -0.032206 0.037631 -0.022365
# 6 -0.000574 -0.039997 0.003637 0.035086 -0.022365 0.039427
#
#
# Mechanical properties :
#
#
# Convention : Reuss Voigt Hill
#
# Bulk Modulus (GPa) = 15.93698 84.59323 50.26511
# Shear Modulus (GPa) = 16.74993 49.33001 33.03997
#
# Velocity S-wave (km/s) = 2.48034 4.25658 3.48358
# Velocity P-wave (km/s) = 3.74918 7.43158 5.88578
#
# Compressibility (1/GPa) = 0.06274713
#
# Stress axis : x y z
#
# Youngs Moduli (GPa) = 140.42760 12.83073 83.89221
#
# Poissons Ratio (x) = 0.09104 0.14824
# Poissons Ratio (y) = 0.99637 0.69242
# Poissons Ratio (z) = 0.24813 0.10590
#
# Static dielectric constant tensor:
#      x y z
#    x 2.104700 -0.017010 0.045010 
#    y -0.017010 2.420580 -0.211400 
#    z 0.045010 -0.211400 2.193360 
# 
# From -- ./inp_files/98659.got.cif
#   From: 2010.05.17/outbox.cif.g08.bks.cpg/sg2_50_cif.got.tgz:98659.got - 2010.06.03 11:33:40.
