data_PCOD9005388
_publ_section_title
;
Structure prediction by ZEFSAII (Michael W. Deem and Ramdas Pophale) SiO2 
 PCOD9005388
Probable space group: P -1
;
_chemical_formula_sum "Si O2"
_cell_formula_units_Z 16
_cell_length_a 7.688631
_cell_length_b 23.953339
_cell_length_c 5.612839
_cell_angle_alpha 69.206063
_cell_angle_beta 91.410695
_cell_angle_gamma 136.295555
_cell_volume 623.142636
_symmetry_space_group_name_H-M "P -1"
_symmetry_group_IT_number 2
_symmetry_cell_setting 'triclinic'
loop_
_space_group_symop_operation_xyz
x,y,z
-x,-y,-z
loop_
_atom_site_type_symbol
_atom_site_label
_atom_site_fract_x
_atom_site_fract_y
_atom_site_fract_z
Si Si1 0.465346 0.421412 0.660307
Si Si2 0.821527 0.079594 0.917915
Si Si3 0.137414 0.062562 0.154900
Si Si4 0.009547 0.745617 0.352698
Si Si5 0.650094 0.273534 0.815046
Si Si6 0.985793 0.551152 0.740821
Si Si7 0.003337 0.332962 0.129430
Si Si8 0.735666 0.013900 0.528045
O O1 0.500000 0.500000 0.500000
O O2 0.308410 0.349146 0.548795
O O3 0.756367 0.474040 0.658392
O O4 0.249053 0.366441 0.948878
O O5 0.919258 0.089174 0.636643
O O6 0.931260 0.172531 0.844650
O O7 0.864697 0.047172 0.204741
O O8 0.500000 0.000000 0.000000
O O9 0.376787 0.073892 0.208212
O O10 0.342592 0.172518 0.942021
O O11 0.000000 0.000000 0.500000
O O12 0.000000 0.000000 0.000000
O O13 0.114714 0.755450 0.602451
O O14 0.160244 0.732848 0.237305
O O15 0.749741 0.353924 0.531147
O O16 0.761822 0.307294 0.035558
O O17 0.881721 0.584193 0.822699
O O18 0.000000 0.500000 0.000000
O O19 0.500000 0.000000 0.500000
#
# Coordination Sequence:
#
# PCOD9005388 Si02
#       8
#     2   2   2   2   2   2   2   2
#     4  11  20  41  62  81 120 172 217 248 324 391
#     4  10  21  40  66  96 127 159 225 262 323 386
#     4   9  21  39  67  90 129 167 214 257 340 384
#     4  10  23  37  63  92 120 165 217 268 314 394
#     4  10  22  42  58  92 126 166 207 271 327 387
#     4  11  24  39  59  93 127 162 216 272 323 375
#     4  10  21  38  62  81 120 171 207 260 322 389
#     4   9  21  40  68  94 126 172 210 269 320 412
#
# _framework density 25.676307000000001
#
# number of rings (size 3 to 8) (size 9 to 14) (size 15 to 20)
#    0.750    1.250    3.750    0.750    3.500    4.500 
#    0.000    1.250    0.000    0.000    0.000    0.000 
#    0.000    0.000    0.000    0.000    0.000    0.000 
#
# Total GULP energy -89115.051690 kJ/mol
# GULP energy per Si atom -5569.690731 kJ/mol
# Density = 2.561787 g / cm^3
# Si number density = 25.676307 Si / 1000 Ang^3
#
#
#
# Elastic Constant Matrix: (Units=GPa)
#
#
# Indices 1 2 3 4 5 6 
#
# 1 115.5592 38.8069 75.0691 -7.2052 30.4190 5.6426
# 2 38.8069 130.3818 80.7393 -5.7939 11.7256 18.4862
# 3 75.0691 80.7393 164.6279 -2.7514 51.7900 14.5768
# 4 -7.2052 -5.7939 -2.7514 45.3065 -6.6482 -3.5880
# 5 30.4190 11.7256 51.7900 -6.6482 70.2711 1.8850
# 6 5.6426 18.4862 14.5768 -3.5880 1.8850 44.9874
#
#
#
# Elastic Compliance Matrix: (Units=1/GPa)
#
#
# Indices 1 2 3 4 5 6 
#
# 1 0.012546 -0.000489 -0.005014 0.001438 -0.001530 0.000431
# 2 -0.000489 0.011903 -0.006312 0.001290 0.003074 -0.002811
# 3 -0.005014 -0.006312 0.013739 -0.001891 -0.007052 -0.001085
# 4 0.001438 0.001290 -0.001891 0.022871 0.002676 0.001614
# 5 -0.001530 0.003074 -0.007052 0.002676 0.019814 0.000597
# 6 0.000431 -0.002811 -0.001085 0.001614 0.000597 0.023785
#
#
# Mechanical properties :
#
#
# Convention : Reuss Voigt Hill
#
# Bulk Modulus (GPa) = 68.68527 88.86661 78.77594
# Shear Modulus (GPa) = 37.55434 46.50991 42.03213
#
# Velocity S-wave (km/s) = 3.82855 4.26066 4.05038
# Velocity P-wave (km/s) = 6.80825 7.67397 7.25404
#
# Compressibility (1/GPa) = 0.01455916
#
# Stress axis : x y z
#
# Youngs Moduli (GPa) = 79.70486 84.01207 72.78568
#
# Poissons Ratio (x) = 0.04107 0.36496
# Poissons Ratio (y) = 0.03896 0.45939
# Poissons Ratio (z) = 0.39966 0.53024
#
# Static dielectric constant tensor:
#      x y z
#    x 1.841720 0.162060 0.177780 
#    y 0.162060 2.190360 0.120380 
#    z 0.177780 0.120380 1.983310 
# 
# From -- ./inp_files/56337.got.cif
#   From: 2010.05.17/outbox.cif.g08.bks.cpg/sg2_29_cif.got.tgz:56337.got - 2010.06.03 11:33:40.
