data_PCOD9005630
_publ_section_title
;
Structure prediction by ZEFSAII (Michael W. Deem and Ramdas Pophale) SiO2 
 PCOD9005630
Probable space group: P -1
;
_chemical_formula_sum "Si O2"
_cell_formula_units_Z 16
_cell_length_a 8.988427
_cell_length_b 15.065416
_cell_length_c 13.635458
_cell_angle_alpha 149.607357
_cell_angle_beta 121.947380
_cell_angle_gamma 61.193885
_cell_volume 791.271647
_symmetry_space_group_name_H-M "P -1"
_symmetry_group_IT_number 2
_symmetry_cell_setting 'triclinic'
loop_
_space_group_symop_operation_xyz
x,y,z
-x,-y,-z
loop_
_atom_site_type_symbol
_atom_site_label
_atom_site_fract_x
_atom_site_fract_y
_atom_site_fract_z
Si Si1 0.597823 0.601487 0.392836
Si Si2 0.371995 0.236185 0.732668
Si Si3 0.500831 0.198263 0.148137
Si Si4 0.969542 0.335485 0.904376
Si Si5 0.625562 0.166033 0.589554
Si Si6 0.635666 0.690669 0.980694
Si Si7 0.248256 0.489495 0.434578
Si Si8 0.867328 0.527588 0.248289
O O1 0.513817 0.786234 0.499841
O O2 0.422345 0.498903 0.256192
O O3 0.716313 0.586969 0.516627
O O4 0.716591 0.509742 0.260419
O O5 0.535514 0.264766 0.746350
O O6 0.200466 0.299582 0.671893
O O7 0.367040 0.035202 0.570270
O O8 0.388246 0.328186 0.929615
O O9 0.491220 0.186459 0.014848
O O10 0.332844 0.328184 0.244660
O O11 0.654002 0.325273 0.356923
O O12 0.500000 0.000000 0.000000
O O13 0.820833 0.225046 0.698348
O O14 0.166433 0.253386 0.908511
O O15 0.000000 0.500000 0.000000
O O16 0.899137 0.389842 0.039578
O O17 0.049873 0.531855 0.373110
#
# Coordination Sequence:
#
# PCOD9005630 Si02
#       8
#     2   2   2   2   2   2   2   2
#     4  10  21  38  63  82 115 162 199 246 292 353
#     4  10  22  38  58  86 120 158 193 245 304 354
#     4  10  23  40  61  90 124 156 195 252 306 353
#     4  12  21  35  58  86 116 148 195 243 292 355
#     4  10  22  38  57  87 121 154 198 245 299 356
#     4  11  21  38  58  89 114 153 201 241 304 356
#     4  10  22  40  63  88 118 160 206 243 294 365
#     4  11  21  39  60  85 120 156 200 243 295 359
#
# _framework density 20.220616
#
# number of rings (size 3 to 8) (size 9 to 14) (size 15 to 20)
#    0.000    1.500    3.750    1.125    1.750    3.500 
#    0.000    0.000    0.000    2.250    0.000    0.000 
#    0.000    0.000    0.000    0.000    0.000    0.000 
#
# Total GULP energy -89079.931021 kJ/mol
# GULP energy per Si atom -5567.495689 kJ/mol
# Density = 2.017459 g / cm^3
# Si number density = 20.220616 Si / 1000 Ang^3
#
#
#
# Elastic Constant Matrix: (Units=GPa)
#
#
# Indices 1 2 3 4 5 6 
#
# 1 62.8084 35.4518 28.7566 -4.9029 11.6749 -8.3636
# 2 35.4518 164.4575 51.4854 -14.9168 17.2024 -1.0475
# 3 28.7566 51.4854 49.9901 -6.3685 11.9666 -7.1304
# 4 -4.9029 -14.9168 -6.3685 31.5869 2.0496 4.7442
# 5 11.6749 17.2024 11.9666 2.0496 31.2879 -11.7919
# 6 -8.3636 -1.0475 -7.1304 4.7442 -11.7919 41.3702
#
#
#
# Elastic Compliance Matrix: (Units=1/GPa)
#
#
# Indices 1 2 3 4 5 6 
#
# 1 0.022241 -0.001069 -0.010624 0.000752 -0.003065 0.001678
# 2 -0.001069 0.009538 -0.008507 0.003194 -0.002781 -0.002600
# 3 -0.010624 -0.008507 0.036512 0.001617 -0.004501 0.002461
# 4 0.000752 0.003194 0.001617 0.034889 -0.007009 -0.005487
# 5 -0.003065 -0.002781 -0.004501 -0.007009 0.040966 0.011015
# 6 0.001678 -0.002600 0.002461 -0.005487 0.011015 0.028638
#
#
# Mechanical properties :
#
#
# Convention : Reuss Voigt Hill
#
# Bulk Modulus (GPa) = 35.85446 56.51593 46.18520
# Shear Modulus (GPa) = 22.47386 31.61982 27.04684
#
# Velocity S-wave (km/s) = 3.33743 3.95871 3.66127
# Velocity P-wave (km/s) = 5.71152 6.99325 6.38463
#
# Compressibility (1/GPa) = 0.02789053
#
# Stress axis : x y z
#
# Youngs Moduli (GPa) = 44.96213 104.84104 27.38861
#
# Poissons Ratio (x) = 0.11206 0.29098
# Poissons Ratio (y) = 0.04806 0.23299
# Poissons Ratio (z) = 0.47769 0.89187
#
# Static dielectric constant tensor:
#      x y z
#    x 1.791370 0.026470 -0.062330 
#    y 0.026470 1.752270 -0.013030 
#    z -0.062330 -0.013030 1.754620 
# 
# From -- ./inp_files/215545.got.cif
#   From: 2010.05.17/outbox.cif.g08.bks.cpg/sg2_108_cif.got.tgz:215545.got - 2010.06.03 11:33:40.
