data_PCOD9005693
_publ_section_title
;
Structure prediction by ZEFSAII (Michael W. Deem and Ramdas Pophale) SiO2 
 PCOD9005693
Probable space group: P -1
;
_chemical_formula_sum "Si O2"
_cell_formula_units_Z 14
_cell_length_a 20.733052
_cell_length_b 5.200036
_cell_length_c 7.429500
_cell_angle_alpha 74.153221
_cell_angle_beta 50.283614
_cell_angle_gamma 99.181254
_cell_volume 528.892276
_symmetry_space_group_name_H-M "P -1"
_symmetry_group_IT_number 2
_symmetry_cell_setting 'triclinic'
loop_
_space_group_symop_operation_xyz
x,y,z
-x,-y,-z
loop_
_atom_site_type_symbol
_atom_site_label
_atom_site_fract_x
_atom_site_fract_y
_atom_site_fract_z
Si Si1 0.460152 0.839860 0.871858
Si Si2 0.766647 0.428519 0.067504
Si Si3 0.103849 0.390649 0.705284
Si Si4 0.637122 0.369055 0.583831
Si Si5 0.035569 0.419547 0.220029
Si Si6 0.158870 0.031850 0.406534
Si Si7 0.593678 0.824474 0.353705
O O1 0.494407 0.747541 0.646797
O O2 0.560682 0.024375 0.756222
O O3 0.419658 0.069466 0.840307
O O4 0.386057 0.584159 0.180090
O O5 0.740021 0.437694 0.322751
O O6 0.870086 0.452352 0.857656
O O7 0.683579 0.121776 0.206002
O O8 0.769669 0.705243 0.894652
O O9 0.067885 0.357679 0.978914
O O10 0.143301 0.179115 0.588500
O O11 0.174247 0.743037 0.475903
O O12 0.009570 0.351872 0.771274
O O13 0.612525 0.558089 0.445138
O O14 0.941561 0.119354 0.490513
#
# Coordination Sequence:
#
# PCOD9005693 Si02
#       7
#     2   2   2   2   2   2   2
#     4   9  20  41  63  89 118 164 208 253 321 390
#     4  11  24  37  53  94 124 156 214 259 322 376
#     4   9  21  39  65  85 116 171 222 258 321 373
#     4  10  21  39  62  89 124 160 207 263 313 392
#     4   9  21  39  60  86 120 167 210 267 313 380
#     4  10  21  40  61  87 122 169 210 263 314 382
#     4  10  21  38  63  90 123 161 206 261 320 383
#
# _framework density 26.470416
#
# number of rings (size 3 to 8) (size 9 to 14) (size 15 to 20)
#    0.857    1.429    0.000    1.714    2.000    2.857 
#    2.571    0.000    0.000    0.000    0.000    0.000 
#    0.000    0.000    0.000    0.000    0.000    0.000 
#
# Total GULP energy -78149.106668 kJ/mol
# GULP energy per Si atom -5582.079048 kJ/mol
# Density = 2.641017 g / cm^3
# Si number density = 26.470416 Si / 1000 Ang^3
#
#
#
# Elastic Constant Matrix: (Units=GPa)
#
#
# Indices 1 2 3 4 5 6 
#
# 1 64.0982 16.2903 17.8897 -1.0161 -1.8718 -3.2753
# 2 16.2903 67.0600 32.1591 -9.6557 -3.5002 1.3877
# 3 17.8897 32.1591 164.1167 7.5527 -2.9741 15.0870
# 4 -1.0161 -9.6557 7.5527 37.8058 7.1773 -3.5880
# 5 -1.8718 -3.5002 -2.9741 7.1773 32.0419 -0.7360
# 6 -3.2753 1.3877 15.0870 -3.5880 -0.7360 19.8974
#
#
#
# Elastic Compliance Matrix: (Units=1/GPa)
#
#
# Indices 1 2 3 4 5 6 
#
# 1 0.017160 -0.003434 -0.001596 0.000213 0.000531 0.004332
# 2 -0.003434 0.018236 -0.003617 0.005413 0.000287 0.001892
# 3 -0.001596 -0.003617 0.007733 -0.003277 0.000816 -0.006435
# 4 0.000213 0.005413 -0.003277 0.030399 -0.006340 0.007390
# 5 0.000531 0.000287 0.000816 -0.006340 0.032756 -0.000483
# 6 0.004332 0.001892 -0.006435 0.007390 -0.000483 0.057033
#
#
# Mechanical properties :
#
#
# Convention : Reuss Voigt Hill
#
# Bulk Modulus (GPa) = 38.70824 47.55035 43.12929
# Shear Modulus (GPa) = 26.42395 33.21140 29.81768
#
# Velocity S-wave (km/s) = 3.16293 3.54596 3.35991
# Velocity P-wave (km/s) = 5.29091 5.89642 5.60185
#
# Compressibility (1/GPa) = 0.02583429
#
# Stress axis : x y z
#
# Youngs Moduli (GPa) = 58.27649 54.83675 129.31484
#
# Poissons Ratio (x) = 0.18832 0.20639
# Poissons Ratio (y) = 0.20014 0.46771
# Poissons Ratio (z) = 0.09301 0.19834
#
# Static dielectric constant tensor:
#      x y z
#    x 2.132360 0.028250 0.026710 
#    y 0.028250 2.170850 0.073740 
#    z 0.026710 0.073740 2.086240 
# 
# From -- ./inp_files/116446.got.cif
#   From: 2010.05.17/outbox.cif.g08.bks.cpg/sg2_59_cif.got.tgz:116446.got - 2010.06.03 11:33:40.
