data_PCOD9005592
_publ_section_title
;
Structure prediction by ZEFSAII (Michael W. Deem and Ramdas Pophale) SiO2 
 PCOD9005592
Probable space group: P -1
;
_chemical_formula_sum "Si O2"
_cell_formula_units_Z 14
_cell_length_a 23.464977
_cell_length_b 8.529182
_cell_length_c 9.371959
_cell_angle_alpha 132.936987
_cell_angle_beta 141.659308
_cell_angle_gamma 30.484941
_cell_volume 590.199575
_symmetry_space_group_name_H-M "P -1"
_symmetry_group_IT_number 2
_symmetry_cell_setting 'triclinic'
loop_
_space_group_symop_operation_xyz
x,y,z
-x,-y,-z
loop_
_atom_site_type_symbol
_atom_site_label
_atom_site_fract_x
_atom_site_fract_y
_atom_site_fract_z
Si Si1 0.690946 0.775107 0.126158
Si Si2 0.962854 0.275983 0.188363
Si Si3 0.099035 0.416716 0.022856
Si Si4 0.202057 0.720706 0.453296
Si Si5 0.352627 0.838204 0.286367
Si Si6 0.652225 0.292189 0.497204
Si Si7 0.395404 0.242148 0.754506
O O1 0.820318 0.497676 0.119650
O O2 0.656178 0.685899 0.139515
O O3 0.714889 0.971507 0.358671
O O4 0.552635 0.018187 0.918848
O O5 0.959541 0.463216 0.175934
O O6 0.078627 0.088031 0.417504
O O7 0.000000 0.000000 0.000000
O O8 0.140406 0.588150 0.253795
O O9 0.232985 0.054371 0.075879
O O10 0.000000 0.500000 0.000000
O O11 0.290898 0.606884 0.416311
O O12 0.304573 0.557909 0.683543
O O13 0.494643 0.534527 0.317136
O O14 0.321646 0.744625 0.305583
O O15 0.375221 0.038606 0.521276
#
# Coordination Sequence:
#
# PCOD9005592 Si02
#       7
#     2   2   2   2   2   2   2
#     4  10  22  42  61  92 130 160 207 258 311 367
#     4  10  23  40  62  92 122 166 206 256 309 367
#     4  10  21  40  61  92 125 163 214 254 308 366
#     4  10  22  39  63  92 121 168 204 256 309 371
#     4   9  20  38  65  91 123 169 202 258 304 372
#     4  10  21  38  62  95 128 156 213 252 315 361
#     4   9  21  40  65  91 123 167 204 257 307 363
#
# _framework density 23.720790999999998
#
# number of rings (size 3 to 8) (size 9 to 14) (size 15 to 20)
#    0.000    2.286    0.000    0.857    6.000    2.857 
#   12.857    0.000    0.000    0.000    0.000    0.000 
#    0.000    0.000    0.000    0.000    0.000    0.000 
#
# Total GULP energy -78297.894312 kJ/mol
# GULP energy per Si atom -5592.706737 kJ/mol
# Density = 2.366680 g / cm^3
# Si number density = 23.720791 Si / 1000 Ang^3
#
#
#
# Elastic Constant Matrix: (Units=GPa)
#
#
# Indices 1 2 3 4 5 6 
#
# 1 164.2469 81.9055 43.8063 -33.9836 9.0611 -12.0478
# 2 81.9055 160.7201 69.9793 -36.7154 -27.1300 -23.4814
# 3 43.8063 69.9793 66.7559 -31.1778 -12.4248 2.7662
# 4 -33.9836 -36.7154 -31.1778 62.1523 16.4009 -15.3411
# 5 9.0611 -27.1300 -12.4248 16.4009 27.3931 -12.3090
# 6 -12.0478 -23.4814 2.7662 -15.3411 -12.3090 36.6048
#
#
#
# Elastic Compliance Matrix: (Units=1/GPa)
#
#
# Indices 1 2 3 4 5 6 
#
# 1 0.012331 -0.010161 0.001501 0.004909 -0.019594 -0.007105
# 2 -0.010161 0.031780 -0.020372 0.000435 0.039777 0.032139
# 3 0.001501 -0.020372 0.036248 0.006869 -0.016411 -0.017953
# 4 0.004909 0.000435 0.006869 0.027530 -0.010317 0.009444
# 5 -0.019594 0.039777 -0.016411 -0.010317 0.104014 0.050961
# 6 -0.007105 0.032139 -0.017953 0.009444 0.050961 0.068048
#
#
# Mechanical properties :
#
#
# Convention : Reuss Voigt Hill
#
# Bulk Modulus (GPa) = 44.85496 87.01169 65.93333
# Shear Modulus (GPa) = 14.47400 38.29883 26.38641
#
# Velocity S-wave (km/s) = 2.47287 4.02253 3.33885
# Velocity P-wave (km/s) = 5.20615 7.63777 6.53604
#
# Compressibility (1/GPa) = 0.02229408
#
# Stress axis : x y z
#
# Youngs Moduli (GPa) = 81.09690 31.46648 27.58778
#
# Poissons Ratio (x) = 0.31975 -0.04140
# Poissons Ratio (y) = 0.82406 0.56201
# Poissons Ratio (z) = -0.12170 0.64102
#
# Static dielectric constant tensor:
#      x y z
#    x 1.866980 0.045890 -0.006550 
#    y 0.045890 1.911100 0.006500 
#    z -0.006550 0.006500 1.959330 
# 
# From -- ./inp_files/246031.got.cif
#   From: 2010.05.17/outbox.cif.g08.bks.cpg/sg2_124_cif.got.tgz:246031.got - 2010.06.03 11:33:40.
