data_PCOD9005257
_publ_section_title
;
Structure prediction by ZEFSAII (Michael W. Deem and Ramdas Pophale) SiO2 
 PCOD9005257
Probable space group: P -1
;
_chemical_formula_sum "Si O2"
_cell_formula_units_Z 14
_cell_length_a 26.193529
_cell_length_b 8.296821
_cell_length_c 21.204061
_cell_angle_alpha 36.764564
_cell_angle_beta 167.691972
_cell_angle_gamma 145.293262
_cell_volume 559.217593
_symmetry_space_group_name_H-M "P -1"
_symmetry_group_IT_number 2
_symmetry_cell_setting 'triclinic'
loop_
_space_group_symop_operation_xyz
x,y,z
-x,-y,-z
loop_
_atom_site_type_symbol
_atom_site_label
_atom_site_fract_x
_atom_site_fract_y
_atom_site_fract_z
Si Si1 0.487498 0.879756 0.112617
Si Si2 0.510960 0.700606 0.581969
Si Si3 0.000623 0.860351 0.196274
Si Si4 0.804860 0.739868 0.808789
Si Si5 0.270883 0.539831 0.845149
Si Si6 0.057162 0.273318 0.239977
Si Si7 0.487692 0.751559 0.859915
O O1 0.757342 0.819972 0.459393
O O2 0.536383 0.175230 0.041815
O O3 0.426153 0.963351 0.083137
O O4 0.296372 0.626114 0.922370
O O5 0.551872 0.688301 0.560511
O O6 0.260183 0.484354 0.372800
O O7 0.500000 0.000000 0.500000
O O8 0.760459 0.676055 0.925559
O O9 0.162083 0.115307 0.265089
O O10 0.919612 0.009191 0.112480
O O11 0.202103 0.712180 0.508136
O O12 0.897466 0.464866 0.012826
O O13 0.000000 0.000000 0.000000
O O14 0.000000 0.500000 0.500000
O O15 0.358084 0.278961 0.006612
O O16 0.500000 0.500000 0.000000
#
# Coordination Sequence:
#
# PCOD9005257 Si02
#       7
#     2   2   2   2   2   2   2
#     4   9  22  40  60  94 125 163 207 266 316 371
#     4  11  23  39  62  91 122 170 214 250 325 379
#     4  10  22  41  62  90 126 164 211 266 314 372
#     4  10  21  38  61  89 124 163 206 262 310 370
#     4  10  21  40  66  91 124 166 213 257 318 384
#     4  11  22  42  61  90 132 159 209 267 310 381
#     4   9  20  40  63  89 127 165 202 263 317 366
#
# _framework density 25.034977000000001
#
# number of rings (size 3 to 8) (size 9 to 14) (size 15 to 20)
#    0.000    2.000    2.857    0.429    4.000    4.571 
#    5.143    0.000    0.000    0.000    0.000    0.000 
#    0.000    0.000    0.000    0.000    0.000    0.000 
#
# Total GULP energy -78286.463058 kJ/mol
# GULP energy per Si atom -5591.890218 kJ/mol
# Density = 2.497800 g / cm^3
# Si number density = 25.034977 Si / 1000 Ang^3
#
#
#
# Elastic Constant Matrix: (Units=GPa)
#
#
# Indices 1 2 3 4 5 6 
#
# 1 114.6465 31.7384 43.6671 -5.8170 4.1200 -39.0016
# 2 31.7384 107.4235 43.1043 -8.3085 2.5185 -30.1212
# 3 43.6671 43.1043 117.1330 -18.8060 -9.1648 -41.3354
# 4 -5.8170 -8.3085 -18.8060 53.0350 -5.4307 -0.6946
# 5 4.1200 2.5185 -9.1648 -5.4307 44.9044 -0.7232
# 6 -39.0016 -30.1212 -41.3354 -0.6946 -0.7232 56.2321
#
#
#
# Elastic Compliance Matrix: (Units=1/GPa)
#
#
# Indices 1 2 3 4 5 6 
#
# 1 0.011937 -0.000913 -0.001885 0.000452 -0.001271 0.006394
# 2 -0.000913 0.011760 -0.002621 0.000764 -0.000958 0.003736
# 3 -0.001885 -0.002621 0.014000 0.004846 0.003887 0.007690
# 4 0.000452 0.000764 0.004846 0.021165 0.003538 0.004591
# 5 -0.001271 -0.000958 0.003887 0.003538 0.023690 0.001811
# 6 0.006394 0.003736 0.007690 0.004591 0.001811 0.029953
#
#
# Mechanical properties :
#
#
# Convention : Reuss Voigt Hill
#
# Bulk Modulus (GPa) = 37.23046 64.02475 50.62760
# Shear Modulus (GPa) = 37.79417 45.54716 41.67067
#
# Velocity S-wave (km/s) = 3.88964 4.27000 4.08425
# Velocity P-wave (km/s) = 5.92251 7.06684 6.51983
#
# Compressibility (1/GPa) = 0.02685973
#
# Stress axis : x y z
#
# Youngs Moduli (GPa) = 83.77462 85.03734 71.42642
#
# Poissons Ratio (x) = 0.07763 0.13461
# Poissons Ratio (y) = 0.07648 0.18720
# Poissons Ratio (z) = 0.15788 0.22288
#
# Static dielectric constant tensor:
#      x y z
#    x 2.102040 -0.009500 -0.016250 
#    y -0.009500 2.040860 0.024860 
#    z -0.016250 0.024860 1.968300 
# 
# From -- ./inp_files/614466.got.cif
#   From: 2010.05.17/outbox.cif.g08.bks.cpg/sg2_308_cif.got.tgz:614466.got - 2010.06.03 11:33:40.
