data_PCOD9005192
_publ_section_title
;
Structure prediction by ZEFSAII (Michael W. Deem and Ramdas Pophale) SiO2 
 PCOD9005192
Probable space group: P -1
;
_chemical_formula_sum "Si O2"
_cell_formula_units_Z 12
_cell_length_a 5.330933
_cell_length_b 5.402801
_cell_length_c 18.551451
_cell_angle_alpha 102.407990
_cell_angle_beta 98.678732
_cell_angle_gamma 60.571260
_cell_volume 453.858332
_symmetry_space_group_name_H-M "P -1"
_symmetry_group_IT_number 2
_symmetry_cell_setting 'triclinic'
loop_
_space_group_symop_operation_xyz
x,y,z
-x,-y,-z
loop_
_atom_site_type_symbol
_atom_site_label
_atom_site_fract_x
_atom_site_fract_y
_atom_site_fract_z
Si Si1 0.736693 0.836570 0.940411
Si Si2 0.299353 0.015487 0.784139
Si Si3 0.202705 0.507336 0.701695
Si Si4 0.661647 0.149482 0.474533
Si Si5 0.081639 0.767161 0.086316
Si Si6 0.377273 0.372466 0.335911
O O1 0.731211 0.552743 0.896423
O O2 0.758951 0.042786 0.895534
O O3 0.027039 0.731123 0.996686
O O4 0.500000 0.000000 0.000000
O O5 0.230848 0.309165 0.758677
O O6 0.199613 0.087853 0.866645
O O7 0.604396 0.785098 0.749260
O O8 0.135168 0.833639 0.739938
O O9 0.944220 0.514529 0.643910
O O10 0.502909 0.406800 0.665050
O O11 0.500000 0.500000 0.500000
O O12 0.500000 0.000000 0.500000
O O13 0.603421 0.142515 0.386259
O O14 0.000000 0.000000 0.500000
#
# Coordination Sequence:
#
# PCOD9005192 Si02
#       6
#     2   2   2   2   2   2
#     4  10  21  38  61  86 125 162 206 267 323 390
#     4  10  24  39  65  94 132 172 224 273 337 402
#     4  10  24  40  67  93 136 174 217 279 337 401
#     4  12  28  46  77 108 144 193 243 295 357 431
#     4  10  21  39  59  91 120 162 216 260 327 397
#     4  10  26  44  70  97 141 174 227 281 343 400
#
# _framework density 26.439972999999998
#
# number of rings (size 3 to 8) (size 9 to 14) (size 15 to 20)
#    1.000    0.667    0.000    3.000    7.000    2.667 
#    0.000    0.000    0.000    0.000    0.000    0.000 
#    0.000    0.000    0.000    0.000    0.000    0.000 
#
# Total GULP energy -66984.957641 kJ/mol
# GULP energy per Si atom -5582.079803 kJ/mol
# Density = 2.637979 g / cm^3
# Si number density = 26.439973 Si / 1000 Ang^3
#
#
#
# Elastic Constant Matrix: (Units=GPa)
#
#
# Indices 1 2 3 4 5 6 
#
# 1 173.3330 62.4507 20.2838 -19.5826 -14.0828 33.8282
# 2 62.4507 169.7210 32.6324 -11.1416 -15.1778 40.7948
# 3 20.2838 32.6324 110.7872 -9.0524 -5.5168 23.3316
# 4 -19.5826 -11.1416 -9.0524 36.4470 1.7550 -12.2596
# 5 -14.0828 -15.1778 -5.5168 1.7550 36.5868 -17.6326
# 6 33.8282 40.7948 23.3316 -12.2596 -17.6326 54.9450
#
#
#
# Elastic Compliance Matrix: (Units=1/GPa)
#
#
# Indices 1 2 3 4 5 6 
#
# 1 0.007236 -0.001882 -0.000059 0.002515 0.000809 -0.002212
# 2 -0.001882 0.007797 -0.001092 -0.000300 0.000378 -0.004112
# 3 -0.000059 -0.001092 0.010134 0.001027 -0.000653 -0.003437
# 4 0.002515 -0.000300 0.001027 0.030812 0.002348 0.005867
# 5 0.000809 0.000378 -0.000653 0.002348 0.032650 0.010500
# 6 -0.002212 -0.004112 -0.003437 0.005867 0.010500 0.028753
#
#
# Mechanical properties :
#
#
# Convention : Reuss Voigt Hill
#
# Bulk Modulus (GPa) = 52.35229 76.06388 64.20809
# Shear Modulus (GPa) = 38.51665 48.16071 43.33868
#
# Velocity S-wave (km/s) = 3.82089 4.27255 4.05302
# Velocity P-wave (km/s) = 6.26969 7.29181 6.79998
#
# Compressibility (1/GPa) = 0.01910136
#
# Stress axis : x y z
#
# Youngs Moduli (GPa) = 138.20317 128.25412 98.67933
#
# Poissons Ratio (x) = 0.24139 0.00581
# Poissons Ratio (y) = 0.26011 0.10773
# Poissons Ratio (z) = 0.00813 0.14001
#
# Static dielectric constant tensor:
#      x y z
#    x 2.208810 -0.034820 0.110210 
#    y -0.034820 2.149790 -0.009730 
#    z 0.110210 -0.009730 2.208500 
# 
# From -- ./inp_files/8465.got.cif
#   From: 2010.05.17/outbox.cif.g08.bks.cpg/sg2_5_cif.got.tgz:8465.got - 2010.06.03 11:33:40.
