data_PCOD9005187
_publ_section_title
;
Structure prediction by ZEFSAII (Michael W. Deem and Ramdas Pophale) SiO2 
 PCOD9005187
Probable space group: P -1
;
_chemical_formula_sum "Si O2"
_cell_formula_units_Z 16
_cell_length_a 9.783198
_cell_length_b 8.845596
_cell_length_c 11.824007
_cell_angle_alpha 114.920162
_cell_angle_beta 53.522678
_cell_angle_gamma 120.573051
_cell_volume 697.851961
_symmetry_space_group_name_H-M "P -1"
_symmetry_group_IT_number 2
_symmetry_cell_setting 'triclinic'
loop_
_space_group_symop_operation_xyz
x,y,z
-x,-y,-z
loop_
_atom_site_type_symbol
_atom_site_label
_atom_site_fract_x
_atom_site_fract_y
_atom_site_fract_z
Si Si1 0.518386 0.809967 0.024939
Si Si2 0.575179 0.381533 0.762474
Si Si3 0.931128 0.588586 0.259408
Si Si4 0.221075 0.968998 0.198963
Si Si5 0.718943 0.790069 0.557118
Si Si6 0.622663 0.423384 0.200396
Si Si7 0.038165 0.387841 0.340588
Si Si8 0.693720 0.085990 0.493953
O O1 0.514976 0.689316 0.095653
O O2 0.400725 0.935157 0.147352
O O3 0.414076 0.688165 0.932358
O O4 0.713409 0.934545 0.921669
O O5 0.433193 0.407171 0.751455
O O6 0.659506 0.236208 0.635818
O O7 0.745148 0.569644 0.743462
O O8 0.797841 0.645493 0.426558
O O9 0.819037 0.479350 0.175342
O O10 0.018957 0.478843 0.260163
O O11 0.070393 0.776526 0.208695
O O12 0.173614 0.095711 0.352382
O O13 0.518193 0.687900 0.670979
O O14 0.723608 0.930787 0.502795
O O15 0.877420 0.194944 0.367682
O O16 0.000000 0.500000 0.500000
O O17 0.500000 0.000000 0.500000
#
# Coordination Sequence:
#
# PCOD9005187 Si02
#       8
#     2   2   2   2   2   2   2   2
#     4  10  21  42  62  84 120 164 207 236 294 364
#     4  11  21  43  59  86 118 164 202 240 295 364
#     4  12  22  40  61  96 121 151 201 258 303 346
#     4  10  21  38  63  90 113 159 204 247 290 361
#     4  11  21  38  60  89 120 158 193 244 304 362
#     4  11  25  38  63  89 125 157 199 254 300 346
#     4  10  21  38  61  86 122 159 199 240 293 371
#     4  11  21  35  58  90 124 153 191 250 308 348
#
# _framework density 22.927499000000001
#
# number of rings (size 3 to 8) (size 9 to 14) (size 15 to 20)
#    0.000    1.250    2.500    4.875    0.000    2.500 
#    0.000    0.625    0.000    0.000    0.000    0.000 
#    0.000    0.000    0.000    0.000    0.000    0.000 
#
# Total GULP energy -89501.547485 kJ/mol
# GULP energy per Si atom -5593.846718 kJ/mol
# Density = 2.287531 g / cm^3
# Si number density = 22.927499 Si / 1000 Ang^3
#
#
#
# Elastic Constant Matrix: (Units=GPa)
#
#
# Indices 1 2 3 4 5 6 
#
# 1 86.0310 19.1316 9.5896 -19.6885 15.5135 10.8767
# 2 19.1316 85.9463 29.5352 -35.7130 21.2844 8.2962
# 3 9.5896 29.5352 71.2831 -24.4044 9.0692 14.9234
# 4 -19.6885 -35.7130 -24.4044 47.2880 -12.2199 -14.2190
# 5 15.5135 21.2844 9.0692 -12.2199 15.5898 -1.4014
# 6 10.8767 8.2962 14.9234 -14.2190 -1.4014 41.8563
#
#
#
# Elastic Compliance Matrix: (Units=1/GPa)
#
#
# Indices 1 2 3 4 5 6 
#
# 1 0.015267 0.001915 0.001138 0.002759 -0.016698 -0.004374
# 2 0.001915 0.021970 -0.002894 0.009605 -0.022807 -0.001321
# 3 0.001138 -0.002894 0.018387 0.005329 -0.004114 -0.004605
# 4 0.002759 0.009605 0.005329 0.037913 0.011544 0.008745
# 5 -0.016698 -0.022807 -0.004114 0.011544 0.124998 0.018433
# 6 -0.004374 -0.001321 -0.004605 0.008745 0.018433 0.030519
#
#
# Mechanical properties :
#
#
# Convention : Reuss Voigt Hill
#
# Bulk Modulus (GPa) = 17.87608 39.97479 28.92544
# Shear Modulus (GPa) = 18.69972 33.28042 25.99007
#
# Velocity S-wave (km/s) = 2.85897 3.81405 3.37051
# Velocity P-wave (km/s) = 4.32574 6.07200 5.27168
#
# Compressibility (1/GPa) = 0.05594068
#
# Stress axis : x y z
#
# Youngs Moduli (GPa) = 65.50205 45.51584 54.38735
#
# Poissons Ratio (x) = -0.08715 -0.06188
# Poissons Ratio (y) = -0.12542 0.15740
# Poissons Ratio (z) = -0.07452 0.13172
#
# Static dielectric constant tensor:
#      x y z
#    x 1.845750 0.001730 -0.031640 
#    y 0.001730 1.893910 0.025780 
#    z -0.031640 0.025780 1.909680 
# 
# From -- ./inp_files/225864.got.cif
#   From: 2010.05.17/outbox.cif.g08.bks.cpg/sg2_113_cif.got.tgz:225864.got - 2010.06.03 11:33:40.
