data_PCOD9005653
_publ_section_title
;
Structure prediction by ZEFSAII (Michael W. Deem and Ramdas Pophale) SiO2 
 PCOD9005653
Probable space group: P -1
;
_chemical_formula_sum "Si O2"
_cell_formula_units_Z 12
_cell_length_a 6.674266
_cell_length_b 17.844160
_cell_length_c 5.128557
_cell_angle_alpha 100.247029
_cell_angle_beta 69.642276
_cell_angle_gamma 119.721941
_cell_volume 497.296251
_symmetry_space_group_name_H-M "P -1"
_symmetry_group_IT_number 2
_symmetry_cell_setting 'triclinic'
loop_
_space_group_symop_operation_xyz
x,y,z
-x,-y,-z
loop_
_atom_site_type_symbol
_atom_site_label
_atom_site_fract_x
_atom_site_fract_y
_atom_site_fract_z
Si Si1 0.854844 0.947838 0.282556
Si Si2 0.669585 0.129690 0.372033
Si Si3 0.767628 0.450502 0.171717
Si Si4 0.293761 0.481235 0.214876
Si Si5 0.942775 0.167071 0.778329
Si Si6 0.869077 0.305686 0.163794
O O1 0.584383 0.931729 0.425105
O O2 0.849994 0.855218 0.240461
O O3 0.000000 0.000000 0.500000
O O4 0.000000 0.000000 0.000000
O O5 0.873847 0.142756 0.496476
O O6 0.700510 0.225854 0.371431
O O7 0.724610 0.108672 0.043970
O O8 0.558860 0.469434 0.104954
O O9 0.676143 0.464494 0.506156
O O10 0.731258 0.352735 0.120769
O O11 0.077935 0.502896 0.156648
O O12 0.097668 0.379648 0.256081
O O13 0.975159 0.261677 0.883234
#
# Coordination Sequence:
#
# PCOD9005653 Si02
#       6
#     2   2   2   2   2   2
#     4  12  26  45  70 100 131 166 222 268 325 409
#     4  10  24  43  67  96 132 174 212 265 344 371
#     4  10  21  38  63  87 124 174 218 260 328 378
#     4  11  23  38  61  97 125 173 224 273 323 377
#     4  10  24  43  66  99 130 173 219 262 340 387
#     4   9  23  41  62  87 135 167 217 267 321 394
#
# _framework density 24.130488
#
# number of rings (size 3 to 8) (size 9 to 14) (size 15 to 20)
#    1.000    0.667    0.000    4.500    7.000    5.333 
#    3.000    0.000    0.000    0.000    0.000    0.000 
#    0.000    0.000    0.000    0.000    0.000    0.000 
#
# Total GULP energy -66862.903904 kJ/mol
# GULP energy per Si atom -5571.908659 kJ/mol
# Density = 2.407557 g / cm^3
# Si number density = 24.130488 Si / 1000 Ang^3
#
#
#
# Elastic Constant Matrix: (Units=GPa)
#
#
# Indices 1 2 3 4 5 6 
#
# 1 119.9948 35.5173 36.0435 -9.9864 -1.8578 -43.4651
# 2 35.5173 84.3335 25.6928 -0.6972 -1.2916 -28.8668
# 3 36.0435 25.6928 114.9668 -10.3608 14.2167 -7.7725
# 4 -9.9864 -0.6972 -10.3608 39.5327 -3.4079 -9.3802
# 5 -1.8578 -1.2916 14.2167 -3.4079 59.2573 -4.0266
# 6 -43.4651 -28.8668 -7.7725 -9.3802 -4.0266 47.5661
#
#
#
# Elastic Compliance Matrix: (Units=1/GPa)
#
#
# Indices 1 2 3 4 5 6 
#
# 1 0.015512 -0.000212 -0.003525 0.006796 0.002740 0.015042
# 2 -0.000212 0.016208 -0.002953 0.001915 0.001824 0.009692
# 3 -0.003525 -0.002953 0.010670 0.000805 -0.002917 -0.003358
# 4 0.006796 0.001915 0.000805 0.030772 0.002770 0.013807
# 5 0.002740 0.001824 -0.002917 0.002770 0.018215 0.005223
# 6 0.015042 0.009692 -0.003358 0.013807 0.005223 0.043267
#
#
# Mechanical properties :
#
#
# Convention : Reuss Voigt Hill
#
# Bulk Modulus (GPa) = 34.47278 57.08916 45.78097
# Shear Modulus (GPa) = 31.70688 44.07397 37.89043
#
# Velocity S-wave (km/s) = 3.62881 4.27838 3.96691
# Velocity P-wave (km/s) = 5.64577 6.93656 6.32418
#
# Compressibility (1/GPa) = 0.02900839
#
# Stress axis : x y z
#
# Youngs Moduli (GPa) = 64.46604 61.69774 93.72397
#
# Poissons Ratio (x) = 0.01307 0.33041
# Poissons Ratio (y) = 0.01366 0.27681
# Poissons Ratio (z) = 0.22726 0.18222
#
# Static dielectric constant tensor:
#      x y z
#    x 2.134270 -0.059800 -0.011170 
#    y -0.059800 1.897840 -0.007730 
#    z -0.011170 -0.007730 1.867240 
# 
# From -- ./inp_files/9874.got.cif
#   From: 2010.05.17/outbox.cif.g08.bks.cpg/sg2_5_cif.got.tgz:9874.got - 2010.06.03 11:33:40.
