data_PCOD9005715
_publ_section_title
;
Structure prediction by ZEFSAII (Michael W. Deem and Ramdas Pophale) SiO2 
 PCOD9005715
Probable space group: P -1
;
_chemical_formula_sum "Si O2"
_cell_formula_units_Z 16
_cell_length_a 8.935877
_cell_length_b 15.067539
_cell_length_c 8.008730
_cell_angle_alpha 139.666173
_cell_angle_beta 79.077988
_cell_angle_gamma 111.990722
_cell_volume 638.818875
_symmetry_space_group_name_H-M "P -1"
_symmetry_group_IT_number 2
_symmetry_cell_setting 'triclinic'
loop_
_space_group_symop_operation_xyz
x,y,z
-x,-y,-z
loop_
_atom_site_type_symbol
_atom_site_label
_atom_site_fract_x
_atom_site_fract_y
_atom_site_fract_z
Si Si1 0.601346 0.574377 0.816939
Si Si2 0.339401 0.284383 0.315537
Si Si3 0.324347 0.652118 0.142739
Si Si4 0.937324 0.828292 0.306998
Si Si5 0.839375 0.417610 0.526067
Si Si6 0.617951 0.851500 0.556822
Si Si7 0.755828 0.193259 0.939966
Si Si8 0.942024 0.646009 0.350259
O O1 0.498469 0.424247 0.526155
O O2 0.656815 0.717223 0.888184
O O3 0.754370 0.529927 0.770116
O O4 0.461943 0.581779 0.976741
O O5 0.341876 0.164258 0.278773
O O6 0.182390 0.325468 0.452262
O O7 0.428152 0.760241 0.423696
O O8 0.309398 0.753846 0.137225
O O9 0.160671 0.507336 0.938728
O O10 0.742954 0.791835 0.336573
O O11 0.992161 0.777108 0.395635
O O12 0.050517 0.778458 0.083058
O O13 0.000000 0.000000 0.500000
O O14 0.000000 0.500000 0.500000
O O15 0.903737 0.356800 0.585001
O O16 0.736945 0.289024 0.237371
O O17 0.664065 0.020892 0.743134
#
# Coordination Sequence:
#
# PCOD9005715 Si02
#       8
#     2   2   2   2   2   2   2   2
#     4  10  21  38  63  91 123 162 207 262 316 362
#     4   9  18  38  59  90 123 160 208 252 314 370
#     4  11  23  40  64  94 127 165 210 260 312 375
#     4   9  22  43  64  93 131 168 209 254 318 379
#     4  12  22  41  64  94 125 160 209 266 313 367
#     4  10  23  41  63  90 128 169 207 256 314 378
#     4  11  23  43  63  91 130 167 210 259 316 374
#     4  10  21  39  64  96 125 162 213 260 313 369
#
# _framework density 25.046223999999999
#
# number of rings (size 3 to 8) (size 9 to 14) (size 15 to 20)
#    0.000    1.750    2.500    1.875    1.750    6.000 
#    0.000   11.875    0.000    0.000    0.000    0.000 
#    0.000    0.000    0.000    0.000    0.000    0.000 
#
# Total GULP energy -89294.568288 kJ/mol
# GULP energy per Si atom -5580.910518 kJ/mol
# Density = 2.498922 g / cm^3
# Si number density = 25.046224 Si / 1000 Ang^3
#
#
#
# Elastic Constant Matrix: (Units=GPa)
#
#
# Indices 1 2 3 4 5 6 
#
# 1 154.4929 24.0050 18.1440 25.8271 -1.2326 10.6837
# 2 24.0050 92.3178 -10.7632 25.3542 0.1969 -17.6221
# 3 18.1440 -10.7632 36.0612 3.4357 -16.2292 4.4432
# 4 25.8271 25.3542 3.4357 25.3339 -5.6397 -9.6938
# 5 -1.2326 0.1969 -16.2292 -5.6397 30.8945 -5.3793
# 6 10.6837 -17.6221 4.4432 -9.6938 -5.3793 54.8631
#
#
#
# Elastic Compliance Matrix: (Units=1/GPa)
#
#
# Indices 1 2 3 4 5 6 
#
# 1 0.009290 -0.001003 -0.005877 -0.010386 -0.005304 -0.004010
# 2 -0.001003 0.016607 0.007193 -0.015402 0.001230 0.002346
# 3 -0.005877 0.007193 0.042743 -0.001300 0.022275 0.001948
# 4 -0.010386 -0.015402 -0.001300 0.073268 0.014384 0.011537
# 5 -0.005304 0.001230 0.022275 0.014384 0.047667 0.006839
# 6 -0.004010 0.002346 0.001948 0.011537 0.006839 0.022313
#
#
# Mechanical properties :
#
#
# Convention : Reuss Voigt Hill
#
# Bulk Modulus (GPa) = 14.43717 38.40485 26.42101
# Shear Modulus (GPa) = 21.33560 38.98401 30.15981
#
# Velocity S-wave (km/s) = 2.92181 3.94951 3.47387
# Velocity P-wave (km/s) = 4.14239 6.01374 5.16355
#
# Compressibility (1/GPa) = 0.06926567
#
# Stress axis : x y z
#
# Youngs Moduli (GPa) = 107.64210 60.21694 23.39554
#
# Poissons Ratio (x) = 0.06038 0.13750
# Poissons Ratio (y) = 0.10794 -0.16828
# Poissons Ratio (z) = 0.63263 -0.43313
#
# Static dielectric constant tensor:
#      x y z
#    x 2.089560 0.043050 -0.010520 
#    y 0.043050 2.125510 -0.188170 
#    z -0.010520 -0.188170 2.117200 
# 
# From -- ./inp_files/209291.got.cif
#   From: 2010.05.17/outbox.cif.g08.bks.cpg/sg2_105_cif.got.tgz:209291.got - 2010.06.03 11:33:40.
