data_PCOD9005365
_publ_section_title
;
Structure prediction by ZEFSAII (Michael W. Deem and Ramdas Pophale) SiO2 
 PCOD9005365
Probable space group: P -1
;
_chemical_formula_sum "Si O2"
_cell_formula_units_Z 12
_cell_length_a 8.211923
_cell_length_b 9.569095
_cell_length_c 11.546650
_cell_angle_alpha 128.340574
_cell_angle_beta 55.278478
_cell_angle_gamma 136.842552
_cell_volume 475.050939
_symmetry_space_group_name_H-M "P -1"
_symmetry_group_IT_number 2
_symmetry_cell_setting 'triclinic'
loop_
_space_group_symop_operation_xyz
x,y,z
-x,-y,-z
loop_
_atom_site_type_symbol
_atom_site_label
_atom_site_fract_x
_atom_site_fract_y
_atom_site_fract_z
Si Si1 0.543184 0.820182 0.362796
Si Si2 0.743383 0.518041 0.875957
Si Si3 0.310377 0.250407 0.485729
Si Si4 0.006441 0.921373 0.111902
Si Si5 0.474107 0.183942 0.155101
Si Si6 0.986299 0.661050 0.214327
O O1 0.315719 0.599565 0.283794
O O2 0.612120 0.771855 0.431661
O O3 0.773325 0.918679 0.233862
O O4 0.500000 0.000000 0.500000
O O5 0.811120 0.380079 0.856665
O O6 0.500000 0.500000 0.000000
O O7 0.959180 0.774603 0.943248
O O8 0.500000 0.500000 0.500000
O O9 0.356586 0.132853 0.305099
O O10 0.058509 0.225111 0.600503
O O11 0.006096 0.778254 0.146072
O O12 0.264496 0.154939 0.141318
O O13 0.730741 0.418273 0.177861
O O14 0.500000 0.000000 0.000000
#
# Coordination Sequence:
#
# PCOD9005365 Si02
#       6
#     2   2   2   2   2   2
#     4  10  23  39  67  97 130 171 213 269 331 380
#     4  10  21  38  61  96 134 165 208 265 339 378
#     4   9  22  42  63  92 127 172 219 260 316 389
#     4  10  22  40  67  94 125 176 214 263 318 394
#     4  11  22  37  66  96 122 159 234 261 311 374
#     4  10  21  40  68  91 127 174 214 269 314 386
#
# _framework density 25.260448
#
# number of rings (size 3 to 8) (size 9 to 14) (size 15 to 20)
#    0.000    2.000    1.667    0.500    4.667    1.333 
#    0.000    3.333   14.667   19.000    0.000    0.000 
#    0.000    0.000    0.000    0.000    0.000    0.000 
#
# Total GULP energy -67100.427188 kJ/mol
# GULP energy per Si atom -5591.702266 kJ/mol
# Density = 2.520295 g / cm^3
# Si number density = 25.260448 Si / 1000 Ang^3
#
#
#
# Elastic Constant Matrix: (Units=GPa)
#
#
# Indices 1 2 3 4 5 6 
#
# 1 117.3074 24.8526 54.1519 3.8170 -3.5492 14.1707
# 2 24.8526 85.0609 26.2501 -6.5670 3.7132 12.7142
# 3 54.1519 26.2501 216.9276 13.0879 3.7525 3.6412
# 4 3.8170 -6.5670 13.0879 37.3555 8.4442 7.1698
# 5 -3.5492 3.7132 3.7525 8.4442 57.5239 9.3661
# 6 14.1707 12.7142 3.6412 7.1698 9.3661 33.3374
#
#
#
# Elastic Compliance Matrix: (Units=1/GPa)
#
#
# Indices 1 2 3 4 5 6 
#
# 1 0.010531 -0.001847 -0.002356 -0.000181 0.001588 -0.003922
# 2 -0.001847 0.013832 -0.001371 0.004232 -0.000716 -0.005049
# 3 -0.002356 -0.001371 0.005473 -0.002124 -0.000343 0.001480
# 4 -0.000181 0.004232 -0.002124 0.030382 -0.003489 -0.006859
# 5 0.001588 -0.000716 -0.000343 -0.003489 0.018863 -0.004913
# 6 -0.003922 -0.005049 0.001480 -0.006859 -0.004913 0.036283
#
#
# Mechanical properties :
#
#
# Convention : Reuss Voigt Hill
#
# Bulk Modulus (GPa) = 53.50985 69.97835 61.74410
# Shear Modulus (GPa) = 37.66746 46.57945 42.12345
#
# Velocity S-wave (km/s) = 3.86575 4.29880 4.08801
# Velocity P-wave (km/s) = 6.41518 7.23896 6.83948
#
# Compressibility (1/GPa) = 0.01868815
#
# Stress axis : x y z
#
# Youngs Moduli (GPa) = 94.95537 72.29798 182.71054
#
# Poissons Ratio (x) = 0.13353 0.43049
# Poissons Ratio (y) = 0.17538 0.25047
# Poissons Ratio (z) = 0.22373 0.09911
#
# Static dielectric constant tensor:
#      x y z
#    x 2.018770 0.026020 -0.025640 
#    y 0.026020 2.092730 0.023930 
#    z -0.025640 0.023930 2.061720 
# 
# From -- ./inp_files/353219.got.cif
#   From: 2010.05.17/outbox.cif.g08.bks.cpg/sg2_177_cif.got.tgz:353219.got - 2010.06.03 11:33:40.
