data_PCOD9005556
_publ_section_title
;
Structure prediction by ZEFSAII (Michael W. Deem and Ramdas Pophale) SiO2 
 PCOD9005556
Probable space group: P -1
;
_chemical_formula_sum "Si O2"
_cell_formula_units_Z 16
_cell_length_a 18.041913
_cell_length_b 16.739897
_cell_length_c 7.977190
_cell_angle_alpha 56.189131
_cell_angle_beta 55.014092
_cell_angle_gamma 21.906754
_cell_volume 734.090001
_symmetry_space_group_name_H-M "P -1"
_symmetry_group_IT_number 2
_symmetry_cell_setting 'triclinic'
loop_
_space_group_symop_operation_xyz
x,y,z
-x,-y,-z
loop_
_atom_site_type_symbol
_atom_site_label
_atom_site_fract_x
_atom_site_fract_y
_atom_site_fract_z
Si Si1 0.831822 0.728729 0.873389
Si Si2 0.981683 0.948204 0.824442
Si Si3 0.597148 0.315972 0.681479
Si Si4 0.769850 0.133461 0.226210
Si Si5 0.432449 0.351254 0.557686
Si Si6 0.277900 0.501149 0.049306
Si Si7 0.062523 0.683037 0.462755
Si Si8 0.450451 0.170732 0.973045
O O1 0.678537 0.803932 0.887311
O O2 0.945742 0.698498 0.648284
O O3 0.000000 0.500000 0.000000
O O4 0.687705 0.919692 0.973227
O O5 0.827143 0.108095 0.685369
O O6 0.837213 0.102775 0.992431
O O7 0.160204 0.854009 0.743664
O O8 0.088722 0.741667 0.934887
O O9 0.500000 0.500000 0.500000
O O10 0.555405 0.273738 0.647762
O O11 0.461675 0.403437 0.909220
O O12 0.544518 0.307098 0.322991
O O13 0.902390 0.914556 0.351211
O O14 0.197302 0.592523 0.549435
O O15 0.438394 0.232136 0.730401
O O16 0.210361 0.533575 0.284686
O O17 0.348583 0.341565 0.036305
#
# Coordination Sequence:
#
# PCOD9005556 Si02
#       8
#     2   2   2   2   2   2   2   2
#     4  11  22  42  70  93 125 171 213 266 328 399
#     4  10  22  40  62  90 133 175 217 264 324 381
#     4  11  23  38  58  92 135 173 215 271 315 376
#     4  10  21  38  62  93 125 175 222 262 314 385
#     4  11  21  36  62  89 124 167 212 260 318 384
#     4  10  24  42  62  98 132 167 216 272 324 380
#     4  11  22  40  67  94 130 173 214 266 328 382
#     4  10  23  41  63  97 127 159 221 267 323 389
#
# _framework density 21.795694000000001
#
# number of rings (size 3 to 8) (size 9 to 14) (size 15 to 20)
#    0.000    1.500    2.500    2.250    0.000    6.500 
#    0.000    5.625    0.000    0.000    0.000    0.000 
#    0.000    0.000    0.000    0.000    0.000    0.000 
#
# Total GULP energy -89184.547297 kJ/mol
# GULP energy per Si atom -5574.034206 kJ/mol
# Density = 2.174609 g / cm^3
# Si number density = 21.795694 Si / 1000 Ang^3
#
#
#
# Elastic Constant Matrix: (Units=GPa)
#
#
# Indices 1 2 3 4 5 6 
#
# 1 98.1494 52.1859 51.8764 6.8622 -11.8468 -1.8339
# 2 52.1859 95.3687 35.3303 12.8009 -3.8111 -8.5885
# 3 51.8764 35.3303 100.3862 27.3127 -11.6361 -6.6789
# 4 6.8622 12.8009 27.3127 42.5769 -6.1069 -2.8927
# 5 -11.8468 -3.8111 -11.6361 -6.1069 35.5030 4.6907
# 6 -1.8339 -8.5885 -6.6789 -2.8927 4.6907 39.5004
#
#
#
# Elastic Compliance Matrix: (Units=1/GPa)
#
#
# Indices 1 2 3 4 5 6 
#
# 1 0.018701 -0.008025 -0.007855 0.004846 0.003944 -0.002318
# 2 -0.008025 0.015693 -0.000562 -0.003166 -0.002114 0.002964
# 3 -0.007855 -0.000562 0.016945 -0.009172 0.001086 0.001578
# 4 0.004846 -0.003166 -0.009172 0.030023 0.003465 -0.000227
# 5 0.003944 -0.002114 0.001086 0.003465 0.030668 -0.003481
# 6 -0.002318 0.002964 0.001578 -0.000227 -0.003481 0.026516
#
#
# Mechanical properties :
#
#
# Convention : Reuss Voigt Hill
#
# Bulk Modulus (GPa) = 54.19000 63.63215 58.91108
# Shear Modulus (GPa) = 28.15584 33.81684 30.98634
#
# Velocity S-wave (km/s) = 3.59807 3.94323 3.77460
# Velocity P-wave (km/s) = 6.49447 7.07038 6.78854
#
# Compressibility (1/GPa) = 0.01845359
#
# Stress axis : x y z
#
# Youngs Moduli (GPa) = 53.47228 63.72459 59.01348
#
# Poissons Ratio (x) = 0.51138 0.46358
# Poissons Ratio (y) = 0.42911 0.03319
# Poissons Ratio (z) = 0.42005 0.03584
#
# Static dielectric constant tensor:
#      x y z
#    x 1.881010 0.072030 0.017950 
#    y 0.072030 1.884850 0.064880 
#    z 0.017950 0.064880 1.907150 
# 
# From -- ./inp_files/336708.got.cif
#   From: 2010.05.17/outbox.cif.g08.bks.cpg/sg2_169_cif.got.tgz:336708.got - 2010.06.03 11:33:40.
