data_PCOD9005446
_publ_section_title
;
Structure prediction by ZEFSAII (Michael W. Deem and Ramdas Pophale) SiO2 
 PCOD9005446
Probable space group: P -1
;
_chemical_formula_sum "Si O2"
_cell_formula_units_Z 16
_cell_length_a 10.235052
_cell_length_b 10.298378
_cell_length_c 7.906903
_cell_angle_alpha 115.847103
_cell_angle_beta 109.497842
_cell_angle_gamma 54.266022
_cell_volume 605.257148
_symmetry_space_group_name_H-M "P -1"
_symmetry_group_IT_number 2
_symmetry_cell_setting 'triclinic'
loop_
_space_group_symop_operation_xyz
x,y,z
-x,-y,-z
loop_
_atom_site_type_symbol
_atom_site_label
_atom_site_fract_x
_atom_site_fract_y
_atom_site_fract_z
Si Si1 0.959838 0.864848 0.060180
Si Si2 0.675575 0.062106 0.271677
Si Si3 0.032084 0.649041 0.640642
Si Si4 0.427025 0.333465 0.066724
Si Si5 0.362246 0.368001 0.682308
Si Si6 0.732419 0.171052 0.914674
Si Si7 0.359644 0.633147 0.391436
Si Si8 0.716806 0.905686 0.543626
O O1 0.144661 0.813215 0.151073
O O2 0.829661 0.897726 0.164312
O O3 0.978468 0.731665 0.850596
O O4 0.862299 0.055514 0.050352
O O5 0.521100 0.171204 0.140902
O O6 0.726369 0.194114 0.441163
O O7 0.638014 0.991847 0.382776
O O8 0.224671 0.551248 0.662016
O O9 0.000000 0.500000 0.500000
O O10 0.913159 0.802461 0.555806
O O11 0.313002 0.503554 0.217982
O O12 0.336809 0.348410 0.860017
O O13 0.586586 0.320714 0.039519
O O14 0.537873 0.335180 0.690675
O O15 0.330464 0.230365 0.505433
O O16 0.678244 0.044692 0.747692
O O17 0.500000 0.500000 0.500000
#
# Coordination Sequence:
#
# PCOD9005446 Si02
#       8
#     2   2   2   2   2   2   2   2
#     4   9  18  36  61  85 117 157 197 251 297 339
#     4  10  22  39  59  93 127 153 199 252 301 357
#     4   9  20  40  63  87 115 159 210 245 292 359
#     4  10  21  38  62  89 120 158 202 250 298 363
#     4  11  22  40  64  85 120 166 199 246 306 360
#     4   9  18  35  61  88 113 155 207 245 292 354
#     4  10  22  39  61  92 123 155 200 252 304 363
#     4  10  22  39  60  90 122 159 204 248 300 361
#
# _framework density 26.435043
#
# number of rings (size 3 to 8) (size 9 to 14) (size 15 to 20)
#    0.000    2.250    0.000    1.875    0.000    7.000 
#    0.000   15.000    0.000    0.000    0.000    0.000 
#    0.000    0.000    0.000    0.000    0.000    0.000 
#
# Total GULP energy -89218.580155 kJ/mol
# GULP energy per Si atom -5576.161260 kJ/mol
# Density = 2.637488 g / cm^3
# Si number density = 26.435043 Si / 1000 Ang^3
#
#
#
# Elastic Constant Matrix: (Units=GPa)
#
#
# Indices 1 2 3 4 5 6 
#
# 1 30.6605 20.3872 7.7874 10.1011 3.9709 -19.7458
# 2 20.3872 119.2773 21.6991 12.1055 -3.9210 -14.6913
# 3 7.7874 21.6991 105.9562 23.0123 2.5439 2.6632
# 4 10.1011 12.1055 23.0123 52.0462 1.8528 -3.4051
# 5 3.9709 -3.9210 2.5439 1.8528 36.0769 5.1345
# 6 -19.7458 -14.6913 2.6632 -3.4051 5.1345 36.2352
#
#
#
# Elastic Compliance Matrix: (Units=1/GPa)
#
#
# Indices 1 2 3 4 5 6 
#
# 1 0.061800 -0.005796 -0.002359 -0.007068 -0.011524 0.032469
# 2 -0.005796 0.009843 -0.001539 -0.000504 0.001750 0.000650
# 3 -0.002359 -0.001539 0.010920 -0.004215 -0.000019 -0.003106
# 4 -0.007068 -0.000504 -0.004215 0.022455 0.000102 -0.001651
# 5 -0.011524 0.001750 -0.000019 0.000102 0.030581 -0.009893
# 6 0.032469 0.000650 -0.003106 -0.001651 -0.009893 0.047030
#
#
# Mechanical properties :
#
#
# Convention : Reuss Voigt Hill
#
# Bulk Modulus (GPa) = 15.82890 39.51572 27.67231
# Shear Modulus (GPa) = 22.41383 38.60636 30.51010
#
# Velocity S-wave (km/s) = 2.91500 3.82569 3.40097
# Velocity P-wave (km/s) = 4.16299 5.87327 5.09047
#
# Compressibility (1/GPa) = 0.06317556
#
# Stress axis : x y z
#
# Youngs Moduli (GPa) = 16.18110 101.59319 91.57184
#
# Poissons Ratio (x) = 0.58885 0.21605
# Poissons Ratio (y) = 0.09379 0.14090
# Poissons Ratio (z) = 0.03818 0.15632
#
# Static dielectric constant tensor:
#      x y z
#    x 2.182920 -0.090730 -0.018770 
#    y -0.090730 2.400110 -0.136110 
#    z -0.018770 -0.136110 2.176780 
# 
# From -- ./inp_files/260193.got.cif
#   From: 2010.05.17/outbox.cif.g08.bks.cpg/sg2_131_cif.got.tgz:260193.got - 2010.06.03 11:33:40.
