data_PCOD9005062
_publ_section_title
;
Structure prediction by ZEFSAII (Michael W. Deem and Ramdas Pophale) SiO2 
 PCOD9005062
Probable space group: P -1
;
_chemical_formula_sum "Si O2"
_cell_formula_units_Z 14
_cell_length_a 9.882819
_cell_length_b 12.256269
_cell_length_c 8.749846
_cell_angle_alpha 52.061740
_cell_angle_beta 54.423040
_cell_angle_gamma 78.229555
_cell_volume 660.033760
_symmetry_space_group_name_H-M "P -1"
_symmetry_group_IT_number 2
_symmetry_cell_setting 'triclinic'
loop_
_space_group_symop_operation_xyz
x,y,z
-x,-y,-z
loop_
_atom_site_type_symbol
_atom_site_label
_atom_site_fract_x
_atom_site_fract_y
_atom_site_fract_z
Si Si1 0.847444 0.168221 0.336142
Si Si2 0.502102 0.199746 0.422994
Si Si3 0.125021 0.060209 0.728877
Si Si4 0.987752 0.580070 0.203022
Si Si5 0.688541 0.296844 0.903206
Si Si6 0.078382 0.756919 0.443349
Si Si7 0.599477 0.543984 0.557073
O O1 0.644300 0.146080 0.469721
O O2 0.893826 0.160984 0.486759
O O3 0.903026 0.055383 0.287410
O O4 0.932589 0.324551 0.075848
O O5 0.318702 0.092675 0.629384
O O6 0.479806 0.344813 0.392498
O O7 0.572120 0.225824 0.181059
O O8 0.078630 0.202679 0.574619
O O9 0.000000 0.000000 0.000000
O O10 0.955718 0.410562 0.352758
O O11 0.802071 0.608558 0.336025
O O12 0.130003 0.625125 0.203460
O O13 0.754260 0.205279 0.808282
O O14 0.600047 0.406982 0.779856
O O15 0.500000 0.500000 0.500000
#
# Coordination Sequence:
#
# PCOD9005062 Si02
#       7
#     2   2   2   2   2   2   2
#     4  11  24  41  63  94 123 159 204 254 304 356
#     4  11  22  40  62  87 121 163 203 247 302 367
#     4  12  25  44  64  87 121 166 207 247 302 371
#     4  10  21  41  65  90 123 163 203 247 303 364
#     4  10  21  38  60  89 121 162 202 244 301 366
#     4  11  22  41  64  91 124 160 202 253 304 355
#     4  11  21  35  59  96 127 155 199 256 304 351
#
# _framework density 21.211034999999999
#
# number of rings (size 3 to 8) (size 9 to 14) (size 15 to 20)
#    0.000    1.143    0.000    9.429    0.000    3.429 
#    0.000    5.714    0.000    0.000    0.000    0.000 
#    0.000    0.000    0.000    0.000    0.000    0.000 
#
# Total GULP energy -78312.297477 kJ/mol
# GULP energy per Si atom -5593.735534 kJ/mol
# Density = 2.116276 g / cm^3
# Si number density = 21.211035 Si / 1000 Ang^3
#
#
#
# Elastic Constant Matrix: (Units=GPa)
#
#
# Indices 1 2 3 4 5 6 
#
# 1 104.0404 23.5856 40.6343 12.3031 5.8906 1.0717
# 2 23.5856 108.6789 26.6194 26.9147 -0.0053 -0.4078
# 3 40.6343 26.6194 92.2646 12.7685 -20.0499 11.5276
# 4 12.3031 26.9147 12.7685 23.9810 -1.1181 6.7983
# 5 5.8906 -0.0053 -20.0499 -1.1181 25.1636 5.2049
# 6 1.0717 -0.4078 11.5276 6.7983 5.2049 33.8562
#
#
#
# Elastic Compliance Matrix: (Units=1/GPa)
#
#
# Indices 1 2 3 4 5 6 
#
# 1 0.014209 0.000363 -0.008894 -0.005041 -0.011754 0.005402
# 2 0.000363 0.013902 -0.003735 -0.015526 -0.004842 0.005290
# 3 -0.008894 -0.003735 0.021707 0.001250 0.021652 -0.010734
# 4 -0.005041 -0.015526 0.001250 0.065647 0.008170 -0.014891
# 5 -0.011754 -0.004842 0.021652 0.008170 0.063938 -0.018529
# 6 0.005402 0.005290 -0.010734 -0.014891 -0.018529 0.038923
#
#
# Mechanical properties :
#
#
# Convention : Reuss Voigt Hill
#
# Bulk Modulus (GPa) = 39.54986 54.07359 46.81173
# Shear Modulus (GPa) = 19.89752 30.87647 25.38700
#
# Velocity S-wave (km/s) = 3.06612 3.81948 3.46334
# Velocity P-wave (km/s) = 5.58759 6.70818 6.17336
#
# Compressibility (1/GPa) = 0.02528454
#
# Stress axis : x y z
#
# Youngs Moduli (GPa) = 70.37762 71.93134 46.06914
#
# Poissons Ratio (x) = -0.02611 0.40975
# Poissons Ratio (y) = -0.02554 0.17209
# Poissons Ratio (z) = 0.62595 0.26869
#
# Static dielectric constant tensor:
#      x y z
#    x 1.728120 -0.000040 -0.000500 
#    y -0.000040 1.793250 -0.000280 
#    z -0.000500 -0.000280 1.755190 
# 
# From -- ./inp_files/160124.got.cif
#   From: 2010.05.17/outbox.cif.g08.bks.cpg/sg2_81_cif.got.tgz:160124.got - 2010.06.03 11:33:40.
