data_PCOD9005968
_publ_section_title
;
Structure prediction by ZEFSAII (Michael W. Deem and Ramdas Pophale) SiO2 
 PCOD9005968
Probable space group: P -1
;
_chemical_formula_sum "Si O2"
_cell_formula_units_Z 16
_cell_length_a 13.941254
_cell_length_b 31.932011
_cell_length_c 25.378326
_cell_angle_alpha 170.302188
_cell_angle_beta 154.114622
_cell_angle_gamma 24.564954
_cell_volume 790.360717
_symmetry_space_group_name_H-M "P -1"
_symmetry_group_IT_number 2
_symmetry_cell_setting 'triclinic'
loop_
_space_group_symop_operation_xyz
x,y,z
-x,-y,-z
loop_
_atom_site_type_symbol
_atom_site_label
_atom_site_fract_x
_atom_site_fract_y
_atom_site_fract_z
Si Si1 0.871604 0.640088 0.258727
Si Si2 0.246420 0.288424 0.881801
Si Si3 0.601467 0.593889 0.783898
Si Si4 0.660752 0.779531 0.842259
Si Si5 0.186598 0.781883 0.093176
Si Si6 0.637527 0.965859 0.177686
Si Si7 0.189320 0.743921 0.169112
Si Si8 0.430291 0.490934 0.135034
O O1 0.145199 0.577131 0.324185
O O2 0.794655 0.936695 0.567658
O O3 0.763336 0.535922 0.126146
O O4 0.798534 0.466879 0.962180
O O5 0.252219 0.993415 0.532551
O O6 0.342953 0.393029 0.110781
O O7 0.419827 0.264945 0.889573
O O8 0.000000 0.500000 0.000000
O O9 0.400088 0.475685 0.522682
O O10 0.551378 0.858007 0.053548
O O11 0.579303 0.858726 0.960423
O O12 0.922970 0.775081 0.955651
O O13 0.500000 0.000000 0.000000
O O14 0.258016 0.722822 0.115888
O O15 0.355133 0.581682 0.888314
O O16 0.913083 0.858644 0.179269
O O17 0.572730 0.272894 0.535288
#
# Coordination Sequence:
#
# PCOD9005968 Si02
#       8
#     2   2   2   2   2   2   2   2
#     4  11  21  38  64  93 121 164 208 252 309 368
#     4  12  20  36  63  95 127 162 204 254 312 366
#     4  11  21  39  66  94 119 158 217 261 294 362
#     4  11  22  42  68  85 117 167 218 252 301 366
#     4  11  24  43  59  91 130 167 201 257 311 369
#     4  10  22  39  62  96 120 158 209 263 305 361
#     4  10  21  38  64  90 125 163 209 252 304 372
#     4  12  23  38  62  93 133 158 198 259 321 368
#
# _framework density 20.243921
#
# number of rings (size 3 to 8) (size 9 to 14) (size 15 to 20)
#    0.000    1.000    5.000    2.250    0.000    2.500 
#    2.250    3.125    0.000    0.000    0.000    0.000 
#    0.000    0.000    0.000    0.000    0.000    0.000 
#
# Total GULP energy -89129.451500 kJ/mol
# GULP energy per Si atom -5570.590719 kJ/mol
# Density = 2.019784 g / cm^3
# Si number density = 20.243921 Si / 1000 Ang^3
#
#
#
# Elastic Constant Matrix: (Units=GPa)
#
#
# Indices 1 2 3 4 5 6 
#
# 1 128.8251 39.8024 67.8786 7.8329 8.8851 8.1519
# 2 39.8024 53.5334 25.9007 -24.0556 0.0429 -1.4258
# 3 67.8786 25.9007 71.5458 -35.2984 16.5378 13.4043
# 4 7.8329 -24.0556 -35.2984 11.3163 13.1049 0.5092
# 5 8.8851 0.0429 16.5378 13.1049 37.1412 3.2891
# 6 8.1519 -1.4258 13.4043 0.5092 3.2891 33.2184
#
#
#
# Elastic Compliance Matrix: (Units=1/GPa)
#
#
# Indices 1 2 3 4 5 6 
#
# 1 0.006064 0.000029 0.002874 0.013307 -0.007237 -0.002134
# 2 0.000029 0.022960 -0.014584 -0.006478 0.008201 0.006150
# 3 0.002874 -0.014584 0.005396 -0.021664 0.004895 -0.003661
# 4 0.013307 -0.006478 -0.021664 -0.015957 0.011721 0.004282
# 5 -0.007237 0.008201 0.004895 0.011721 0.022531 -0.002258
# 6 -0.002134 0.006150 -0.003661 0.004282 -0.002258 0.032527
#
#
# Mechanical properties :
#
#
# Convention : Reuss Voigt Hill
#
# Bulk Modulus (GPa) = 90.42010 57.89643 74.15827
# Shear Modulus (GPa) = 49.71748 24.35669 37.03708
#
# Velocity S-wave (km/s) = 4.96110 3.47242 4.28195
# Velocity P-wave (km/s) = 8.80789 6.68868 7.82040
#
# Compressibility (1/GPa) = 0.01105949
#
# Stress axis : x y z
#
# Youngs Moduli (GPa) = 164.90777 43.55315 185.32707
#
# Poissons Ratio (x) = -0.00128 -0.53266
# Poissons Ratio (y) = -0.00486 2.70282
# Poissons Ratio (z) = -0.47397 0.63518
#
# Static dielectric constant tensor:
#      x y z
#    x 1.748360 0.020780 -0.127950 
#    y 0.020780 1.704380 0.220910 
#    z -0.127950 0.220910 -1.340970 
# 
# From -- ./inp_files/187657.got.cif
#   From: 2010.05.17/outbox.cif.g08.bks.cpg/sg2_94_cif.got.tgz:187657.got - 2010.06.03 11:33:40.
