data_PCOD9005952
_publ_section_title
;
Structure prediction by ZEFSAII (Michael W. Deem and Ramdas Pophale) SiO2 
 PCOD9005952
Probable space group: P -1
;
_chemical_formula_sum "Si O2"
_cell_formula_units_Z 12
_cell_length_a 8.762957
_cell_length_b 12.600582
_cell_length_c 9.233855
_cell_angle_alpha 101.650433
_cell_angle_beta 130.422373
_cell_angle_gamma 109.885578
_cell_volume 589.247754
_symmetry_space_group_name_H-M "P -1"
_symmetry_group_IT_number 2
_symmetry_cell_setting 'triclinic'
loop_
_space_group_symop_operation_xyz
x,y,z
-x,-y,-z
loop_
_atom_site_type_symbol
_atom_site_label
_atom_site_fract_x
_atom_site_fract_y
_atom_site_fract_z
Si Si1 0.623108 0.292195 0.956103
Si Si2 0.217096 0.162881 0.211343
Si Si3 0.791406 0.774253 0.086719
Si Si4 0.854177 0.623799 0.662064
Si Si5 0.330507 0.491468 0.166389
Si Si6 0.370503 0.058760 0.511045
O O1 0.401579 0.262979 0.914674
O O2 0.686803 0.405864 0.907786
O O3 0.513377 0.149272 0.766198
O O4 0.882385 0.343635 0.211181
O O5 0.106776 0.237516 0.226742
O O6 0.388713 0.164388 0.437798
O O7 0.330795 0.228302 0.142446
O O8 0.000000 0.000000 0.000000
O O9 0.823430 0.656684 0.050122
O O10 0.070206 0.926378 0.318615
O O11 0.628336 0.553191 0.385101
O O12 0.759799 0.533163 0.728190
O O13 0.500000 0.000000 0.500000
#
# Coordination Sequence:
#
# PCOD9005952 Si02
#       6
#     2   2   2   2   2   2
#     4  12  22  39  65  93 122 158 199 255 305 348
#     4   9  18  39  59  82 120 157 200 244 285 362
#     4  10  23  40  59  92 127 154 199 255 305 350
#     4  10  21  38  64  90 118 163 206 241 298 359
#     4  10  21  41  61  87 127 160 203 245 290 371
#     4  11  22  41  64  89 118 164 207 245 297 366
#
# _framework density 20.364948999999999
#
# number of rings (size 3 to 8) (size 9 to 14) (size 15 to 20)
#    0.000    1.667    1.667    4.500    0.000    0.667 
#    3.000    4.167    0.000    0.000    0.000    0.000 
#    0.000    0.000    0.000    0.000    0.000    0.000 
#
# Total GULP energy -66988.476241 kJ/mol
# GULP energy per Si atom -5582.373020 kJ/mol
# Density = 2.031860 g / cm^3
# Si number density = 20.364949 Si / 1000 Ang^3
#
#
#
# Elastic Constant Matrix: (Units=GPa)
#
#
# Indices 1 2 3 4 5 6 
#
# 1 42.5560 13.9341 -11.5696 -7.4628 12.0589 -2.4994
# 2 13.9341 95.6197 10.0936 5.8584 5.2076 -11.3220
# 3 -11.5696 10.0936 45.6639 4.3953 13.5125 -6.3982
# 4 -7.4628 5.8584 4.3953 26.5941 -9.9283 3.0141
# 5 12.0589 5.2076 13.5125 -9.9283 30.6325 0.9443
# 6 -2.4994 -11.3220 -6.3982 3.0141 0.9443 12.0344
#
#
#
# Elastic Compliance Matrix: (Units=1/GPa)
#
#
# Indices 1 2 3 4 5 6 
#
# 1 0.038061 -0.004054 0.020780 -0.003250 -0.025066 0.017919
# 2 -0.004054 0.013226 -0.000629 -0.006514 -0.002891 0.013125
# 3 0.020780 -0.000629 0.044035 -0.018046 -0.034406 0.034355
# 4 -0.003250 -0.006514 -0.018046 0.055803 0.029441 -0.032684
# 5 -0.025066 -0.002891 -0.034406 0.029441 0.068925 -0.038999
# 6 0.017919 0.013125 0.034355 -0.032684 -0.038999 0.128675
#
#
# Mechanical properties :
#
#
# Convention : Reuss Voigt Hill
#
# Bulk Modulus (GPa) = 7.84218 23.19508 15.51863
# Shear Modulus (GPa) = 13.92616 25.27763 19.60190
#
# Velocity S-wave (km/s) = 2.61785 3.52693 3.10583
# Velocity P-wave (km/s) = 3.60510 5.29151 4.52752
#
# Compressibility (1/GPa) = 0.12751551
#
# Stress axis : x y z
#
# Youngs Moduli (GPa) = 26.27387 75.60954 22.70923
#
# Poissons Ratio (x) = 0.30651 -0.47190
# Poissons Ratio (y) = 0.10651 0.01429
# Poissons Ratio (z) = -0.54597 0.04757
#
# Static dielectric constant tensor:
#      x y z
#    x 1.694890 0.000690 0.001880 
#    y 0.000690 1.741850 0.014040 
#    z 0.001880 0.014040 1.753300 
# 
# From -- ./inp_files/131689.got.cif
#   From: 2010.05.17/outbox.cif.g08.bks.cpg/sg2_66_cif.got.tgz:131689.got - 2010.06.03 11:33:40.
