data_PCOD9005278
_publ_section_title
;
Structure prediction by ZEFSAII (Michael W. Deem and Ramdas Pophale) SiO2 
 PCOD9005278
Probable space group: P -1
;
_chemical_formula_sum "Si O2"
_cell_formula_units_Z 16
_cell_length_a 8.973226
_cell_length_b 8.458961
_cell_length_c 21.474745
_cell_angle_alpha 82.092465
_cell_angle_beta 30.835386
_cell_angle_gamma 79.003221
_cell_volume 819.050511
_symmetry_space_group_name_H-M "P -1"
_symmetry_group_IT_number 2
_symmetry_cell_setting 'triclinic'
loop_
_space_group_symop_operation_xyz
x,y,z
-x,-y,-z
loop_
_atom_site_type_symbol
_atom_site_label
_atom_site_fract_x
_atom_site_fract_y
_atom_site_fract_z
Si Si1 0.350441 0.415370 0.501168
Si Si2 0.770140 0.092647 0.673013
Si Si3 0.182010 0.943721 0.876617
Si Si4 0.932589 0.833291 0.206747
Si Si5 0.758756 0.320281 0.778081
Si Si6 0.445620 0.059304 0.447102
Si Si7 0.294706 0.560993 0.867596
Si Si8 0.515019 0.382392 0.671555
O O1 0.500000 0.500000 0.500000
O O2 0.487129 0.247302 0.427480
O O3 0.330931 0.537666 0.444118
O O4 0.059269 0.367382 0.639372
O O5 0.688279 0.178872 0.764454
O O6 0.732920 0.232728 0.627676
O O7 0.114876 0.028211 0.551591
O O8 0.516124 0.985981 0.755769
O O9 0.221806 0.751251 0.872894
O O10 0.008912 0.049730 0.877464
O O11 0.000000 0.000000 0.000000
O O12 0.773939 0.687355 0.245370
O O13 0.179485 0.754506 0.171284
O O14 0.684308 0.951090 0.326574
O O15 0.528081 0.480997 0.840314
O O16 0.500000 0.000000 0.500000
O O17 0.418806 0.490151 0.760618
O O18 0.000000 0.500000 0.000000
#
# Coordination Sequence:
#
# PCOD9005278 Si02
#       8
#     2   2   2   2   2   2   2   2
#     4  11  20  35  60  93 133 161 199 247 310 363
#     4   9  21  38  61  88 126 161 205 248 305 362
#     4  11  24  44  66  90 119 162 211 259 305 365
#     4  11  21  40  64  93 127 163 204 253 308 362
#     4  10  21  40  63  92 126 165 200 256 302 367
#     4  11  20  35  59  90 129 163 196 248 305 361
#     4  11  24  45  66  88 121 162 210 257 309 364
#     4  10  21  38  61  90 125 163 203 251 305 367
#
# _framework density 19.534815999999999
#
# number of rings (size 3 to 8) (size 9 to 14) (size 15 to 20)
#    0.000    1.500    3.750    3.000    0.000    9.500 
#    0.000    5.000    0.000    0.000    0.000    0.000 
#    0.000    0.000    0.000    0.000    0.000    0.000 
#
# Total GULP energy -89186.344465 kJ/mol
# GULP energy per Si atom -5574.146529 kJ/mol
# Density = 1.949035 g / cm^3
# Si number density = 19.534816 Si / 1000 Ang^3
#
#
#
# Elastic Constant Matrix: (Units=GPa)
#
#
# Indices 1 2 3 4 5 6 
#
# 1 120.6245 45.7722 23.4981 -14.9612 18.8458 -30.2314
# 2 45.7722 113.7005 29.4991 -22.1875 7.1257 -12.5603
# 3 23.4981 29.4991 60.5356 -8.2594 23.0762 -11.0911
# 4 -14.9612 -22.1875 -8.2594 25.9811 -3.2831 6.6709
# 5 18.8458 7.1257 23.0762 -3.2831 30.2055 -11.1860
# 6 -30.2314 -12.5603 -11.0911 6.6709 -11.1860 36.1754
#
#
#
# Elastic Compliance Matrix: (Units=1/GPa)
#
#
# Indices 1 2 3 4 5 6 
#
# 1 0.012356 -0.003588 0.000059 0.001626 -0.003922 0.007585
# 2 -0.003588 0.012878 -0.005434 0.007814 0.004061 -0.000379
# 3 0.000059 -0.005434 0.026542 0.001397 -0.018795 0.000231
# 4 0.001626 0.007814 0.001397 0.047625 -0.000378 -0.004399
# 5 -0.003922 0.004061 -0.018795 -0.000378 0.052077 0.008543
# 6 0.007585 -0.000379 0.000231 -0.004399 0.008543 0.037374
#
#
# Mechanical properties :
#
#
# Convention : Reuss Voigt Hill
#
# Bulk Modulus (GPa) = 29.54297 54.71104 42.12700
# Shear Modulus (GPa) = 22.92946 31.54517 27.23732
#
# Velocity S-wave (km/s) = 3.42976 4.02284 3.73808
# Velocity P-wave (km/s) = 5.55341 7.04595 6.34373
#
# Compressibility (1/GPa) = 0.03384900
#
# Stress axis : x y z
#
# Youngs Moduli (GPa) = 80.93385 77.65244 37.67662
#
# Poissons Ratio (x) = 0.27864 -0.00223
# Poissons Ratio (y) = 0.29042 0.20473
# Poissons Ratio (z) = -0.00478 0.42196
#
# Static dielectric constant tensor:
#      x y z
#    x 1.725980 0.024200 -0.013280 
#    y 0.024200 1.737560 -0.021080 
#    z -0.013280 -0.021080 1.650030 
# 
# From -- ./inp_files/206473.got.cif
#   From: 2010.05.17/outbox.cif.g08.bks.cpg/sg2_104_cif.got.tgz:206473.got - 2010.06.03 11:33:40.
