data_PCOD9005205
_publ_section_title
;
Structure prediction by ZEFSAII (Michael W. Deem and Ramdas Pophale) SiO2 
 PCOD9005205
Probable space group: P -1
;
_chemical_formula_sum "Si O2"
_cell_formula_units_Z 16
_cell_length_a 9.065393
_cell_length_b 8.924200
_cell_length_c 9.842144
_cell_angle_alpha 46.403249
_cell_angle_beta 85.164290
_cell_angle_gamma 89.898998
_cell_volume 572.839761
_symmetry_space_group_name_H-M "P -1"
_symmetry_group_IT_number 2
_symmetry_cell_setting 'triclinic'
loop_
_space_group_symop_operation_xyz
x,y,z
-x,-y,-z
loop_
_atom_site_type_symbol
_atom_site_label
_atom_site_fract_x
_atom_site_fract_y
_atom_site_fract_z
Si Si1 0.992684 0.056463 0.280700
Si Si2 0.292163 0.405776 0.690504
Si Si3 0.842548 0.062524 0.021665
Si Si4 0.230028 0.289982 0.486320
Si Si5 0.865378 0.401703 0.171657
Si Si6 0.492456 0.011641 0.657391
Si Si7 0.702782 0.685255 0.849106
Si Si8 0.582173 0.215582 0.793534
O O1 0.819256 0.488632 0.267120
O O2 0.163169 0.145099 0.215126
O O3 0.937928 0.815331 0.424268
O O4 0.908258 0.167656 0.339385
O O5 0.266553 0.450428 0.505027
O O6 0.466985 0.394102 0.720210
O O7 0.241164 0.162739 0.848246
O O8 0.899875 0.152633 0.104277
O O9 0.740811 0.213191 0.857294
O O10 0.000000 0.000000 0.000000
O O11 0.268040 0.345052 0.293876
O O12 0.332439 0.098310 0.629785
O O13 0.723140 0.472123 0.057216
O O14 0.000000 0.500000 0.000000
O O15 0.553469 0.792198 0.828263
O O16 0.500000 0.000000 0.500000
O O17 0.583726 0.169501 0.657815
O O18 0.500000 0.000000 0.000000
#
# Coordination Sequence:
#
# PCOD9005205 Si02
#       8
#     2   2   2   2   2   2   2   2
#     4  10  20  32  49  78 106 129 167 217 255 294
#     4   9  18  33  51  70  99 136 170 208 251 305
#     4  10  17  28  49  75 100 128 167 213 249 292
#     4   9  19  34  55  78 100 129 174 215 251 298
#     4  10  20  34  52  75 105 138 171 209 258 310
#     4   9  17  30  51  77 101 129 169 210 250 302
#     4  10  18  33  54  75 102 139 169 204 255 312
#     4   9  16  28  47  72  97 130 171 208 247 297
#
# _framework density 27.931023
#
# number of rings (size 3 to 8) (size 9 to 14) (size 15 to 20)
#    0.000    2.500    0.000    4.875    0.000    0.000 
#    0.000    5.000    0.000    7.500    0.000   10.500 
#    0.000    0.000    0.000    0.000    0.000    0.125 
#
# Total GULP energy -89170.373700 kJ/mol
# GULP energy per Si atom -5573.148356 kJ/mol
# Density = 2.786745 g / cm^3
# Si number density = 27.931023 Si / 1000 Ang^3
#
#
#
# Elastic Constant Matrix: (Units=GPa)
#
#
# Indices 1 2 3 4 5 6 
#
# 1 148.3015 52.8379 36.4894 20.1691 21.4888 17.3007
# 2 52.8379 123.6704 7.4293 32.6900 1.2218 -10.2200
# 3 36.4894 7.4293 68.2722 15.4418 27.2697 -4.7640
# 4 20.1691 32.6900 15.4418 50.2403 0.8458 12.1548
# 5 21.4888 1.2218 27.2697 0.8458 42.8976 2.7187
# 6 17.3007 -10.2200 -4.7640 12.1548 2.7187 50.1562
#
#
#
# Elastic Compliance Matrix: (Units=1/GPa)
#
#
# Indices 1 2 3 4 5 6 
#
# 1 0.010470 -0.005189 -0.005382 0.002215 -0.001362 -0.005643
# 2 -0.005189 0.013176 0.004325 -0.009559 -0.000796 0.007245
# 3 -0.005382 0.004325 0.025572 -0.010316 -0.014013 0.008426
# 4 0.002215 -0.009559 -0.010316 0.031101 0.005839 -0.011545
# 5 -0.001362 -0.000796 -0.014013 0.005839 0.033077 -0.004232
# 6 -0.005643 0.007245 0.008426 -0.011545 -0.004232 0.027188
#
#
# Mechanical properties :
#
#
# Convention : Reuss Voigt Hill
#
# Bulk Modulus (GPa) = 27.22802 59.30638 43.26720
# Shear Modulus (GPa) = 30.24458 44.89131 37.56794
#
# Velocity S-wave (km/s) = 3.29421 4.01336 3.67144
# Velocity P-wave (km/s) = 4.92327 6.53876 5.78766
#
# Compressibility (1/GPa) = 0.03672687
#
# Stress axis : x y z
#
# Youngs Moduli (GPa) = 95.50830 75.89320 39.10540
#
# Poissons Ratio (x) = 0.39377 0.21048
# Poissons Ratio (y) = 0.49555 -0.16913
# Poissons Ratio (z) = 0.51406 -0.32824
#
# Static dielectric constant tensor:
#      x y z
#    x 1.728870 0.068130 0.206520 
#    y 0.068130 1.923170 -0.138970 
#    z 0.206520 -0.138970 2.187250 
# 
# From -- ./inp_files/377964.got.cif
#   From: 2010.05.17/outbox.cif.g08.bks.cpg/sg2_189_cif.got.tgz:377964.got - 2010.06.03 11:33:40.
