data_PCOD9005665
_publ_section_title
;
Structure prediction by ZEFSAII (Michael W. Deem and Ramdas Pophale) SiO2 
 PCOD9005665
Probable space group: P -1
;
_chemical_formula_sum "Si O2"
_cell_formula_units_Z 15
_cell_length_a 9.066564
_cell_length_b 20.634016
_cell_length_c 9.717006
_cell_angle_alpha 131.526765
_cell_angle_beta 30.753097
_cell_angle_gamma 128.966102
_cell_volume 687.548583
_symmetry_space_group_name_H-M "P -1"
_symmetry_group_IT_number 2
_symmetry_cell_setting 'triclinic'
loop_
_space_group_symop_operation_xyz
x,y,z
-x,-y,-z
loop_
_atom_site_type_symbol
_atom_site_label
_atom_site_fract_x
_atom_site_fract_y
_atom_site_fract_z
Si Si1 0.260434 0.562305 0.304324
Si Si2 0.490424 0.755780 0.475693
Si Si3 0.315275 0.978018 0.254430
Si Si4 0.000000 0.000000 0.000000
Si Si5 0.834731 0.212184 0.955147
Si Si6 0.137439 0.425108 0.607253
Si Si7 0.501917 0.900907 0.457834
Si Si8 0.731964 0.382410 0.123790
O O1 0.394620 0.651554 0.397944
O O2 0.000000 0.500000 0.500000
O O3 0.114592 0.593264 0.327436
O O4 0.500000 0.500000 0.000000
O O5 0.488453 0.805133 0.400621
O O6 0.816880 0.776424 0.302186
O O7 0.280725 0.795371 0.806428
O O8 0.289085 0.874545 0.151691
O O9 0.444544 0.033353 0.359115
O O10 0.000000 0.000000 0.500000
O O11 0.500000 0.000000 0.000000
O O12 0.190401 0.922570 0.687771
O O13 0.233409 0.071472 0.821249
O O14 0.730606 0.296499 0.092200
O O15 0.428099 0.383921 0.290180
O O16 0.228647 0.530335 0.691416
O O17 0.002333 0.393722 0.818366
#
# Coordination Sequence:
#
# PCOD9005665 Si02
#       8
#     2   2   2   1   2   2   2   2
#     4  12  25  43  66  97 128 170 221 266 317 386
#     4  12  24  41  70  93 133 168 218 274 324 383
#     4  12  22  41  68  97 132 162 219 281 329 380
#     4  10  24  42  66  88 130 178 218 256 326 404
#     4  12  23  41  66 101 124 169 218 270 325 393
#     4  10  21  40  60  88 126 161 200 259 316 372
#     4  11  22  44  64  97 128 178 216 265 336 379
#     4  10  21  38  63  88 124 162 201 254 323 378
#
# _framework density 21.816638999999999
#
# number of rings (size 3 to 8) (size 9 to 14) (size 15 to 20)
#    0.000    0.800    2.667    5.600    0.000    2.133 
#    7.200    0.000    0.000    0.000    0.000    0.000 
#    0.000    0.000    0.000    0.000    0.000    0.000 
#
# Total GULP energy -83639.217089 kJ/mol
# GULP energy per Si atom -5575.947806 kJ/mol
# Density = 2.176698 g / cm^3
# Si number density = 21.816639 Si / 1000 Ang^3
#
#
#
# Elastic Constant Matrix: (Units=GPa)
#
#
# Indices 1 2 3 4 5 6 
#
# 1 20.1395 7.8807 -10.3345 -1.9986 -1.9636 -2.2825
# 2 7.8807 136.0826 36.6286 -9.0034 2.4009 -16.4339
# 3 -10.3345 36.6286 110.0824 -28.8804 -4.5643 0.4483
# 4 -1.9986 -9.0034 -28.8804 31.7065 -4.4968 3.3977
# 5 -1.9636 2.4009 -4.5643 -4.4968 25.3659 0.4887
# 6 -2.2825 -16.4339 0.4483 3.3977 0.4887 40.3354
#
#
#
# Elastic Compliance Matrix: (Units=1/GPa)
#
#
# Indices 1 2 3 4 5 6 
#
# 1 0.060398 -0.005966 0.011833 0.014349 0.009922 -0.000473
# 2 -0.005966 0.009210 -0.004422 -0.002563 -0.002655 0.003712
# 3 0.011833 -0.004422 0.015989 0.015332 0.006981 -0.002686
# 4 0.014349 -0.002563 0.015332 0.047976 0.012706 -0.004598
# 5 0.009922 -0.002655 0.006981 0.012706 0.043993 -0.002201
# 6 -0.000473 0.003712 -0.002686 -0.004598 -0.002201 0.026722
#
#
# Mechanical properties :
#
#
# Convention : Reuss Voigt Hill
#
# Bulk Modulus (GPa) = 11.30103 37.18380 24.24242
# Shear Modulus (GPa) = 21.65502 34.95688 28.30595
#
# Velocity S-wave (km/s) = 3.15396 4.00722 3.60592
# Velocity P-wave (km/s) = 4.29587 6.20413 5.33600
#
# Compressibility (1/GPa) = 0.08848748
#
# Stress axis : x y z
#
# Youngs Moduli (GPa) = 16.55689 108.58028 62.54203
#
# Poissons Ratio (x) = 0.64775 -0.74006
# Poissons Ratio (y) = 0.09877 0.27657
# Poissons Ratio (z) = -0.19592 0.48016
#
# Static dielectric constant tensor:
#      x y z
#    x 1.856580 -0.051170 0.091170 
#    y -0.051170 1.839380 -0.072030 
#    z 0.091170 -0.072030 1.854020 
# 
# From -- ./inp_files/223991.got.cif
#   From: 2010.05.17/outbox.cif.g08.bks.cpg/sg2_112_cif.got.tgz:223991.got - 2010.06.03 11:33:40.
