data_PCOD9005967
_publ_section_title
;
Structure prediction by ZEFSAII (Michael W. Deem and Ramdas Pophale) SiO2 
 PCOD9005967
Probable space group: P -1
;
_chemical_formula_sum "Si O2"
_cell_formula_units_Z 15
_cell_length_a 12.807177
_cell_length_b 18.062381
_cell_length_c 9.276549
_cell_angle_alpha 116.599215
_cell_angle_beta 78.660041
_cell_angle_gamma 156.953296
_cell_volume 592.152304
_symmetry_space_group_name_H-M "P -1"
_symmetry_group_IT_number 2
_symmetry_cell_setting 'triclinic'
loop_
_space_group_symop_operation_xyz
x,y,z
-x,-y,-z
loop_
_atom_site_type_symbol
_atom_site_label
_atom_site_fract_x
_atom_site_fract_y
_atom_site_fract_z
Si Si1 0.723047 0.917492 0.769115
Si Si2 0.736347 0.560867 0.677744
Si Si3 0.089116 0.547814 0.681323
Si Si4 0.000000 0.000000 0.000000
Si Si5 0.196214 0.008666 0.755769
Si Si6 0.853248 0.237880 0.036215
Si Si7 0.092474 0.165509 0.609205
Si Si8 0.033182 0.429886 0.876456
O O1 0.464485 0.662215 0.539140
O O2 0.490237 0.822858 0.796576
O O3 0.868556 0.984190 0.931251
O O4 0.012144 0.144822 0.768331
O O5 0.477475 0.443894 0.690188
O O6 0.019897 0.801110 0.699324
O O7 0.912211 0.655376 0.855750
O O8 0.966728 0.541288 0.784753
O O9 0.000000 0.500000 0.500000
O O10 0.969173 0.386831 0.684369
O O11 0.998430 0.944982 0.802806
O O12 0.135941 0.959484 0.558344
O O13 0.578619 0.305245 0.961249
O O14 0.819690 0.212698 0.849973
O O15 0.500000 0.000000 0.000000
O O16 0.000000 0.000000 0.500000
O O17 0.000000 0.500000 0.000000
#
# Coordination Sequence:
#
# PCOD9005967 Si02
#       8
#     2   2   2   1   2   2   2   2
#     4  11  23  42  65  95 128 171 208 262 319 379
#     4  11  22  40  66  91 128 167 215 258 318 385
#     4  11  22  41  66  94 129 169 211 264 318 376
#     4  12  24  38  68  90 130 162 212 264 316 360
#     4  12  23  41  67  92 125 167 217 261 316 390
#     4  11  24  43  67  94 127 168 214 267 316 386
#     4  10  21  38  64  90 124 172 208 251 326 386
#     4  10  22  40  67  90 124 171 213 255 327 379
#
# _framework density 25.331319000000001
#
# number of rings (size 3 to 8) (size 9 to 14) (size 15 to 20)
#    0.000    1.067    5.333    3.600    1.867    0.000 
#    0.000    4.000    0.000    0.000    0.000    0.000 
#    0.000    0.000    0.000    0.000    0.000    0.000 
#
# Total GULP energy -83569.778854 kJ/mol
# GULP energy per Si atom -5571.318590 kJ/mol
# Density = 2.527366 g / cm^3
# Si number density = 25.331319 Si / 1000 Ang^3
#
#
#
# Elastic Constant Matrix: (Units=GPa)
#
#
# Indices 1 2 3 4 5 6 
#
# 1 84.0848 12.6241 29.0519 -9.8182 31.7580 13.1909
# 2 12.6241 120.1261 35.0903 -25.4506 26.4134 -10.6272
# 3 29.0519 35.0903 125.7262 -32.8364 44.5647 -13.6861
# 4 -9.8182 -25.4506 -32.8364 48.8410 -14.3968 4.3825
# 5 31.7580 26.4134 44.5647 -14.3968 61.4182 -18.7040
# 6 13.1909 -10.6272 -13.6861 4.3825 -18.7040 29.3191
#
#
#
# Elastic Compliance Matrix: (Units=1/GPa)
#
#
# Indices 1 2 3 4 5 6 
#
# 1 0.022165 -0.000017 -0.001331 0.000494 -0.016907 -0.021460
# 2 -0.000017 0.010018 -0.000781 0.003858 -0.002491 0.001108
# 3 -0.001331 -0.000781 0.012282 0.005648 -0.006179 0.001263
# 4 0.000494 0.003858 0.005648 0.026436 0.000176 -0.000027
# 5 -0.016907 -0.002491 -0.006179 0.000176 0.039437 0.028952
# 6 -0.021460 0.001108 0.001263 -0.000027 0.028952 0.063227
#
#
# Mechanical properties :
#
#
# Convention : Reuss Voigt Hill
#
# Bulk Modulus (GPa) = 24.87090 53.71887 39.29488
# Shear Modulus (GPa) = 26.14717 44.79370 35.47044
#
# Velocity S-wave (km/s) = 3.21628 4.20969 3.74606
# Velocity P-wave (km/s) = 4.86130 6.69935 5.85292
#
# Compressibility (1/GPa) = 0.04020764
#
# Stress axis : x y z
#
# Youngs Moduli (GPa) = 45.11592 99.82430 81.41832
#
# Poissons Ratio (x) = 0.00167 0.10838
# Poissons Ratio (y) = 0.00075 0.06357
# Poissons Ratio (z) = 0.06006 0.07794
#
# Static dielectric constant tensor:
#      x y z
#    x 2.218570 -0.173450 -0.069130 
#    y -0.173450 2.287290 0.010750 
#    z -0.069130 0.010750 2.045530 
# 
# From -- ./inp_files/214660.got.cif
#   From: 2010.05.17/outbox.cif.g08.bks.cpg/sg2_108_cif.got.tgz:214660.got - 2010.06.03 11:33:40.
