data_PCOD9005672
_publ_section_title
;
Structure prediction by ZEFSAII (Michael W. Deem and Ramdas Pophale) SiO2 
 PCOD9005672
Probable space group: P -1
;
_chemical_formula_sum "Si O2"
_cell_formula_units_Z 16
_cell_length_a 5.411890
_cell_length_b 14.112120
_cell_length_c 17.453533
_cell_angle_alpha 34.378120
_cell_angle_beta 118.648296
_cell_angle_gamma 120.753918
_cell_volume 642.283158
_symmetry_space_group_name_H-M "P -1"
_symmetry_group_IT_number 2
_symmetry_cell_setting 'triclinic'
loop_
_space_group_symop_operation_xyz
x,y,z
-x,-y,-z
loop_
_atom_site_type_symbol
_atom_site_label
_atom_site_fract_x
_atom_site_fract_y
_atom_site_fract_z
Si Si1 0.906608 0.548007 0.100755
Si Si2 0.221710 0.593862 0.534087
Si Si3 0.227332 0.189159 0.622438
Si Si4 0.792458 0.733195 0.677772
Si Si5 0.815134 0.700439 0.151168
Si Si6 0.648859 0.749364 0.821332
Si Si7 0.315344 0.007669 0.614265
Si Si8 0.414784 0.968867 0.096432
O O1 0.851235 0.607066 0.138287
O O2 0.650347 0.400465 0.122401
O O3 0.173831 0.458503 0.201911
O O4 0.905316 0.701801 0.939570
O O5 0.506775 0.679645 0.469251
O O6 0.274042 0.449464 0.698421
O O7 0.000000 0.500000 0.500000
O O8 0.030749 0.720095 0.457630
O O9 0.151919 0.045365 0.640440
O O10 0.357869 0.105996 0.769579
O O11 0.709550 0.753380 0.738285
O O12 0.596431 0.815818 0.538048
O O13 0.106804 0.864815 0.625404
O O14 0.114271 0.822877 0.146764
O O15 0.628749 0.842872 0.010556
O O16 0.574073 0.919609 0.730959
O O17 0.500000 0.000000 0.000000
#
# Coordination Sequence:
#
# PCOD9005672 Si02
#       8
#     2   2   2   2   2   2   2   2
#     4  10  22  39  60  93 123 168 218 262 332 397
#     4  12  26  47  72 101 142 179 231 287 339 405
#     4  12  27  45  74 104 137 185 229 280 347 404
#     4  10  21  39  61  91 129 167 212 272 326 388
#     4  11  25  43  68  96 137 178 230 282 345 407
#     4  10  21  38  63  88 131 166 212 270 325 391
#     4  10  23  39  62  95 127 167 221 265 329 396
#     4  11  26  45  68  98 135 180 226 287 342 409
#
# _framework density 24.911133
#
# number of rings (size 3 to 8) (size 9 to 14) (size 15 to 20)
#    0.000    1.250    1.250    3.375    7.000    2.000 
#    0.000    0.000    0.000    0.000    0.000    0.000 
#    0.000    0.000    0.000    0.000    0.000    0.000 
#
# Total GULP energy -89466.085976 kJ/mol
# GULP energy per Si atom -5591.630373 kJ/mol
# Density = 2.485443 g / cm^3
# Si number density = 24.911133 Si / 1000 Ang^3
#
#
#
# Elastic Constant Matrix: (Units=GPa)
#
#
# Indices 1 2 3 4 5 6 
#
# 1 106.4050 35.2477 65.8789 -9.6104 23.1151 -6.9606
# 2 35.2477 79.3247 42.0269 1.8483 24.1384 -9.5251
# 3 65.8789 42.0269 196.1052 14.2222 24.9222 2.3255
# 4 -9.6104 1.8483 14.2222 52.7445 -6.4636 0.6955
# 5 23.1151 24.1384 24.9222 -6.4636 43.5024 -2.2724
# 6 -6.9606 -9.5251 2.3255 0.6955 -2.2724 50.5391
#
#
#
# Elastic Compliance Matrix: (Units=1/GPa)
#
#
# Indices 1 2 3 4 5 6 
#
# 1 0.013838 -0.003160 -0.003869 0.003312 -0.002823 0.001316
# 2 -0.003160 0.017424 -0.001678 -0.001643 -0.007135 0.002628
# 3 -0.003869 -0.001678 0.007176 -0.002761 -0.001598 -0.001213
# 4 0.003312 -0.001643 -0.002761 0.020833 0.003837 0.000159
# 5 -0.002823 -0.007135 -0.001598 0.003837 0.029913 -0.000368
# 6 0.001316 0.002628 -0.001213 0.000159 -0.000368 0.020500
#
#
# Mechanical properties :
#
#
# Convention : Reuss Voigt Hill
#
# Bulk Modulus (GPa) = 47.55943 74.23799 60.89871
# Shear Modulus (GPa) = 37.28381 45.26929 41.27655
#
# Velocity S-wave (km/s) = 3.87288 4.26752 4.07498
# Velocity P-wave (km/s) = 6.25556 7.35854 6.82936
#
# Compressibility (1/GPa) = 0.02102633
#
# Stress axis : x y z
#
# Youngs Moduli (GPa) = 72.26267 57.39079 139.34744
#
# Poissons Ratio (x) = 0.18133 0.53911
# Poissons Ratio (y) = 0.22832 0.23383
# Poissons Ratio (z) = 0.27957 0.09630
#
# Static dielectric constant tensor:
#      x y z
#    x 1.994560 0.100920 -0.014260 
#    y 0.100920 2.031910 -0.106800 
#    z -0.014260 -0.106800 2.058310 
# 
# From -- ./inp_files/47801.got.cif
#   From: 2010.05.17/outbox.cif.g08.bks.cpg/sg2_24_cif.got.tgz:47801.got - 2010.06.03 11:33:40.
