data_PCOD9005924
_publ_section_title
;
Structure prediction by ZEFSAII (Michael W. Deem and Ramdas Pophale) SiO2 
 PCOD9005924
Probable space group: P -1
;
_chemical_formula_sum "Si O2"
_cell_formula_units_Z 16
_cell_length_a 7.590467
_cell_length_b 5.924638
_cell_length_c 18.010006
_cell_angle_alpha 100.442610
_cell_angle_beta 59.246938
_cell_angle_gamma 115.020679
_cell_volume 630.074639
_symmetry_space_group_name_H-M "P -1"
_symmetry_group_IT_number 2
_symmetry_cell_setting 'triclinic'
loop_
_space_group_symop_operation_xyz
x,y,z
-x,-y,-z
loop_
_atom_site_type_symbol
_atom_site_label
_atom_site_fract_x
_atom_site_fract_y
_atom_site_fract_z
Si Si1 0.094011 0.182770 0.181392
Si Si2 0.250194 0.541370 0.883606
Si Si3 0.360560 0.080484 0.249431
Si Si4 0.205902 0.777324 0.635699
Si Si5 0.779709 0.180470 0.953561
Si Si6 0.308906 0.090408 0.493057
Si Si7 0.069440 0.728807 0.413287
Si Si8 0.484172 0.715349 0.113081
O O1 0.185415 0.061037 0.221011
O O2 0.135277 0.040513 0.093228
O O3 0.863999 0.176927 0.263700
O O4 0.270575 0.460760 0.154136
O O5 0.310618 0.362498 0.917604
O O6 0.007122 0.413542 0.895023
O O7 0.444187 0.647392 0.786839
O O8 0.251008 0.761376 0.951034
O O9 0.216245 0.965318 0.344909
O O10 0.476284 0.894453 0.191055
O O11 0.263664 0.020498 0.585433
O O12 0.005204 0.532843 0.629886
O O13 0.441250 0.751485 0.577249
O O14 0.576468 0.190359 0.947310
O O15 0.221705 0.809871 0.458686
O O16 0.154169 0.235109 0.514761
#
# Coordination Sequence:
#
# PCOD9005924 Si02
#       8
#     2   2   2   2   2   2   2   2
#     4  10  21  39  62  89 124 161 204 255 309 375
#     4  10  23  41  61  92 126 161 211 262 308 371
#     4  10  21  39  62  89 124 161 204 255 309 375
#     4  11  21  41  62  89 126 160 205 254 313 371
#     4  10  23  41  61  92 126 161 211 262 308 371
#     4  10  24  38  62  94 118 162 206 254 308 376
#     4  11  21  41  62  89 126 160 205 254 313 371
#     4  10  21  38  64  88 118 172 198 252 318 362
#
# _framework density 25.393818
#
# number of rings (size 3 to 8) (size 9 to 14) (size 15 to 20)
#    0.000    1.750    2.500    1.125    0.000    8.500 
#    0.000    3.750    0.000    0.000    0.000    0.000 
#    0.000    0.000    0.000    0.000    0.000    0.000 
#
# Total GULP energy -89328.929505 kJ/mol
# GULP energy per Si atom -5583.058094 kJ/mol
# Density = 2.533602 g / cm^3
# Si number density = 25.393818 Si / 1000 Ang^3
#
#
#
# Elastic Constant Matrix: (Units=GPa)
#
#
# Indices 1 2 3 4 5 6 
#
# 1 68.5410 11.3904 11.5996 -4.5651 -5.2333 6.4275
# 2 11.3904 65.5050 17.7358 4.3146 1.5979 3.5489
# 3 11.5996 17.7358 106.8064 -4.9648 -18.2845 -13.9626
# 4 -4.5651 4.3146 -4.9648 32.6462 0.4945 1.2486
# 5 -5.2333 1.5979 -18.2845 0.4945 27.8724 -8.9517
# 6 6.4275 3.5489 -13.9626 1.2486 -8.9517 30.4202
#
#
#
# Elastic Compliance Matrix: (Units=1/GPa)
#
#
# Indices 1 2 3 4 5 6 
#
# 1 0.015802 -0.002315 -0.001541 0.002406 0.000885 -0.003614
# 2 -0.002315 0.017529 -0.004529 -0.003035 -0.006057 -0.005293
# 3 -0.001541 -0.004529 0.013946 0.001897 0.012579 0.010879
# 4 0.002406 -0.003035 0.001897 0.031647 0.001239 -0.000218
# 5 0.000885 -0.006057 0.012579 0.001239 0.051493 0.021395
# 6 -0.003614 -0.005293 0.010879 -0.000218 0.021395 0.045552
#
#
# Mechanical properties :
#
#
# Convention : Reuss Voigt Hill
#
# Bulk Modulus (GPa) = 32.77884 35.81156 34.29520
# Shear Modulus (GPa) = 24.64159 31.52952 28.08556
#
# Velocity S-wave (km/s) = 3.11847 3.52749 3.32927
# Velocity P-wave (km/s) = 5.08947 5.54292 5.32103
#
# Compressibility (1/GPa) = 0.03050749
#
# Stress axis : x y z
#
# Youngs Moduli (GPa) = 63.28291 57.04754 71.70475
#
# Poissons Ratio (x) = 0.13206 0.11048
# Poissons Ratio (y) = 0.14649 0.32477
# Poissons Ratio (z) = 0.09751 0.25838
#
# Static dielectric constant tensor:
#      x y z
#    x 2.029600 -0.009470 0.032050 
#    y -0.009470 2.099960 0.001490 
#    z 0.032050 0.001490 2.046300 
# 
# From -- ./inp_files/105620.got.cif
#   From: 2010.05.17/outbox.cif.g08.bks.cpg/sg2_53_cif.got.tgz:105620.got - 2010.06.03 11:33:40.
