data_PCOD9005337
_publ_section_title
;
Structure prediction by ZEFSAII (Michael W. Deem and Ramdas Pophale) SiO2 
 PCOD9005337
Probable space group: P -1
;
_chemical_formula_sum "Si O2"
_cell_formula_units_Z 16
_cell_length_a 5.433008
_cell_length_b 27.390986
_cell_length_c 11.540586
_cell_angle_alpha 150.982018
_cell_angle_beta 61.783526
_cell_angle_gamma 128.601426
_cell_volume 638.956021
_symmetry_space_group_name_H-M "P -1"
_symmetry_group_IT_number 2
_symmetry_cell_setting 'triclinic'
loop_
_space_group_symop_operation_xyz
x,y,z
-x,-y,-z
loop_
_atom_site_type_symbol
_atom_site_label
_atom_site_fract_x
_atom_site_fract_y
_atom_site_fract_z
Si Si1 0.706980 0.564008 0.219440
Si Si2 0.293675 0.646022 0.125126
Si Si3 0.880601 0.036266 0.985560
Si Si4 0.799466 0.325565 0.187681
Si Si5 0.248399 0.092848 0.488527
Si Si6 0.769384 0.106628 0.810284
Si Si7 0.022009 0.499880 0.306742
Si Si8 0.880299 0.735349 0.721161
O O1 0.369379 0.559421 0.293035
O O2 0.912353 0.638509 0.440684
O O3 0.941887 0.626789 0.191872
O O4 0.646767 0.433671 0.964609
O O5 0.524617 0.779613 0.342073
O O6 0.272722 0.581440 0.876609
O O7 0.922982 0.978874 0.738537
O O8 0.086033 0.173228 0.197723
O O9 0.500000 0.000000 0.000000
O O10 0.000000 0.000000 0.000000
O O11 0.996325 0.400273 0.410482
O O12 0.470293 0.328798 0.277116
O O13 0.010227 0.402495 0.195385
O O14 0.673996 0.188991 0.930754
O O15 0.028426 0.103471 0.658849
O O16 0.411543 0.024040 0.371369
O O17 0.889112 0.181789 0.058084
#
# Coordination Sequence:
#
# PCOD9005337 Si02
#       8
#     2   2   2   2   2   2   2   2
#     4  10  22  39  60  93 125 175 225 275 342 409
#     4  11  21  40  61  90 130 174 218 279 343 407
#     4  11  26  49  72 103 139 187 234 286 345 417
#     4  10  21  38  64  95 126 175 220 280 344 406
#     4  10  23  43  66  99 131 174 228 281 345 414
#     4  10  21  42  64  95 132 170 225 282 344 407
#     4  10  21  38  61  93 130 167 224 278 339 408
#     4  10  22  41  66  95 131 175 229 282 339 409
#
# _framework density 25.040845000000001
#
# number of rings (size 3 to 8) (size 9 to 14) (size 15 to 20)
#    0.000    1.750    0.000    3.375    3.500    0.000 
#   20.250    8.750    0.000    0.000    0.000    0.000 
#    0.000    0.000    0.000    0.000    0.000    0.000 
#
# Total GULP energy -89291.118855 kJ/mol
# GULP energy per Si atom -5580.694928 kJ/mol
# Density = 2.498385 g / cm^3
# Si number density = 25.040845 Si / 1000 Ang^3
#
#
#
# Elastic Constant Matrix: (Units=GPa)
#
#
# Indices 1 2 3 4 5 6 
#
# 1 58.6583 14.2684 13.5116 -2.3655 -12.5741 -3.8700
# 2 14.2684 102.2996 36.5270 18.5268 -10.4880 -7.1189
# 3 13.5116 36.5270 132.0884 28.3924 -11.3142 -12.0190
# 4 -2.3655 18.5268 28.3924 45.1473 -5.1840 1.9553
# 5 -12.5741 -10.4880 -11.3142 -5.1840 31.9659 -2.6131
# 6 -3.8700 -7.1189 -12.0190 1.9553 -2.6131 26.2983
#
#
#
# Elastic Compliance Matrix: (Units=1/GPa)
#
#
# Indices 1 2 3 4 5 6 
#
# 1 0.019709 -0.001974 -0.001383 0.003462 0.007357 0.002207
# 2 -0.001974 0.011758 -0.001866 -0.003630 0.002037 0.002512
# 3 -0.001383 -0.001866 0.009988 -0.005570 0.001840 0.004453
# 4 0.003462 -0.003630 -0.005570 0.027799 0.002311 -0.004856
# 5 0.007357 0.002037 0.001840 0.002311 0.036355 0.005916
# 6 0.002207 0.002512 0.004453 -0.004856 0.005916 0.042014
#
#
# Mechanical properties :
#
#
# Convention : Reuss Voigt Hill
#
# Bulk Modulus (GPa) = 32.24975 46.85113 39.55044
# Shear Modulus (GPa) = 29.69005 35.93160 32.81082
#
# Velocity S-wave (km/s) = 3.44708 3.79214 3.62372
# Velocity P-wave (km/s) = 5.36190 6.15827 5.77383
#
# Compressibility (1/GPa) = 0.03100799
#
# Stress axis : x y z
#
# Youngs Moduli (GPa) = 50.73805 85.04910 100.11773
#
# Poissons Ratio (x) = 0.16789 0.13849
# Poissons Ratio (y) = 0.10016 0.18685
# Poissons Ratio (z) = 0.07018 0.15873
#
# Static dielectric constant tensor:
#      x y z
#    x 2.169460 -0.092460 0.013260 
#    y -0.092460 1.991430 -0.026540 
#    z 0.013260 -0.026540 1.979670 
# 
# From -- ./inp_files/94452.got.cif
#   From: 2010.05.17/outbox.cif.g08.bks.cpg/sg2_48_cif.got.tgz:94452.got - 2010.06.03 11:33:40.
