data_PCOD9005872
_publ_section_title
;
Structure prediction by ZEFSAII (Michael W. Deem and Ramdas Pophale) SiO2 
 PCOD9005872
Probable space group: P -1
;
_chemical_formula_sum "Si O2"
_cell_formula_units_Z 16
_cell_length_a 8.184842
_cell_length_b 8.757125
_cell_length_c 21.185700
_cell_angle_alpha 31.865638
_cell_angle_beta 114.226687
_cell_angle_gamma 113.975541
_cell_volume 725.761426
_symmetry_space_group_name_H-M "P -1"
_symmetry_group_IT_number 2
_symmetry_cell_setting 'triclinic'
loop_
_space_group_symop_operation_xyz
x,y,z
-x,-y,-z
loop_
_atom_site_type_symbol
_atom_site_label
_atom_site_fract_x
_atom_site_fract_y
_atom_site_fract_z
Si Si1 0.033176 0.375343 0.978794
Si Si2 0.241671 0.827193 0.230432
Si Si3 0.993893 0.244829 0.360217
Si Si4 0.169632 0.925149 0.727651
Si Si5 0.621226 0.831761 0.220123
Si Si6 0.365849 0.745612 0.037676
Si Si7 0.410890 0.658424 0.716913
Si Si8 0.526629 0.163350 0.623216
O O1 0.830561 0.299156 0.946607
O O2 0.141602 0.612775 0.867384
O O3 0.000000 0.500000 0.000000
O O4 0.129945 0.087148 0.101930
O O5 0.436165 0.858817 0.217282
O O6 0.289290 0.852565 0.303652
O O7 0.141436 0.515683 0.303076
O O8 0.988370 0.095363 0.342430
O O9 0.800723 0.368070 0.291819
O O10 0.000000 0.000000 0.500000
O O11 0.207538 0.157151 0.709413
O O12 0.354098 0.003245 0.690174
O O13 0.584715 0.545486 0.271761
O O14 0.656758 0.123356 0.080863
O O15 0.468246 0.468219 0.164468
O O16 0.500000 0.000000 0.000000
O O17 0.498823 0.995511 0.610960
O O18 0.500000 0.500000 0.500000
#
# Coordination Sequence:
#
# PCOD9005872 Si02
#       8
#     2   2   2   2   2   2   2   2
#     4  12  24  41  69 103 146 179 226 289 354 422
#     4  11  24  39  70 100 136 179 236 286 351 409
#     4  11  25  47  69  95 134 185 238 293 338 411
#     4  10  24  41  69  99 142 175 236 275 357 411
#     4  10  22  41  66 105 140 174 224 280 354 429
#     4  10  21  38  63  97 142 181 210 270 354 420
#     4  10  22  43  70  94 137 182 226 278 355 411
#     4  10  22  44  69  95 134 189 236 284 341 409
#
# _framework density 22.045812000000002
#
# number of rings (size 3 to 8) (size 9 to 14) (size 15 to 20)
#    0.000    1.500    1.250    3.750    7.000    1.500 
#    0.000    6.250    0.000    0.000    0.000    0.000 
#    0.000    0.000    0.000    0.000    0.000    0.000 
#
# Total GULP energy -89211.580889 kJ/mol
# GULP energy per Si atom -5575.723806 kJ/mol
# Density = 2.199563 g / cm^3
# Si number density = 22.045812 Si / 1000 Ang^3
#
#
#
# Elastic Constant Matrix: (Units=GPa)
#
#
# Indices 1 2 3 4 5 6 
#
# 1 62.0455 12.2030 27.1682 -12.7937 -8.4587 21.7928
# 2 12.2030 163.3420 50.8127 -10.9754 -16.5654 16.8368
# 3 27.1682 50.8127 111.4669 -15.3354 -15.8627 9.8848
# 4 -12.7937 -10.9754 -15.3354 35.8423 0.5612 -2.7516
# 5 -8.4587 -16.5654 -15.8627 0.5612 19.9902 -3.4993
# 6 21.7928 16.8368 9.8848 -2.7516 -3.4993 36.8741
#
#
#
# Elastic Compliance Matrix: (Units=1/GPa)
#
#
# Indices 1 2 3 4 5 6 
#
# 1 0.024173 0.001776 -0.003769 0.006463 0.006251 -0.013012
# 2 0.001776 0.007754 -0.002863 0.001462 0.004285 -0.003307
# 3 -0.003769 -0.002863 0.012371 0.003056 0.005941 0.001010
# 4 0.006463 0.001462 0.003056 0.031694 0.005050 -0.002462
# 5 0.006251 0.004285 0.005941 0.005050 0.060597 -0.001116
# 6 -0.013012 -0.003307 0.001010 -0.002462 -0.001116 0.035759
#
#
# Mechanical properties :
#
#
# Convention : Reuss Voigt Hill
#
# Bulk Modulus (GPa) = 28.91364 57.46915 43.19140
# Shear Modulus (GPa) = 25.82791 34.98601 30.40696
#
# Velocity S-wave (km/s) = 3.42651 3.98800 3.71787
# Velocity P-wave (km/s) = 5.36641 6.87969 6.16963
#
# Compressibility (1/GPa) = 0.03458575
#
# Stress axis : x y z
#
# Youngs Moduli (GPa) = 41.36821 128.96900 80.83229
#
# Poissons Ratio (x) = -0.22902 0.30464
# Poissons Ratio (y) = -0.07346 0.23144
# Poissons Ratio (z) = 0.15591 0.36927
#
# Static dielectric constant tensor:
#      x y z
#    x 2.319130 -0.011000 0.536390 
#    y -0.011000 1.946840 0.064410 
#    z 0.536390 0.064410 2.446990 
# 
# From -- ./inp_files/606319.got.cif
#   From: 2010.05.17/outbox.cif.g08.bks.cpg/sg2_304_cif.got.tgz:606319.got - 2010.06.03 11:33:40.
