data_PCOD9005297
_publ_section_title
;
Structure prediction by ZEFSAII (Michael W. Deem and Ramdas Pophale) SiO2 
 PCOD9005297
Probable space group: P -1
;
_chemical_formula_sum "Si O2"
_cell_formula_units_Z 14
_cell_length_a 11.813224
_cell_length_b 8.927473
_cell_length_c 11.374355
_cell_angle_alpha 108.265916
_cell_angle_beta 41.564957
_cell_angle_gamma 85.075028
_cell_volume 650.776885
_symmetry_space_group_name_H-M "P -1"
_symmetry_group_IT_number 2
_symmetry_cell_setting 'triclinic'
loop_
_space_group_symop_operation_xyz
x,y,z
-x,-y,-z
loop_
_atom_site_type_symbol
_atom_site_label
_atom_site_fract_x
_atom_site_fract_y
_atom_site_fract_z
Si Si1 0.108805 0.791000 0.324026
Si Si2 0.494634 0.318680 0.440905
Si Si3 0.413144 0.807293 0.920032
Si Si4 0.781980 0.550059 0.719029
Si Si5 0.362961 0.136139 0.913953
Si Si6 0.168926 0.039681 0.833316
Si Si7 0.786594 0.821961 0.411834
O O1 0.205541 0.642599 0.315256
O O2 0.950387 0.758981 0.369355
O O3 0.274142 0.773651 0.102827
O O4 0.000000 0.000000 0.500000
O O5 0.500000 0.500000 0.500000
O O6 0.597911 0.245797 0.217162
O O7 0.289195 0.319721 0.591300
O O8 0.631205 0.158618 0.385912
O O9 0.631915 0.676353 0.766387
O O10 0.352788 0.018101 0.003067
O O11 0.000000 0.500000 0.500000
O O12 0.702708 0.668942 0.930434
O O13 0.221860 0.141711 0.919453
O O14 0.587595 0.007728 0.658637
O O15 0.132520 0.138812 0.761295
O O16 0.000000 0.000000 0.000000
#
# Coordination Sequence:
#
# PCOD9005297 Si02
#       7
#     2   2   2   2   2   2   2
#     4  12  25  40  60  90 124 163 206 255 306 368
#     4  10  22  39  62  91 120 157 204 256 307 365
#     4  10  22  41  60  89 123 157 203 258 308 364
#     4  12  24  40  62  89 119 163 210 255 309 365
#     4  10  21  40  63  88 119 161 207 255 305 364
#     4  10  21  38  61  91 124 163 202 247 307 369
#     4  10  21  42  64  88 125 166 203 252 310 367
#
# _framework density 21.51275
#
# number of rings (size 3 to 8) (size 9 to 14) (size 15 to 20)
#    0.000    1.714    0.000    7.714    0.000    5.714 
#    0.000    2.143    0.000    0.000    0.000    0.000 
#    0.000    0.000    0.000    0.000    0.000    0.000 
#
# Total GULP energy -78216.507666 kJ/mol
# GULP energy per Si atom -5586.893405 kJ/mol
# Density = 2.146379 g / cm^3
# Si number density = 21.512750 Si / 1000 Ang^3
#
#
#
# Elastic Constant Matrix: (Units=GPa)
#
#
# Indices 1 2 3 4 5 6 
#
# 1 49.5442 7.0647 1.9013 14.7415 -14.3381 -4.5724
# 2 7.0647 96.4585 5.9640 0.1259 11.3606 9.9453
# 3 1.9013 5.9640 62.1324 -19.3439 -13.8946 8.8654
# 4 14.7415 0.1259 -19.3439 45.4704 5.1965 5.8701
# 5 -14.3381 11.3606 -13.8946 5.1965 31.4726 -2.4292
# 6 -4.5724 9.9453 8.8654 5.8701 -2.4292 30.7567
#
#
#
# Elastic Compliance Matrix: (Units=1/GPa)
#
#
# Indices 1 2 3 4 5 6 
#
# 1 0.032185 -0.005620 -0.002623 -0.015219 0.018954 0.011760
# 2 -0.005620 0.012444 -0.001165 0.003009 -0.008509 -0.005770
# 3 -0.002623 -0.001165 0.022190 0.010551 0.006671 -0.007896
# 4 -0.015219 0.003009 0.010551 0.034317 -0.010079 -0.013622
# 5 0.018954 -0.008509 0.006671 -0.010079 0.048817 0.009426
# 6 0.011760 -0.005770 -0.007896 -0.013622 0.009426 0.041747
#
#
# Mechanical properties :
#
#
# Convention : Reuss Voigt Hill
#
# Bulk Modulus (GPa) = 20.83226 26.44391 23.63808
# Shear Modulus (GPa) = 22.07347 34.42028 28.24687
#
# Velocity S-wave (km/s) = 3.20670 4.00433 3.62751
# Velocity P-wave (km/s) = 4.83893 5.80504 5.34386
#
# Compressibility (1/GPa) = 0.04800247
#
# Stress axis : x y z
#
# Youngs Moduli (GPa) = 31.07061 80.36073 45.06550
#
# Poissons Ratio (x) = 0.45162 0.11820
# Poissons Ratio (y) = 0.17462 0.05251
# Poissons Ratio (z) = 0.08149 0.09364
#
# Static dielectric constant tensor:
#      x y z
#    x 1.794110 0.033490 0.020160 
#    y 0.033490 1.766790 -0.129550 
#    z 0.020160 -0.129550 1.408040 
# 
# From -- ./inp_files/211569.got.cif
#   From: 2010.05.17/outbox.cif.g08.bks.cpg/sg2_106_cif.got.tgz:211569.got - 2010.06.03 11:33:40.
