data_PCOD9005861
_publ_section_title
;
Structure prediction by ZEFSAII (Michael W. Deem and Ramdas Pophale) SiO2 
 PCOD9005861
Probable space group: P -1
;
_chemical_formula_sum "Si O2"
_cell_formula_units_Z 14
_cell_length_a 11.622926
_cell_length_b 10.308894
_cell_length_c 5.393453
_cell_angle_alpha 120.849720
_cell_angle_beta 69.528925
_cell_angle_gamma 101.514733
_cell_volume 519.605673
_symmetry_space_group_name_H-M "P -1"
_symmetry_group_IT_number 2
_symmetry_cell_setting 'triclinic'
loop_
_space_group_symop_operation_xyz
x,y,z
-x,-y,-z
loop_
_atom_site_type_symbol
_atom_site_label
_atom_site_fract_x
_atom_site_fract_y
_atom_site_fract_z
Si Si1 0.845666 0.910372 0.445330
Si Si2 0.172766 0.766405 0.446771
Si Si3 0.092014 0.255241 0.273156
Si Si4 0.349520 0.432214 0.273117
Si Si5 0.387704 0.687702 0.877305
Si Si6 0.395022 0.197655 0.692717
Si Si7 0.644671 0.070811 0.197000
O O1 0.893989 0.864497 0.630804
O O2 0.702965 0.853877 0.487257
O O3 0.852442 0.088742 0.567368
O O4 0.902247 0.822566 0.079510
O O5 0.230126 0.848992 0.725404
O O6 0.044571 0.682403 0.521119
O O7 0.279902 0.670291 0.145519
O O8 0.209065 0.368315 0.332280
O O9 0.350416 0.589814 0.568088
O O10 0.472188 0.354661 0.219100
O O11 0.382697 0.376977 0.913869
O O12 0.386022 0.866725 0.989012
O O13 0.531769 0.147503 0.500980
O O14 0.351699 0.098375 0.868690
#
# Coordination Sequence:
#
# PCOD9005861 Si02
#       7
#     2   2   2   2   2   2   2
#     4  10  23  40  69  98 135 171 218 277 330 389
#     4  11  24  39  64  97 131 169 220 270 332 393
#     4  11  24  44  67  97 136 175 222 267 334 395
#     4  10  23  44  61  95 129 177 221 268 332 392
#     4  11  24  41  66  91 133 171 221 274 329 392
#     4   9  19  40  64  97 127 167 222 273 326 391
#     4  10  21  38  63  97 127 166 218 280 329 384
#
# _framework density 26.94351
#
# number of rings (size 3 to 8) (size 9 to 14) (size 15 to 20)
#    0.000    1.714    1.429    1.714    8.000    1.714 
#    5.143    0.714    0.000    0.000    0.000    0.000 
#    0.000    0.000    0.000    0.000    0.000    0.000 
#
# Total GULP energy -78228.793716 kJ/mol
# GULP energy per Si atom -5587.770980 kJ/mol
# Density = 2.688219 g / cm^3
# Si number density = 26.943510 Si / 1000 Ang^3
#
#
#
# Elastic Constant Matrix: (Units=GPa)
#
#
# Indices 1 2 3 4 5 6 
#
# 1 147.0431 43.6839 44.5091 -10.9743 -27.2467 42.3059
# 2 43.6839 56.6520 38.5316 -0.6746 -11.6111 5.5172
# 3 44.5091 38.5316 137.9658 1.7795 -16.5014 14.3019
# 4 -10.9743 -0.6746 1.7795 42.0956 4.5454 6.9327
# 5 -27.2467 -11.6111 -16.5014 4.5454 31.9565 -3.0700
# 6 42.3059 5.5172 14.3019 6.9327 -3.0700 40.1615
#
#
#
# Elastic Compliance Matrix: (Units=1/GPa)
#
#
# Indices 1 2 3 4 5 6 
#
# 1 0.016028 -0.009021 -0.000115 0.005814 0.007965 -0.015999
# 2 -0.009021 0.027694 -0.005553 -0.003115 0.000741 0.008270
# 3 -0.000115 -0.005553 0.009376 -0.000434 0.002578 -0.002183
# 4 0.005814 -0.003115 -0.000434 0.027071 -0.001240 -0.010309
# 5 0.007965 0.000741 0.002578 -0.001240 0.039265 -0.006194
# 6 -0.015999 0.008270 -0.002183 -0.010309 -0.006194 0.042700
#
#
# Mechanical properties :
#
#
# Convention : Reuss Voigt Hill
#
# Bulk Modulus (GPa) = 42.15806 66.12335 54.14071
# Shear Modulus (GPa) = 25.07277 37.17180 31.12228
#
# Velocity S-wave (km/s) = 3.05383 3.71835 3.40235
# Velocity P-wave (km/s) = 5.30239 6.55970 5.96427
#
# Compressibility (1/GPa) = 0.02372025
#
# Stress axis : x y z
#
# Youngs Moduli (GPa) = 62.38927 36.10923 106.65149
#
# Poissons Ratio (x) = 0.32575 0.01230
# Poissons Ratio (y) = 0.56283 0.59219
# Poissons Ratio (z) = 0.00720 0.20050
#
# Static dielectric constant tensor:
#      x y z
#    x 2.114190 -0.013000 0.006220 
#    y -0.013000 2.178380 -0.079590 
#    z 0.006220 -0.079590 2.145780 
# 
# From -- ./inp_files/65409.got.cif
#   From: 2010.05.17/outbox.cif.g08.bks.cpg/sg2_33_cif.got.tgz:65409.got - 2010.06.03 11:33:40.
