data_PCOD9005194
_publ_section_title
;
Structure prediction by ZEFSAII (Michael W. Deem and Ramdas Pophale) SiO2 
 PCOD9005194
Probable space group: P -1
;
_chemical_formula_sum "Si O2"
_cell_formula_units_Z 16
_cell_length_a 25.742979
_cell_length_b 26.287347
_cell_length_c 7.774905
_cell_angle_alpha 41.751669
_cell_angle_beta 40.386410
_cell_angle_gamma 11.664203
_cell_volume 689.228637
_symmetry_space_group_name_H-M "P -1"
_symmetry_group_IT_number 2
_symmetry_cell_setting 'triclinic'
loop_
_space_group_symop_operation_xyz
x,y,z
-x,-y,-z
loop_
_atom_site_type_symbol
_atom_site_label
_atom_site_fract_x
_atom_site_fract_y
_atom_site_fract_z
Si Si1 0.334263 0.750164 0.643146
Si Si2 0.001995 0.749738 0.402294
Si Si3 0.505264 0.750484 0.076675
Si Si4 0.251070 0.250246 0.764010
Si Si5 0.165456 0.249758 0.356540
Si Si6 0.084090 0.250422 0.009237
Si Si7 0.252294 0.749847 0.227438
Si Si8 0.419126 0.750202 0.927102
O O1 0.429534 0.750369 0.397080
O O2 0.553144 0.498560 0.635342
O O3 0.298614 0.750041 0.925891
O O4 0.049956 0.001678 0.635374
O O5 0.302460 0.501028 0.240380
O O6 0.928168 0.750167 0.451490
O O7 0.961946 0.749789 0.690484
O O8 0.805667 0.998073 0.239737
O O9 0.805334 0.501197 0.983951
O O10 0.306552 0.999931 0.983938
O O11 0.465320 0.750341 0.990620
O O12 0.054318 0.500225 0.625809
O O13 0.554163 0.000403 0.625748
O O14 0.208806 0.249980 0.059605
O O15 0.178459 0.250334 0.812972
O O16 0.323858 0.749632 0.184452
#
# Coordination Sequence:
#
# PCOD9005194 Si02
#       8
#     2   2   2   2   2   2   2   2
#     4  10  21  38  61  87 115 150 195 244 292 348
#     4  11  22  39  64  89 118 159 204 247 294 354
#     4  12  25  40  60  89 126 160 195 244 298 354
#     4   9  17  31  55  87 115 143 192 253 298 336
#     4   9  17  31  55  87 115 143 192 253 298 336
#     4  11  22  39  64  89 118 159 204 247 294 354
#     4  10  21  38  61  87 115 150 195 244 292 348
#     4  12  25  40  60  89 126 160 195 244 298 354
#
# _framework density 23.214358000000001
#
# number of rings (size 3 to 8) (size 9 to 14) (size 15 to 20)
#    0.000    1.500    0.000    6.000    0.000    7.000 
#    0.000    0.000    0.000   15.000    0.000    0.000 
#    0.000    0.000    0.000    0.000    0.000    0.000 
#
# Total GULP energy -89703.106159 kJ/mol
# GULP energy per Si atom -5606.444135 kJ/mol
# Density = 2.316152 g / cm^3
# Si number density = 23.214358 Si / 1000 Ang^3
#
#
#
# Elastic Constant Matrix: (Units=GPa)
#
#
# Indices 1 2 3 4 5 6 
#
# 1 152.8703 85.5429 21.3166 -3.0584 -21.3703 0.0806
# 2 85.5429 234.3241 33.7716 -17.0684 -26.9727 -7.4327
# 3 21.3166 33.7716 72.4585 6.3855 -8.3110 0.4102
# 4 -3.0584 -17.0684 6.3855 -32.4102 4.9642 -10.8532
# 5 -21.3703 -26.9727 -8.3110 4.9642 49.8580 2.5330
# 6 0.0806 -7.4327 0.4102 -10.8532 2.5330 17.3832
#
#
#
# Elastic Compliance Matrix: (Units=1/GPa)
#
#
# Indices 1 2 3 4 5 6 
#
# 1 0.008482 -0.002668 -0.001108 0.000966 0.001954 -0.000836
# 2 -0.002668 0.005456 -0.001308 -0.002732 0.001841 0.000402
# 3 -0.001108 -0.001308 0.014526 0.003413 0.000843 0.001111
# 4 0.000966 -0.002732 0.003413 -0.023064 0.002616 -0.016035
# 5 0.001954 0.001841 0.000843 0.002616 0.021811 -0.000786
# 6 -0.000836 0.000402 0.001111 -0.016035 -0.000786 0.047780
#
#
# Mechanical properties :
#
#
# Convention : Reuss Voigt Hill
#
# Bulk Modulus (GPa) = 54.65845 82.32391 68.49118
# Shear Modulus (GPa) = 54.79016 28.23430 41.51223
#
# Velocity S-wave (km/s) = 4.86344 3.49125 4.23331
# Velocity P-wave (km/s) = 7.42520 7.19661 7.31180
#
# Compressibility (1/GPa) = 0.01829543
#
# Stress axis : x y z
#
# Youngs Moduli (GPa) = 117.89906 183.28888 68.84034
#
# Poissons Ratio (x) = 0.48901 0.07628
# Poissons Ratio (y) = 0.31455 0.09006
# Poissons Ratio (z) = 0.13064 0.23980
#
# Static dielectric constant tensor:
#      x y z
#    x 1.853880 0.005550 0.049830 
#    y 0.005550 1.787860 0.005710 
#    z 0.049830 0.005710 1.851560 
# 
# From -- ./inp_files/357960.got.cif
#   From: 2010.05.17/outbox.cif.g08.bks.cpg/sg2_179_cif.got.tgz:357960.got - 2010.06.03 11:33:40.
