data_PCOD9005101
_publ_section_title
;
Structure prediction by ZEFSAII (Michael W. Deem and Ramdas Pophale) SiO2 
 PCOD9005101
Probable space group: P -1
;
_chemical_formula_sum "Si O2"
_cell_formula_units_Z 14
_cell_length_a 7.707423
_cell_length_b 7.327339
_cell_length_c 12.137114
_cell_angle_alpha 124.755074
_cell_angle_beta 72.116042
_cell_angle_gamma 105.518210
_cell_volume 532.183359
_symmetry_space_group_name_H-M "P -1"
_symmetry_group_IT_number 2
_symmetry_cell_setting 'triclinic'
loop_
_space_group_symop_operation_xyz
x,y,z
-x,-y,-z
loop_
_atom_site_type_symbol
_atom_site_label
_atom_site_fract_x
_atom_site_fract_y
_atom_site_fract_z
Si Si1 0.787218 0.916769 0.217153
Si Si2 0.709480 0.506404 0.821254
Si Si3 0.681255 0.573106 0.420746
Si Si4 0.316308 0.603143 0.957652
Si Si5 0.622020 0.036178 0.626485
Si Si6 0.888615 0.241177 0.129151
Si Si7 0.058620 0.125974 0.416210
O O1 0.917255 0.058505 0.326745
O O2 0.774898 0.651028 0.139042
O O3 0.849547 0.003596 0.114224
O O4 0.583165 0.973162 0.297529
O O5 0.750707 0.972467 0.679655
O O6 0.911176 0.639037 0.834078
O O7 0.694074 0.291406 0.668277
O O8 0.528775 0.633380 0.884920
O O9 0.500000 0.500000 0.500000
O O10 0.644447 0.821954 0.469330
O O11 0.740866 0.396480 0.263299
O O12 0.860847 0.624107 0.481918
O O13 0.178668 0.759325 0.983996
O O14 0.323251 0.601760 0.087771
O O15 0.000000 0.000000 0.500000
#
# Coordination Sequence:
#
# PCOD9005101 Si02
#       7
#     2   2   2   2   2   2   2
#     4  11  23  41  65  93 129 170 209 262 323 371
#     4  10  22  43  68  91 125 175 211 263 328 373
#     4  10  21  40  60  91 136 158 206 264 308 380
#     4  10  24  45  64  95 131 161 220 269 313 383
#     4   9  21  41  61  90 131 166 204 263 319 368
#     4  12  23  41  67  98 123 172 215 260 323 377
#     4  10  21  38  60  91 125 166 214 253 304 385
#
# _framework density 26.306719999999999
#
# number of rings (size 3 to 8) (size 9 to 14) (size 15 to 20)
#    0.857    0.857    1.429    3.000    0.000    4.000 
#    5.143    6.429    0.000    0.000    0.000    0.000 
#    0.000    0.000    0.000    0.000    0.000    0.000 
#
# Total GULP energy -78252.310014 kJ/mol
# GULP energy per Si atom -5589.450715 kJ/mol
# Density = 2.624685 g / cm^3
# Si number density = 26.306720 Si / 1000 Ang^3
#
#
#
# Elastic Constant Matrix: (Units=GPa)
#
#
# Indices 1 2 3 4 5 6 
#
# 1 159.6623 64.1066 16.3173 -6.5953 24.3610 24.8096
# 2 64.1066 98.1207 11.2217 -11.5535 9.4640 13.1111
# 3 16.3173 11.2217 74.4435 16.4207 6.4680 2.3134
# 4 -6.5953 -11.5535 16.4207 23.5916 1.1458 -4.0045
# 5 24.3610 9.4640 6.4680 1.1458 45.0443 9.5605
# 6 24.8096 13.1111 2.3134 -4.0045 9.5605 44.8830
#
#
#
# Elastic Compliance Matrix: (Units=1/GPa)
#
#
# Indices 1 2 3 4 5 6 
#
# 1 0.009464 -0.005324 -0.000985 0.000391 -0.003253 -0.002898
# 2 -0.005324 0.014963 -0.002764 0.007655 0.000069 -0.000617
# 3 -0.000985 -0.002764 0.017166 -0.013630 -0.000886 -0.000560
# 4 0.000391 0.007655 -0.013630 0.056469 -0.002092 0.003734
# 5 -0.003253 0.000069 -0.000886 -0.002092 0.024904 -0.003667
# 6 -0.002898 -0.000617 -0.000560 0.003734 -0.003667 0.025205
#
#
# Mechanical properties :
#
#
# Convention : Reuss Voigt Hill
#
# Bulk Modulus (GPa) = 42.64855 57.27975 49.96415
# Shear Modulus (GPa) = 28.71345 38.74249 33.72797
#
# Velocity S-wave (km/s) = 3.30735 3.84177 3.58453
# Velocity P-wave (km/s) = 5.55266 6.44205 6.01382
#
# Compressibility (1/GPa) = 0.02344746
#
# Stress axis : x y z
#
# Youngs Moduli (GPa) = 105.66038 66.83081 58.25313
#
# Poissons Ratio (x) = 0.35579 0.05740
# Poissons Ratio (y) = 0.56251 0.16101
# Poissons Ratio (z) = 0.10412 0.18472
#
# Static dielectric constant tensor:
#      x y z
#    x 2.101400 -0.006220 -0.018060 
#    y -0.006220 2.111460 -0.019090 
#    z -0.018060 -0.019090 2.212520 
# 
# From -- ./inp_files/498440.got.cif
#   From: 2010.05.17/outbox.cif.g08.bks.cpg/sg2_250_cif.got.tgz:498440.got - 2010.06.03 11:33:40.
