data_PCOD9005910
_publ_section_title
;
Structure prediction by ZEFSAII (Michael W. Deem and Ramdas Pophale) SiO2 
 PCOD9005910
Probable space group: P -1
;
_chemical_formula_sum "Si O2"
_cell_formula_units_Z 14
_cell_length_a 16.209567
_cell_length_b 27.947060
_cell_length_c 27.953356
_cell_angle_alpha 169.514543
_cell_angle_beta 17.752682
_cell_angle_gamma 161.651783
_cell_volume 684.065664
_symmetry_space_group_name_H-M "P -1"
_symmetry_group_IT_number 2
_symmetry_cell_setting 'triclinic'
loop_
_space_group_symop_operation_xyz
x,y,z
-x,-y,-z
loop_
_atom_site_type_symbol
_atom_site_label
_atom_site_fract_x
_atom_site_fract_y
_atom_site_fract_z
Si Si1 0.225132 0.117445 0.031620
Si Si2 0.287238 0.972551 0.134762
Si Si3 0.116270 0.760234 0.224813
Si Si4 0.182445 0.577115 0.576574
Si Si5 0.841663 0.800639 0.136489
Si Si6 0.706108 0.560599 0.337027
Si Si7 0.177596 0.674347 0.386214
O O1 0.176483 0.393603 0.352522
O O2 0.549101 0.167706 0.887076
O O3 0.183513 0.883100 0.864174
O O4 0.000000 0.000000 0.000000
O O5 0.318084 0.741150 0.927502
O O6 0.989443 0.877973 0.180970
O O7 0.500000 0.000000 0.000000
O O8 0.317640 0.250759 0.419453
O O9 0.985158 0.685862 0.276445
O O10 0.000000 0.000000 0.500000
O O11 0.000000 0.500000 0.000000
O O12 0.460016 0.566808 0.442113
O O13 0.933920 0.445100 0.619148
O O14 0.510683 0.735916 0.261925
O O15 0.917744 0.055437 0.309302
O O16 0.924550 0.547220 0.816500
#
# Coordination Sequence:
#
# PCOD9005910 Si02
#       7
#     2   2   2   2   2   2   2
#     4  12  26  43  67  97 131 164 212 284 333 380
#     4  12  24  39  60  95 132 158 213 272 312 376
#     4  12  23  46  68  93 131 170 221 275 320 400
#     4  12  23  42  65  93 126 165 223 258 330 400
#     4  10  21  39  58  89 127 167 209 261 323 373
#     4  12  24  39  68  90 122 178 213 255 329 390
#     4  10  21  38  64  85 122 172 209 257 320 395
#
# _framework density 20.465871
#
# number of rings (size 3 to 8) (size 9 to 14) (size 15 to 20)
#    0.000    0.571    2.857    6.000    0.000    2.286 
#    0.000    0.000    0.000    0.000    0.000    0.000 
#    0.000    0.000    0.000    0.000    0.000    0.000 
#
# Total GULP energy -78350.736123 kJ/mol
# GULP energy per Si atom -5596.481152 kJ/mol
# Density = 2.041929 g / cm^3
# Si number density = 20.465871 Si / 1000 Ang^3
#
#
#
# Elastic Constant Matrix: (Units=GPa)
#
#
# Indices 1 2 3 4 5 6 
#
# 1 58.0934 22.6550 -14.2743 -7.4291 4.2101 14.9433
# 2 22.6550 97.6663 15.7823 -0.3971 0.8917 -12.9900
# 3 -14.2743 15.7823 53.7602 10.4571 6.1379 3.9378
# 4 -7.4291 -0.3971 10.4571 21.6150 -7.3751 3.9418
# 5 4.2101 0.8917 6.1379 -7.3751 47.3691 10.3518
# 6 14.9433 -12.9900 3.9378 3.9418 10.3518 55.6725
#
#
#
# Elastic Compliance Matrix: (Units=1/GPa)
#
#
# Indices 1 2 3 4 5 6 
#
# 1 0.026407 -0.008944 0.009182 0.006285 -0.000152 -0.010241
# 2 -0.008944 0.014259 -0.006890 -0.000640 -0.000050 0.006270
# 3 0.009182 -0.006890 0.025926 -0.010339 -0.004716 -0.004297
# 4 0.006285 -0.000640 -0.010339 0.058708 0.011553 -0.007410
# 5 -0.000152 -0.000050 -0.004716 0.011553 0.024636 -0.005036
# 6 -0.010241 0.006270 -0.004297 -0.007410 -0.005036 0.023939
#
#
# Mechanical properties :
#
#
# Convention : Reuss Voigt Hill
#
# Bulk Modulus (GPa) = 18.76603 28.64956 23.70780
# Shear Modulus (GPa) = 24.39717 37.28844 30.84281
#
# Velocity S-wave (km/s) = 3.45641 4.27310 3.88627
# Velocity P-wave (km/s) = 5.01182 6.19475 5.63442
#
# Compressibility (1/GPa) = 0.05328778
#
# Stress axis : x y z
#
# Youngs Moduli (GPa) = 37.86856 70.13166 38.57107
#
# Poissons Ratio (x) = 0.62729 -0.35417
# Poissons Ratio (y) = 0.33871 0.26575
# Poissons Ratio (z) = -0.34772 0.48320
#
# Static dielectric constant tensor:
#      x y z
#    x 1.707540 -0.005820 -0.011590 
#    y -0.005820 1.751260 0.005360 
#    z -0.011590 0.005360 1.743420 
# 
# From -- ./inp_files/118298.got.cif
#   From: 2010.05.17/outbox.cif.g08.bks.cpg/sg2_60_cif.got.tgz:118298.got - 2010.06.03 11:33:40.
