data_PCOD9005553
_publ_section_title
;
Structure prediction by ZEFSAII (Michael W. Deem and Ramdas Pophale) SiO2 
 PCOD9005553
Probable space group: P -1
;
_chemical_formula_sum "Si O2"
_cell_formula_units_Z 16
_cell_length_a 19.459108
_cell_length_b 20.185906
_cell_length_c 6.696818
_cell_angle_alpha 118.482172
_cell_angle_beta 108.067329
_cell_angle_gamma 20.417060
_cell_volume 721.875491
_symmetry_space_group_name_H-M "P -1"
_symmetry_group_IT_number 2
_symmetry_cell_setting 'triclinic'
loop_
_space_group_symop_operation_xyz
x,y,z
-x,-y,-z
loop_
_atom_site_type_symbol
_atom_site_label
_atom_site_fract_x
_atom_site_fract_y
_atom_site_fract_z
Si Si1 0.796249 0.032283 0.085018
Si Si2 0.544865 0.011075 0.741253
Si Si3 0.452485 0.339088 0.531465
Si Si4 0.215906 0.719667 0.018970
Si Si5 0.453562 0.594951 0.789133
Si Si6 0.390224 0.941039 0.470927
Si Si7 0.712039 0.721071 0.712395
Si Si8 0.034942 0.667324 0.524544
O O1 0.682007 0.118047 0.306991
O O2 0.608427 0.259267 0.115040
O O3 0.976960 0.919710 0.117772
O O4 0.910535 0.850737 0.814090
O O5 0.729089 0.785107 0.712801
O O6 0.500000 0.000000 0.500000
O O7 0.579247 0.055716 0.720416
O O8 0.348623 0.210773 0.011533
O O9 0.359772 0.512319 0.744673
O O10 0.488497 0.255664 0.645616
O O11 0.273006 0.471225 0.425613
O O12 0.254265 0.755021 0.968419
O O13 0.331488 0.620910 0.190897
O O14 0.500000 0.500000 0.500000
O O15 0.501515 0.888583 0.654197
O O16 0.127146 0.188915 0.599419
O O17 0.908416 0.467928 0.513800
#
# Coordination Sequence:
#
# PCOD9005553 Si02
#       8
#     2   2   2   2   2   2   2   2
#     4  11  23  42  66  90 128 168 206 258 313 370
#     4   9  19  40  68  89 128 166 200 265 312 360
#     4  10  22  43  59  92 131 161 211 258 307 375
#     4  10  23  43  64  94 125 164 210 258 313 371
#     4  11  22  42  68  93 127 164 208 262 311 369
#     4  10  21  38  62  93 125 165 205 254 314 365
#     4   9  20  42  63  94 128 157 213 260 305 378
#     4  10  23  39  63  93 121 166 208 254 313 368
#
# _framework density 22.164486
#
# number of rings (size 3 to 8) (size 9 to 14) (size 15 to 20)
#    0.000    2.000    1.250    1.125    3.500    2.000 
#   11.250    5.625    0.000    0.000    0.000    0.000 
#    0.000    0.000    0.000    0.000    0.000    0.000 
#
# Total GULP energy -89270.449480 kJ/mol
# GULP energy per Si atom -5579.403093 kJ/mol
# Density = 2.211404 g / cm^3
# Si number density = 22.164486 Si / 1000 Ang^3
#
#
#
# Elastic Constant Matrix: (Units=GPa)
#
#
# Indices 1 2 3 4 5 6 
#
# 1 82.8676 18.4937 24.3589 -4.7411 -13.0017 18.5247
# 2 18.4937 91.1477 21.9299 -7.3862 -5.5095 -1.7035
# 3 24.3589 21.9299 80.8204 -7.2737 -7.6931 5.2980
# 4 -4.7411 -7.3862 -7.2737 26.4290 6.1445 8.6781
# 5 -13.0017 -5.5095 -7.6931 6.1445 26.1659 1.1440
# 6 18.5247 -1.7035 5.2980 8.6781 1.1440 54.3666
#
#
#
# Elastic Compliance Matrix: (Units=1/GPa)
#
#
# Indices 1 2 3 4 5 6 
#
# 1 0.015759 -0.002037 -0.003072 0.001763 0.006327 -0.005549
# 2 -0.002037 0.012194 -0.002558 0.001936 0.000305 0.001010
# 3 -0.003072 -0.002558 0.014441 0.002629 0.001602 -0.000894
# 4 0.001763 0.001936 0.002629 0.043751 -0.007884 -0.007614
# 5 0.006327 0.000305 0.001602 -0.007884 0.043834 -0.001966
# 6 -0.005549 0.001010 -0.000894 -0.007614 -0.001966 0.021660
#
#
# Mechanical properties :
#
#
# Convention : Reuss Voigt Hill
#
# Bulk Modulus (GPa) = 36.95466 42.71119 39.83293
# Shear Modulus (GPa) = 28.41020 34.06253 31.23636
#
# Velocity S-wave (km/s) = 3.58409 3.92447 3.75813
# Velocity P-wave (km/s) = 5.81694 6.31246 6.06976
#
# Compressibility (1/GPa) = 0.02706019
#
# Stress axis : x y z
#
# Youngs Moduli (GPa) = 63.45562 82.00735 69.24761
#
# Poissons Ratio (x) = 0.16702 0.21276
# Poissons Ratio (y) = 0.12924 0.17713
# Poissons Ratio (z) = 0.19496 0.20976
#
# Static dielectric constant tensor:
#      x y z
#    x 1.875910 -0.025960 -0.004260 
#    y -0.025960 1.833810 0.012780 
#    z -0.004260 0.012780 1.791750 
# 
# From -- ./inp_files/120462.got.cif
#   From: 2010.05.17/outbox.cif.g08.bks.cpg/sg2_61_cif.got.tgz:120462.got - 2010.06.03 11:33:40.
