data_PCOD9005214
_publ_section_title
;
Structure prediction by ZEFSAII (Michael W. Deem and Ramdas Pophale) SiO2 
 PCOD9005214
Probable space group: P -1
;
_chemical_formula_sum "Si O2"
_cell_formula_units_Z 16
_cell_length_a 13.979520
_cell_length_b 13.445601
_cell_length_c 11.362986
_cell_angle_alpha 31.295430
_cell_angle_beta 125.624497
_cell_angle_gamma 138.825251
_cell_volume 718.814219
_symmetry_space_group_name_H-M "P -1"
_symmetry_group_IT_number 2
_symmetry_cell_setting 'triclinic'
loop_
_space_group_symop_operation_xyz
x,y,z
-x,-y,-z
loop_
_atom_site_type_symbol
_atom_site_label
_atom_site_fract_x
_atom_site_fract_y
_atom_site_fract_z
Si Si1 0.340772 0.600037 0.577800
Si Si2 0.828968 0.874826 0.482564
Si Si3 0.793884 0.142703 0.854384
Si Si4 0.811435 0.892768 0.919824
Si Si5 0.645174 0.632628 0.392433
Si Si6 0.502488 0.775475 0.739849
Si Si7 0.210894 0.324578 0.108807
Si Si8 0.954006 0.348819 0.997009
O O1 0.293937 0.773546 0.357600
O O2 0.379509 0.560105 0.520141
O O3 0.473469 0.688909 0.672149
O O4 0.211566 0.332393 0.803155
O O5 0.773307 0.702830 0.505292
O O6 0.748161 0.756046 0.665297
O O7 0.000000 0.000000 0.500000
O O8 0.824951 0.086555 0.221483
O O9 0.885382 0.334527 0.832900
O O10 0.879117 0.108492 0.845284
O O11 0.692837 0.873778 0.112637
O O12 0.651010 0.830932 0.840225
O O13 0.864062 0.882802 0.836512
O O14 0.500000 0.500000 0.500000
O O15 0.500000 0.000000 0.500000
O O16 0.356745 0.563819 0.918463
O O17 0.097168 0.371192 0.030159
O O18 0.000000 0.500000 0.000000
#
# Coordination Sequence:
#
# PCOD9005214 Si02
#       8
#     2   2   2   2   2   2   2   2
#     4  10  21  38  61  87 128 169 203 269 328 372
#     4   9  21  40  61  89 125 173 217 262 327 386
#     4  10  22  42  62  91 129 169 212 276 324 375
#     4  10  22  41  64  94 130 163 214 268 320 394
#     4  10  23  37  61  92 128 168 222 271 328 393
#     4  11  22  40  65  96 131 164 214 269 326 390
#     4  10  22  39  67  90 126 179 212 261 337 379
#     4  10  23  44  63  94 129 169 226 272 313 393
#
# _framework density 22.258882
#
# number of rings (size 3 to 8) (size 9 to 14) (size 15 to 20)
#    0.000    2.000    1.250    1.500    8.750    2.000 
#    2.250    3.750    0.000    0.000    0.000    0.000 
#    0.000    0.000    0.000    0.000    0.000    0.000 
#
# Total GULP energy -89084.088790 kJ/mol
# GULP energy per Si atom -5567.755549 kJ/mol
# Density = 2.220822 g / cm^3
# Si number density = 22.258882 Si / 1000 Ang^3
#
#
#
# Elastic Constant Matrix: (Units=GPa)
#
#
# Indices 1 2 3 4 5 6 
#
# 1 133.1829 53.3554 35.6403 3.7241 -6.9406 -30.8900
# 2 53.3554 111.5901 25.1701 23.0686 -7.2228 -27.3445
# 3 35.6403 25.1701 85.8487 16.8604 -1.6357 -6.9542
# 4 3.7241 23.0686 16.8604 29.2371 -9.4948 2.1909
# 5 -6.9406 -7.2228 -1.6357 -9.4948 28.4877 6.5217
# 6 -30.8900 -27.3445 -6.9542 2.1909 6.5217 53.5158
#
#
#
# Elastic Compliance Matrix: (Units=1/GPa)
#
#
# Indices 1 2 3 4 5 6 
#
# 1 0.011072 -0.004520 -0.003947 0.004936 0.002262 0.003091
# 2 -0.004520 0.014962 0.000451 -0.012895 -0.002949 0.005982
# 3 -0.003947 0.000451 0.015050 -0.009681 -0.003374 0.000715
# 4 0.004936 -0.012895 -0.009681 0.055956 0.018204 -0.009507
# 5 0.002262 -0.002949 -0.003374 0.018204 0.042276 -0.006537
# 6 0.003091 0.005982 0.000715 -0.009507 -0.006537 0.024805
#
#
# Mechanical properties :
#
#
# Convention : Reuss Voigt Hill
#
# Bulk Modulus (GPa) = 39.91917 62.10591 51.01254
# Shear Modulus (GPa) = 26.52448 36.67851 31.60149
#
# Velocity S-wave (km/s) = 3.45575 4.06373 3.77201
# Velocity P-wave (km/s) = 5.82202 7.06971 6.47598
#
# Compressibility (1/GPa) = 0.02505062
#
# Stress axis : x y z
#
# Youngs Moduli (GPa) = 90.31412 66.83755 66.44546
#
# Poissons Ratio (x) = 0.30213 0.26228
# Poissons Ratio (y) = 0.40825 -0.02996
# Poissons Ratio (z) = 0.35650 -0.03014
#
# Static dielectric constant tensor:
#      x y z
#    x 1.841600 -0.041890 0.003490 
#    y -0.041890 1.930560 0.002030 
#    z 0.003490 0.002030 1.857030 
# 
# From -- ./inp_files/455429.got.cif
#   From: 2010.05.17/outbox.cif.g08.bks.cpg/sg2_228_cif.got.tgz:455429.got - 2010.06.03 11:33:40.
