data_PCOD9005453
_publ_section_title
;
Structure prediction by ZEFSAII (Michael W. Deem and Ramdas Pophale) SiO2 
 PCOD9005453
Probable space group: P -1
;
_chemical_formula_sum "Si O2"
_cell_formula_units_Z 16
_cell_length_a 17.576253
_cell_length_b 11.576251
_cell_length_c 9.675700
_cell_angle_alpha 68.952483
_cell_angle_beta 49.915722
_cell_angle_gamma 33.972619
_cell_volume 768.065478
_symmetry_space_group_name_H-M "P -1"
_symmetry_group_IT_number 2
_symmetry_cell_setting 'triclinic'
loop_
_space_group_symop_operation_xyz
x,y,z
-x,-y,-z
loop_
_atom_site_type_symbol
_atom_site_label
_atom_site_fract_x
_atom_site_fract_y
_atom_site_fract_z
Si Si1 0.128924 0.247534 0.442625
Si Si2 0.401082 0.099443 0.382473
Si Si3 0.422726 0.957973 0.038564
Si Si4 0.033489 0.835775 0.217622
Si Si5 0.978912 0.174470 0.091828
Si Si6 0.687240 0.633627 0.409005
Si Si7 0.410537 0.729474 0.830635
Si Si8 0.439497 0.434256 0.967008
O O1 0.059851 0.185161 0.593801
O O2 0.000000 0.500000 0.500000
O O3 0.290811 0.118233 0.411280
O O4 0.211308 0.164591 0.227719
O O5 0.558228 0.855938 0.373329
O O6 0.264411 0.320025 0.544795
O O7 0.507332 0.094143 0.174437
O O8 0.510947 0.743430 0.090529
O O9 0.500000 0.000000 0.000000
O O10 0.946083 0.064452 0.221684
O O11 0.060591 0.776723 0.047806
O O12 0.224909 0.651704 0.151886
O O13 0.850226 0.399146 0.235279
O O14 0.196333 0.974210 0.944622
O O15 0.550214 0.674525 0.615905
O O16 0.463648 0.533616 0.810255
O O17 0.444607 0.688825 0.974283
#
# Coordination Sequence:
#
# PCOD9005453 Si02
#       8
#     2   2   2   2   2   2   2   2
#     4  11  24  37  65  92 127 163 213 265 319 382
#     4  10  23  43  58  95 125 167 219 258 311 390
#     4  10  21  38  62  89 125 168 203 264 323 368
#     4  10  22  44  62  99 127 160 217 265 316 382
#     4  10  24  42  68  93 132 167 210 268 316 378
#     4  11  23  42  69  86 132 172 212 261 319 382
#     4  10  22  43  63  96 126 165 211 260 319 383
#     4  10  21  41  66  87 130 161 204 270 314 373
#
# _framework density 20.831558000000001
#
# number of rings (size 3 to 8) (size 9 to 14) (size 15 to 20)
#    0.000    1.750    1.250    2.250    7.000    1.000 
#    0.000    6.250    0.000    0.000    0.000    0.000 
#    0.000    0.000    0.000    0.000    0.000    0.000 
#
# Total GULP energy -89153.776786 kJ/mol
# GULP energy per Si atom -5572.111049 kJ/mol
# Density = 2.078414 g / cm^3
# Si number density = 20.831558 Si / 1000 Ang^3
#
#
#
# Elastic Constant Matrix: (Units=GPa)
#
#
# Indices 1 2 3 4 5 6 
#
# 1 62.4332 23.3571 16.0292 0.3423 -3.0340 4.6306
# 2 23.3571 94.8654 23.5458 14.7424 2.7642 20.6321
# 3 16.0292 23.5458 43.8934 3.6976 -1.8194 0.9612
# 4 0.3423 14.7424 3.6976 24.4945 16.8800 -0.5913
# 5 -3.0340 2.7642 -1.8194 16.8800 33.0497 2.7071
# 6 4.6306 20.6321 0.9612 -0.5913 2.7071 37.5683
#
#
#
# Elastic Compliance Matrix: (Units=1/GPa)
#
#
# Indices 1 2 3 4 5 6 
#
# 1 0.018719 -0.003711 -0.005014 0.002329 0.000575 -0.000145
# 2 -0.003711 0.016873 -0.006170 -0.013079 0.005345 -0.009242
# 3 -0.005014 -0.006170 0.028127 -0.002036 0.002391 0.003083
# 4 0.002329 -0.013079 -0.002036 0.075655 -0.038338 0.010901
# 5 0.000575 0.005345 0.002391 -0.038338 0.050172 -0.007286
# 6 -0.000145 -0.009242 0.003083 0.010901 -0.007286 0.032330
#
#
# Mechanical properties :
#
#
# Convention : Reuss Voigt Hill
#
# Bulk Modulus (GPa) = 29.47492 36.33960 32.90726
# Shear Modulus (GPa) = 19.01307 28.23984 23.62645
#
# Velocity S-wave (km/s) = 3.02438 3.68588 3.37139
# Velocity P-wave (km/s) = 5.13573 5.96629 5.56652
#
# Compressibility (1/GPa) = 0.03392715
#
# Stress axis : x y z
#
# Youngs Moduli (GPa) = 53.42181 59.26476 35.55352
#
# Poissons Ratio (x) = 0.21996 0.17827
# Poissons Ratio (y) = 0.19827 0.21938
# Poissons Ratio (z) = 0.26787 0.36568
#
# Static dielectric constant tensor:
#      x y z
#    x 1.745250 0.006410 0.147480 
#    y 0.006410 1.796580 -0.046630 
#    z 0.147480 -0.046630 1.850230 
# 
# From -- ./inp_files/470966.got.cif
#   From: 2010.05.17/outbox.cif.g08.bks.cpg/sg2_236_cif.got.tgz:470966.got - 2010.06.03 11:33:40.
