data_PCOD9005201
_publ_section_title
;
Structure prediction by ZEFSAII (Michael W. Deem and Ramdas Pophale) SiO2 
 PCOD9005201
Probable space group: P -1
;
_chemical_formula_sum "Si O2"
_cell_formula_units_Z 16
_cell_length_a 10.233198
_cell_length_b 9.021808
_cell_length_c 8.771444
_cell_angle_alpha 68.069514
_cell_angle_beta 120.254397
_cell_angle_gamma 98.797176
_cell_volume 648.254717
_symmetry_space_group_name_H-M "P -1"
_symmetry_group_IT_number 2
_symmetry_cell_setting 'triclinic'
loop_
_space_group_symop_operation_xyz
x,y,z
-x,-y,-z
loop_
_atom_site_type_symbol
_atom_site_label
_atom_site_fract_x
_atom_site_fract_y
_atom_site_fract_z
Si Si1 0.874955 0.322192 0.193830
Si Si2 0.822540 0.526653 0.637632
Si Si3 0.666668 0.643566 0.927784
Si Si4 0.328978 0.890183 0.021372
Si Si5 0.724954 0.780665 0.231213
Si Si6 0.329236 0.018672 0.318123
Si Si7 0.436305 0.555889 0.279595
Si Si8 0.911366 0.218365 0.599264
O O1 0.865039 0.254352 0.384758
O O2 0.043346 0.374935 0.254601
O O3 0.773431 0.485912 0.069047
O O4 0.822394 0.190335 0.096254
O O5 0.733872 0.652307 0.423123
O O6 0.736475 0.461005 0.756889
O O7 0.876956 0.375963 0.623029
O O8 0.712495 0.792464 0.793861
O O9 0.525477 0.572641 0.780334
O O10 0.653457 0.711437 0.062325
O O11 0.443421 0.735098 0.155950
O O12 0.330690 0.953644 0.170196
O O13 0.344302 0.038817 0.858622
O O14 0.905069 0.807397 0.284202
O O15 0.500000 0.000000 0.500000
O O16 0.197142 0.921325 0.357204
O O17 0.500000 0.500000 0.500000
#
# Coordination Sequence:
#
# PCOD9005201 Si02
#       8
#     2   2   2   2   2   2   2   2
#     4  10  21  40  63  96 121 151 201 247 314 356
#     4  11  21  39  66  89 127 160 193 249 306 369
#     4  10  21  38  61  87 121 155 200 255 292 358
#     4  10  23  40  63  91 125 153 204 259 292 356
#     4  10  21  40  63  96 121 151 201 247 314 356
#     4  11  24  41  59  86 121 166 205 243 297 356
#     4  11  24  41  59  86 121 166 205 243 297 356
#     4  11  21  39  66  89 127 160 193 249 306 369
#
# _framework density 24.681656
#
# number of rings (size 3 to 8) (size 9 to 14) (size 15 to 20)
#    0.000    1.500    3.750    1.500    0.000   10.000 
#    0.000    7.500    0.000    0.000    0.000    0.000 
#    0.000    0.000    0.000    0.000    0.000    0.000 
#
# Total GULP energy -89388.605380 kJ/mol
# GULP energy per Si atom -5586.787836 kJ/mol
# Density = 2.462548 g / cm^3
# Si number density = 24.681656 Si / 1000 Ang^3
#
#
#
# Elastic Constant Matrix: (Units=GPa)
#
#
# Indices 1 2 3 4 5 6 
#
# 1 64.1182 26.3860 33.6723 -20.6598 -18.7084 9.9774
# 2 26.3860 176.8539 79.1393 -16.8245 -3.4513 12.3847
# 3 33.6723 79.1393 112.6943 1.5008 -12.1864 17.5253
# 4 -20.6598 -16.8245 1.5008 65.9563 9.1750 -11.1148
# 5 -18.7084 -3.4513 -12.1864 9.1750 28.3202 -14.0058
# 6 9.9774 12.3847 17.5253 -11.1148 -14.0058 26.5432
#
#
#
# Elastic Compliance Matrix: (Units=1/GPa)
#
#
# Indices 1 2 3 4 5 6 
#
# 1 0.024522 -0.000137 -0.006665 0.006785 0.013762 0.005350
# 2 -0.000137 0.008761 -0.006426 0.002699 -0.002708 -0.000092
# 3 -0.006665 -0.006426 0.016652 -0.005405 -0.000141 -0.007829
# 4 0.006785 0.002699 -0.005405 0.019422 0.000130 0.007960
# 5 0.013762 -0.002708 -0.000141 0.000130 0.056977 0.026302
# 6 0.005350 -0.000092 -0.007829 0.007960 0.026302 0.058087
#
#
# Mechanical properties :
#
#
# Convention : Reuss Voigt Hill
#
# Bulk Modulus (GPa) = 42.59076 70.22905 56.40991
# Shear Modulus (GPa) = 22.86222 38.46188 30.66205
#
# Velocity S-wave (km/s) = 3.04679 3.95184 3.52845
# Velocity P-wave (km/s) = 5.44709 7.02413 6.28527
#
# Compressibility (1/GPa) = 0.02347927
#
# Stress axis : x y z
#
# Youngs Moduli (GPa) = 40.77974 114.14815 60.05413
#
# Poissons Ratio (x) = 0.01560 0.40027
# Poissons Ratio (y) = 0.00557 0.38589
# Poissons Ratio (z) = 0.27180 0.73348
#
# Static dielectric constant tensor:
#      x y z
#    x 2.204710 0.255390 0.026040 
#    y 0.255390 2.185550 -0.067510 
#    z 0.026040 -0.067510 2.134760 
# 
# From -- ./inp_files/206782.got.cif
#   From: 2010.05.17/outbox.cif.g08.bks.cpg/sg2_104_cif.got.tgz:206782.got - 2010.06.03 11:33:40.
