data_PCOD9005508
_publ_section_title
;
Structure prediction by ZEFSAII (Michael W. Deem and Ramdas Pophale) SiO2 
 PCOD9005508
Probable space group: P -1
;
_chemical_formula_sum "Si O2"
_cell_formula_units_Z 14
_cell_length_a 8.752956
_cell_length_b 15.570752
_cell_length_c 11.202235
_cell_angle_alpha 155.747291
_cell_angle_beta 84.828393
_cell_angle_gamma 87.758383
_cell_volume 596.492898
_symmetry_space_group_name_H-M "P -1"
_symmetry_group_IT_number 2
_symmetry_cell_setting 'triclinic'
loop_
_space_group_symop_operation_xyz
x,y,z
-x,-y,-z
loop_
_atom_site_type_symbol
_atom_site_label
_atom_site_fract_x
_atom_site_fract_y
_atom_site_fract_z
Si Si1 0.397478 0.267861 0.224696
Si Si2 0.133077 0.420526 0.254809
Si Si3 0.586440 0.380861 0.160662
Si Si4 0.086221 0.880579 0.104974
Si Si5 0.161027 0.170260 0.276501
Si Si6 0.401811 0.256760 0.826672
Si Si7 0.153111 0.304043 0.703269
O O1 0.242642 0.429969 0.372913
O O2 0.522034 0.210950 0.033853
O O3 0.470640 0.390993 0.475457
O O4 0.311754 0.113164 0.103917
O O5 0.995977 0.647633 0.531548
O O6 0.253108 0.348665 0.044600
O O7 0.060266 0.218065 0.018060
O O8 0.773897 0.300196 0.067433
O O9 0.526385 0.374079 0.022506
O O10 0.123078 0.962365 0.074911
O O11 0.084251 0.094313 0.454016
O O12 0.201216 0.291548 0.545229
O O13 0.309593 0.297555 0.760065
O O14 0.500000 0.000000 0.500000
O O15 0.000000 0.500000 0.000000
#
# Coordination Sequence:
#
# PCOD9005508 Si02
#       7
#     2   2   2   2   2   2   2
#     4  10  22  40  63  90 128 169 209 265 309 375
#     4  11  22  40  68  90 124 168 214 258 320 368
#     4  10  21  39  64  92 123 171 214 251 322 376
#     4  10  22  38  64  96 118 168 216 250 326 373
#     4  10  21  38  62  91 126 156 212 265 302 368
#     4  11  20  40  66  91 127 168 209 261 315 385
#     4  10  21  41  62  92 131 158 212 266 308 374
#
# _framework density 23.47052
#
# number of rings (size 3 to 8) (size 9 to 14) (size 15 to 20)
#    0.857    0.857    4.286    0.429    0.000    1.714 
#    2.571    0.714   22.000    0.000    0.000    0.000 
#    0.000    0.000    0.000    0.000    0.000    0.000 
#
# Total GULP energy -78034.983796 kJ/mol
# GULP energy per Si atom -5573.927414 kJ/mol
# Density = 2.341710 g / cm^3
# Si number density = 23.470520 Si / 1000 Ang^3
#
#
#
# Elastic Constant Matrix: (Units=GPa)
#
#
# Indices 1 2 3 4 5 6 
#
# 1 86.5594 29.0213 22.1189 1.3085 19.1426 -23.1609
# 2 29.0213 75.3144 22.4698 -4.4800 15.9854 -29.7526
# 3 22.1189 22.4698 73.1581 -2.3841 9.6803 -18.7744
# 4 1.3085 -4.4800 -2.3841 34.0171 -3.1538 15.4156
# 5 19.1426 15.9854 9.6803 -3.1538 38.3430 -9.1992
# 6 -23.1609 -29.7526 -18.7744 15.4156 -9.1992 50.8504
#
#
#
# Elastic Compliance Matrix: (Units=1/GPa)
#
#
# Indices 1 2 3 4 5 6 
#
# 1 0.015485 -0.002460 -0.002052 -0.003850 -0.005288 0.005067
# 2 -0.002460 0.019324 -0.002345 -0.002079 -0.004202 0.009191
# 3 -0.002052 -0.002345 0.016090 -0.000884 -0.001251 0.003676
# 4 -0.003850 -0.002079 -0.000884 0.035626 0.002676 -0.013613
# 5 -0.005288 -0.004202 -0.001251 0.002676 0.030875 -0.000555
# 6 0.005067 0.009191 0.003676 -0.013613 -0.000555 0.032734
#
#
# Mechanical properties :
#
#
# Convention : Reuss Voigt Hill
#
# Bulk Modulus (GPa) = 26.89165 42.47246 34.68205
# Shear Modulus (GPa) = 28.37004 35.40356 31.88680
#
# Velocity S-wave (km/s) = 3.48048 3.88806 3.68990
# Velocity P-wave (km/s) = 5.25682 6.18800 5.74132
#
# Compressibility (1/GPa) = 0.03718626
#
# Stress axis : x y z
#
# Youngs Moduli (GPa) = 64.57767 51.74917 62.15233
#
# Poissons Ratio (x) = 0.12729 0.12752
# Poissons Ratio (y) = 0.15885 0.14572
# Poissons Ratio (z) = 0.13250 0.12133
#
# Static dielectric constant tensor:
#      x y z
#    x 1.909860 0.019410 0.016180 
#    y 0.019410 1.956720 -0.003300 
#    z 0.016180 -0.003300 1.900740 
# 
# From -- ./inp_files/346899.got.cif
#   From: 2010.05.17/outbox.cif.g08.bks.cpg/sg2_174_cif.got.tgz:346899.got - 2010.06.03 11:33:40.
