data_PCOD9005211
_publ_section_title
;
Structure prediction by ZEFSAII (Michael W. Deem and Ramdas Pophale) SiO2 
 PCOD9005211
Probable space group: P -1
;
_chemical_formula_sum "Si O2"
_cell_formula_units_Z 16
_cell_length_a 12.359643
_cell_length_b 5.414693
_cell_length_c 11.279539
_cell_angle_alpha 104.117247
_cell_angle_beta 80.013152
_cell_angle_gamma 74.272885
_cell_volume 681.070200
_symmetry_space_group_name_H-M "P -1"
_symmetry_group_IT_number 2
_symmetry_cell_setting 'triclinic'
loop_
_space_group_symop_operation_xyz
x,y,z
-x,-y,-z
loop_
_atom_site_type_symbol
_atom_site_label
_atom_site_fract_x
_atom_site_fract_y
_atom_site_fract_z
Si Si1 0.109371 0.246264 0.789694
Si Si2 0.478637 0.387022 0.644118
Si Si3 0.040999 0.232353 0.069354
Si Si4 0.360779 0.091066 0.037929
Si Si5 0.194071 0.220701 0.266311
Si Si6 0.641257 0.060081 0.405091
Si Si7 0.395666 0.518135 0.934125
Si Si8 0.078350 0.841082 0.359954
O O1 0.070239 0.567371 0.812474
O O2 0.004831 0.165159 0.737822
O O3 0.229772 0.064942 0.688586
O O4 0.096274 0.282425 0.938837
O O5 0.608750 0.229134 0.554137
O O6 0.432421 0.694464 0.639510
O O7 0.456143 0.395544 0.787692
O O8 0.402607 0.197124 0.596321
O O9 0.137141 0.195454 0.146611
O O10 0.000000 0.000000 0.000000
O O11 0.324899 0.153730 0.189119
O O12 0.322358 0.352095 0.991028
O O13 0.500000 0.000000 0.000000
O O14 0.329629 0.833731 0.966822
O O15 0.141339 0.531285 0.349487
O O16 0.164428 0.004723 0.327901
O O17 0.500000 0.500000 0.000000
O O18 0.000000 0.000000 0.500000
#
# Coordination Sequence:
#
# PCOD9005211 Si02
#       8
#     2   2   2   2   2   2   2   2
#     4  10  23  40  61  96 122 163 210 260 319 372
#     4  10  22  41  61  92 125 166 209 253 309 380
#     4  10  21  38  64  92 129 155 208 267 313 374
#     4  10  22  40  60  93 127 161 206 256 309 378
#     4  11  23  41  66  95 125 165 208 261 324 366
#     4  10  23  40  63  88 126 165 210 256 308 373
#     4  10  21  38  61  87 128 159 207 256 304 366
#     4  11  24  45  66  89 129 166 213 255 311 384
#
# _framework density 23.492438
#
# number of rings (size 3 to 8) (size 9 to 14) (size 15 to 20)
#    0.000    1.750    1.250    1.875    5.250    0.000 
#    9.000    0.000    0.000    0.000    0.000    0.000 
#    0.000    0.000    0.000    0.000    0.000    0.000 
#
# Total GULP energy -89132.783405 kJ/mol
# GULP energy per Si atom -5570.798963 kJ/mol
# Density = 2.343897 g / cm^3
# Si number density = 23.492438 Si / 1000 Ang^3
#
#
#
# Elastic Constant Matrix: (Units=GPa)
#
#
# Indices 1 2 3 4 5 6 
#
# 1 45.3668 35.6602 25.5730 15.9700 -26.6813 5.6921
# 2 35.6602 123.5695 39.2086 23.0581 -7.6214 37.9610
# 3 25.5730 39.2086 112.6497 27.1160 -31.8859 12.7240
# 4 15.9700 23.0581 27.1160 45.8936 -9.3948 -10.5051
# 5 -26.6813 -7.6214 -31.8859 -9.3948 39.1717 -0.1985
# 6 5.6921 37.9610 12.7240 -10.5051 -0.1985 27.9159
#
#
#
# Elastic Compliance Matrix: (Units=1/GPa)
#
#
# Indices 1 2 3 4 5 6 
#
# 1 0.054324 -0.017006 0.003251 -0.002722 0.035736 0.009797
# 2 -0.017006 0.031528 0.001270 -0.024049 -0.010432 -0.049108
# 3 0.003251 0.001270 0.015489 -0.011556 0.012228 -0.013711
# 4 -0.002722 -0.024049 -0.011556 0.054651 -0.002533 0.059074
# 5 0.035736 -0.010432 0.012228 -0.002533 0.057190 0.000779
# 6 0.009797 -0.049108 -0.013711 0.059074 0.000779 0.129089
#
#
# Mechanical properties :
#
#
# Convention : Reuss Voigt Hill
#
# Bulk Modulus (GPa) = 13.09421 53.60773 33.35097
# Shear Modulus (GPa) = 12.73247 34.67251 23.70249
#
# Velocity S-wave (km/s) = 2.33058 3.84591 3.17983
# Velocity P-wave (km/s) = 3.58162 6.52611 5.26394
#
# Compressibility (1/GPa) = 0.07636961
#
# Stress axis : x y z
#
# Youngs Moduli (GPa) = 18.40816 31.71813 64.56347
#
# Poissons Ratio (x) = 0.53940 -0.20988
# Poissons Ratio (y) = 0.31305 -0.08200
# Poissons Ratio (z) = -0.05984 -0.04028
#
# Static dielectric constant tensor:
#      x y z
#    x 2.018360 -0.017970 -0.086320 
#    y -0.017970 1.809820 0.077660 
#    z -0.086320 0.077660 1.913800 
# 
# From -- ./inp_files/441310.got.cif
#   From: 2010.05.17/outbox.cif.g08.bks.cpg/sg2_221_cif.got.tgz:441310.got - 2010.06.03 11:33:40.
