data_PCOD9005490
_publ_section_title
;
Structure prediction by ZEFSAII (Michael W. Deem and Ramdas Pophale) SiO2 
 PCOD9005490
Probable space group: P -1
;
_chemical_formula_sum "Si O2"
_cell_formula_units_Z 16
_cell_length_a 7.595718
_cell_length_b 19.288054
_cell_length_c 5.716912
_cell_angle_alpha 103.532352
_cell_angle_beta 120.445936
_cell_angle_gamma 73.460174
_cell_volume 688.100924
_symmetry_space_group_name_H-M "P -1"
_symmetry_group_IT_number 2
_symmetry_cell_setting 'triclinic'
loop_
_space_group_symop_operation_xyz
x,y,z
-x,-y,-z
loop_
_atom_site_type_symbol
_atom_site_label
_atom_site_fract_x
_atom_site_fract_y
_atom_site_fract_z
Si Si1 0.824975 0.309550 0.978993
Si Si2 0.015428 0.184719 0.337218
Si Si3 0.423744 0.150224 0.365284
Si Si4 0.824112 0.698008 0.160620
Si Si5 0.434264 0.315899 0.401386
Si Si6 0.302304 0.962805 0.303112
Si Si7 0.037707 0.414080 0.454011
Si Si8 0.209542 0.934992 0.712778
O O1 0.644041 0.323187 0.677453
O O2 0.036161 0.290308 0.955716
O O3 0.848378 0.242427 0.123475
O O4 0.848601 0.382403 0.188478
O O5 0.912400 0.131423 0.385818
O O6 0.192026 0.138152 0.252349
O O7 0.151048 0.234354 0.608526
O O8 0.415289 0.234296 0.389412
O O9 0.586168 0.122078 0.661668
O O10 0.544383 0.103788 0.196172
O O11 0.927019 0.624157 0.301015
O O12 0.602208 0.686327 0.904621
O O13 0.249309 0.377644 0.429206
O O14 0.169522 0.976258 0.465928
O O15 0.500000 0.000000 0.500000
O O16 0.206440 0.974031 0.991993
O O17 0.000000 0.500000 0.500000
#
# Coordination Sequence:
#
# PCOD9005490 Si02
#       8
#     2   2   2   2   2   2   2   2
#     4  10  22  38  60  91 129 165 224 278 337 407
#     4  11  21  41  62 102 134 168 227 285 342 404
#     4  10  22  37  66  96 129 177 220 287 342 401
#     4  10  21  38  62  90 131 163 215 281 337 399
#     4  11  21  38  61  94 121 164 222 274 339 390
#     4  10  23  44  64  95 142 184 226 278 346 414
#     4  10  23  42  59  86 132 174 214 269 338 411
#     4  10  24  38  68  95 132 181 229 277 344 409
#
# _framework density 23.252400999999999
#
# number of rings (size 3 to 8) (size 9 to 14) (size 15 to 20)
#    0.750    1.000    3.750    1.875    3.500    5.500 
#    0.000    2.500    0.000    0.000    0.000    0.000 
#    0.000    0.000    0.000    0.000    0.000    0.000 
#
# Total GULP energy -89232.594068 kJ/mol
# GULP energy per Si atom -5577.037129 kJ/mol
# Density = 2.319948 g / cm^3
# Si number density = 23.252401 Si / 1000 Ang^3
#
#
#
# Elastic Constant Matrix: (Units=GPa)
#
#
# Indices 1 2 3 4 5 6 
#
# 1 79.1607 13.1616 33.0453 -7.3175 -6.9042 5.4885
# 2 13.1616 96.8005 64.2065 4.3510 -6.8413 8.7618
# 3 33.0453 64.2065 202.9173 -17.3672 13.0909 9.4426
# 4 -7.3175 4.3510 -17.3672 17.2567 -2.8100 -2.9411
# 5 -6.9042 -6.8413 13.0909 -2.8100 35.1178 -5.8157
# 6 5.4885 8.7618 9.4426 -2.9411 -5.8157 35.1457
#
#
#
# Elastic Compliance Matrix: (Units=1/GPa)
#
#
# Indices 1 2 3 4 5 6 
#
# 1 0.014351 -0.000539 -0.001975 0.004747 0.003740 -0.000560
# 2 -0.000539 0.015027 -0.005611 -0.009445 0.003773 -0.002321
# 3 -0.001975 -0.005611 0.007971 0.007895 -0.003890 -0.000418
# 4 0.004747 -0.009445 0.007895 0.071776 0.002883 0.005976
# 5 0.003740 0.003773 -0.003890 0.002883 0.032477 0.005136
# 6 -0.000560 -0.002321 -0.000418 0.005976 0.005136 0.030581
#
#
# Mechanical properties :
#
#
# Convention : Reuss Voigt Hill
#
# Bulk Modulus (GPa) = 47.39855 66.63393 57.01624
# Shear Modulus (GPa) = 25.57992 35.40170 30.49081
#
# Velocity S-wave (km/s) = 3.32037 3.90615 3.62511
# Velocity P-wave (km/s) = 5.92692 7.00450 6.48812
#
# Compressibility (1/GPa) = 0.02109769
#
# Stress axis : x y z
#
# Youngs Moduli (GPa) = 69.68371 66.54904 125.45220
#
# Poissons Ratio (x) = 0.03590 0.24780
# Poissons Ratio (y) = 0.03759 0.70386
# Poissons Ratio (z) = 0.13764 0.37338
#
# Static dielectric constant tensor:
#      x y z
#    x 1.961940 -0.009150 -0.025200 
#    y -0.009150 1.867060 -0.045040 
#    z -0.025200 -0.045040 2.012940 
# 
# From -- ./inp_files/51894.got.cif
#   From: 2010.05.17/outbox.cif.g08.bks.cpg/sg2_26_cif.got.tgz:51894.got - 2010.06.03 11:33:40.
