data_PCOD9005168
_publ_section_title
;
Structure prediction by ZEFSAII (Michael W. Deem and Ramdas Pophale) SiO2 
 PCOD9005168
Probable space group: P -1
;
_chemical_formula_sum "Si O2"
_cell_formula_units_Z 12
_cell_length_a 8.880819
_cell_length_b 9.519305
_cell_length_c 11.946014
_cell_angle_alpha 138.226168
_cell_angle_beta 59.108106
_cell_angle_gamma 114.665050
_cell_volume 576.300797
_symmetry_space_group_name_H-M "P -1"
_symmetry_group_IT_number 2
_symmetry_cell_setting 'triclinic'
loop_
_space_group_symop_operation_xyz
x,y,z
-x,-y,-z
loop_
_atom_site_type_symbol
_atom_site_label
_atom_site_fract_x
_atom_site_fract_y
_atom_site_fract_z
Si Si1 0.242863 0.158295 0.651896
Si Si2 0.409894 0.986206 0.682846
Si Si3 0.081134 0.679051 0.657920
Si Si4 0.792413 0.405024 0.197125
Si Si5 0.474523 0.122081 0.196318
Si Si6 0.897277 0.994341 0.783032
O O1 0.319985 0.167470 0.755309
O O2 0.202712 0.374701 0.737062
O O3 0.062099 0.018540 0.651460
O O4 0.400538 0.055135 0.465255
O O5 0.273129 0.779285 0.604920
O O6 0.444224 0.012808 0.816331
O O7 0.097785 0.606923 0.736814
O O8 0.000000 0.500000 0.500000
O O9 0.954392 0.869560 0.797481
O O10 0.590869 0.339328 0.271082
O O11 0.849937 0.224265 0.981838
O O12 0.266092 0.129354 0.289123
O O13 0.500000 0.000000 0.000000
#
# Coordination Sequence:
#
# PCOD9005168 Si02
#       6
#     2   2   2   2   2   2
#     4  10  21  38  61  83 120 157 189 235 300 342
#     4   9  21  40  58  85 124 152 187 245 294 340
#     4  10  22  37  61  88 113 153 201 242 283 343
#     4  10  21  39  62  84 117 155 195 242 285 344
#     4   9  20  38  61  86 115 155 192 238 287 341
#     4  10  21  39  58  88 119 151 194 235 296 343
#
# _framework density 20.822461000000001
#
# number of rings (size 3 to 8) (size 9 to 14) (size 15 to 20)
#    0.000    2.333    0.000    1.000    4.667    3.333 
#    6.000    3.333    0.000    0.000    0.000    0.000 
#    0.000    0.000    0.000    0.000    0.000    0.000 
#
# Total GULP energy -66926.209873 kJ/mol
# GULP energy per Si atom -5577.184156 kJ/mol
# Density = 2.077507 g / cm^3
# Si number density = 20.822461 Si / 1000 Ang^3
#
#
#
# Elastic Constant Matrix: (Units=GPa)
#
#
# Indices 1 2 3 4 5 6 
#
# 1 128.5392 69.6156 9.7820 2.5883 11.0195 -4.8882
# 2 69.6156 107.9895 7.3095 -1.0552 4.4953 -32.3485
# 3 9.7820 7.3095 26.4365 0.9992 5.0924 -3.2852
# 4 2.5883 -1.0552 0.9992 20.8381 -6.8101 -8.2839
# 5 11.0195 4.4953 5.0924 -6.8101 34.6801 -5.9682
# 6 -4.8882 -32.3485 -3.2852 -8.2839 -5.9682 45.4339
#
#
#
# Elastic Compliance Matrix: (Units=1/GPa)
#
#
# Indices 1 2 3 4 5 6 
#
# 1 0.014754 -0.012020 -0.001829 -0.008056 -0.006056 -0.009367
# 2 -0.012020 0.022133 -0.001190 0.011657 0.006399 0.017345
# 3 -0.001829 -0.001190 0.040130 -0.003449 -0.005753 0.000473
# 4 -0.008056 0.011657 -0.003449 0.063970 0.017762 0.021181
# 5 -0.006056 0.006399 -0.005753 0.017762 0.036239 0.011488
# 6 -0.009367 0.017345 0.000473 0.021181 0.011488 0.038757
#
#
# Mechanical properties :
#
#
# Convention : Reuss Voigt Hill
#
# Bulk Modulus (GPa) = 21.30432 48.48659 34.89546
# Shear Modulus (GPa) = 19.10538 31.94097 25.52317
#
# Velocity S-wave (km/s) = 3.03237 3.92084 3.50487
# Velocity P-wave (km/s) = 4.74489 6.62069 5.75967
#
# Compressibility (1/GPa) = 0.04693884
#
# Stress axis : x y z
#
# Youngs Moduli (GPa) = 67.77818 45.18185 24.91930
#
# Poissons Ratio (x) = 0.54309 0.04557
# Poissons Ratio (y) = 0.81470 0.02965
# Poissons Ratio (z) = 0.12396 0.05376
#
# Static dielectric constant tensor:
#      x y z
#    x 1.806060 0.017950 -0.034850 
#    y 0.017950 1.772810 -0.027120 
#    z -0.034850 -0.027120 1.760380 
# 
# From -- ./inp_files/144816.got.cif
#   From: 2010.05.17/outbox.cif.g08.bks.cpg/sg2_73_cif.got.tgz:144816.got - 2010.06.03 11:33:40.
