data_PCOD9005926
_publ_section_title
;
Structure prediction by ZEFSAII (Michael W. Deem and Ramdas Pophale) SiO2 
 PCOD9005926
Probable space group: P -1
;
_chemical_formula_sum "Si O2"
_cell_formula_units_Z 14
_cell_length_a 9.912757
_cell_length_b 12.853197
_cell_length_c 7.301601
_cell_angle_alpha 49.829599
_cell_angle_beta 119.728022
_cell_angle_gamma 133.739858
_cell_volume 511.492416
_symmetry_space_group_name_H-M "P -1"
_symmetry_group_IT_number 2
_symmetry_cell_setting 'triclinic'
loop_
_space_group_symop_operation_xyz
x,y,z
-x,-y,-z
loop_
_atom_site_type_symbol
_atom_site_label
_atom_site_fract_x
_atom_site_fract_y
_atom_site_fract_z
Si Si1 0.235561 0.114740 0.408030
Si Si2 0.641347 0.882804 0.097685
Si Si3 0.056212 0.261123 0.302166
Si Si4 0.781262 0.675722 0.292141
Si Si5 0.364751 0.606563 0.729203
Si Si6 0.250470 0.688110 0.884096
Si Si7 0.806052 0.219504 0.639960
O O1 0.305495 0.114961 0.660148
O O2 0.428775 0.226987 0.302928
O O3 0.133279 0.210931 0.242547
O O4 0.080239 0.923653 0.484286
O O5 0.747027 0.819563 0.120771
O O6 0.422028 0.764758 0.047855
O O7 0.700589 0.059820 0.871218
O O8 0.926602 0.330103 0.116035
O O9 0.212040 0.367495 0.441342
O O10 0.628990 0.527329 0.231217
O O11 0.980599 0.723360 0.294946
O O12 0.263478 0.558025 0.914281
O O13 0.235176 0.647000 0.476354
O O14 0.275814 0.805193 0.594579
#
# Coordination Sequence:
#
# PCOD9005926 Si02
#       7
#     2   2   2   2   2   2   2
#     4  10  22  38  62  90 122 157 201 248 297 360
#     4  11  21  36  62  93 121 153 205 250 294 350
#     4   9  20  38  60  83 119 162 197 236 298 358
#     4  10  21  38  64  88 121 157 203 248 294 354
#     4  10  22  38  65  89 120 159 200 242 307 358
#     4   9  21  36  63  85 120 157 199 244 298 352
#     4   9  20  36  60  88 118 157 197 246 291 357
#
# _framework density 27.370887
#
# number of rings (size 3 to 8) (size 9 to 14) (size 15 to 20)
#    0.857    1.429    0.000    2.143    4.000    5.143 
#    2.571    0.000    3.143    5.143    0.000    0.000 
#    0.000    0.000    0.000    0.000    0.000    0.000 
#
# Total GULP energy -78334.340204 kJ/mol
# GULP energy per Si atom -5595.310015 kJ/mol
# Density = 2.730859 g / cm^3
# Si number density = 27.370887 Si / 1000 Ang^3
#
#
#
# Elastic Constant Matrix: (Units=GPa)
#
#
# Indices 1 2 3 4 5 6 
#
# 1 148.4688 32.8370 9.5965 -8.8723 16.2397 3.5379
# 2 32.8370 69.2685 41.1129 6.2810 2.3525 -3.3990
# 3 9.5965 41.1129 106.4135 15.4239 8.1884 -7.7564
# 4 -8.8723 6.2810 15.4239 45.2972 -2.6444 6.9626
# 5 16.2397 2.3525 8.1884 -2.6444 36.0373 -4.9382
# 6 3.5379 -3.3990 -7.7564 6.9626 -4.9382 40.6632
#
#
#
# Elastic Compliance Matrix: (Units=1/GPa)
#
#
# Indices 1 2 3 4 5 6 
#
# 1 0.008259 -0.004588 0.000899 0.001996 -0.003716 -0.001724
# 2 -0.004588 0.021290 -0.007733 -0.001259 0.002510 0.001224
# 3 0.000899 -0.007733 0.013221 -0.003743 -0.002893 0.002087
# 4 0.001996 -0.001259 -0.003743 0.024767 0.001153 -0.005094
# 5 -0.003716 0.002510 -0.002893 0.001153 0.030479 0.003485
# 6 -0.001724 0.001224 0.002087 -0.005094 0.003485 0.026538
#
#
# Mechanical properties :
#
#
# Convention : Reuss Voigt Hill
#
# Bulk Modulus (GPa) = 50.18616 54.58262 52.38439
# Shear Modulus (GPa) = 32.45878 40.43982 36.44930
#
# Velocity S-wave (km/s) = 3.44741 3.84796 3.65318
# Velocity P-wave (km/s) = 5.84992 6.30298 6.08067
#
# Compressibility (1/GPa) = 0.01992581
#
# Stress axis : x y z
#
# Youngs Moduli (GPa) = 121.08189 46.96943 75.63567
#
# Poissons Ratio (x) = 0.21549 -0.06798
# Poissons Ratio (y) = 0.55552 0.58491
# Poissons Ratio (z) = -0.10883 0.36323
#
# Static dielectric constant tensor:
#      x y z
#    x 2.148590 -0.031780 0.012420 
#    y -0.031780 2.143190 -0.069010 
#    z 0.012420 -0.069010 2.105650 
# 
# From -- ./inp_files/271930.got.cif
#   From: 2010.05.17/outbox.cif.g08.bks.cpg/sg2_136_cif.got.tgz:271930.got - 2010.06.03 11:33:40.
