data_PCOD9005125
_publ_section_title
;
Structure prediction by ZEFSAII (Michael W. Deem and Ramdas Pophale) SiO2 
 PCOD9005125
Probable space group: P -1
;
_chemical_formula_sum "Si O2"
_cell_formula_units_Z 15
_cell_length_a 8.779375
_cell_length_b 19.894102
_cell_length_c 11.448178
_cell_angle_alpha 29.228682
_cell_angle_beta 65.767576
_cell_angle_gamma 47.594393
_cell_volume 626.867715
_symmetry_space_group_name_H-M "P -1"
_symmetry_group_IT_number 2
_symmetry_cell_setting 'triclinic'
loop_
_space_group_symop_operation_xyz
x,y,z
-x,-y,-z
loop_
_atom_site_type_symbol
_atom_site_label
_atom_site_fract_x
_atom_site_fract_y
_atom_site_fract_z
Si Si1 0.550565 0.693123 0.761474
Si Si2 0.072479 0.166881 0.729421
Si Si3 0.655841 0.929434 0.674742
Si Si4 0.759876 0.567599 0.516087
Si Si5 0.500000 0.000000 0.000000
Si Si6 0.719793 0.592412 0.121923
Si Si7 0.638540 0.236852 0.848058
Si Si8 0.828995 0.324967 0.067375
O O1 0.712111 0.515212 0.892155
O O2 0.471410 0.897767 0.452623
O O3 0.683596 0.627911 0.942171
O O4 0.326333 0.721930 0.804531
O O5 0.958193 0.370261 0.405102
O O6 0.845056 0.214853 0.771939
O O7 0.246142 0.090790 0.896587
O O8 0.230153 0.988580 0.857544
O O9 0.500000 0.000000 0.500000
O O10 0.724112 0.733151 0.978568
O O11 0.909316 0.853113 0.693924
O O12 0.608420 0.775666 0.311683
O O13 0.584084 0.627518 0.375617
O O14 0.827760 0.395088 0.833702
O O15 0.000000 0.500000 0.500000
O O16 0.480312 0.664632 0.139604
#
# Coordination Sequence:
#
# PCOD9005125 Si02
#       8
#     2   2   2   2   1   2   2   2
#     4  10  25  43  65  94 123 168 216 262 316 372
#     4  10  21  38  60  92 129 169 211 258 317 381
#     4  10  23  41  63  92 124 163 211 262 314 372
#     4  11  23  40  63  94 126 164 208 258 318 375
#     4  10  22  38  60  92 126 160 206 258 312 374
#     4  11  22  40  66  92 126 167 209 261 318 380
#     4  10  22  39  61  92 129 166 210 260 317 381
#     4  11  23  44  67  90 127 167 212 263 315 378
#
# _framework density 23.928491999999999
#
# number of rings (size 3 to 8) (size 9 to 14) (size 15 to 20)
#    0.000    1.600    0.000    4.000    0.000    9.600 
#    0.000    8.000    0.000    0.000    0.000    0.000 
#    0.000    0.000    0.000    0.000    0.000    0.000 
#
# Total GULP energy -83618.869513 kJ/mol
# GULP energy per Si atom -5574.591301 kJ/mol
# Density = 2.387403 g / cm^3
# Si number density = 23.928492 Si / 1000 Ang^3
#
#
#
# Elastic Constant Matrix: (Units=GPa)
#
#
# Indices 1 2 3 4 5 6 
#
# 1 113.8141 22.7846 44.5094 -16.0721 16.9092 -8.1209
# 2 22.7846 53.0441 23.1740 -13.1138 5.4469 -1.5355
# 3 44.5094 23.1740 104.9864 -38.0221 -0.1387 7.6791
# 4 -16.0721 -13.1138 -38.0221 35.8638 5.7565 -1.6688
# 5 16.9092 5.4469 -0.1387 5.7565 50.8932 -21.6099
# 6 -8.1209 -1.5355 7.6791 -1.6688 -21.6099 29.1793
#
#
#
# Elastic Compliance Matrix: (Units=1/GPa)
#
#
# Indices 1 2 3 4 5 6 
#
# 1 0.011647 -0.002700 -0.004540 -0.000057 -0.002574 0.002385
# 2 -0.002700 0.022359 -0.001795 0.005413 -0.002335 -0.000522
# 3 -0.004540 -0.001795 0.018703 0.017343 -0.003582 -0.007941
# 4 -0.000057 0.005413 0.017343 0.049392 -0.009809 -0.008735
# 5 -0.002574 -0.002335 -0.003582 -0.009809 0.031595 0.022941
# 6 0.002385 -0.000522 -0.007941 -0.008735 0.022941 0.053488
#
#
# Mechanical properties :
#
#
# Convention : Reuss Voigt Hill
#
# Bulk Modulus (GPa) = 28.86994 50.30897 39.58945
# Shear Modulus (GPa) = 23.06263 35.27903 29.17083
#
# Velocity S-wave (km/s) = 3.10790 3.84390 3.49533
# Velocity P-wave (km/s) = 4.99700 6.38522 5.73328
#
# Compressibility (1/GPa) = 0.03463811
#
# Stress axis : x y z
#
# Youngs Moduli (GPa) = 85.86012 44.72441 53.46638
#
# Poissons Ratio (x) = 0.12076 0.24275
# Poissons Ratio (y) = 0.23183 0.09599
# Poissons Ratio (z) = 0.38983 0.08029
#
# Static dielectric constant tensor:
#      x y z
#    x 1.921250 -0.015770 -0.077690 
#    y -0.015770 1.940310 0.014910 
#    z -0.077690 0.014910 1.956730 
# 
# From -- ./inp_files/404512.got.cif
#   From: 2010.05.17/outbox.cif.g08.bks.cpg/sg2_203_cif.got.tgz:404512.got - 2010.06.03 11:33:40.
