data_PCOD9005175
_publ_section_title
;
Structure prediction by ZEFSAII (Michael W. Deem and Ramdas Pophale) SiO2 
 PCOD9005175
Probable space group: P -1
;
_chemical_formula_sum "Si O2"
_cell_formula_units_Z 16
_cell_length_a 11.072664
_cell_length_b 14.924311
_cell_length_c 9.052912
_cell_angle_alpha 83.195475
_cell_angle_beta 60.224203
_cell_angle_gamma 44.189023
_cell_volume 832.367492
_symmetry_space_group_name_H-M "P -1"
_symmetry_group_IT_number 2
_symmetry_cell_setting 'triclinic'
loop_
_space_group_symop_operation_xyz
x,y,z
-x,-y,-z
loop_
_atom_site_type_symbol
_atom_site_label
_atom_site_fract_x
_atom_site_fract_y
_atom_site_fract_z
Si Si1 0.474014 0.412646 0.097299
Si Si2 0.741809 0.884253 0.931152
Si Si3 0.222672 0.999218 0.371227
Si Si4 0.626459 0.892404 0.307375
Si Si5 0.762563 0.208450 0.718806
Si Si6 0.032706 0.389019 0.662070
Si Si7 0.396176 0.536428 0.400201
Si Si8 0.025739 0.373749 0.334779
O O1 0.523823 0.405290 0.239976
O O2 0.223441 0.508415 0.208055
O O3 0.500000 0.500000 0.000000
O O4 0.640591 0.267657 0.937938
O O5 0.833648 0.740821 0.856133
O O6 0.836561 0.914429 0.758788
O O7 0.731803 0.901022 0.110349
O O8 0.500000 0.000000 0.000000
O O9 0.438928 0.928781 0.330182
O O10 0.254673 0.879681 0.330285
O O11 0.015733 0.108556 0.583720
O O12 0.822486 0.738588 0.288408
O O13 0.500000 0.000000 0.500000
O O14 0.644931 0.346347 0.672639
O O15 0.043363 0.489376 0.674984
O O16 0.121407 0.327909 0.452844
O O17 0.500000 0.500000 0.500000
O O18 0.173137 0.595234 0.542636
#
# Coordination Sequence:
#
# PCOD9005175 Si02
#       8
#     2   2   2   2   2   2   2   2
#     4   9  21  38  63  87 120 166 198 253 314 370
#     4  10  21  38  61  84 121 162 201 247 312 364
#     4  10  22  42  63  89 121 171 210 252 310 369
#     4  11  25  40  64  91 127 159 208 262 311 378
#     4  10  21  41  65  85 125 167 212 248 308 376
#     4  10  22  39  63  96 122 159 209 259 319 366
#     4  10  21  38  62  92 124 159 203 261 314 366
#     4  10  21  40  63  90 127 160 201 263 314 373
#
# _framework density 19.222276999999998
#
# number of rings (size 3 to 8) (size 9 to 14) (size 15 to 20)
#    0.000    2.000    1.250    1.500    8.750    2.500 
#    2.250    0.000    0.000    3.000    0.000    0.000 
#    0.000    0.000    0.000    0.000    0.000    0.000 
#
# Total GULP energy -89122.059248 kJ/mol
# GULP energy per Si atom -5570.128703 kJ/mol
# Density = 1.917853 g / cm^3
# Si number density = 19.222277 Si / 1000 Ang^3
#
#
#
# Elastic Constant Matrix: (Units=GPa)
#
#
# Indices 1 2 3 4 5 6 
#
# 1 71.0039 40.4493 33.1555 -5.7415 14.9538 7.8114
# 2 40.4493 82.5921 43.9275 -7.7129 16.6637 1.2843
# 3 33.1555 43.9275 126.8306 13.3055 24.2408 -4.7748
# 4 -5.7415 -7.7129 13.3055 27.2601 4.7767 3.3418
# 5 14.9538 16.6637 24.2408 4.7767 24.5670 -4.8711
# 6 7.8114 1.2843 -4.7748 3.3418 -4.8711 23.6065
#
#
#
# Elastic Compliance Matrix: (Units=1/GPa)
#
#
# Indices 1 2 3 4 5 6 
#
# 1 0.023443 -0.006930 -0.002973 0.007610 -0.010334 -0.011191
# 2 -0.006930 0.020234 -0.004840 0.008099 -0.006767 -0.002329
# 3 -0.002973 -0.004840 0.012173 -0.007584 -0.004688 0.003815
# 4 0.007610 0.008099 -0.007584 0.048679 -0.014978 -0.014474
# 5 -0.010334 -0.006767 -0.004688 -0.014978 0.062671 0.017892
# 6 -0.011191 -0.002329 0.003815 -0.014474 0.017892 0.052704
#
#
# Mechanical properties :
#
#
# Convention : Reuss Voigt Hill
#
# Bulk Modulus (GPa) = 37.93095 57.27680 47.60388
# Shear Modulus (GPa) = 19.36650 25.94635 22.65642
#
# Velocity S-wave (km/s) = 3.17756 3.67796 3.43688
# Velocity P-wave (km/s) = 5.76526 6.92086 6.36932
#
# Compressibility (1/GPa) = 0.02636369
#
# Stress axis : x y z
#
# Youngs Moduli (GPa) = 42.65689 49.42172 82.14712
#
# Poissons Ratio (x) = 0.34251 0.24419
# Poissons Ratio (y) = 0.29563 0.39762
# Poissons Ratio (z) = 0.12680 0.23922
#
# Static dielectric constant tensor:
#      x y z
#    x 1.648440 0.059140 0.017760 
#    y 0.059140 1.594840 0.062550 
#    z 0.017760 0.062550 1.810030 
# 
# From -- ./inp_files/208976.got.cif
#   From: 2010.05.17/outbox.cif.g08.bks.cpg/sg2_105_cif.got.tgz:208976.got - 2010.06.03 11:33:40.
