data_PCOD9005478
_publ_section_title
;
Structure prediction by ZEFSAII (Michael W. Deem and Ramdas Pophale) SiO2 
 PCOD9005478
Probable space group: P -1
;
_chemical_formula_sum "Si O2"
_cell_formula_units_Z 12
_cell_length_a 14.550870
_cell_length_b 9.900117
_cell_length_c 8.733720
_cell_angle_alpha 99.889888
_cell_angle_beta 145.710824
_cell_angle_gamma 95.755258
_cell_volume 628.275803
_symmetry_space_group_name_H-M "P -1"
_symmetry_group_IT_number 2
_symmetry_cell_setting 'triclinic'
loop_
_space_group_symop_operation_xyz
x,y,z
-x,-y,-z
loop_
_atom_site_type_symbol
_atom_site_label
_atom_site_fract_x
_atom_site_fract_y
_atom_site_fract_z
Si Si1 0.314877 0.394600 0.817857
Si Si2 0.472474 0.879111 0.569615
Si Si3 0.211838 0.067024 0.761619
Si Si4 0.816714 0.074775 0.615394
Si Si5 0.175210 0.234680 0.306665
Si Si6 0.551258 0.406917 0.679931
O O1 0.298097 0.237303 0.840431
O O2 0.170670 0.332076 0.468341
O O3 0.500000 0.500000 0.000000
O O4 0.309915 0.492036 0.977274
O O5 0.338013 0.893764 0.511706
O O6 0.396567 0.712697 0.357719
O O7 0.500000 0.000000 0.500000
O O8 0.665888 0.920445 0.921713
O O9 0.219337 0.953648 0.619287
O O10 0.000000 0.000000 0.500000
O O11 0.824317 0.921342 0.660531
O O12 0.011663 0.202718 0.959913
O O13 0.363534 0.315604 0.493689
O O14 0.500000 0.500000 0.500000
#
# Coordination Sequence:
#
# PCOD9005478 Si02
#       6
#     2   2   2   2   2   2
#     4   9  20  37  64  87 121 167 213 248 309 386
#     4  12  24  39  63  98 129 160 211 270 313 368
#     4  11  23  40  68  95 123 168 218 258 314 385
#     4  10  21  38  62  90 126 157 209 262 308 365
#     4   9  19  38  62  89 118 166 207 250 313 376
#     4  11  20  38  62  88 124 167 211 248 316 384
#
# _framework density 19.099893000000002
#
# number of rings (size 3 to 8) (size 9 to 14) (size 15 to 20)
#    0.000    1.667    3.333    1.500    4.667    0.000 
#    0.000    1.667    0.000    0.000    0.000    0.000 
#    0.000    0.000    0.000    0.000    0.000    0.000 
#
# Total GULP energy -66882.791533 kJ/mol
# GULP energy per Si atom -5573.565961 kJ/mol
# Density = 1.905642 g / cm^3
# Si number density = 19.099893 Si / 1000 Ang^3
#
#
#
# Elastic Constant Matrix: (Units=GPa)
#
#
# Indices 1 2 3 4 5 6 
#
# 1 103.9989 32.2043 28.1393 13.6230 -21.1847 -29.8021
# 2 32.2043 69.2666 27.6698 11.6933 -15.3429 -8.9988
# 3 28.1393 27.6698 92.4828 19.5580 -20.7535 -16.9681
# 4 13.6230 11.6933 19.5580 22.2326 -7.2421 -10.6585
# 5 -21.1847 -15.3429 -20.7535 -7.2421 40.9684 7.9401
# 6 -29.8021 -8.9988 -16.9681 -10.6585 7.9401 43.1246
#
#
#
# Elastic Compliance Matrix: (Units=1/GPa)
#
#
# Indices 1 2 3 4 5 6 
#
# 1 0.014249 -0.004398 -0.000538 -0.000988 0.003766 0.007780
# 2 -0.004398 0.018841 -0.003068 -0.004538 0.002804 -0.001953
# 3 -0.000538 -0.003068 0.015115 -0.009048 0.004259 0.001915
# 4 -0.000988 -0.004538 -0.009048 0.061213 0.002178 0.009538
# 5 0.003766 0.002804 0.004259 0.002178 0.029972 -0.000117
# 6 0.007780 -0.001953 0.001915 0.009538 -0.000117 0.031290
#
#
# Mechanical properties :
#
#
# Convention : Reuss Voigt Hill
#
# Bulk Modulus (GPa) = 31.05986 49.08612 40.07299
# Shear Modulus (GPa) = 25.32670 33.11414 29.22042
#
# Velocity S-wave (km/s) = 3.64540 4.16833 3.91560
# Velocity P-wave (km/s) = 5.83229 6.99443 6.43963
#
# Compressibility (1/GPa) = 0.03219590
#
# Stress axis : x y z
#
# Youngs Moduli (GPa) = 70.18035 53.07598 66.15965
#
# Poissons Ratio (x) = 0.23344 0.03561
# Poissons Ratio (y) = 0.30866 0.20299
# Poissons Ratio (z) = 0.03777 0.16285
#
# Static dielectric constant tensor:
#      x y z
#    x 1.586870 -0.113160 -0.058610 
#    y -0.113160 1.517330 0.006080 
#    z -0.058610 0.006080 1.660070 
# 
# From -- ./inp_files/146304.got.cif
#   From: 2010.05.17/outbox.cif.g08.bks.cpg/sg2_74_cif.got.tgz:146304.got - 2010.06.03 11:33:40.
