data_PCOD9005818
_publ_section_title
;
Structure prediction by ZEFSAII (Michael W. Deem and Ramdas Pophale) SiO2 
 PCOD9005818
Probable space group: P -1
;
_chemical_formula_sum "Si O2"
_cell_formula_units_Z 15
_cell_length_a 18.922003
_cell_length_b 7.292979
_cell_length_c 7.490274
_cell_angle_alpha 60.600663
_cell_angle_beta 126.568149
_cell_angle_gamma 123.463180
_cell_volume 671.912915
_symmetry_space_group_name_H-M "P -1"
_symmetry_group_IT_number 2
_symmetry_cell_setting 'triclinic'
loop_
_space_group_symop_operation_xyz
x,y,z
-x,-y,-z
loop_
_atom_site_type_symbol
_atom_site_label
_atom_site_fract_x
_atom_site_fract_y
_atom_site_fract_z
Si Si1 0.000000 0.500000 0.000000
Si Si2 0.424497 0.713197 0.891512
Si Si3 0.453206 0.870524 0.314180
Si Si4 0.887030 0.734838 0.955429
Si Si5 0.728762 0.297887 0.052008
Si Si6 0.087014 0.007246 0.753318
Si Si7 0.593109 0.566578 0.350167
Si Si8 0.204201 0.064148 0.566960
O O1 0.069586 0.748484 0.901964
O O2 0.907460 0.849181 0.126924
O O3 0.337965 0.659392 0.919925
O O4 0.390761 0.579208 0.720780
O O5 0.472382 0.980141 0.789630
O O6 0.505337 0.632777 0.129655
O O7 0.433853 0.607631 0.441810
O O8 0.500000 0.000000 0.500000
O O9 0.350286 0.877859 0.112263
O O10 0.866678 0.899383 0.701151
O O11 0.789789 0.519196 0.932942
O O12 0.961289 0.639517 0.025223
O O13 0.796128 0.187556 0.298399
O O14 0.176136 0.114327 0.700997
O O15 0.000000 0.000000 0.500000
O O16 0.690051 0.779893 0.409163
#
# Coordination Sequence:
#
# PCOD9005818 Si02
#       8
#     1   2   2   2   2   2   2   2
#     4  12  26  52  84 110 144 182 240 300 376 454
#     4  10  22  39  62  93 136 194 243 295 353 413
#     4  10  21  38  63  94 135 188 242 293 351 411
#     4  12  28  51  76 115 145 189 243 302 370 447
#     4  12  24  44  66 102 146 192 248 295 363 427
#     4  12  28  51  80 110 148 186 237 299 376 454
#     4  10  21  40  63  93 139 186 244 301 351 414
#     4  12  25  46  69 107 150 189 240 304 361 433
#
# _framework density 22.324321999999999
#
# number of rings (size 3 to 8) (size 9 to 14) (size 15 to 20)
#    0.000    0.800    5.333    1.600    0.000    3.200 
#    7.200    0.000    0.000    0.000    0.000    0.000 
#    0.000    0.000    0.000    0.000    0.000    0.000 
#
# Total GULP energy -83544.553555 kJ/mol
# GULP energy per Si atom -5569.636904 kJ/mol
# Density = 2.227351 g / cm^3
# Si number density = 22.324322 Si / 1000 Ang^3
#
#
#
# Elastic Constant Matrix: (Units=GPa)
#
#
# Indices 1 2 3 4 5 6 
#
# 1 137.6666 14.6071 31.1782 -0.4768 -14.7246 -13.8979
# 2 14.6071 44.4650 9.2262 1.4677 -2.7906 -7.5499
# 3 31.1782 9.2262 76.9744 -4.2228 -16.8875 -23.9636
# 4 -0.4768 1.4677 -4.2228 36.7314 -0.9067 -14.5060
# 5 -14.7246 -2.7906 -16.8875 -0.9067 31.9837 -3.0832
# 6 -13.8979 -7.5499 -23.9636 -14.5060 -3.0832 41.8281
#
#
#
# Elastic Compliance Matrix: (Units=1/GPa)
#
#
# Indices 1 2 3 4 5 6 
#
# 1 0.008396 -0.001893 -0.001941 0.000746 0.002871 0.001806
# 2 -0.001893 0.023916 -0.000751 0.000327 0.001161 0.003457
# 3 -0.001941 -0.000751 0.022084 0.009159 0.012500 0.015969
# 4 0.000746 0.000327 0.009159 0.035802 0.008012 0.018561
# 5 0.002871 0.001161 0.012500 0.008012 0.040877 0.014117
# 6 0.001806 0.003457 0.015969 0.018561 0.014117 0.041758
#
#
# Mechanical properties :
#
#
# Convention : Reuss Voigt Hill
#
# Bulk Modulus (GPa) = 22.11098 41.01434 31.56266
# Shear Modulus (GPa) = 25.37049 35.71493 30.54271
#
# Velocity S-wave (km/s) = 3.37479 4.00412 3.70284
# Velocity P-wave (km/s) = 5.01114 6.30787 5.69652
#
# Compressibility (1/GPa) = 0.04522640
#
# Stress axis : x y z
#
# Youngs Moduli (GPa) = 119.09904 41.81236 45.28169
#
# Poissons Ratio (x) = 0.07916 0.08789
# Poissons Ratio (y) = 0.22549 0.03400
# Poissons Ratio (z) = 0.23116 0.03140
#
# Static dielectric constant tensor:
#      x y z
#    x 1.831380 0.000350 -0.006140 
#    y 0.000350 1.831710 0.000890 
#    z -0.006140 0.000890 1.870240 
# 
# From -- ./inp_files/341540.got.cif
#   From: 2010.05.17/outbox.cif.g08.bks.cpg/sg2_171_cif.got.tgz:341540.got - 2010.06.03 11:33:40.
