data_PCOD9005741
_publ_section_title
;
Structure prediction by ZEFSAII (Michael W. Deem and Ramdas Pophale) SiO2 
 PCOD9005741
Probable space group: P -1
;
_chemical_formula_sum "Si O2"
_cell_formula_units_Z 13
_cell_length_a 14.025965
_cell_length_b 6.304745
_cell_length_c 20.622845
_cell_angle_alpha 127.686619
_cell_angle_beta 25.313621
_cell_angle_gamma 136.514945
_cell_volume 530.416601
_symmetry_space_group_name_H-M "P -1"
_symmetry_group_IT_number 2
_symmetry_cell_setting 'triclinic'
loop_
_space_group_symop_operation_xyz
x,y,z
-x,-y,-z
loop_
_atom_site_type_symbol
_atom_site_label
_atom_site_fract_x
_atom_site_fract_y
_atom_site_fract_z
Si Si1 0.716348 0.292555 0.297041
Si Si2 0.500000 0.000000 0.000000
Si Si3 0.774606 0.219208 0.003119
Si Si4 0.111287 0.166579 0.893826
Si Si5 0.284001 0.328339 0.513159
Si Si6 0.774846 0.657618 0.722171
Si Si7 0.111358 0.368662 0.494830
O O1 0.500286 0.230775 0.365142
O O2 0.656998 0.423608 0.421520
O O3 0.987355 0.564104 0.151759
O O4 0.734057 0.999120 0.251950
O O5 0.554311 0.001720 0.046959
O O6 0.554710 0.705603 0.898594
O O7 0.890251 0.088708 0.961427
O O8 0.736448 0.466298 0.115103
O O9 0.000000 0.000000 0.000000
O O10 0.266199 0.476751 0.485812
O O11 0.013114 0.017534 0.638785
O O12 0.736445 0.532974 0.648473
O O13 0.890339 0.462459 0.648288
O O14 0.000000 0.000000 0.500000
#
# Coordination Sequence:
#
# PCOD9005741 Si02
#       7
#     2   1   2   2   2   2   2
#     4  10  21  38  63  92 121 163 219 267 317 375
#     4  12  24  40  68  98 132 172 212 268 334 390
#     4  10  22  41  61  93 131 166 215 264 328 390
#     4   9  21  41  64  90 129 172 211 264 324 392
#     4  10  21  38  63  92 121 163 219 267 317 375
#     4  10  22  41  61  93 131 166 215 264 328 390
#     4   9  21  41  64  90 129 172 211 264 324 392
#
# _framework density 24.509035000000001
#
# number of rings (size 3 to 8) (size 9 to 14) (size 15 to 20)
#    0.000    2.154    1.538    0.000    2.154    8.615 
#    0.000   13.846    0.000    0.000    0.000    0.000 
#    0.000    0.000    0.000    0.000    0.000    0.000 
#
# Total GULP energy -72368.618841 kJ/mol
# GULP energy per Si atom -5566.816834 kJ/mol
# Density = 2.445325 g / cm^3
# Si number density = 24.509035 Si / 1000 Ang^3
#
#
#
# Elastic Constant Matrix: (Units=GPa)
#
#
# Indices 1 2 3 4 5 6 
#
# 1 66.3801 109.6710 143.2808 122.0073 -15.8048 -18.7390
# 2 109.6710 56.1454 12.0238 4.7069 -1.3197 -18.9059
# 3 143.2808 12.0238 36.3606 12.9291 -14.1821 -7.2198
# 4 122.0073 4.7069 12.9291 24.4257 -8.1568 -2.8773
# 5 -15.8048 -1.3197 -14.1821 -8.1568 36.0920 17.3729
# 6 -18.7390 -18.9059 -7.2198 -2.8773 17.3729 31.2614
#
#
#
# Elastic Compliance Matrix: (Units=1/GPa)
#
#
# Indices 1 2 3 4 5 6 
#
# 1 -0.001111 0.001305 0.003135 0.004205 0.001569 0.000362
# 2 0.001305 0.025276 -0.012687 -0.007288 -0.015205 0.020918
# 3 0.003135 -0.012687 0.031816 -0.027348 0.010503 -0.006800
# 4 0.004205 -0.007288 -0.027348 0.035701 0.001726 -0.005876
# 5 0.001569 -0.015205 0.010503 0.001726 0.047897 -0.032289
# 6 0.000362 0.020918 -0.006800 -0.005876 -0.032289 0.060689
#
#
# Mechanical properties :
#
#
# Convention : Reuss Voigt Hill
#
# Bulk Modulus (GPa) = 25.32518 76.53750 50.93134
# Shear Modulus (GPa) = 21.74632 11.28316 16.51474
#
# Velocity S-wave (km/s) = 2.98195 2.14794 2.59863
# Velocity P-wave (km/s) = 4.71291 6.11945 5.46164
#
# Compressibility (1/GPa) = 0.03948639
#
# Stress axis : x y z
#
# Youngs Moduli (GPa) = -900.13881 39.56362 31.43110
#
# Poissons Ratio (x) = -0.05164 -0.09853
# Poissons Ratio (y) = 1.17479 0.39877
# Poissons Ratio (z) = 2.82179 0.50194
#
# Static dielectric constant tensor:
#      x y z
#    x 1.987820 0.023000 -0.032070 
#    y 0.023000 1.971620 -0.024260 
#    z -0.032070 -0.024260 2.041070 
# 
# From -- ./inp_files/63644.got.cif
#   From: 2010.05.17/outbox.cif.g08.bks.cpg/sg2_32_cif.got.tgz:63644.got - 2010.06.03 11:33:40.
