data_PCOD9005813
_publ_section_title
;
Structure prediction by ZEFSAII (Michael W. Deem and Ramdas Pophale) SiO2 
 PCOD9005813
Probable space group: P -1
;
_chemical_formula_sum "Si O2"
_cell_formula_units_Z 16
_cell_length_a 9.175422
_cell_length_b 8.946488
_cell_length_c 10.494320
_cell_angle_alpha 102.355003
_cell_angle_beta 109.457628
_cell_angle_gamma 68.657858
_cell_volume 752.325023
_symmetry_space_group_name_H-M "P -1"
_symmetry_group_IT_number 2
_symmetry_cell_setting 'triclinic'
loop_
_space_group_symop_operation_xyz
x,y,z
-x,-y,-z
loop_
_atom_site_type_symbol
_atom_site_label
_atom_site_fract_x
_atom_site_fract_y
_atom_site_fract_z
Si Si1 0.106659 0.035709 0.704423
Si Si2 0.686306 0.421703 0.992083
Si Si3 0.984342 0.136540 0.125419
Si Si4 0.756704 0.567839 0.417547
Si Si5 0.612610 0.430092 0.691924
Si Si6 0.808417 0.638630 0.727562
Si Si7 0.862000 0.645889 0.187200
Si Si8 0.181209 0.758453 0.516830
O O1 0.164131 0.168806 0.818460
O O2 0.983148 0.144547 0.585521
O O3 0.013863 0.950889 0.755882
O O4 0.232469 0.888283 0.639009
O O5 0.809099 0.277159 0.083024
O O6 0.767301 0.563570 0.050232
O O7 0.500000 0.500000 0.000000
O O8 0.686247 0.360675 0.836903
O O9 0.124524 0.222131 0.175768
O O10 0.000000 0.000000 0.000000
O O11 0.572225 0.565358 0.359765
O O12 0.789794 0.651876 0.571097
O O13 0.796494 0.634729 0.308967
O O14 0.853181 0.378335 0.430887
O O15 0.646206 0.602121 0.720971
O O16 0.695186 0.329137 0.573947
O O17 0.951134 0.470821 0.774608
#
# Coordination Sequence:
#
# PCOD9005813 Si02
#       8
#     2   2   2   2   2   2   2   2
#     4  11  23  38  63  98 132 163 213 273 332 374
#     4  11  24  45  67  92 133 181 221 267 328 397
#     4  11  26  43  67  97 135 174 223 276 327 387
#     4  11  21  40  66  97 129 163 219 266 328 385
#     4  11  22  41  69  94 130 167 221 269 321 386
#     4  10  22  38  68  96 125 169 223 269 314 396
#     4  11  22  39  68  96 124 175 224 265 318 398
#     4  10  21  38  63  94 131 163 205 272 329 375
#
# _framework density 21.267403999999999
#
# number of rings (size 3 to 8) (size 9 to 14) (size 15 to 20)
#    0.000    1.250    3.750    4.125    5.250    1.000 
#    0.000    3.750    0.000    0.000    0.000    0.000 
#    0.000    0.000    0.000    0.000    0.000    0.000 
#
# Total GULP energy -89351.032912 kJ/mol
# GULP energy per Si atom -5584.439557 kJ/mol
# Density = 2.121900 g / cm^3
# Si number density = 21.267404 Si / 1000 Ang^3
#
#
#
# Elastic Constant Matrix: (Units=GPa)
#
#
# Indices 1 2 3 4 5 6 
#
# 1 89.9563 15.6421 6.9774 8.8179 14.6468 11.7158
# 2 15.6421 79.6815 17.4140 26.8164 6.9199 23.0536
# 3 6.9774 17.4140 80.0239 17.8186 14.7445 4.8293
# 4 8.8179 26.8164 17.8186 38.7544 8.4589 4.5165
# 5 14.6468 6.9199 14.7445 8.4589 34.5484 -1.4472
# 6 11.7158 23.0536 4.8293 4.5165 -1.4472 17.5594
#
#
#
# Elastic Compliance Matrix: (Units=1/GPa)
#
#
# Indices 1 2 3 4 5 6 
#
# 1 0.013481 0.001683 0.000738 -0.001839 -0.006397 -0.011461
# 2 0.001683 0.026996 -0.000108 -0.014279 -0.003969 -0.033190
# 3 0.000738 -0.000108 0.014862 -0.005320 -0.005479 -0.003522
# 4 -0.001839 -0.014279 -0.005320 0.037840 -0.002874 0.011468
# 5 -0.006397 -0.003969 -0.005479 -0.002874 0.036110 0.014701
# 6 -0.011461 -0.033190 -0.003522 0.011468 0.014701 0.107402
#
#
# Mechanical properties :
#
#
# Convention : Reuss Voigt Hill
#
# Bulk Modulus (GPa) = 16.67611 36.63653 26.65632
# Shear Modulus (GPa) = 19.83710 32.14766 25.99238
#
# Velocity S-wave (km/s) = 3.05740 3.89214 3.49975
# Velocity P-wave (km/s) = 4.50797 6.12065 5.37513
#
# Compressibility (1/GPa) = 0.05996603
#
# Stress axis : x y z
#
# Youngs Moduli (GPa) = 74.17716 37.04243 67.28542
#
# Poissons Ratio (x) = -0.06233 -0.04967
# Poissons Ratio (y) = -0.12482 0.00724
# Poissons Ratio (z) = -0.05476 0.00399
#
# Static dielectric constant tensor:
#      x y z
#    x 1.787990 0.001480 0.005300 
#    y 0.001480 1.797660 0.033160 
#    z 0.005300 0.033160 1.826730 
# 
# From -- ./inp_files/380070.got.cif
#   From: 2010.05.17/outbox.cif.g08.bks.cpg/sg2_191_cif.got.tgz:380070.got - 2010.06.03 11:33:40.
