data_PCOD9005856
_publ_section_title
;
Structure prediction by ZEFSAII (Michael W. Deem and Ramdas Pophale) SiO2 
 PCOD9005856
Probable space group: P -1
;
_chemical_formula_sum "Si O2"
_cell_formula_units_Z 16
_cell_length_a 12.229260
_cell_length_b 16.506450
_cell_length_c 8.701135
_cell_angle_alpha 53.852138
_cell_angle_beta 148.642739
_cell_angle_gamma 128.023149
_cell_volume 711.220483
_symmetry_space_group_name_H-M "P -1"
_symmetry_group_IT_number 2
_symmetry_cell_setting 'triclinic'
loop_
_space_group_symop_operation_xyz
x,y,z
-x,-y,-z
loop_
_atom_site_type_symbol
_atom_site_label
_atom_site_fract_x
_atom_site_fract_y
_atom_site_fract_z
Si Si1 0.249071 0.061125 0.261862
Si Si2 0.912676 0.337467 0.536717
Si Si3 0.193652 0.244835 0.200127
Si Si4 0.570421 0.563240 0.357339
Si Si5 0.035966 0.685661 0.895822
Si Si6 0.547290 0.127732 0.253512
Si Si7 0.551239 0.263625 0.854169
Si Si8 0.198909 0.530697 0.484177
O O1 0.234204 0.145949 0.275140
O O2 0.377327 0.115114 0.203499
O O3 0.378872 0.977430 0.558781
O O4 0.000000 0.000000 0.000000
O O5 0.763543 0.222951 0.440729
O O6 0.776744 0.391192 0.430646
O O7 0.030181 0.424256 0.457208
O O8 0.117221 0.316641 0.903317
O O9 0.408347 0.285868 0.516082
O O10 0.004908 0.234722 0.113657
O O11 0.500000 0.500000 0.500000
O O12 0.425043 0.643811 0.096637
O O13 0.591050 0.496288 0.308571
O O14 0.814133 0.635241 0.596905
O O15 0.221988 0.738715 0.942810
O O16 0.100852 0.590421 0.166603
O O17 0.448720 0.160041 0.942330
#
# Coordination Sequence:
#
# PCOD9005856 Si02
#       8
#     2   2   2   2   2   2   2   2
#     4  11  25  47  74 100 131 168 224 282 346 398
#     4  10  22  42  67  98 137 179 221 277 327 391
#     4  10  24  43  69  96 133 175 218 276 340 396
#     4  11  22  35  60  94 133 183 224 269 323 388
#     4  10  22  40  63  93 144 177 220 277 326 386
#     4  11  26  44  73 100 132 173 223 281 337 397
#     4  11  25  43  66  99 136 178 221 271 337 396
#     4  10  21  38  63  96 136 181 224 263 322 391
#
# _framework density 22.496538999999999
#
# number of rings (size 3 to 8) (size 9 to 14) (size 15 to 20)
#    0.000    1.500    2.500    1.125    7.000    2.500 
#    0.000    2.500    0.000    0.000    0.000    0.000 
#    0.000    0.000    0.000    0.000    0.000    0.000 
#
# Total GULP energy -89374.057382 kJ/mol
# GULP energy per Si atom -5585.878586 kJ/mol
# Density = 2.244534 g / cm^3
# Si number density = 22.496539 Si / 1000 Ang^3
#
#
#
# Elastic Constant Matrix: (Units=GPa)
#
#
# Indices 1 2 3 4 5 6 
#
# 1 174.7485 73.2123 30.9266 -22.3856 24.5638 -21.2310
# 2 73.2123 90.9997 24.5406 -16.4146 4.3819 -6.2532
# 3 30.9266 24.5406 58.9037 -5.2657 4.3497 0.5923
# 4 -22.3856 -16.4146 -5.2657 31.9236 -2.7492 2.5658
# 5 24.5638 4.3819 4.3497 -2.7492 35.0556 -9.8540
# 6 -21.2310 -6.2532 0.5923 2.5658 -9.8540 47.2649
#
#
#
# Elastic Compliance Matrix: (Units=1/GPa)
#
#
# Indices 1 2 3 4 5 6 
#
# 1 0.010339 -0.006870 -0.001961 0.002742 -0.005218 0.002523
# 2 -0.006870 0.018126 -0.003814 0.004172 0.003298 -0.000179
# 3 -0.001961 -0.003814 0.019694 -0.000034 -0.001119 -0.001864
# 4 0.002742 0.004172 -0.000034 0.035420 0.000319 -0.000072
# 5 -0.005218 0.003298 -0.001119 0.000319 0.033352 0.005042
# 6 0.002523 -0.000179 -0.001864 -0.000072 0.005042 0.023346
#
#
# Mechanical properties :
#
#
# Convention : Reuss Voigt Hill
#
# Bulk Modulus (GPa) = 43.72630 64.66789 54.19709
# Shear Modulus (GPa) = 28.87014 35.91364 32.39189
#
# Velocity S-wave (km/s) = 3.58622 3.99984 3.79867
# Velocity P-wave (km/s) = 6.05203 7.08094 6.58661
#
# Compressibility (1/GPa) = 0.02286953
#
# Stress axis : x y z
#
# Youngs Moduli (GPa) = 96.71935 55.16896 50.77774
#
# Poissons Ratio (x) = 0.37902 0.09958
# Poissons Ratio (y) = 0.66447 0.19364
# Poissons Ratio (z) = 0.18968 0.21039
#
# Static dielectric constant tensor:
#      x y z
#    x 1.836530 -0.045820 -0.020640 
#    y -0.045820 1.845980 0.006570 
#    z -0.020640 0.006570 1.907730 
# 
# From -- ./inp_files/279167.got.cif
#   From: 2010.05.17/outbox.cif.g08.bks.cpg/sg2_140_cif.got.tgz:279167.got - 2010.06.03 11:33:40.
