data_PCOD9005937
_publ_section_title
;
Structure prediction by ZEFSAII (Michael W. Deem and Ramdas Pophale) SiO2 
 PCOD9005937
Probable space group: P -1
;
_chemical_formula_sum "Si O2"
_cell_formula_units_Z 14
_cell_length_a 12.347652
_cell_length_b 20.126066
_cell_length_c 15.063673
_cell_angle_alpha 20.805942
_cell_angle_beta 150.381915
_cell_angle_gamma 154.307280
_cell_volume 567.571683
_symmetry_space_group_name_H-M "P -1"
_symmetry_group_IT_number 2
_symmetry_cell_setting 'triclinic'
loop_
_space_group_symop_operation_xyz
x,y,z
-x,-y,-z
loop_
_atom_site_type_symbol
_atom_site_label
_atom_site_fract_x
_atom_site_fract_y
_atom_site_fract_z
Si Si1 0.908951 0.957377 0.718573
Si Si2 0.069311 0.708893 0.558129
Si Si3 0.348873 0.851487 0.399536
Si Si4 0.219788 0.187813 0.484176
Si Si5 0.703816 0.154721 0.830426
Si Si6 0.368102 0.643822 0.218729
Si Si7 0.642396 0.332968 0.018059
O O1 0.616215 0.861830 0.600680
O O2 0.961309 0.087872 0.685986
O O3 0.072703 0.134725 0.538821
O O4 0.019703 0.793996 0.002293
O O5 0.160980 0.732545 0.494520
O O6 0.839561 0.469233 0.712340
O O7 0.255194 0.722874 0.751331
O O8 0.269192 0.763051 0.354219
O O9 0.393038 0.096918 0.122485
O O10 0.477922 0.179490 0.681094
O O11 0.324985 0.436410 0.223491
O O12 0.000000 0.000000 0.500000
O O13 0.559395 0.893135 0.054812
O O14 0.500000 0.500000 0.500000
O O15 0.251859 0.628343 0.056896
#
# Coordination Sequence:
#
# PCOD9005937 Si02
#       7
#     2   2   2   2   2   2   2
#     4  11  21  39  64  96 124 162 215 257 314 366
#     4  11  21  40  66  93 127 161 211 261 319 366
#     4  10  24  42  66  94 127 167 208 261 317 376
#     4  12  22  38  64  96 128 169 212 261 311 374
#     4  11  23  40  67  94 131 163 209 261 319 370
#     4  11  20  38  63  99 120 154 216 270 301 365
#     4  10  21  38  64  89 120 166 211 255 311 364
#
# _framework density 24.666487
#
# number of rings (size 3 to 8) (size 9 to 14) (size 15 to 20)
#    0.000    1.143    4.286    3.429    2.000    0.571 
#    2.571    0.714    3.143    3.429    0.000    0.000 
#    0.000    0.000    0.000    0.000    0.000    0.000 
#
# Total GULP energy -78103.916391 kJ/mol
# GULP energy per Si atom -5578.851171 kJ/mol
# Density = 2.461035 g / cm^3
# Si number density = 24.666487 Si / 1000 Ang^3
#
#
#
# Elastic Constant Matrix: (Units=GPa)
#
#
# Indices 1 2 3 4 5 6 
#
# 1 50.9336 -99.7416 9.0660 -40.0689 -69.0088 -15.3447
# 2 -99.7416 -89.6188 -4.3152 -41.1105 -52.3806 -62.8715
# 3 9.0660 -4.3152 89.5300 -0.8519 -5.2803 -2.0680
# 4 -40.0689 -41.1105 -0.8519 14.2721 -15.0680 -24.4864
# 5 -69.0088 -52.3806 -5.2803 -15.0680 35.5749 -24.6445
# 6 -15.3447 -62.8715 -2.0680 -24.4864 -24.6445 8.9201
#
#
#
# Elastic Compliance Matrix: (Units=1/GPa)
#
#
# Indices 1 2 3 4 5 6 
#
# 1 0.010509 -0.005204 -0.001363 -0.001299 0.003940 -0.011594
# 2 -0.005204 0.007364 0.000230 -0.010284 -0.007290 -0.005365
# 3 -0.001363 0.000230 0.011348 -0.000332 0.000076 0.001208
# 4 -0.001299 -0.010284 -0.000332 0.031657 -0.004466 -0.000236
# 5 0.003940 -0.007290 0.000076 -0.004466 0.017770 -0.007749
# 6 -0.011594 -0.005365 0.001208 -0.000236 -0.007749 0.032569
#
#
# Mechanical properties :
#
#
# Convention : Reuss Voigt Hill
#
# Bulk Modulus (GPa) = 60.42829 -15.45962 22.48433
# Shear Modulus (GPa) = 38.63824 21.47577 30.05700
#
# Velocity S-wave (km/s) = 3.96210 2.95387 3.49454
# Velocity P-wave (km/s) = 6.74406 2.31360 5.04158
#
# Compressibility (1/GPa) = 0.01654854
#
# Stress axis : x y z
#
# Youngs Moduli (GPa) = 95.15532 135.79434 88.12290
#
# Poissons Ratio (x) = 0.70662 0.12009
# Poissons Ratio (y) = 0.49515 -0.02028
# Poissons Ratio (z) = 0.12968 -0.03125
#
# Static dielectric constant tensor:
#      x y z
#    x 1.980230 -0.036060 0.072620 
#    y -0.036060 2.138160 0.046850 
#    z 0.072620 0.046850 2.014720 
# 
# From -- ./inp_files/524022.got.cif
#   From: 2010.05.17/outbox.cif.g08.bks.cpg/sg2_263_cif.got.tgz:524022.got - 2010.06.03 11:33:40.
