data_PCOD9005084
_publ_section_title
;
Structure prediction by ZEFSAII (Michael W. Deem and Ramdas Pophale) SiO2 
 PCOD9005084
Probable space group: P -1
;
_chemical_formula_sum "Si O2"
_cell_formula_units_Z 16
_cell_length_a 11.527994
_cell_length_b 15.333361
_cell_length_c 17.198833
_cell_angle_alpha 35.640688
_cell_angle_beta 56.279772
_cell_angle_gamma 30.664552
_cell_volume 790.477336
_symmetry_space_group_name_H-M "P -1"
_symmetry_group_IT_number 2
_symmetry_cell_setting 'triclinic'
loop_
_space_group_symop_operation_xyz
x,y,z
-x,-y,-z
loop_
_atom_site_type_symbol
_atom_site_label
_atom_site_fract_x
_atom_site_fract_y
_atom_site_fract_z
Si Si1 0.775792 0.434935 0.905943
Si Si2 0.801850 0.050141 0.011626
Si Si3 0.567237 0.935497 0.614551
Si Si4 0.813048 0.478060 0.505760
Si Si5 0.261453 0.958511 0.418821
Si Si6 0.745650 0.340957 0.274999
Si Si7 0.192627 0.862474 0.766849
Si Si8 0.839738 0.779611 0.308494
O O1 0.752310 0.630832 0.791841
O O2 0.487446 0.656329 0.819389
O O3 0.839127 0.244725 0.081457
O O4 0.006671 0.222871 0.912098
O O5 0.544696 0.334164 0.858710
O O6 0.708323 0.036567 0.129011
O O7 0.000000 0.000000 0.000000
O O8 0.500000 0.000000 0.500000
O O9 0.682723 0.984995 0.569145
O O10 0.321664 0.120002 0.627752
O O11 0.502300 0.751397 0.419537
O O12 0.867120 0.604722 0.373983
O O13 0.893760 0.398213 0.625627
O O14 0.984760 0.187690 0.616757
O O15 0.266121 0.783089 0.570179
O O16 0.975836 0.244857 0.282896
O O17 0.820643 0.199714 0.267179
#
# Coordination Sequence:
#
# PCOD9005084 Si02
#       8
#     2   2   2   2   2   2   2   2
#     4  11  23  35  60  95 124 156 213 260 313 361
#     4  12  23  38  63  92 127 166 207 261 310 362
#     4  11  23  40  64  95 125 161 207 265 309 366
#     4  10  21  38  60  90 127 155 201 264 305 372
#     4  10  24  42  61  90 125 167 205 251 318 380
#     4  11  23  41  63  87 126 168 209 252 311 380
#     4  11  21  38  61  93 124 162 206 264 309 366
#     4  10  22  37  62  95 127 155 210 258 320 368
#
# _framework density 20.240936000000001
#
# number of rings (size 3 to 8) (size 9 to 14) (size 15 to 20)
#    0.000    1.250    2.500    3.750    5.250    0.500 
#    0.000    6.250    0.000    0.000    0.000    0.000 
#    0.000    0.000    0.000    0.000    0.000    0.000 
#
# Total GULP energy -89147.699109 kJ/mol
# GULP energy per Si atom -5571.731194 kJ/mol
# Density = 2.019487 g / cm^3
# Si number density = 20.240936 Si / 1000 Ang^3
#
#
#
# Elastic Constant Matrix: (Units=GPa)
#
#
# Indices 1 2 3 4 5 6 
#
# 1 55.8404 33.1377 10.4668 -21.7544 -0.6114 -11.4995
# 2 33.1377 86.7464 20.2480 -19.5156 -0.9074 -4.8493
# 3 10.4668 20.2480 65.8073 -15.9195 -10.8668 -15.7629
# 4 -21.7544 -19.5156 -15.9195 41.1391 -1.1461 -2.7700
# 5 -0.6114 -0.9074 -10.8668 -1.1461 26.9097 -8.6060
# 6 -11.4995 -4.8493 -15.7629 -2.7700 -8.6060 32.3597
#
#
#
# Elastic Compliance Matrix: (Units=1/GPa)
#
#
# Indices 1 2 3 4 5 6 
#
# 1 0.032569 -0.009248 0.007943 0.017424 0.010220 0.018267
# 2 -0.009248 0.016041 -0.004720 0.000554 -0.002792 -0.003877
# 3 0.007943 -0.004720 0.027025 0.014372 0.018391 0.021401
# 4 0.017424 0.000554 0.014372 0.041145 0.014583 0.020676
# 5 0.010220 -0.002792 0.018391 0.014583 0.054254 0.027849
# 6 0.018267 -0.003877 0.021401 0.020676 0.027849 0.056414
#
#
# Mechanical properties :
#
#
# Convention : Reuss Voigt Hill
#
# Bulk Modulus (GPa) = 15.72682 37.34434 26.53558
# Shear Modulus (GPa) = 19.17977 29.71780 24.44878
#
# Velocity S-wave (km/s) = 3.08161 3.83587 3.47924
# Velocity P-wave (km/s) = 4.52199 6.17321 5.41096
#
# Compressibility (1/GPa) = 0.06358565
#
# Stress axis : x y z
#
# Youngs Moduli (GPa) = 30.70404 62.34016 37.00312
#
# Poissons Ratio (x) = 0.57650 -0.29393
# Poissons Ratio (y) = 0.28394 0.17467
# Poissons Ratio (z) = -0.24390 0.29427
#
# Static dielectric constant tensor:
#      x y z
#    x 1.793570 0.008290 -0.022710 
#    y 0.008290 1.856620 -0.002630 
#    z -0.022710 -0.002630 1.815940 
# 
# From -- ./inp_files/271585.got.cif
#   From: 2010.05.17/outbox.cif.g08.bks.cpg/sg2_136_cif.got.tgz:271585.got - 2010.06.03 11:33:40.
