data_PCOD9005273
_publ_section_title
;
Structure prediction by ZEFSAII (Michael W. Deem and Ramdas Pophale) SiO2 
 PCOD9005273
Probable space group: P -1
;
_chemical_formula_sum "Si O2"
_cell_formula_units_Z 16
_cell_length_a 11.818607
_cell_length_b 14.107364
_cell_length_c 11.883151
_cell_angle_alpha 28.710563
_cell_angle_beta 47.229742
_cell_angle_gamma 55.474383
_cell_volume 696.345887
_symmetry_space_group_name_H-M "P -1"
_symmetry_group_IT_number 2
_symmetry_cell_setting 'triclinic'
loop_
_space_group_symop_operation_xyz
x,y,z
-x,-y,-z
loop_
_atom_site_type_symbol
_atom_site_label
_atom_site_fract_x
_atom_site_fract_y
_atom_site_fract_z
Si Si1 0.466314 0.232015 0.200226
Si Si2 0.892958 0.737830 0.082282
Si Si3 0.660973 0.985796 0.838821
Si Si4 0.115193 0.324238 0.589928
Si Si5 0.879506 0.930652 0.370273
Si Si6 0.836316 0.280095 0.536494
Si Si7 0.585696 0.052439 0.111317
Si Si8 0.460354 0.352200 0.325252
O O1 0.299718 0.114658 0.440775
O O2 0.596655 0.130098 0.149612
O O3 0.516325 0.267552 0.258207
O O4 0.445202 0.440712 0.935364
O O5 0.866414 0.762648 0.207756
O O6 0.861715 0.509338 0.309678
O O7 0.775889 0.849988 0.966554
O O8 0.064111 0.850172 0.849967
O O9 0.584734 0.897748 0.868955
O O10 0.748827 0.204539 0.560102
O O11 0.500000 0.000000 0.000000
O O12 0.085066 0.152103 0.695116
O O13 0.287184 0.414152 0.351244
O O14 0.000000 0.500000 0.500000
O O15 0.995386 0.799155 0.496326
O O16 0.724132 0.164282 0.828527
O O17 0.557306 0.814212 0.393423
#
# Coordination Sequence:
#
# PCOD9005273 Si02
#       8
#     2   2   2   2   2   2   2   2
#     4  10  23  40  62  89 123 160 199 241 302 364
#     4  11  21  37  60  87 125 158 195 247 303 347
#     4   9  21  37  58  89 121 151 201 253 296 349
#     4  11  20  36  62  94 119 157 195 247 305 356
#     4  10  22  39  56  93 125 154 200 247 295 361
#     4  10  21  38  61  90 122 153 203 248 296 356
#     4  11  22  40  65  89 119 160 201 245 304 356
#     4  10  22  41  61  89 127 154 198 250 295 359
#
# _framework density 22.977087000000001
#
# number of rings (size 3 to 8) (size 9 to 14) (size 15 to 20)
#    0.000    1.750    1.250    3.750    0.000    5.000 
#    2.250    2.500    0.000    4.500    0.000    0.000 
#    0.000    0.000    0.000    0.000    0.000    0.000 
#
# Total GULP energy -89071.050338 kJ/mol
# GULP energy per Si atom -5566.940646 kJ/mol
# Density = 2.292479 g / cm^3
# Si number density = 22.977087 Si / 1000 Ang^3
#
#
#
# Elastic Constant Matrix: (Units=GPa)
#
#
# Indices 1 2 3 4 5 6 
#
# 1 74.0181 5.6446 27.8440 -16.7953 -11.0367 -1.3725
# 2 5.6446 56.5328 25.4215 -12.7992 -5.9819 4.7170
# 3 27.8440 25.4215 126.5750 -42.7876 -16.9576 -3.7604
# 4 -16.7953 -12.7992 -42.7876 32.5402 10.0821 -8.9723
# 5 -11.0367 -5.9819 -16.9576 10.0821 29.1035 -6.1793
# 6 -1.3725 4.7170 -3.7604 -8.9723 -6.1793 22.9891
#
#
#
# Elastic Compliance Matrix: (Units=1/GPa)
#
#
# Indices 1 2 3 4 5 6 
#
# 1 0.016199 0.000333 0.000084 0.008760 0.004396 0.005513
# 2 0.000333 0.020062 -0.003182 0.002725 0.000740 -0.003355
# 3 0.000084 -0.003182 0.018061 0.025250 0.004256 0.014611
# 4 0.008760 0.002725 0.025250 0.079600 -0.001607 0.034729
# 5 0.004396 0.000740 0.004256 -0.001607 0.041630 0.011369
# 6 0.005513 -0.003355 0.014611 0.034729 0.011369 0.063516
#
#
# Mechanical properties :
#
#
# Convention : Reuss Voigt Hill
#
# Bulk Modulus (GPa) = 20.49544 41.66066 31.07805
# Shear Modulus (GPa) = 19.16732 30.14096 24.65414
#
# Velocity S-wave (km/s) = 2.89137 3.62578 3.27920
# Velocity P-wave (km/s) = 4.48174 5.97488 5.28134
#
# Compressibility (1/GPa) = 0.04879133
#
# Stress axis : x y z
#
# Youngs Moduli (GPa) = 61.73313 49.84670 55.36775
#
# Poissons Ratio (x) = -0.01662 -0.00462
# Poissons Ratio (y) = -0.02059 0.17618
# Poissons Ratio (z) = -0.00516 0.15861
#
# Static dielectric constant tensor:
#      x y z
#    x 2.020670 0.068140 0.032290 
#    y 0.068140 1.935310 -0.002760 
#    z 0.032290 -0.002760 1.935080 
# 
# From -- ./inp_files/432236.got.cif
#   From: 2010.05.17/outbox.cif.g08.bks.cpg/sg2_217_cif.got.tgz:432236.got - 2010.06.03 11:33:40.
