data_PCOD9005204
_publ_section_title
;
Structure prediction by ZEFSAII (Michael W. Deem and Ramdas Pophale) SiO2 
 PCOD9005204
Probable space group: P -1
;
_chemical_formula_sum "Si O2"
_cell_formula_units_Z 14
_cell_length_a 19.067411
_cell_length_b 5.824553
_cell_length_c 7.879182
_cell_angle_alpha 59.834527
_cell_angle_beta 120.946611
_cell_angle_gamma 125.257962
_cell_volume 585.802211
_symmetry_space_group_name_H-M "P -1"
_symmetry_group_IT_number 2
_symmetry_cell_setting 'triclinic'
loop_
_space_group_symop_operation_xyz
x,y,z
-x,-y,-z
loop_
_atom_site_type_symbol
_atom_site_label
_atom_site_fract_x
_atom_site_fract_y
_atom_site_fract_z
Si Si1 0.700632 0.383908 0.378030
Si Si2 0.750054 0.559670 0.749798
Si Si3 0.131447 0.614542 0.601415
Si Si4 0.304736 0.086882 0.022318
Si Si5 0.974020 0.255639 0.315390
Si Si6 0.594065 0.756443 0.575753
Si Si7 0.875139 0.944134 0.010570
O O1 0.750096 0.474117 0.587242
O O2 0.770172 0.313267 0.374525
O O3 0.681644 0.654938 0.188946
O O4 0.613098 0.076574 0.407204
O O5 0.671597 0.666188 0.636674
O O6 0.845577 0.819288 0.830697
O O7 0.720770 0.252319 0.932132
O O8 0.113853 0.805963 0.653245
O O9 0.106893 0.314786 0.785685
O O10 0.058420 0.545989 0.382913
O O11 0.218608 0.066961 0.031392
O O12 0.388357 0.196847 0.217525
O O13 0.948648 0.220796 0.099104
O O14 0.000000 0.000000 0.500000
O O15 0.500000 0.500000 0.500000
#
# Coordination Sequence:
#
# PCOD9005204 Si02
#       7
#     2   2   2   2   2   2   2
#     4  10  22  39  63  91 120 162 207 248 305 368
#     4  10  21  38  61  87 122 158 202 255 302 361
#     4   9  18  33  56  86 120 159 205 250 300 361
#     4   9  20  38  60  87 119 162 204 245 304 364
#     4   9  17  30  54  86 120 160 202 249 301 354
#     4  10  23  41  60  89 126 160 200 253 307 363
#     4   9  17  32  56  83 117 158 201 247 303 353
#
# _framework density 23.898848999999998
#
# number of rings (size 3 to 8) (size 9 to 14) (size 15 to 20)
#    0.000    2.571    0.000    0.857    0.000    9.714 
#    0.000    2.143    0.000   22.286    0.000   48.000 
#    0.000    0.000    0.000    0.000    0.000    0.000 
#
# Total GULP energy -78128.175874 kJ/mol
# GULP energy per Si atom -5580.583991 kJ/mol
# Density = 2.384445 g / cm^3
# Si number density = 23.898849 Si / 1000 Ang^3
#
#
#
# Elastic Constant Matrix: (Units=GPa)
#
#
# Indices 1 2 3 4 5 6 
#
# 1 28.7359 31.5098 22.8735 -6.7768 -2.1402 -11.5183
# 2 31.5098 178.0496 88.5126 -0.6994 -11.5647 11.2741
# 3 22.8735 88.5126 106.1137 -0.2020 0.6266 13.0643
# 4 -6.7768 -0.6994 -0.2020 45.7755 -1.0095 1.3365
# 5 -2.1402 -11.5647 0.6266 -1.0095 20.7226 2.3441
# 6 -11.5183 11.2741 13.0643 1.3365 2.3441 33.6662
#
#
#
# Elastic Compliance Matrix: (Units=1/GPa)
#
#
# Indices 1 2 3 4 5 6 
#
# 1 0.066358 -0.007996 -0.011237 0.008790 -0.000167 0.029404
# 2 -0.007996 0.011268 -0.007207 -0.000789 0.006106 -0.004106
# 3 -0.011237 -0.007207 0.018914 -0.001554 -0.004884 -0.008369
# 4 0.008790 -0.000789 -0.001554 0.023073 0.001314 0.002867
# 5 -0.000167 0.006106 -0.004884 0.001314 0.052300 -0.003900
# 6 0.029404 -0.004106 -0.008369 0.002867 -0.003900 0.044544
#
#
# Mechanical properties :
#
#
# Convention : Reuss Voigt Hill
#
# Bulk Modulus (GPa) = 22.90407 66.52124 44.71266
# Shear Modulus (GPa) = 17.61237 31.36640 24.48938
#
# Velocity S-wave (km/s) = 2.71764 3.62673 3.20458
# Velocity P-wave (km/s) = 4.41044 6.74036 5.69581
#
# Compressibility (1/GPa) = 0.04366035
#
# Stress axis : x y z
#
# Youngs Moduli (GPa) = 15.06971 88.74760 52.87011
#
# Poissons Ratio (x) = 0.70958 0.59410
# Poissons Ratio (y) = 0.12049 0.38106
# Poissons Ratio (z) = 0.16934 0.63965
#
# Static dielectric constant tensor:
#      x y z
#    x 1.924660 -0.041090 -0.039890 
#    y -0.041090 2.028660 0.014930 
#    z -0.039890 0.014930 1.965940 
# 
# From -- ./inp_files/350970.got.cif
#   From: 2010.05.17/outbox.cif.g08.bks.cpg/sg2_176_cif.got.tgz:350970.got - 2010.06.03 11:33:40.
