data_PCOD9005869
_publ_section_title
;
Structure prediction by ZEFSAII (Michael W. Deem and Ramdas Pophale) SiO2 
 PCOD9005869
Probable space group: P -1
;
_chemical_formula_sum "Si O2"
_cell_formula_units_Z 12
_cell_length_a 8.017815
_cell_length_b 13.056423
_cell_length_c 7.431232
_cell_angle_alpha 110.416507
_cell_angle_beta 125.074260
_cell_angle_gamma 48.563038
_cell_volume 476.670185
_symmetry_space_group_name_H-M "P -1"
_symmetry_group_IT_number 2
_symmetry_cell_setting 'triclinic'
loop_
_space_group_symop_operation_xyz
x,y,z
-x,-y,-z
loop_
_atom_site_type_symbol
_atom_site_label
_atom_site_fract_x
_atom_site_fract_y
_atom_site_fract_z
Si Si1 0.048183 0.223039 0.016011
Si Si2 0.677783 0.470863 0.420936
Si Si3 0.901703 0.514331 0.146225
Si Si4 0.428846 0.726201 0.170955
Si Si5 0.587212 0.109196 0.422957
Si Si6 0.072550 0.812335 0.487803
O O1 0.345043 0.131460 0.193481
O O2 0.938252 0.374106 0.111212
O O3 0.006013 0.219725 0.771993
O O4 0.875346 0.184280 0.974344
O O5 0.500000 0.500000 0.500000
O O6 0.510681 0.588868 0.245769
O O7 0.902080 0.483113 0.608882
O O8 0.816503 0.311599 0.382264
O O9 0.621374 0.655044 0.081920
O O10 0.000000 0.500000 0.000000
O O11 0.489771 0.809270 0.387081
O O12 0.710368 0.168600 0.417138
O O13 0.821836 0.951254 0.491497
#
# Coordination Sequence:
#
# PCOD9005869 Si02
#       6
#     2   2   2   2   2   2
#     4  11  20  38  65  94 129 168 215 259 325 380
#     4  12  20  40  64  99 129 163 214 265 321 382
#     4  12  23  40  65  94 130 167 217 278 321 373
#     4  11  24  40  65  97 130 166 219 268 320 381
#     4  10  21  39  64  94 133 177 209 261 320 384
#     4  10  21  38  63  97 134 172 215 256 318 394
#
# _framework density 25.17464
#
# number of rings (size 3 to 8) (size 9 to 14) (size 15 to 20)
#    0.000    1.000    6.667    1.500    0.000    0.000 
#    0.000    0.833    0.000    1.000    0.000    0.000 
#    0.000    0.000    0.000    0.000    0.000    0.000 
#
# Total GULP energy -67212.830824 kJ/mol
# GULP energy per Si atom -5601.069235 kJ/mol
# Density = 2.511734 g / cm^3
# Si number density = 25.174640 Si / 1000 Ang^3
#
#
#
# Elastic Constant Matrix: (Units=GPa)
#
#
# Indices 1 2 3 4 5 6 
#
# 1 90.6980 28.9656 57.7781 -0.7618 8.1027 -26.8845
# 2 28.9656 127.1702 28.5079 13.2619 -5.9142 -18.9486
# 3 57.7781 28.5079 103.5194 -19.9217 31.3298 -16.0636
# 4 -0.7618 13.2619 -19.9217 20.9784 -17.9002 3.3748
# 5 8.1027 -5.9142 31.3298 -17.9002 47.9703 4.3474
# 6 -26.8845 -18.9486 -16.0636 3.3748 4.3474 40.2816
#
#
#
# Elastic Compliance Matrix: (Units=1/GPa)
#
#
# Indices 1 2 3 4 5 6 
#
# 1 0.023249 0.001390 -0.014162 -0.017160 -0.002013 0.012178
# 2 0.001390 0.010855 -0.005267 -0.013448 -0.000943 0.005162
# 3 -0.014162 -0.005267 0.024410 0.021541 -0.005857 -0.003368
# 4 -0.017160 -0.013448 0.021541 0.102697 0.027374 -0.020747
# 5 -0.002013 -0.000943 -0.005857 0.027374 0.036044 -0.010306
# 6 0.012178 0.005162 -0.003368 -0.020747 -0.010306 0.036888
#
#
# Mechanical properties :
#
#
# Convention : Reuss Voigt Hill
#
# Bulk Modulus (GPa) = 44.57165 61.32121 52.94643
# Shear Modulus (GPa) = 18.00491 35.58846 26.79669
#
# Velocity S-wave (km/s) = 2.67722 3.76395 3.26610
# Velocity P-wave (km/s) = 5.22495 6.58035 5.94143
#
# Compressibility (1/GPa) = 0.02243579
#
# Stress axis : x y z
#
# Youngs Moduli (GPa) = 43.01223 92.12020 40.96635
#
# Poissons Ratio (x) = -0.12803 0.58018
# Poissons Ratio (y) = -0.05978 0.21576
# Poissons Ratio (z) = 0.60916 0.48518
#
# Static dielectric constant tensor:
#      x y z
#    x 2.035350 -0.014460 -0.040240 
#    y -0.014460 1.975780 0.002230 
#    z -0.040240 0.002230 1.975690 
# 
# From -- ./inp_files/191418.got.cif
#   From: 2010.05.17/outbox.cif.g08.bks.cpg/sg2_96_cif.got.tgz:191418.got - 2010.06.03 11:33:40.
