data_PCOD9005064
_publ_section_title
;
Structure prediction by ZEFSAII (Michael W. Deem and Ramdas Pophale) SiO2 
 PCOD9005064
Probable space group: P -1
;
_chemical_formula_sum "Si O2"
_cell_formula_units_Z 16
_cell_length_a 23.037105
_cell_length_b 7.464150
_cell_length_c 21.891480
_cell_angle_alpha 144.751044
_cell_angle_beta 20.139564
_cell_angle_gamma 137.831615
_cell_volume 741.798832
_symmetry_space_group_name_H-M "P -1"
_symmetry_group_IT_number 2
_symmetry_cell_setting 'triclinic'
loop_
_space_group_symop_operation_xyz
x,y,z
-x,-y,-z
loop_
_atom_site_type_symbol
_atom_site_label
_atom_site_fract_x
_atom_site_fract_y
_atom_site_fract_z
Si Si1 0.262994 0.773540 0.046757
Si Si2 0.457344 0.874750 0.074060
Si Si3 0.485546 0.747578 0.392474
Si Si4 0.870194 0.688113 0.862649
Si Si5 0.232780 0.462158 0.488026
Si Si6 0.380855 0.754063 0.300242
Si Si7 0.558343 0.158056 0.320147
Si Si8 0.017073 0.765373 0.606347
O O1 0.235484 0.583669 0.083775
O O2 0.090362 0.930384 0.231539
O O3 0.357116 0.524029 0.837411
O O4 0.391724 0.021951 0.004142
O O5 0.284017 0.086403 0.325421
O O6 0.481362 0.500364 0.939969
O O7 0.500000 0.000000 0.000000
O O8 0.319062 0.581128 0.496786
O O9 0.500000 0.000000 0.500000
O O10 0.505039 0.938885 0.365126
O O11 0.929669 0.669130 0.728805
O O12 0.039785 0.615985 0.715539
O O13 0.757059 0.024767 0.077334
O O14 0.320562 0.591884 0.376761
O O15 0.209950 0.808279 0.444602
O O16 0.461094 0.059066 0.328139
O O17 0.500000 0.500000 0.500000
O O18 0.000000 0.500000 0.500000
#
# Coordination Sequence:
#
# PCOD9005064 Si02
#       8
#     2   2   2   2   2   2   2   2
#     4  10  21  38  60  89 123 160 199 243 302 357
#     4   9  15  32  61  82 115 161 192 235 297 364
#     4   9  19  38  62  85 115 157 206 250 302 360
#     4  10  22  41  60  89 122 157 206 245 295 362
#     4   8  17  34  58  85 115 159 196 239 308 357
#     4   9  18  38  57  83 122 158 197 240 302 366
#     4  10  22  42  62  85 118 160 202 253 305 352
#     4  11  22  40  61  92 128 159 197 247 298 361
#
# _framework density 21.569191
#
# number of rings (size 3 to 8) (size 9 to 14) (size 15 to 20)
#    0.000    2.500    1.250    2.250    1.750    0.500 
#    6.750    3.750    0.000    0.000    0.000    0.000 
#    0.000    0.000    0.000    0.000    0.000    0.000 
#
# Total GULP energy -89270.628965 kJ/mol
# GULP energy per Si atom -5579.414310 kJ/mol
# Density = 2.152010 g / cm^3
# Si number density = 21.569191 Si / 1000 Ang^3
#
#
#
# Elastic Constant Matrix: (Units=GPa)
#
#
# Indices 1 2 3 4 5 6 
#
# 1 120.0482 39.6626 78.1490 17.8588 -4.9754 20.5240
# 2 39.6626 67.8693 69.9898 24.4810 0.1672 16.6155
# 3 78.1490 69.9898 184.4494 28.9971 -24.6418 44.5515
# 4 17.8588 24.4810 28.9971 30.2343 1.6347 12.8733
# 5 -4.9754 0.1672 -24.6418 1.6347 40.5607 -1.9533
# 6 20.5240 16.6155 44.5515 12.8733 -1.9533 48.5273
#
#
#
# Elastic Compliance Matrix: (Units=1/GPa)
#
#
# Indices 1 2 3 4 5 6 
#
# 1 0.011904 -0.002302 -0.004062 -0.001108 -0.000966 -0.000263
# 2 -0.002302 0.031115 -0.009980 -0.015373 -0.005694 0.003331
# 3 -0.004062 -0.009980 0.013640 0.000012 0.007488 -0.007089
# 4 -0.001108 -0.015373 0.000012 0.049493 -0.002422 -0.007505
# 5 -0.000966 -0.005694 0.007488 -0.002422 0.029076 -0.002704
# 6 -0.000263 0.003331 -0.007089 -0.007505 -0.002704 0.027968
#
#
# Mechanical properties :
#
#
# Convention : Reuss Voigt Hill
#
# Bulk Modulus (GPa) = 41.71391 83.10776 62.41084
# Shear Modulus (GPa) = 24.52500 36.16882 30.34691
#
# Velocity S-wave (km/s) = 3.37566 4.09941 3.75501
# Velocity P-wave (km/s) = 5.88005 7.81161 6.91362
#
# Compressibility (1/GPa) = 0.02397282
#
# Stress axis : x y z
#
# Youngs Moduli (GPa) = 84.00341 32.13911 73.31310
#
# Poissons Ratio (x) = 0.07398 0.29777
# Poissons Ratio (y) = 0.19336 0.73164
# Poissons Ratio (z) = 0.34119 0.32074
#
# Static dielectric constant tensor:
#      x y z
#    x 1.821980 0.004430 0.007000 
#    y 0.004430 1.960600 0.013690 
#    z 0.007000 0.013690 1.829000 
# 
# From -- ./inp_files/328658.got.cif
#   From: 2010.05.17/outbox.cif.g08.bks.cpg/sg2_165_cif.got.tgz:328658.got - 2010.06.03 11:33:40.
