data_PCOD9005623
_publ_section_title
;
Structure prediction by ZEFSAII (Michael W. Deem and Ramdas Pophale) SiO2 
 PCOD9005623
Probable space group: P -1
;
_chemical_formula_sum "Si O2"
_cell_formula_units_Z 14
_cell_length_a 9.869220
_cell_length_b 23.730595
_cell_length_c 7.787010
_cell_angle_alpha 46.340561
_cell_angle_beta 126.730377
_cell_angle_gamma 154.156462
_cell_volume 573.575076
_symmetry_space_group_name_H-M "P -1"
_symmetry_group_IT_number 2
_symmetry_cell_setting 'triclinic'
loop_
_space_group_symop_operation_xyz
x,y,z
-x,-y,-z
loop_
_atom_site_type_symbol
_atom_site_label
_atom_site_fract_x
_atom_site_fract_y
_atom_site_fract_z
Si Si1 0.981098 0.829097 0.621946
Si Si2 0.193609 0.066054 0.178139
Si Si3 0.850140 0.656171 0.382002
Si Si4 0.660238 0.337462 0.534707
Si Si5 0.222768 0.655942 0.786118
Si Si6 0.211335 0.780285 0.051308
Si Si7 0.127110 0.921211 0.935449
O O1 0.632590 0.719054 0.533966
O O2 0.213723 0.981518 0.395893
O O3 0.078510 0.776910 0.796930
O O4 0.030999 0.863855 0.789860
O O5 0.512175 0.232505 0.106590
O O6 0.976796 0.029636 0.223683
O O7 0.000000 0.000000 0.000000
O O8 0.500000 0.500000 0.500000
O O9 0.060857 0.677051 0.601785
O O10 0.938624 0.669771 0.221521
O O11 0.948424 0.785499 0.198655
O O12 0.652040 0.315724 0.369837
O O13 0.658597 0.255064 0.807104
O O14 0.000000 0.500000 0.500000
O O15 0.000000 0.500000 0.000000
O O16 0.510635 0.938486 0.031458
#
# Coordination Sequence:
#
# PCOD9005623 Si02
#       7
#     2   2   2   2   2   2   2
#     4  11  21  42  70  93 131 172 224 275 332 389
#     4  12  25  41  68 101 132 175 224 279 335 398
#     4  10  21  38  63 100 133 172 221 276 336 400
#     4  11  24  42  68  98 129 175 226 274 327 401
#     4  11  24  42  65  95 136 176 215 273 347 391
#     4  10  22  40  69 100 127 174 229 274 327 405
#     4  11  20  42  72  95 129 174 227 275 332 402
#
# _framework density 24.408313
#
# number of rings (size 3 to 8) (size 9 to 14) (size 15 to 20)
#    0.000    1.143    2.857    5.571    4.000    0.571 
#    0.000    4.286    0.000    0.000    0.000    0.000 
#    0.000    0.000    0.000    0.000    0.000    0.000 
#
# Total GULP energy -78231.030124 kJ/mol
# GULP energy per Si atom -5587.930723 kJ/mol
# Density = 2.435276 g / cm^3
# Si number density = 24.408313 Si / 1000 Ang^3
#
#
#
# Elastic Constant Matrix: (Units=GPa)
#
#
# Indices 1 2 3 4 5 6 
#
# 1 44.8379 21.2771 25.9362 11.2494 -5.7567 2.8594
# 2 21.2771 195.3933 60.0318 -0.2624 5.8612 0.6960
# 3 25.9362 60.0318 160.5208 -2.3653 34.8737 -7.6305
# 4 11.2494 -0.2624 -2.3653 41.3469 4.7458 1.7756
# 5 -5.7567 5.8612 34.8737 4.7458 37.7870 3.1225
# 6 2.8594 0.6960 -7.6305 1.7756 3.1225 35.0018
#
#
#
# Elastic Compliance Matrix: (Units=1/GPa)
#
#
# Indices 1 2 3 4 5 6 
#
# 1 0.032781 -0.001436 -0.008371 -0.010874 0.014741 -0.005238
# 2 -0.001436 0.005928 -0.002209 0.000221 0.000920 -0.000575
# 3 -0.008371 -0.002209 0.011322 0.004141 -0.012239 0.004078
# 4 -0.010874 0.000221 0.004141 0.028385 -0.009174 0.001165
# 5 0.014741 0.000920 -0.012239 -0.009174 0.041605 -0.007137
# 6 -0.005238 -0.000575 0.004078 0.001165 -0.007137 0.030476
#
#
# Mechanical properties :
#
#
# Convention : Reuss Voigt Hill
#
# Bulk Modulus (GPa) = 38.46329 68.36025 53.41177
# Shear Modulus (GPa) = 27.29326 42.39427 34.84377
#
# Velocity S-wave (km/s) = 3.34757 4.17211 3.78237
# Velocity P-wave (km/s) = 5.54384 7.16075 6.40354
#
# Compressibility (1/GPa) = 0.02599882
#
# Stress axis : x y z
#
# Youngs Moduli (GPa) = 30.50532 168.70216 88.32158
#
# Poissons Ratio (x) = 0.24222 0.73938
# Poissons Ratio (y) = 0.04380 0.19509
# Poissons Ratio (z) = 0.25538 0.37263
#
# Static dielectric constant tensor:
#      x y z
#    x 2.102160 0.077910 0.079420 
#    y 0.077910 1.959870 -0.033890 
#    z 0.079420 -0.033890 2.039600 
# 
# From -- ./inp_files/286050.got.cif
#   From: 2010.05.17/outbox.cif.g08.bks.cpg/sg2_144_cif.got.tgz:286050.got - 2010.06.03 11:33:40.
