data_PCOD9005907
_publ_section_title
;
Structure prediction by ZEFSAII (Michael W. Deem and Ramdas Pophale) SiO2 
 PCOD9005907
Probable space group: P -1
;
_chemical_formula_sum "Si O2"
_cell_formula_units_Z 16
_cell_length_a 5.345039
_cell_length_b 22.764647
_cell_length_c 6.927644
_cell_angle_alpha 111.649811
_cell_angle_beta 70.254360
_cell_angle_gamma 83.523787
_cell_volume 709.729911
_symmetry_space_group_name_H-M "P -1"
_symmetry_group_IT_number 2
_symmetry_cell_setting 'triclinic'
loop_
_space_group_symop_operation_xyz
x,y,z
-x,-y,-z
loop_
_atom_site_type_symbol
_atom_site_label
_atom_site_fract_x
_atom_site_fract_y
_atom_site_fract_z
Si Si1 0.142233 0.243754 0.407712
Si Si2 0.123315 0.566218 0.271935
Si Si3 0.281382 0.418040 0.964057
Si Si4 0.105015 0.876454 0.035255
Si Si5 0.760986 0.962694 0.514992
Si Si6 0.670520 0.907669 0.867692
Si Si7 0.311229 0.336923 0.228097
Si Si8 0.645475 0.271574 0.372582
O O1 0.241140 0.266931 0.200313
O O2 0.343349 0.269904 0.521116
O O3 0.823762 0.277970 0.517348
O O4 0.200535 0.167429 0.326701
O O5 0.426473 0.578088 0.197437
O O6 0.946496 0.584049 0.140757
O O7 0.933730 0.609256 0.537366
O O8 0.169963 0.488177 0.187224
O O9 0.333357 0.360692 0.038370
O O10 0.918750 0.892247 0.293763
O O11 0.893387 0.916006 0.975876
O O12 0.373385 0.903688 0.016758
O O13 0.212513 0.800699 0.845734
O O14 0.500000 0.000000 0.500000
O O15 0.654924 0.953424 0.743960
O O16 0.000000 0.000000 0.500000
O O17 0.582939 0.324617 0.281037
#
# Coordination Sequence:
#
# PCOD9005907 Si02
#       8
#     2   2   2   2   2   2   2   2
#     4   8  18  34  57  86 113 147 194 229 286 354
#     4  10  23  39  57  87 119 154 199 240 290 348
#     4  10  23  39  57  87 119 154 199 240 290 348
#     4  10  21  42  62  84 122 155 185 244 293 338
#     4  12  26  40  62  94 114 152 207 232 281 362
#     4  10  21  42  62  84 122 155 185 244 293 338
#     4  10  21  38  64  84 120 152 196 244 292 338
#     4   8  18  34  57  86 113 147 194 229 286 354
#
# _framework density 22.543785
#
# number of rings (size 3 to 8) (size 9 to 14) (size 15 to 20)
#    0.750    1.500    0.000    1.875    3.500    3.000 
#    2.250    3.750    0.000    0.000    0.000    0.000 
#    0.000    0.000    0.000    0.000    0.000    0.000 
#
# Total GULP energy -89175.425971 kJ/mol
# GULP energy per Si atom -5573.464123 kJ/mol
# Density = 2.249247 g / cm^3
# Si number density = 22.543785 Si / 1000 Ang^3
#
#
#
# Elastic Constant Matrix: (Units=GPa)
#
#
# Indices 1 2 3 4 5 6 
#
# 1 142.4066 12.7262 -5.4907 -4.9576 -24.7528 -35.6937
# 2 12.7262 94.1819 17.9966 -1.3409 -5.0368 -12.3065
# 3 -5.4907 17.9966 91.4584 14.5344 -14.8692 -6.8712
# 4 -4.9576 -1.3409 14.5344 34.1772 -0.8357 1.5692
# 5 -24.7528 -5.0368 -14.8692 -0.8357 19.0778 6.5730
# 6 -35.6937 -12.3065 -6.8712 1.5692 6.5730 31.1461
#
#
#
# Elastic Compliance Matrix: (Units=1/GPa)
#
#
# Indices 1 2 3 4 5 6 
#
# 1 0.013162 -0.000112 0.004407 -0.000154 0.016130 0.012616
# 2 -0.000112 0.011576 -0.002195 0.001189 -0.000099 0.003923
# 3 0.004407 -0.002195 0.015390 -0.005832 0.015276 0.004648
# 4 -0.000154 0.001189 -0.005832 0.031804 -0.002312 -0.002108
# 5 0.016130 -0.000099 0.015276 -0.002312 0.083649 0.004279
# 6 0.012616 0.003923 0.004648 -0.002108 0.004279 0.048344
#
#
# Mechanical properties :
#
#
# Convention : Reuss Voigt Hill
#
# Bulk Modulus (GPa) = 22.55842 42.05679 32.30760
# Shear Modulus (GPa) = 23.30986 37.06786 30.18886
#
# Velocity S-wave (km/s) = 3.21905 4.05935 3.66337
# Velocity P-wave (km/s) = 4.88309 6.37708 5.67943
#
# Compressibility (1/GPa) = 0.04432935
#
# Stress axis : x y z
#
# Youngs Moduli (GPa) = 75.97350 86.38198 64.97745
#
# Poissons Ratio (x) = 0.00965 -0.28635
# Poissons Ratio (y) = 0.00849 0.14262
# Poissons Ratio (z) = -0.33480 0.18960
#
# Static dielectric constant tensor:
#      x y z
#    x 1.941570 0.010680 0.036930 
#    y 0.010680 1.834380 0.055860 
#    z 0.036930 0.055860 1.835740 
# 
# From -- ./inp_files/142035.got.cif
#   From: 2010.05.17/outbox.cif.g08.bks.cpg/sg2_72_cif.got.tgz:142035.got - 2010.06.03 11:33:40.
