data_PCOD9005274
_publ_section_title
;
Structure prediction by ZEFSAII (Michael W. Deem and Ramdas Pophale) SiO2 
 PCOD9005274
Probable space group: P -1
;
_chemical_formula_sum "Si O2"
_cell_formula_units_Z 16
_cell_length_a 7.427942
_cell_length_b 11.644918
_cell_length_c 9.417793
_cell_angle_alpha 128.916494
_cell_angle_beta 91.536990
_cell_angle_gamma 81.630053
_cell_volume 624.859381
_symmetry_space_group_name_H-M "P -1"
_symmetry_group_IT_number 2
_symmetry_cell_setting 'triclinic'
loop_
_space_group_symop_operation_xyz
x,y,z
-x,-y,-z
loop_
_atom_site_type_symbol
_atom_site_label
_atom_site_fract_x
_atom_site_fract_y
_atom_site_fract_z
Si Si1 0.247702 0.631699 0.325182
Si Si2 0.329543 0.936533 0.593251
Si Si3 0.866455 0.326193 0.960275
Si Si4 0.827940 0.865522 0.024161
Si Si5 0.720835 0.020452 0.683055
Si Si6 0.769279 0.456588 0.344034
Si Si7 0.586065 0.661536 0.729580
Si Si8 0.025610 0.226667 0.325698
O O1 0.377355 0.759244 0.428933
O O2 0.167486 0.618355 0.157092
O O3 0.345386 0.475994 0.269359
O O4 0.091990 0.706862 0.487605
O O5 0.506600 0.013709 0.672342
O O6 0.221934 0.996451 0.495157
O O7 0.217455 0.981766 0.769884
O O8 0.764592 0.180574 0.858502
O O9 0.787607 0.451352 0.171279
O O10 0.072569 0.256503 0.955460
O O11 0.651967 0.806925 0.906715
O O12 0.959935 0.865863 0.894655
O O13 0.818366 0.885671 0.674506
O O14 0.686587 0.609551 0.541689
O O15 0.627244 0.343489 0.295103
O O16 0.962406 0.379331 0.347930
#
# Coordination Sequence:
#
# PCOD9005274 Si02
#       8
#     2   2   2   2   2   2   2   2
#     4  10  22  40  62  88 120 160 200 243 298 355
#     4  10  22  40  63  91 121 154 198 248 297 354
#     4  10  21  38  61  90 122 156 198 247 297 354
#     4  11  23  38  61  89 122 160 199 245 295 353
#     4  10  21  39  62  90 123 155 195 248 301 354
#     4   9  21  39  58  81 119 156 196 244 293 348
#     4  10  22  41  61  86 122 159 198 247 298 351
#     4  10  22  36  58  86 119 156 196 239 295 350
#
# _framework density 25.605761999999999
#
# number of rings (size 3 to 8) (size 9 to 14) (size 15 to 20)
#    0.000    2.000    0.000    2.250    0.000   16.500 
#    0.000    1.250    0.000    0.000    0.000    0.000 
#    0.000    0.000    0.000    0.000    0.000    0.000 
#
# Total GULP energy -89254.420320 kJ/mol
# GULP energy per Si atom -5578.401270 kJ/mol
# Density = 2.554748 g / cm^3
# Si number density = 25.605762 Si / 1000 Ang^3
#
#
#
# Elastic Constant Matrix: (Units=GPa)
#
#
# Indices 1 2 3 4 5 6 
#
# 1 39.1557 -1.7411 20.0553 -1.8247 7.8714 -2.9593
# 2 -1.7411 109.0577 55.5303 -17.3915 10.8023 -10.2001
# 3 20.0553 55.5303 176.5522 -29.3609 9.2555 3.1922
# 4 -1.8247 -17.3915 -29.3609 43.2308 6.9460 4.0811
# 5 7.8714 10.8023 9.2555 6.9460 33.2547 -4.4154
# 6 -2.9593 -10.2001 3.1922 4.0811 -4.4154 24.7721
#
#
#
# Elastic Compliance Matrix: (Units=1/GPa)
#
#
# Indices 1 2 3 4 5 6 
#
# 1 0.029519 0.003743 -0.004169 0.000569 -0.006586 0.004337
# 2 0.003743 0.012419 -0.003766 0.002742 -0.003792 0.004919
# 3 -0.004169 -0.003766 0.008236 0.004548 -0.001582 -0.004141
# 4 0.000569 0.002742 0.004548 0.029381 -0.009207 -0.005871
# 5 -0.006586 -0.003792 -0.001582 -0.009207 0.035993 0.005788
# 6 0.004337 0.004919 -0.004141 -0.005871 0.005788 0.045444
#
#
# Mechanical properties :
#
#
# Convention : Reuss Voigt Hill
#
# Bulk Modulus (GPa) = 23.92863 52.49494 38.21179
# Shear Modulus (GPa) = 27.27665 36.97961 32.12813
#
# Velocity S-wave (km/s) = 3.26736 3.80437 3.54605
# Velocity P-wave (km/s) = 4.85793 6.31216 5.63218
#
# Compressibility (1/GPa) = 0.04179095
#
# Stress axis : x y z
#
# Youngs Moduli (GPa) = 33.87645 80.51913 121.41599
#
# Poissons Ratio (x) = -0.30136 0.50618
# Poissons Ratio (y) = -0.12679 0.45720
# Poissons Ratio (z) = 0.14123 0.30320
#
# Static dielectric constant tensor:
#      x y z
#    x 2.285670 0.171590 0.013060 
#    y 0.171590 2.019270 0.007190 
#    z 0.013060 0.007190 2.008600 
# 
# From -- ./inp_files/190776.got.cif
#   From: 2010.05.17/outbox.cif.g08.bks.cpg/sg2_96_cif.got.tgz:190776.got - 2010.06.03 11:33:40.
