data_PCOD9005722
_publ_section_title
;
Structure prediction by ZEFSAII (Michael W. Deem and Ramdas Pophale) SiO2 
 PCOD9005722
Probable space group: P -1
;
_chemical_formula_sum "Si O2"
_cell_formula_units_Z 16
_cell_length_a 11.415226
_cell_length_b 22.909335
_cell_length_c 17.522304
_cell_angle_alpha 159.367709
_cell_angle_beta 150.588989
_cell_angle_gamma 36.993210
_cell_volume 789.291464
_symmetry_space_group_name_H-M "P -1"
_symmetry_group_IT_number 2
_symmetry_cell_setting 'triclinic'
loop_
_space_group_symop_operation_xyz
x,y,z
-x,-y,-z
loop_
_atom_site_type_symbol
_atom_site_label
_atom_site_fract_x
_atom_site_fract_y
_atom_site_fract_z
Si Si1 0.392101 0.313804 0.273237
Si Si2 0.357941 0.305376 0.926401
Si Si3 0.551356 0.311874 0.203544
Si Si4 0.760442 0.577141 0.426369
Si Si5 0.077323 0.751459 0.500457
Si Si6 0.138886 0.140920 0.057761
Si Si7 0.921429 0.733293 0.550251
Si Si8 0.644801 0.034352 0.702542
O O1 0.397560 0.240867 0.101569
O O2 0.344152 0.505380 0.484242
O O3 0.666965 0.305682 0.444765
O O4 0.215230 0.219043 0.116006
O O5 0.472509 0.130570 0.773491
O O6 0.102971 0.275420 0.704735
O O7 0.383303 0.343781 0.076707
O O8 0.533502 0.444291 0.151740
O O9 0.793436 0.223972 0.214536
O O10 0.720932 0.746310 0.659275
O O11 0.809882 0.623248 0.422139
O O12 0.000000 0.500000 0.500000
O O13 0.944095 0.664205 0.392132
O O14 0.137737 0.942641 0.799016
O O15 0.870048 0.155148 0.949817
O O16 0.758812 0.885729 0.629636
O O17 0.500000 0.000000 0.500000
#
# Coordination Sequence:
#
# PCOD9005722 Si02
#       8
#     2   2   2   2   2   2   2   2
#     4  10  21  41  63  89 119 173 220 259 302 374
#     4  12  22  41  63  98 130 167 203 270 324 366
#     4  10  21  38  63  91 125 162 220 264 305 371
#     4  12  22  36  64  97 129 160 215 265 304 383
#     4  10  24  39  64  87 130 170 207 257 325 370
#     4  11  20  39  64  90 123 168 214 253 310 378
#     4  10  21  40  62  97 122 174 205 253 317 390
#     4  11  22  40  65  95 133 164 195 262 328 381
#
# _framework density 20.271346000000001
#
# number of rings (size 3 to 8) (size 9 to 14) (size 15 to 20)
#    0.000    1.250    6.250    0.375    0.000    6.500 
#    0.000    0.625    0.000    0.000    0.000    0.000 
#    0.000    0.000    0.000    0.000    0.000    0.000 
#
# Total GULP energy -89068.857417 kJ/mol
# GULP energy per Si atom -5566.803589 kJ/mol
# Density = 2.022521 g / cm^3
# Si number density = 20.271346 Si / 1000 Ang^3
#
#
#
# Elastic Constant Matrix: (Units=GPa)
#
#
# Indices 1 2 3 4 5 6 
#
# 1 30.2203 24.2134 -36.2510 12.9050 0.6954 30.6467
# 2 24.2134 108.2983 35.8388 -7.4347 -1.1731 13.3741
# 3 -36.2510 35.8388 29.9939 7.9276 -13.7381 -0.6968
# 4 12.9050 -7.4347 7.9276 14.4674 4.3174 -7.6794
# 5 0.6954 -1.1731 -13.7381 4.3174 27.9448 3.7406
# 6 30.6467 13.3741 -0.6968 -7.6794 3.7406 34.3903
#
#
#
# Elastic Compliance Matrix: (Units=1/GPa)
#
#
# Indices 1 2 3 4 5 6 
#
# 1 0.000073 0.006105 -0.016229 0.016144 -0.010483 0.001977
# 2 0.006105 0.008911 -0.000514 -0.007042 0.002498 -0.010761
# 3 -0.016229 -0.000514 0.009352 0.019502 -0.000613 0.019274
# 4 0.016144 -0.007042 0.019502 0.037659 0.003503 -0.003225
# 5 -0.010483 0.002498 -0.000613 0.003503 0.034588 0.005378
# 6 0.001977 -0.010761 0.019274 -0.003225 0.005378 0.030586
#
#
# Mechanical properties :
#
#
# Convention : Reuss Voigt Hill
#
# Bulk Modulus (GPa) = -339.97447 24.01278 -157.98085
# Shear Modulus (GPa) = 35.34449 25.00793 30.17621
#
# Velocity S-wave (km/s) = 4.18014 3.51616 3.86244
# Velocity P-wave (km/s) = 12.03237 5.32502 7.62961
#
# Compressibility (1/GPa) = -0.00294140
#
# Stress axis : x y z
#
# Youngs Moduli (GPa) = 13771.70305 112.21565 106.93219
#
# Poissons Ratio (x) = -0.68508 1.73546
# Poissons Ratio (y) = -84.07702 0.05498
# Poissons Ratio (z) = 223.50782 0.05769
#
# Static dielectric constant tensor:
#      x y z
#    x 1.791810 0.032900 -0.005160 
#    y 0.032900 1.794910 0.037100 
#    z -0.005160 0.037100 1.832770 
# 
# From -- ./inp_files/571074.got.cif
#   From: 2010.05.17/outbox.cif.g08.bks.cpg/sg2_286_cif.got.tgz:571074.got - 2010.06.03 11:33:40.
