data_PCOD9005425
_publ_section_title
;
Structure prediction by ZEFSAII (Michael W. Deem and Ramdas Pophale) SiO2 
 PCOD9005425
Probable space group: P -1
;
_chemical_formula_sum "Si O2"
_cell_formula_units_Z 15
_cell_length_a 9.939650
_cell_length_b 7.339481
_cell_length_c 12.316769
_cell_angle_alpha 91.618316
_cell_angle_beta 46.515681
_cell_angle_gamma 84.200051
_cell_volume 642.624975
_symmetry_space_group_name_H-M "P -1"
_symmetry_group_IT_number 2
_symmetry_cell_setting 'triclinic'
loop_
_space_group_symop_operation_xyz
x,y,z
-x,-y,-z
loop_
_atom_site_type_symbol
_atom_site_label
_atom_site_fract_x
_atom_site_fract_y
_atom_site_fract_z
Si Si1 0.577291 0.714845 0.526457
Si Si2 0.141327 0.428915 0.075951
Si Si3 0.794292 0.321130 0.349103
Si Si4 0.409848 0.202008 0.093318
Si Si5 0.045788 0.101079 0.368275
Si Si6 0.000000 0.000000 0.000000
Si Si7 0.345961 0.684395 0.860494
Si Si8 0.064761 0.173043 0.740400
O O1 0.686238 0.529116 0.406537
O O2 0.377739 0.785504 0.581103
O O3 0.509468 0.661895 0.680940
O O4 0.739159 0.837346 0.432705
O O5 0.306629 0.315200 0.052263
O O6 0.973203 0.303805 0.164724
O O7 0.045211 0.616889 0.192220
O O8 0.231234 0.511326 0.922779
O O9 0.887836 0.264880 0.412023
O O10 0.240478 0.175829 0.268143
O O11 0.559143 0.299993 0.075214
O O12 0.500000 0.000000 0.000000
O O13 0.000000 0.000000 0.500000
O O14 0.055021 0.954663 0.261912
O O15 0.907094 0.899922 0.153804
O O16 0.794423 0.126049 0.082549
#
# Coordination Sequence:
#
# PCOD9005425 Si02
#       8
#     2   2   2   2   2   1   2   2
#     4  10  21  38  62  88 116 153 202 248 291 356
#     4   9  21  40  60  82 119 160 195 243 299 355
#     4   9  21  40  57  84 121 154 193 247 300 347
#     4  11  23  39  59  86 120 155 202 250 290 352
#     4  11  23  38  58  87 123 157 192 247 304 349
#     4  10  22  38  60  86 116 154 196 244 292 346
#     4  11  22  38  62  89 115 159 203 241 298 356
#     4  10  21  41  63  87 121 160 199 242 299 358
#
# _framework density 23.341761999999999
#
# number of rings (size 3 to 8) (size 9 to 14) (size 15 to 20)
#    0.000    1.867    0.000    3.600    0.000    6.933 
#    0.000   13.333    0.000    0.000    0.000    0.000 
#    0.000    0.000    0.000    0.000    0.000    0.000 
#
# Total GULP energy -83522.811085 kJ/mol
# GULP energy per Si atom -5568.187406 kJ/mol
# Density = 2.328864 g / cm^3
# Si number density = 23.341762 Si / 1000 Ang^3
#
#
#
# Elastic Constant Matrix: (Units=GPa)
#
#
# Indices 1 2 3 4 5 6 
#
# 1 96.6801 24.0069 28.6332 -3.9533 -20.4674 -26.6758
# 2 24.0069 96.1391 6.8060 -10.6238 -4.1515 -32.2562
# 3 28.6332 6.8060 139.1416 -21.6310 -18.5374 -20.0335
# 4 -3.9533 -10.6238 -21.6310 32.7547 -6.7829 2.9766
# 5 -20.4674 -4.1515 -18.5374 -6.7829 36.3758 -8.2697
# 6 -26.6758 -32.2562 -20.0335 2.9766 -8.2697 40.9014
#
#
#
# Elastic Compliance Matrix: (Units=1/GPa)
#
#
# Indices 1 2 3 4 5 6 
#
# 1 0.017576 0.002626 0.001814 0.005947 0.016145 0.017254
# 2 0.002626 0.017564 0.004523 0.009720 0.012034 0.019505
# 3 0.001814 0.004523 0.011656 0.010818 0.012257 0.012151
# 4 0.005947 0.009720 0.010818 0.044534 0.022394 0.018129
# 5 0.016145 0.012034 0.012257 0.022394 0.056514 0.035820
# 6 0.017254 0.019505 0.012151 0.018129 0.035820 0.062959
#
#
# Mechanical properties :
#
#
# Convention : Reuss Voigt Hill
#
# Bulk Modulus (GPa) = 15.45048 50.09479 32.77263
# Shear Modulus (GPa) = 23.31546 40.17402 31.74474
#
# Velocity S-wave (km/s) = 3.16392 4.15314 3.69182
# Velocity P-wave (km/s) = 4.46999 6.67129 5.67834
#
# Compressibility (1/GPa) = 0.06472292
#
# Stress axis : x y z
#
# Youngs Moduli (GPa) = 56.89657 56.93561 85.78950
#
# Poissons Ratio (x) = -0.14951 -0.15565
# Poissons Ratio (y) = -0.14941 -0.38804
# Poissons Ratio (z) = -0.10323 -0.25753
#
# Static dielectric constant tensor:
#      x y z
#    x 1.893470 0.048930 -0.019600 
#    y 0.048930 1.890160 -0.049200 
#    z -0.019600 -0.049200 1.892910 
# 
# From -- ./inp_files/207808.got.cif
#   From: 2010.05.17/outbox.cif.g08.bks.cpg/sg2_104_cif.got.tgz:207808.got - 2010.06.03 11:33:40.
