data_PCOD9005146
_publ_section_title
;
Structure prediction by ZEFSAII (Michael W. Deem and Ramdas Pophale) SiO2 
 PCOD9005146
Probable space group: P -1
;
_chemical_formula_sum "Si O2"
_cell_formula_units_Z 16
_cell_length_a 16.264559
_cell_length_b 17.108870
_cell_length_c 7.071949
_cell_angle_alpha 68.095660
_cell_angle_beta 137.990583
_cell_angle_gamma 139.493346
_cell_volume 767.592099
_symmetry_space_group_name_H-M "P -1"
_symmetry_group_IT_number 2
_symmetry_cell_setting 'triclinic'
loop_
_space_group_symop_operation_xyz
x,y,z
-x,-y,-z
loop_
_atom_site_type_symbol
_atom_site_label
_atom_site_fract_x
_atom_site_fract_y
_atom_site_fract_z
Si Si1 0.922752 0.673887 0.654288
Si Si2 0.626793 0.704888 0.534205
Si Si3 0.402730 0.376022 0.819333
Si Si4 0.043704 0.217254 0.767966
Si Si5 0.401647 0.640938 0.562692
Si Si6 0.751872 0.126597 0.670588
Si Si7 0.495233 0.136312 0.288120
Si Si8 0.857587 0.963883 0.448278
O O1 0.809393 0.697650 0.512611
O O2 0.941726 0.703077 0.438653
O O3 0.787241 0.520079 0.596566
O O4 0.122052 0.778249 0.016239
O O5 0.511456 0.599501 0.260061
O O6 0.487371 0.678466 0.465358
O O7 0.773535 0.846994 0.549248
O O8 0.752102 0.702886 0.863729
O O9 0.500000 0.500000 0.000000
O O10 0.431829 0.310874 0.058849
O O11 0.896743 0.170300 0.719608
O O12 0.965962 0.092200 0.641975
O O13 0.379578 0.723239 0.526184
O O14 0.625750 0.140985 0.387377
O O15 0.609047 0.975804 0.628580
O O16 0.323870 0.086158 0.916827
O O17 0.000000 0.000000 0.500000
#
# Coordination Sequence:
#
# PCOD9005146 Si02
#       8
#     2   2   2   2   2   2   2   2
#     4  11  23  43  64  98 139 172 216 274 324 396
#     4  12  22  38  68 101 132 174 214 269 345 395
#     4  10  21  38  60  94 135 168 207 265 323 392
#     4  12  23  40  68  99 130 176 223 263 332 403
#     4  11  24  42  66  99 137 173 216 275 337 389
#     4  11  25  46  69  92 127 183 227 271 325 388
#     4  11  24  47  68  94 134 171 226 280 326 381
#     4  12  23  41  69 100 138 166 215 286 334 389
#
# _framework density 20.844404000000001
#
# number of rings (size 3 to 8) (size 9 to 14) (size 15 to 20)
#    0.000    0.750    5.000    3.375    0.000    5.000 
#    2.250    0.625    0.000    0.000    0.000    0.000 
#    0.000    0.000    0.000    0.000    0.000    0.000 
#
# Total GULP energy -89438.663887 kJ/mol
# GULP energy per Si atom -5589.916493 kJ/mol
# Density = 2.079696 g / cm^3
# Si number density = 20.844404 Si / 1000 Ang^3
#
#
#
# Elastic Constant Matrix: (Units=GPa)
#
#
# Indices 1 2 3 4 5 6 
#
# 1 91.9875 36.2598 20.8790 -9.7350 -16.3776 -5.2336
# 2 36.2598 138.8221 14.2947 -3.6663 -13.0145 -7.1742
# 3 20.8790 14.2947 73.4977 -4.9808 -8.0187 -8.3203
# 4 -9.7350 -3.6663 -4.9808 21.7974 -1.0994 -5.6943
# 5 -16.3776 -13.0145 -8.0187 -1.0994 40.1185 -3.4302
# 6 -5.2336 -7.1742 -8.3203 -5.6943 -3.4302 29.1313
#
#
#
# Elastic Compliance Matrix: (Units=1/GPa)
#
#
# Indices 1 2 3 4 5 6 
#
# 1 0.014154 -0.002682 -0.002177 0.006429 0.004914 0.003096
# 2 -0.002682 0.008208 -0.000415 0.000625 0.001650 0.001737
# 3 -0.002177 -0.000415 0.015417 0.003912 0.002591 0.004980
# 4 0.006429 0.000625 0.003912 0.053627 0.006245 0.013644
# 5 0.004914 0.001650 0.002591 0.006245 0.028724 0.006632
# 6 0.003096 0.001737 0.004980 0.013644 0.006632 0.040182
#
#
# Mechanical properties :
#
#
# Convention : Reuss Voigt Hill
#
# Bulk Modulus (GPa) = 36.72524 49.68605 43.20565
# Shear Modulus (GPa) = 27.78775 33.73436 30.76106
#
# Velocity S-wave (km/s) = 3.65513 4.02729 3.84571
# Velocity P-wave (km/s) = 5.95570 6.74639 6.36333
#
# Compressibility (1/GPa) = 0.02722923
#
# Stress axis : x y z
#
# Youngs Moduli (GPa) = 70.65216 121.83483 64.86539
#
# Poissons Ratio (x) = 0.32680 0.14120
# Poissons Ratio (y) = 0.18951 0.02694
# Poissons Ratio (z) = 0.15380 0.05060
#
# Static dielectric constant tensor:
#      x y z
#    x 1.737610 -0.004010 -0.002130 
#    y -0.004010 1.794240 0.016930 
#    z -0.002130 0.016930 1.759130 
# 
# From -- ./inp_files/99646.got.cif
#   From: 2010.05.17/outbox.cif.g08.bks.cpg/sg2_50_cif.got.tgz:99646.got - 2010.06.03 11:33:40.
