data_PCOD9005300
_publ_section_title
;
Structure prediction by ZEFSAII (Michael W. Deem and Ramdas Pophale) SiO2 
 PCOD9005300
Probable space group: P -1
;
_chemical_formula_sum "Si O2"
_cell_formula_units_Z 16
_cell_length_a 13.237374
_cell_length_b 6.052761
_cell_length_c 8.973515
_cell_angle_alpha 98.521426
_cell_angle_beta 71.121070
_cell_angle_gamma 101.562008
_cell_volume 663.801289
_symmetry_space_group_name_H-M "P -1"
_symmetry_group_IT_number 2
_symmetry_cell_setting 'triclinic'
loop_
_space_group_symop_operation_xyz
x,y,z
-x,-y,-z
loop_
_atom_site_type_symbol
_atom_site_label
_atom_site_fract_x
_atom_site_fract_y
_atom_site_fract_z
Si Si1 0.347326 0.930069 0.933342
Si Si2 0.004102 0.832012 0.845420
Si Si3 0.507790 0.828040 0.616149
Si Si4 0.715861 0.264704 0.748512
Si Si5 0.830748 0.445384 0.186357
Si Si6 0.056591 0.783271 0.502662
Si Si7 0.776911 0.698515 0.960749
Si Si8 0.664345 0.505273 0.504996
O O1 0.458362 0.904574 0.799636
O O2 0.248824 0.766204 0.876393
O O3 0.339002 0.900606 0.112320
O O4 0.319991 0.175135 0.941451
O O5 0.883612 0.817062 0.835966
O O6 0.049962 0.611385 0.858403
O O7 0.082154 0.867392 0.669089
O O8 0.000000 0.000000 0.000000
O O9 0.622689 0.743573 0.576019
O O10 0.418930 0.612809 0.590785
O O11 0.500000 0.000000 0.500000
O O12 0.832648 0.211379 0.639920
O O13 0.733669 0.490769 0.859575
O O14 0.658761 0.338937 0.633779
O O15 0.780166 0.515837 0.372118
O O16 0.826114 0.637238 0.087166
O O17 0.000000 0.500000 0.500000
O O18 0.000000 0.000000 0.500000
#
# Coordination Sequence:
#
# PCOD9005300 Si02
#       8
#     2   2   2   2   2   2   2   2
#     4  10  22  41  62  93 128 171 219 286 346 418
#     4  12  23  40  64 100 134 185 240 289 349 414
#     4  10  22  43  70  94 125 163 223 292 360 424
#     4  11  24  42  64  95 137 183 226 280 356 432
#     4  10  21  38  61  91 125 168 224 275 342 404
#     4  12  27  47  69 102 153 199 243 300 359 427
#     4  11  22  38  62  90 135 173 227 280 341 413
#     4  10  22  43  64  94 127 166 221 281 356 426
#
# _framework density 24.103596
#
# number of rings (size 3 to 8) (size 9 to 14) (size 15 to 20)
#    0.000    1.250    3.750    1.875    1.750    3.500 
#    0.000    1.250    0.000    0.000    0.000    0.000 
#    0.000    0.000    0.000    0.000    0.000    0.000 
#
# Total GULP energy -89130.391575 kJ/mol
# GULP energy per Si atom -5570.649473 kJ/mol
# Density = 2.404874 g / cm^3
# Si number density = 24.103596 Si / 1000 Ang^3
#
#
#
# Elastic Constant Matrix: (Units=GPa)
#
#
# Indices 1 2 3 4 5 6 
#
# 1 50.7092 24.6426 15.1802 9.4997 -4.3497 -25.5138
# 2 24.6426 89.8344 49.1946 16.8205 -12.7643 -41.6877
# 3 15.1802 49.1946 156.1865 -3.2854 -18.7251 -38.9549
# 4 9.4997 16.8205 -3.2854 36.6637 -12.9137 -4.7024
# 5 -4.3497 -12.7643 -18.7251 -12.9137 38.0137 9.4887
# 6 -25.5138 -41.6877 -38.9549 -4.7024 9.4887 49.5083
#
#
#
# Elastic Compliance Matrix: (Units=1/GPa)
#
#
# Indices 1 2 3 4 5 6 
#
# 1 0.027894 -0.000624 0.000643 -0.005847 -0.002239 0.014229
# 2 -0.000624 0.021192 -0.003350 -0.008389 -0.001021 0.014286
# 3 0.000643 -0.003350 0.008981 0.004015 0.003675 0.004254
# 4 -0.005847 -0.008389 0.004015 0.036614 0.012381 -0.005813
# 5 -0.002239 -0.001021 0.003675 0.012381 0.032779 -0.004229
# 6 0.014229 0.014286 0.004254 -0.005813 -0.004229 0.043167
#
#
# Mechanical properties :
#
#
# Convention : Reuss Voigt Hill
#
# Bulk Modulus (GPa) = 19.45332 52.75167 36.10249
# Shear Modulus (GPa) = 25.71699 38.68465 32.20082
#
# Velocity S-wave (km/s) = 3.26994 4.01051 3.65901
# Velocity P-wave (km/s) = 4.72704 6.58623 5.73251
#
# Compressibility (1/GPa) = 0.05140511
#
# Stress axis : x y z
#
# Youngs Moduli (GPa) = 35.85052 47.18686 111.34048
#
# Poissons Ratio (x) = 0.02944 -0.07158
# Poissons Ratio (y) = 0.02237 0.37301
# Poissons Ratio (z) = -0.02305 0.15808
#
# Static dielectric constant tensor:
#      x y z
#    x 1.934520 0.045690 -0.004660 
#    y 0.045690 2.057330 -0.057800 
#    z -0.004660 -0.057800 1.932950 
# 
# From -- ./inp_files/38033.got.cif
#   From: 2010.05.17/outbox.cif.g08.bks.cpg/sg2_20_cif.got.tgz:38033.got - 2010.06.03 11:33:40.
