data_PCOD9005525
_publ_section_title
;
Structure prediction by ZEFSAII (Michael W. Deem and Ramdas Pophale) SiO2 
 PCOD9005525
Probable space group: P -1
;
_chemical_formula_sum "Si O2"
_cell_formula_units_Z 16
_cell_length_a 9.563887
_cell_length_b 11.838025
_cell_length_c 8.154601
_cell_angle_alpha 100.162496
_cell_angle_beta 88.224305
_cell_angle_gamma 58.457367
_cell_volume 766.081168
_symmetry_space_group_name_H-M "P -1"
_symmetry_group_IT_number 2
_symmetry_cell_setting 'triclinic'
loop_
_space_group_symop_operation_xyz
x,y,z
-x,-y,-z
loop_
_atom_site_type_symbol
_atom_site_label
_atom_site_fract_x
_atom_site_fract_y
_atom_site_fract_z
Si Si1 0.763047 0.761538 0.232566
Si Si2 0.077428 0.516723 0.667850
Si Si3 0.440683 0.462646 0.651070
Si Si4 0.952084 0.781564 0.937665
Si Si5 0.600516 0.183732 0.735425
Si Si6 0.122644 0.080442 0.537194
Si Si7 0.303070 0.707323 0.934032
Si Si8 0.075608 0.896961 0.726501
O O1 0.881556 0.600841 0.229643
O O2 0.572218 0.808785 0.242364
O O3 0.797181 0.836340 0.395038
O O4 0.816841 0.805114 0.078671
O O5 0.257610 0.494135 0.630498
O O6 0.000000 0.500000 0.500000
O O7 0.966961 0.668226 0.783506
O O8 0.500000 0.500000 0.500000
O O9 0.560145 0.306181 0.648061
O O10 0.429229 0.554608 0.829471
O O11 0.134122 0.716052 0.997818
O O12 0.943166 0.905619 0.868239
O O13 0.746556 0.046801 0.612181
O O14 0.642503 0.225647 0.916970
O O15 0.961326 0.161968 0.449120
O O16 0.076521 0.023978 0.684373
O O17 0.243850 0.796460 0.790993
#
# Coordination Sequence:
#
# PCOD9005525 Si02
#       8
#     2   2   2   2   2   2   2   2
#     4  11  24  39  60  91 131 165 198 253 317 373
#     4  10  21  38  62  92 125 158 205 256 309 369
#     4  10  21  38  62  92 125 158 205 256 309 369
#     4   9  21  40  63  91 120 154 216 256 303 360
#     4  11  24  39  60  91 131 165 198 253 317 373
#     4  11  23  40  64  90 126 164 212 252 304 370
#     4   9  21  40  63  91 120 154 216 256 303 360
#     4   9  22  39  66  90 116 157 220 256 298 347
#
# _framework density 20.885517
#
# number of rings (size 3 to 8) (size 9 to 14) (size 15 to 20)
#    0.750    1.250    0.000    2.625    3.500    4.000 
#    0.000    3.750    0.000    0.000    0.000    0.000 
#    0.000    0.000    0.000    0.000    0.000    0.000 
#
# Total GULP energy -89247.519722 kJ/mol
# GULP energy per Si atom -5577.969983 kJ/mol
# Density = 2.083798 g / cm^3
# Si number density = 20.885517 Si / 1000 Ang^3
#
#
#
# Elastic Constant Matrix: (Units=GPa)
#
#
# Indices 1 2 3 4 5 6 
#
# 1 86.2182 31.3884 57.1625 -3.5975 16.6117 20.3059
# 2 31.3884 63.2553 33.3451 -5.6106 -4.8194 12.7819
# 3 57.1625 33.3451 88.7568 4.3172 15.8973 8.0432
# 4 -3.5975 -5.6106 4.3172 41.2224 11.7395 -2.3923
# 5 16.6117 -4.8194 15.8973 11.7395 45.1178 -0.7515
# 6 20.3059 12.7819 8.0432 -2.3923 -0.7515 28.6267
#
#
#
# Elastic Compliance Matrix: (Units=1/GPa)
#
#
# Indices 1 2 3 4 5 6 
#
# 1 0.026397 -0.003412 -0.013540 0.004392 -0.006675 -0.013205
# 2 -0.003412 0.022880 -0.006986 0.001617 0.005648 -0.005550
# 3 -0.013540 -0.006986 0.022734 -0.003370 -0.002795 0.005981
# 4 0.004392 0.001617 -0.003370 0.027266 -0.007365 -0.000805
# 5 -0.006675 0.005648 -0.002795 -0.007365 0.028178 0.003123
# 6 -0.013205 -0.005550 0.005981 -0.000805 0.003123 0.045111
#
#
# Mechanical properties :
#
#
# Convention : Reuss Voigt Hill
#
# Bulk Modulus (GPa) = 41.43316 53.55803 47.49559
# Shear Modulus (GPa) = 21.88310 30.74899 26.31604
#
# Velocity S-wave (km/s) = 3.24043 3.84117 3.55352
# Velocity P-wave (km/s) = 5.82081 6.73588 6.29499
#
# Compressibility (1/GPa) = 0.02413526
#
# Stress axis : x y z
#
# Youngs Moduli (GPa) = 37.88297 43.70683 43.98660
#
# Poissons Ratio (x) = 0.14911 0.59559
# Poissons Ratio (y) = 0.12924 0.30729
# Poissons Ratio (z) = 0.51295 0.30533
#
# Static dielectric constant tensor:
#      x y z
#    x 1.723190 0.000760 0.004920 
#    y 0.000760 1.776390 0.000370 
#    z 0.004920 0.000370 1.760450 
# 
# From -- ./inp_files/189288.got.cif
#   From: 2010.05.17/outbox.cif.g08.bks.cpg/sg2_95_cif.got.tgz:189288.got - 2010.06.03 11:33:40.
