data_PCOD9005857
_publ_section_title
;
Structure prediction by ZEFSAII (Michael W. Deem and Ramdas Pophale) SiO2 
 PCOD9005857
Probable space group: P -1
;
_chemical_formula_sum "Si O2"
_cell_formula_units_Z 16
_cell_length_a 8.736908
_cell_length_b 10.452051
_cell_length_c 14.767762
_cell_angle_alpha 83.493524
_cell_angle_beta 148.287289
_cell_angle_gamma 88.404317
_cell_volume 684.105230
_symmetry_space_group_name_H-M "P -1"
_symmetry_group_IT_number 2
_symmetry_cell_setting 'triclinic'
loop_
_space_group_symop_operation_xyz
x,y,z
-x,-y,-z
loop_
_atom_site_type_symbol
_atom_site_label
_atom_site_fract_x
_atom_site_fract_y
_atom_site_fract_z
Si Si1 0.673194 0.492969 0.301190
Si Si2 0.361135 0.133882 0.977073
Si Si3 0.856987 0.939603 0.847651
Si Si4 0.841028 0.130487 0.360733
Si Si5 0.305551 0.723071 0.992861
Si Si6 0.524304 0.272883 0.343770
Si Si7 0.653942 0.201679 0.624634
Si Si8 0.971276 0.665420 0.670494
O O1 0.465884 0.635930 0.162290
O O2 0.476461 0.425678 0.277604
O O3 0.000000 0.500000 0.500000
O O4 0.777871 0.425908 0.259735
O O5 0.450672 0.252258 0.957255
O O6 0.009468 0.184500 0.815346
O O7 0.541302 0.114830 0.162734
O O8 0.500000 0.000000 0.000000
O O9 0.700568 0.816671 0.793680
O O10 0.640072 0.060057 0.674020
O O11 0.127057 0.866491 0.925101
O O12 0.000000 0.000000 0.000000
O O13 0.803265 0.228892 0.418737
O O14 0.007581 0.187055 0.360430
O O15 0.000000 0.000000 0.500000
O O16 0.079956 0.652375 0.830129
O O17 0.600427 0.227542 0.488053
O O18 0.385927 0.320319 0.520579
#
# Coordination Sequence:
#
# PCOD9005857 Si02
#       8
#     2   2   2   2   2   2   2   2
#     4  11  26  49  74 101 142 194 251 296 354 435
#     4  11  22  39  66 103 140 187 235 293 361 434
#     4  12  26  42  73 112 147 184 236 305 366 431
#     4  10  21  38  63  96 138 186 231 286 360 427
#     4  11  24  47  73  99 147 192 242 292 366 435
#     4  11  24  43  69 104 143 190 235 295 364 430
#     4  12  23  43  70 106 147 179 235 299 370 425
#     4  10  24  44  70  99 137 193 235 297 353 426
#
# _framework density 23.388214999999999
#
# number of rings (size 3 to 8) (size 9 to 14) (size 15 to 20)
#    0.000    1.000    2.500    3.750    3.500    1.500 
#    0.000    3.750    0.000    0.000    0.000    0.000 
#    0.000    0.000    0.000    0.000    0.000    0.000 
#
# Total GULP energy -89097.977682 kJ/mol
# GULP energy per Si atom -5568.623605 kJ/mol
# Density = 2.333498 g / cm^3
# Si number density = 23.388215 Si / 1000 Ang^3
#
#
#
# Elastic Constant Matrix: (Units=GPa)
#
#
# Indices 1 2 3 4 5 6 
#
# 1 59.7794 2.8599 17.3494 14.4541 -6.6486 6.4239
# 2 2.8599 34.4413 6.2026 9.8371 -5.6818 18.6101
# 3 17.3494 6.2026 85.8235 7.7216 1.5435 15.8698
# 4 14.4541 9.8371 7.7216 30.4388 1.7181 -0.3233
# 5 -6.6486 -5.6818 1.5435 1.7181 51.3676 0.4179
# 6 6.4239 18.6101 15.8698 -0.3233 0.4179 42.3061
#
#
#
# Elastic Compliance Matrix: (Units=1/GPa)
#
#
# Indices 1 2 3 4 5 6 
#
# 1 0.020873 0.004919 -0.002837 -0.011039 0.003736 -0.004390
# 2 0.004919 0.046527 0.001215 -0.018282 0.006536 -0.021874
# 3 -0.002837 0.001215 0.013312 -0.002448 -0.000509 -0.005111
# 4 -0.011039 -0.018282 -0.002448 0.045022 -0.004973 0.011030
# 5 0.003736 0.006536 -0.000509 -0.004973 0.020884 -0.003496
# 6 -0.004390 -0.021874 -0.005111 0.011030 -0.003496 0.035962
#
#
# Mechanical properties :
#
#
# Convention : Reuss Voigt Hill
#
# Bulk Modulus (GPa) = 11.45399 25.87423 18.66411
# Shear Modulus (GPa) = 24.37988 35.06465 29.72226
#
# Velocity S-wave (km/s) = 3.23212 3.87621 3.56873
# Velocity P-wave (km/s) = 4.34014 5.57855 4.99785
#
# Compressibility (1/GPa) = 0.08730583
#
# Stress axis : x y z
#
# Youngs Moduli (GPa) = 47.90949 21.49296 75.12010
#
# Poissons Ratio (x) = -0.10573 0.21313
# Poissons Ratio (y) = -0.23568 -0.09127
# Poissons Ratio (z) = 0.13593 -0.02611
#
# Static dielectric constant tensor:
#      x y z
#    x 1.964190 -0.236720 0.100100 
#    y -0.236720 0.529010 0.292560 
#    z 0.100100 0.292560 1.841470 
# 
# From -- ./inp_files/399191.got.cif
#   From: 2010.05.17/outbox.cif.g08.bks.cpg/sg2_200_cif.got.tgz:399191.got - 2010.06.03 11:33:40.
