data_PCOD9005514
_publ_section_title
;
Structure prediction by ZEFSAII (Michael W. Deem and Ramdas Pophale) SiO2 
 PCOD9005514
Probable space group: P -1
;
_chemical_formula_sum "Si O2"
_cell_formula_units_Z 16
_cell_length_a 10.382115
_cell_length_b 5.523287
_cell_length_c 12.281598
_cell_angle_alpha 101.747909
_cell_angle_beta 103.413224
_cell_angle_gamma 88.001233
_cell_volume 670.651417
_symmetry_space_group_name_H-M "P -1"
_symmetry_group_IT_number 2
_symmetry_cell_setting 'triclinic'
loop_
_space_group_symop_operation_xyz
x,y,z
-x,-y,-z
loop_
_atom_site_type_symbol
_atom_site_label
_atom_site_fract_x
_atom_site_fract_y
_atom_site_fract_z
Si Si1 0.220382 0.788820 0.747513
Si Si2 0.045422 0.191874 0.740898
Si Si3 0.175682 0.504100 0.356734
Si Si4 0.299951 0.481281 0.911377
Si Si5 0.149506 0.308897 0.551536
Si Si6 0.603019 0.818283 0.713620
Si Si7 0.567259 0.376570 0.837141
Si Si8 0.347777 0.904927 0.559693
O O1 0.294723 0.742198 0.869950
O O2 0.196590 0.533540 0.656825
O O3 0.304602 0.921176 0.681543
O O4 0.082397 0.918882 0.761027
O O5 0.163549 0.344498 0.838496
O O6 0.061750 0.162292 0.609029
O O7 0.910439 0.340400 0.731243
O O8 0.093045 0.400601 0.434801
O O9 0.253411 0.280535 0.298671
O O10 0.278288 0.692377 0.454361
O O11 0.428188 0.354271 0.872516
O O12 0.325883 0.517737 0.046186
O O13 0.279256 0.154942 0.530725
O O14 0.552525 0.588343 0.760262
O O15 0.501578 0.847727 0.595181
O O16 0.606378 0.099839 0.784352
#
# Coordination Sequence:
#
# PCOD9005514 Si02
#       8
#     2   2   2   2   2   2   2   2
#     4   9  17  35  62  91 123 153 209 272 320 370
#     4  10  21  39  63  95 129 165 221 269 321 384
#     4  11  25  39  61  90 132 183 213 256 325 389
#     4  10  22  41  72  96 122 162 212 283 336 371
#     4   9  20  36  60  91 125 164 216 266 315 374
#     4  12  26  45  64  97 138 171 218 264 319 401
#     4  11  26  44  72  99 127 166 220 274 331 383
#     4  10  21  38  62  91 128 169 213 264 323 380
#
# _framework density 23.857399999999998
#
# number of rings (size 3 to 8) (size 9 to 14) (size 15 to 20)
#    0.000    1.750    1.250    3.000    5.250    8.000 
#    0.000    1.250    0.000    0.000    0.000    0.000 
#    0.000    0.000    0.000    0.000    0.000    0.000 
#
# Total GULP energy -89255.427746 kJ/mol
# GULP energy per Si atom -5578.464234 kJ/mol
# Density = 2.380310 g / cm^3
# Si number density = 23.857400 Si / 1000 Ang^3
#
#
#
# Elastic Constant Matrix: (Units=GPa)
#
#
# Indices 1 2 3 4 5 6 
#
# 1 53.1756 27.9548 25.2872 12.9071 13.9279 -29.8075
# 2 27.9548 161.5208 44.3692 10.2975 6.7504 -41.7933
# 3 25.2872 44.3692 85.2019 7.4297 33.0084 -8.0408
# 4 12.9071 10.2975 7.4297 29.9094 3.5708 11.2056
# 5 13.9279 6.7504 33.0084 3.5708 34.2914 -3.1934
# 6 -29.8075 -41.7933 -8.0408 11.2056 -3.1934 45.9232
#
#
#
# Elastic Compliance Matrix: (Units=1/GPa)
#
#
# Indices 1 2 3 4 5 6 
#
# 1 0.078221 0.014935 -0.016169 -0.062887 -0.005474 0.076496
# 2 0.014935 0.013805 -0.009307 -0.019012 0.004538 0.025582
# 3 -0.016169 -0.009307 0.026160 0.013175 -0.019921 -0.018985
# 4 -0.062887 -0.019012 0.013175 0.093354 -0.000440 -0.078623
# 5 -0.005474 0.004538 -0.019921 -0.000440 0.049775 0.000657
# 6 0.076496 0.025582 -0.018985 -0.078623 0.000657 0.110615
#
#
# Mechanical properties :
#
#
# Convention : Reuss Voigt Hill
#
# Bulk Modulus (GPa) = 10.29832 55.01340 32.65586
# Shear Modulus (GPa) = 11.75419 35.51062 23.63241
#
# Velocity S-wave (km/s) = 2.22206 3.86223 3.15075
# Velocity P-wave (km/s) = 3.30294 6.55732 5.19172
#
# Compressibility (1/GPa) = 0.09710321
#
# Stress axis : x y z
#
# Youngs Moduli (GPa) = 12.78426 72.43864 38.22667
#
# Poissons Ratio (x) = -1.08187 0.61809
# Poissons Ratio (y) = -0.19093 0.35578
# Poissons Ratio (z) = 0.20671 0.67420
#
# Static dielectric constant tensor:
#      x y z
#    x 2.081540 0.053570 -0.037900 
#    y 0.053570 2.048440 -0.061720 
#    z -0.037900 -0.061720 1.863750 
# 
# From -- ./inp_files/93419.got.cif
#   From: 2010.05.17/outbox.cif.g08.bks.cpg/sg2_47_cif.got.tgz:93419.got - 2010.06.03 11:33:40.
