data_PCOD9005452
_publ_section_title
;
Structure prediction by ZEFSAII (Michael W. Deem and Ramdas Pophale) SiO2 
 PCOD9005452
Probable space group: P -1
;
_chemical_formula_sum "Si O2"
_cell_formula_units_Z 11
_cell_length_a 8.871091
_cell_length_b 14.675040
_cell_length_c 11.574176
_cell_angle_alpha 28.049685
_cell_angle_beta 50.464358
_cell_angle_gamma 39.521864
_cell_volume 445.944779
_symmetry_space_group_name_H-M "P -1"
_symmetry_group_IT_number 2
_symmetry_cell_setting 'triclinic'
loop_
_space_group_symop_operation_xyz
x,y,z
-x,-y,-z
loop_
_atom_site_type_symbol
_atom_site_label
_atom_site_fract_x
_atom_site_fract_y
_atom_site_fract_z
Si Si1 0.793948 0.721389 0.109362
Si Si2 0.455525 0.935015 0.371542
Si Si3 0.190848 0.351746 0.176002
Si Si4 0.073114 0.232771 0.768950
Si Si5 0.543416 0.449802 0.797019
Si Si6 0.500000 0.500000 0.500000
O O1 0.827557 0.845804 0.061824
O O2 0.628671 0.635244 0.321748
O O3 0.046949 0.481494 0.216373
O O4 0.691173 0.901006 0.851227
O O5 0.305010 0.077855 0.398280
O O6 0.706488 0.907828 0.268776
O O7 0.503263 0.682532 0.613156
O O8 0.408608 0.374837 0.026618
O O9 0.000000 0.500000 0.000000
O O10 0.000000 0.500000 0.500000
O O11 0.827250 0.258360 0.848528
O O12 0.426218 0.504512 0.666297
#
# Coordination Sequence:
#
# PCOD9005452 Si02
#       6
#     2   2   2   2   2   1
#     4  11  22  40  64  91 122 159 203 252 292 364
#     4  10  21  40  65  91 119 162 200 246 300 361
#     4  10  22  40  59  92 126 153 201 252 299 356
#     4  10  21  38  62  89 125 154 203 253 294 351
#     4  11  23  40  64  90 123 161 197 254 302 351
#     4  12  20  38  66  90 118 160 210 242 300 352
#
# _framework density 24.666730999999999
#
# number of rings (size 3 to 8) (size 9 to 14) (size 15 to 20)
#    0.000    1.455    7.273    0.545    0.000    4.364 
#    0.000    3.636    0.000    0.000    0.000    0.000 
#    0.000    0.000    0.000    0.000    0.000    0.000 
#
# Total GULP energy -61299.010497 kJ/mol
# GULP energy per Si atom -5572.637318 kJ/mol
# Density = 2.461059 g / cm^3
# Si number density = 24.666731 Si / 1000 Ang^3
#
#
#
# Elastic Constant Matrix: (Units=GPa)
#
#
# Indices 1 2 3 4 5 6 
#
# 1 51.4440 7.7139 22.0602 -9.7302 -10.5821 -6.6058
# 2 7.7139 148.9289 3.4183 -24.3056 2.9584 -3.6528
# 3 22.0602 3.4183 50.9580 -1.2147 0.1022 -4.1114
# 4 -9.7302 -24.3056 -1.2147 27.6027 6.0596 -0.5712
# 5 -10.5821 2.9584 0.1022 6.0596 30.0983 2.3857
# 6 -6.6058 -3.6528 -4.1114 -0.5712 2.3857 28.4316
#
#
#
# Elastic Compliance Matrix: (Units=1/GPa)
#
#
# Indices 1 2 3 4 5 6 
#
# 1 0.028099 0.000023 -0.011648 0.007743 0.008015 0.004330
# 2 0.000023 0.008049 -0.000253 0.007646 -0.002429 0.001360
# 3 -0.011648 -0.000253 0.024723 -0.002392 -0.003760 0.001104
# 4 0.007743 0.007646 -0.002392 0.047399 -0.007885 0.004049
# 5 0.008015 -0.002429 -0.003760 -0.007885 0.038067 -0.002346
# 6 0.004330 0.001360 0.001104 0.004049 -0.002346 0.036791
#
#
# Mechanical properties :
#
#
# Convention : Reuss Voigt Hill
#
# Bulk Modulus (GPa) = 26.94380 35.30174 31.12277
# Shear Modulus (GPa) = 22.80435 31.76911 27.28673
#
# Velocity S-wave (km/s) = 3.04386 3.59267 3.32959
# Velocity P-wave (km/s) = 4.82703 5.61714 5.23701
#
# Compressibility (1/GPa) = 0.03711429
#
# Stress axis : x y z
#
# Youngs Moduli (GPa) = 35.58819 124.24461 40.44803
#
# Poissons Ratio (x) = -0.00280 0.47114
# Poissons Ratio (y) = -0.00080 0.01023
# Poissons Ratio (z) = 0.41453 0.03141
#
# Static dielectric constant tensor:
#      x y z
#    x 2.228930 0.101440 0.253100 
#    y 0.101440 2.029550 0.040960 
#    z 0.253100 0.040960 2.109120 
# 
# From -- ./inp_files/233221.got.cif
#   From: 2010.05.17/outbox.cif.g08.bks.cpg/sg2_117_cif.got.tgz:233221.got - 2010.06.03 11:33:40.
