data_PCOD9005000
_publ_section_title
;
Structure prediction by ZEFSAII (Michael W. Deem and Ramdas Pophale) SiO2 
 PCOD9005000
Probable space group: P -1
;
_chemical_formula_sum "Si O2"
_cell_formula_units_Z 15
_cell_length_a 8.662771
_cell_length_b 12.940688
_cell_length_c 11.553908
_cell_angle_alpha 72.791732
_cell_angle_beta 92.193569
_cell_angle_gamma 34.090672
_cell_volume 588.462258
_symmetry_space_group_name_H-M "P -1"
_symmetry_group_IT_number 2
_symmetry_cell_setting 'triclinic'
loop_
_space_group_symop_operation_xyz
x,y,z
-x,-y,-z
loop_
_atom_site_type_symbol
_atom_site_label
_atom_site_fract_x
_atom_site_fract_y
_atom_site_fract_z
Si Si1 0.723809 0.406707 0.935349
Si Si2 0.224730 0.337465 0.763428
Si Si3 0.230619 0.261874 0.042564
Si Si4 0.526960 0.685754 0.629568
Si Si5 0.361668 0.087351 0.654786
Si Si6 0.097016 0.150801 0.417102
Si Si7 0.582870 0.341979 0.780481
Si Si8 0.500000 0.500000 0.500000
O O1 0.583873 0.589584 0.786716
O O2 0.827149 0.239939 0.914777
O O3 0.500000 0.500000 0.000000
O O4 0.035410 0.270455 0.047567
O O5 0.288425 0.234790 0.681660
O O6 0.436781 0.313539 0.785498
O O7 0.831819 0.582940 0.669138
O O8 0.305706 0.226781 0.921593
O O9 0.532987 0.069314 0.200458
O O10 0.000000 0.500000 0.000000
O O11 0.537073 0.585971 0.565374
O O12 0.225598 0.951643 0.509995
O O13 0.074096 0.219837 0.521873
O O14 0.653618 0.939241 0.626778
O O15 0.740248 0.389078 0.281502
O O16 0.674606 0.317317 0.662587
#
# Coordination Sequence:
#
# PCOD9005000 Si02
#       8
#     2   2   2   2   2   2   2   1
#     4  10  21  38  60  86 119 156 198 247 302 358
#     4  11  22  40  64  88 121 162 208 258 309 364
#     4  11  22  41  65  89 120 160 210 257 305 366
#     4  10  22  39  61  90 122 162 203 253 308 365
#     4  11  22  36  61  95 123 156 205 259 309 362
#     4  11  22  37  61  92 124 159 205 252 307 372
#     4  11  23  40  62  89 123 163 201 253 310 365
#     4  10  22  38  56  86 124 158 196 244 308 362
#
# _framework density 25.490165999999999
#
# number of rings (size 3 to 8) (size 9 to 14) (size 15 to 20)
#    0.000    1.333    0.000    7.600    0.000    3.733 
#    0.000    3.333    0.000    3.200    0.000    0.000 
#    0.000    0.000    0.000    0.000    0.000    0.000 
#
# Total GULP energy -83683.862446 kJ/mol
# GULP energy per Si atom -5578.924163 kJ/mol
# Density = 2.543215 g / cm^3
# Si number density = 25.490166 Si / 1000 Ang^3
#
#
#
# Elastic Constant Matrix: (Units=GPa)
#
#
# Indices 1 2 3 4 5 6 
#
# 1 123.1123 29.1017 20.4737 17.7668 3.4579 35.3666
# 2 29.1017 74.5419 25.8438 11.2856 -2.1128 17.6745
# 3 20.4737 25.8438 107.3406 34.9330 2.3562 9.8040
# 4 17.7668 11.2856 34.9330 50.2493 0.0851 -3.2470
# 5 3.4579 -2.1128 2.3562 0.0851 32.5712 11.8752
# 6 35.3666 17.6745 9.8040 -3.2470 11.8752 33.6906
#
#
#
# Elastic Compliance Matrix: (Units=1/GPa)
#
#
# Indices 1 2 3 4 5 6 
#
# 1 0.013653 -0.000688 0.001084 -0.006499 0.004454 -0.016483
# 2 -0.000688 0.017344 -0.002426 -0.002598 0.004898 -0.009648
# 3 0.001084 -0.002426 0.013138 -0.009282 0.000542 -0.004775
# 4 -0.006499 -0.002598 -0.009282 0.030237 -0.004495 0.015385
# 5 0.004454 0.004898 0.000542 -0.004495 0.038298 -0.021336
# 6 -0.016483 -0.009648 -0.004775 0.015385 -0.021336 0.062439
#
#
# Mechanical properties :
#
#
# Convention : Reuss Voigt Hill
#
# Bulk Modulus (GPa) = 24.95145 50.64814 37.79980
# Shear Modulus (GPa) = 25.97042 38.60727 32.28884
#
# Velocity S-wave (km/s) = 3.19539 3.89600 3.56296
# Velocity P-wave (km/s) = 4.83983 6.33650 5.63805
#
# Compressibility (1/GPa) = 0.04007783
#
# Stress axis : x y z
#
# Youngs Moduli (GPa) = 73.24445 57.65522 76.11436
#
# Poissons Ratio (x) = 0.03964 -0.08253
# Poissons Ratio (y) = 0.05036 0.18463
# Poissons Ratio (z) = -0.07942 0.13985
#
# Static dielectric constant tensor:
#      x y z
#    x 1.829620 0.224180 0.091050 
#    y 0.224180 1.821170 -0.099360 
#    z 0.091050 -0.099360 1.971480 
# 
# From -- ./inp_files/390045.got.cif
#   From: 2010.05.17/outbox.cif.g08.bks.cpg/sg2_196_cif.got.tgz:390045.got - 2010.06.03 11:33:40.
