data_PCOD9005326
_publ_section_title
;
Structure prediction by ZEFSAII (Michael W. Deem and Ramdas Pophale) SiO2 
 PCOD9005326
Probable space group: P -1
;
_chemical_formula_sum "Si O2"
_cell_formula_units_Z 16
_cell_length_a 14.706451
_cell_length_b 5.284289
_cell_length_c 11.022802
_cell_angle_alpha 114.746874
_cell_angle_beta 59.319591
_cell_angle_gamma 98.066286
_cell_volume 666.106848
_symmetry_space_group_name_H-M "P -1"
_symmetry_group_IT_number 2
_symmetry_cell_setting 'triclinic'
loop_
_space_group_symop_operation_xyz
x,y,z
-x,-y,-z
loop_
_atom_site_type_symbol
_atom_site_label
_atom_site_fract_x
_atom_site_fract_y
_atom_site_fract_z
Si Si1 0.916568 0.698337 0.834585
Si Si2 0.241045 0.729299 0.704225
Si Si3 0.117387 0.609708 0.533909
Si Si4 0.399713 0.240817 0.488656
Si Si5 0.395143 0.124943 0.752119
Si Si6 0.871079 0.332677 0.003485
Si Si7 0.765517 0.994392 0.617002
Si Si8 0.707475 0.434707 0.934779
O O1 0.935476 0.532859 0.916502
O O2 0.797839 0.629447 0.865615
O O3 0.996410 0.592604 0.652269
O O4 0.927550 0.023202 0.913516
O O5 0.165027 0.760815 0.649337
O O6 0.350409 0.552832 0.554033
O O7 0.280449 0.001532 0.795101
O O8 0.177905 0.565919 0.814907
O O9 0.182183 0.301855 0.426668
O O10 0.142342 0.818859 0.452136
O O11 0.410497 0.227767 0.624375
O O12 0.310232 0.063499 0.456095
O O13 0.510731 0.114142 0.332967
O O14 0.389180 0.365131 0.905397
O O15 0.766963 0.300155 0.985405
O O16 0.696414 0.188996 0.798650
#
# Coordination Sequence:
#
# PCOD9005326 Si02
#       8
#     2   2   2   2   2   2   2   2
#     4  10  22  40  60  97 122 170 211 258 306 376
#     4  11  20  39  64  91 133 161 212 259 321 369
#     4  11  25  40  65  93 128 169 212 260 314 367
#     4  10  22  39  65  94 124 162 213 259 318 374
#     4  11  20  41  66  92 123 166 211 260 316 376
#     4  10  21  38  61  92 128 165 206 255 313 364
#     4  11  25  43  63  93 132 167 207 264 312 373
#     4  10  24  40  64  91 132 167 211 255 314 374
#
# _framework density 24.020173
#
# number of rings (size 3 to 8) (size 9 to 14) (size 15 to 20)
#    0.750    0.750    3.750    1.125    1.750    2.500 
#    0.000    0.000    0.000    3.000    0.000    0.000 
#    0.000    0.000    0.000    0.000    0.000    0.000 
#
# Total GULP energy -89358.121379 kJ/mol
# GULP energy per Si atom -5584.882586 kJ/mol
# Density = 2.396550 g / cm^3
# Si number density = 24.020173 Si / 1000 Ang^3
#
#
#
# Elastic Constant Matrix: (Units=GPa)
#
#
# Indices 1 2 3 4 5 6 
#
# 1 33.2666 6.8512 9.4737 8.2078 -8.5789 9.6964
# 2 6.8512 95.9297 20.4963 5.5934 -3.9288 1.4667
# 3 9.4737 20.4963 138.9070 22.8800 -3.0276 3.2942
# 4 8.2078 5.5934 22.8800 36.4640 -4.1135 2.4551
# 5 -8.5789 -3.9288 -3.0276 -4.1135 30.2211 3.2595
# 6 9.6964 1.4667 3.2942 2.4551 3.2595 25.0995
#
#
#
# Elastic Compliance Matrix: (Units=1/GPa)
#
#
# Indices 1 2 3 4 5 6 
#
# 1 0.039863 -0.001583 -0.000897 -0.005725 0.011987 -0.016186
# 2 -0.001583 0.010892 -0.001429 -0.000338 0.000767 0.000096
# 3 -0.000897 -0.001429 0.008256 -0.004777 -0.000247 -0.000154
# 4 -0.005725 -0.000338 -0.004777 0.032058 0.002278 -0.000573
# 5 0.011987 0.000767 -0.000247 0.002278 0.037933 -0.009792
# 6 -0.016186 0.000096 -0.000154 -0.000573 -0.009792 0.047437
#
#
# Mechanical properties :
#
#
# Convention : Reuss Voigt Hill
#
# Bulk Modulus (GPa) = 19.53377 37.97175 28.75276
# Shear Modulus (GPa) = 24.83570 33.77572 29.30571
#
# Velocity S-wave (km/s) = 3.21900 3.75392 3.49670
# Velocity P-wave (km/s) = 4.68677 5.88488 5.31966
#
# Compressibility (1/GPa) = 0.05119339
#
# Stress axis : x y z
#
# Youngs Moduli (GPa) = 25.08564 91.80744 121.12097
#
# Poissons Ratio (x) = 0.14535 0.10864
# Poissons Ratio (y) = 0.03971 0.17310
# Poissons Ratio (z) = 0.02250 0.13121
#
# Static dielectric constant tensor:
#      x y z
#    x 1.943050 0.043800 0.003360 
#    y 0.043800 1.961080 -0.005890 
#    z 0.003360 -0.005890 1.960800 
# 
# From -- ./inp_files/459603.got.cif
#   From: 2010.05.17/outbox.cif.g08.bks.cpg/sg2_230_cif.got.tgz:459603.got - 2010.06.03 11:33:40.
