data_PCOD9005786
_publ_section_title
;
Structure prediction by ZEFSAII (Michael W. Deem and Ramdas Pophale) SiO2 
 PCOD9005786
Probable space group: P -1
;
_chemical_formula_sum "Si O2"
_cell_formula_units_Z 16
_cell_length_a 8.935331
_cell_length_b 24.396800
_cell_length_c 12.995268
_cell_angle_alpha 23.182488
_cell_angle_beta 128.257220
_cell_angle_gamma 140.209074
_cell_volume 669.651468
_symmetry_space_group_name_H-M "P -1"
_symmetry_group_IT_number 2
_symmetry_cell_setting 'triclinic'
loop_
_space_group_symop_operation_xyz
x,y,z
-x,-y,-z
loop_
_atom_site_type_symbol
_atom_site_label
_atom_site_fract_x
_atom_site_fract_y
_atom_site_fract_z
Si Si1 0.693956 0.146618 0.413249
Si Si2 0.361368 0.794289 0.490351
Si Si3 0.152434 0.213318 0.405193
Si Si4 0.813466 0.093779 0.064118
Si Si5 0.409774 0.395707 0.012307
Si Si6 0.793456 0.346816 0.755925
Si Si7 0.190761 0.541095 0.206404
Si Si8 0.650466 0.570461 0.305788
O O1 0.604798 0.103343 0.566532
O O2 0.939536 0.172019 0.457770
O O3 0.500000 0.000000 0.500000
O O4 0.760385 0.334122 0.083905
O O5 0.069287 0.655590 0.584778
O O6 0.509088 0.915572 0.241617
O O7 0.453340 0.681359 0.756834
O O8 0.411112 0.388427 0.263281
O O9 0.107448 0.030143 0.683394
O O10 0.171638 0.290349 0.167240
O O11 0.783778 0.186373 0.986736
O O12 0.061401 0.273154 0.801479
O O13 0.340758 0.363039 0.920887
O O14 0.838567 0.382137 0.835225
O O15 0.590800 0.377008 0.604656
O O16 0.000000 0.500000 0.500000
O O17 0.428434 0.551418 0.297272
#
# Coordination Sequence:
#
# PCOD9005786 Si02
#       8
#     2   2   2   2   2   2   2   2
#     4  12  23  35  64 103 134 166 205 266 332 397
#     4  11  23  42  66 102 136 168 209 268 344 392
#     4  10  22  36  59  96 131 164 206 257 340 381
#     4  10  24  42  62  94 133 169 221 269 313 389
#     4  10  21  38  63  93 130 168 208 263 325 401
#     4  10  25  45  67  93 126 179 232 268 316 378
#     4  12  23  43  68  95 134 171 217 271 330 388
#     4  11  23  43  68  91 128 175 225 268 317 385
#
# _framework density 23.893025999999999
#
# number of rings (size 3 to 8) (size 9 to 14) (size 15 to 20)
#    0.000    1.250    2.500    3.000    5.250    1.000 
#    0.000    6.250    0.000    0.000    0.000    0.000 
#    0.000    0.000    0.000    0.000    0.000    0.000 
#
# Total GULP energy -89104.884585 kJ/mol
# GULP energy per Si atom -5569.055287 kJ/mol
# Density = 2.383864 g / cm^3
# Si number density = 23.893026 Si / 1000 Ang^3
#
#
#
# Elastic Constant Matrix: (Units=GPa)
#
#
# Indices 1 2 3 4 5 6 
#
# 1 152.8866 8.8657 56.6704 1.4997 16.5986 21.9380
# 2 8.8657 -181.5866 75.1984 -49.0141 -58.8201 13.0636
# 3 56.6704 75.1984 68.6200 3.9309 20.7151 10.8440
# 4 1.4997 -49.0141 3.9309 26.5217 -12.4030 -7.4963
# 5 16.5986 -58.8201 20.7151 -12.4030 37.2422 -1.1978
# 6 21.9380 13.0636 10.8440 -7.4963 -1.1978 32.6604
#
#
#
# Elastic Compliance Matrix: (Units=1/GPa)
#
#
# Indices 1 2 3 4 5 6 
#
# 1 0.009835 -0.000373 -0.005729 -0.003377 -0.003085 -0.005443
# 2 -0.000373 -0.000999 0.003622 -0.005396 -0.005287 -0.001985
# 3 -0.005729 0.003622 0.014633 0.005412 0.001899 -0.001147
# 4 -0.003377 -0.005396 0.005412 0.029923 0.000244 0.009507
# 5 -0.003085 -0.005287 0.001899 0.000244 0.019039 0.004311
# 6 -0.005443 -0.001985 -0.001147 0.009507 0.004311 0.037789
#
#
# Mechanical properties :
#
#
# Convention : Reuss Voigt Hill
#
# Bulk Modulus (GPa) = 54.02655 35.70988 44.86822
# Shear Modulus (GPa) = 41.20280 12.56389 26.88334
#
# Velocity S-wave (km/s) = 4.15718 2.29561 3.35797
# Velocity P-wave (km/s) = 6.76046 4.69090 5.81843
#
# Compressibility (1/GPa) = 0.01850942
#
# Stress axis : x y z
#
# Youngs Moduli (GPa) = 101.67673 -1000.85370 68.33733
#
# Poissons Ratio (x) = -0.37305 0.39149
# Poissons Ratio (y) = 0.03790 -0.24749
# Poissons Ratio (z) = 0.58248 3.62471
#
# Static dielectric constant tensor:
#      x y z
#    x 1.957100 0.014690 0.024550 
#    y 0.014690 1.933540 -0.027130 
#    z 0.024550 -0.027130 1.994190 
# 
# From -- ./inp_files/508982.got.cif
#   From: 2010.05.17/outbox.cif.g08.bks.cpg/sg2_255_cif.got.tgz:508982.got - 2010.06.03 11:33:40.
