data_PCOD9005080
_publ_section_title
;
Structure prediction by ZEFSAII (Michael W. Deem and Ramdas Pophale) SiO2 
 PCOD9005080
Probable space group: P -1
;
_chemical_formula_sum "Si O2"
_cell_formula_units_Z 14
_cell_length_a 8.012790
_cell_length_b 14.731627
_cell_length_c 15.114727
_cell_angle_alpha 153.190188
_cell_angle_beta 134.312782
_cell_angle_gamma 48.831738
_cell_volume 572.446194
_symmetry_space_group_name_H-M "P -1"
_symmetry_group_IT_number 2
_symmetry_cell_setting 'triclinic'
loop_
_space_group_symop_operation_xyz
x,y,z
-x,-y,-z
loop_
_atom_site_type_symbol
_atom_site_label
_atom_site_fract_x
_atom_site_fract_y
_atom_site_fract_z
Si Si1 0.588176 0.568187 0.332120
Si Si2 0.851125 0.402405 0.590859
Si Si3 0.350821 0.266239 0.329321
Si Si4 0.584360 0.850526 0.077731
Si Si5 0.737306 0.019178 0.457646
Si Si6 0.058112 0.985938 0.286192
Si Si7 0.262860 0.580635 0.933246
O O1 0.741759 0.657981 0.543592
O O2 0.393218 0.753929 0.397847
O O3 0.712440 0.486328 0.217502
O O4 0.478944 0.371497 0.157286
O O5 0.619598 0.324884 0.478851
O O6 0.775474 0.602431 0.680335
O O7 0.044103 0.465202 0.785569
O O8 0.962716 0.206133 0.406488
O O9 0.384383 0.025088 0.122584
O O10 0.829617 0.892381 0.159816
O O11 0.610144 0.886012 0.224045
O O12 0.770682 0.971661 0.531936
O O13 0.000000 0.000000 0.500000
O O14 0.192338 0.818126 0.128286
O O15 0.500000 0.500000 0.000000
#
# Coordination Sequence:
#
# PCOD9005080 Si02
#       7
#     2   2   2   2   2   2   2
#     4  11  22  39  61  90 127 162 201 258 307 370
#     4  10  23  43  68  88 126 161 209 266 298 364
#     4   9  21  45  68  93 113 163 219 259 306 345
#     4   9  20  37  65  91 117 157 212 263 301 357
#     4   9  19  34  56  88 117 158 208 249 305 352
#     4  10  21  38  60  90 121 167 206 249 311 359
#     4  12  26  40  57  95 133 168 200 241 321 380
#
# _framework density 24.456448000000002
#
# number of rings (size 3 to 8) (size 9 to 14) (size 15 to 20)
#    0.000    2.000    1.429    1.714    2.000    6.857 
#    0.000    5.714    0.000    0.000    0.000    0.000 
#    0.000    0.000    0.000    0.000    0.000    0.000 
#
# Total GULP energy -78298.672638 kJ/mol
# GULP energy per Si atom -5592.762331 kJ/mol
# Density = 2.440078 g / cm^3
# Si number density = 24.456448 Si / 1000 Ang^3
#
#
#
# Elastic Constant Matrix: (Units=GPa)
#
#
# Indices 1 2 3 4 5 6 
#
# 1 73.4670 12.1800 13.2450 0.8986 -20.0247 -12.5819
# 2 12.1800 70.5510 24.4669 25.1593 -5.1406 -13.3174
# 3 13.2450 24.4669 101.8629 33.9514 -19.4922 -17.7001
# 4 0.8986 25.1593 33.9514 32.2059 -13.6740 -2.2241
# 5 -20.0247 -5.1406 -19.4922 -13.6740 45.3809 4.2785
# 6 -12.5819 -13.3174 -17.7001 -2.2241 4.2785 29.1316
#
#
#
# Elastic Compliance Matrix: (Units=1/GPa)
#
#
# Indices 1 2 3 4 5 6 
#
# 1 0.017570 -0.004072 -0.001795 0.008564 0.008723 0.004009
# 2 -0.004072 0.023641 0.003413 -0.023692 -0.005750 0.010158
# 3 -0.001795 0.003413 0.017924 -0.020780 0.000082 0.010077
# 4 0.008564 -0.023692 -0.020780 0.077318 0.017009 -0.016353
# 5 0.008723 -0.005750 0.000082 0.017009 0.030582 -0.002004
# 6 0.004009 0.010158 0.010077 -0.016353 -0.002004 0.045870
#
#
# Mechanical properties :
#
#
# Convention : Reuss Voigt Hill
#
# Bulk Modulus (GPa) = 18.44185 38.40718 28.42451
# Shear Modulus (GPa) = 21.19633 34.40962 27.80298
#
# Velocity S-wave (km/s) = 2.94717 3.75504 3.37536
# Velocity P-wave (km/s) = 4.37471 5.87697 5.18058
#
# Compressibility (1/GPa) = 0.05422450
#
# Stress axis : x y z
#
# Youngs Moduli (GPa) = 56.91614 42.29928 55.79248
#
# Poissons Ratio (x) = 0.17226 0.10015
# Poissons Ratio (y) = 0.23179 -0.19039
# Poissons Ratio (z) = 0.10216 -0.14435
#
# Static dielectric constant tensor:
#      x y z
#    x 2.055150 -0.009460 0.042940 
#    y -0.009460 1.937810 -0.024450 
#    z 0.042940 -0.024450 1.929920 
# 
# From -- ./inp_files/90284.got.cif
#   From: 2010.05.17/outbox.cif.g08.bks.cpg/sg2_46_cif.got.tgz:90284.got - 2010.06.03 11:33:40.
