data_PCOD9005958
_publ_section_title
;
Structure prediction by ZEFSAII (Michael W. Deem and Ramdas Pophale) SiO2 
 PCOD9005958
Probable space group: P -1
;
_chemical_formula_sum "Si O2"
_cell_formula_units_Z 10
_cell_length_a 7.665167
_cell_length_b 11.652888
_cell_length_c 14.828148
_cell_angle_alpha 147.756935
_cell_angle_beta 118.036306
_cell_angle_gamma 42.849205
_cell_volume 437.527047
_symmetry_space_group_name_H-M "P -1"
_symmetry_group_IT_number 2
_symmetry_cell_setting 'triclinic'
loop_
_space_group_symop_operation_xyz
x,y,z
-x,-y,-z
loop_
_atom_site_type_symbol
_atom_site_label
_atom_site_fract_x
_atom_site_fract_y
_atom_site_fract_z
Si Si1 0.252052 0.124298 0.927968
Si Si2 0.518786 0.601325 0.975989
Si Si3 0.833998 0.802449 0.238099
Si Si4 0.485527 0.238132 0.603806
Si Si5 0.848594 0.851257 0.881741
O O1 0.142105 0.112865 0.799290
O O2 0.589431 0.879486 0.840809
O O3 0.150019 0.092457 0.973449
O O4 0.117099 0.473185 0.128737
O O5 0.659979 0.719046 0.117143
O O6 0.259522 0.888910 0.042556
O O7 0.500000 0.500000 0.000000
O O8 0.617629 0.329790 0.754378
O O9 0.659974 0.077547 0.447816
O O10 0.150283 0.536314 0.713320
O O11 0.500000 0.000000 0.500000
#
# Coordination Sequence:
#
# PCOD9005958 Si02
#       5
#     2   2   2   2   2
#     4   9  19  39  63  84 124 164 190 239 312 354
#     4  11  22  38  61  92 122 156 199 250 300 348
#     4  10  21  40  64  88 121 160 196 246 299 356
#     4  12  22  39  64  92 119 155 206 250 291 352
#     4  10  21  38  64  90 120 161 199 244 299 358
#
# _framework density 22.855730000000001
#
# number of rings (size 3 to 8) (size 9 to 14) (size 15 to 20)
#    0.000    1.600    4.000    0.600    0.000    3.200 
#    0.000   10.000    0.000    0.000    0.000    0.000 
#    0.000    0.000    0.000    0.000    0.000    0.000 
#
# Total GULP energy -55714.259574 kJ/mol
# GULP energy per Si atom -5571.425957 kJ/mol
# Density = 2.280371 g / cm^3
# Si number density = 22.855730 Si / 1000 Ang^3
#
#
#
# Elastic Constant Matrix: (Units=GPa)
#
#
# Indices 1 2 3 4 5 6 
#
# 1 74.3044 48.1190 35.1613 -4.0778 -13.9466 7.3242
# 2 48.1190 149.7508 58.5607 -4.7930 -15.4182 21.2751
# 3 35.1613 58.5607 143.9026 -24.4529 -30.5033 -7.7835
# 4 -4.0778 -4.7930 -24.4529 40.4528 6.6542 -7.3312
# 5 -13.9466 -15.4182 -30.5033 6.6542 55.0150 -4.9113
# 6 7.3242 21.2751 -7.7835 -7.3312 -4.9113 51.0368
#
#
#
# Elastic Compliance Matrix: (Units=1/GPa)
#
#
# Indices 1 2 3 4 5 6 
#
# 1 0.017906 -0.004561 -0.002241 -0.000584 0.002009 -0.000901
# 2 -0.004561 0.010121 -0.003743 -0.002254 -0.000525 -0.004510
# 3 -0.002241 -0.003743 0.011275 0.006330 0.004309 0.004925
# 4 -0.000584 -0.002254 0.006330 0.029386 -0.000272 0.006184
# 5 0.002009 -0.000525 0.004309 -0.000272 0.021192 0.002588
# 6 -0.000901 -0.004510 0.004925 0.006184 0.002588 0.023491
#
#
# Mechanical properties :
#
#
# Convention : Reuss Voigt Hill
#
# Bulk Modulus (GPa) = 54.90621 72.40442 63.65531
# Shear Modulus (GPa) = 35.57881 44.37536 39.97708
#
# Velocity S-wave (km/s) = 3.94974 4.41107 4.18677
# Velocity P-wave (km/s) = 6.69894 7.59547 7.16124
#
# Compressibility (1/GPa) = 0.01821288
#
# Stress axis : x y z
#
# Youngs Moduli (GPa) = 55.84622 98.79966 88.69093
#
# Poissons Ratio (x) = 0.45065 0.19877
# Poissons Ratio (y) = 0.25473 0.33193
# Poissons Ratio (z) = 0.12516 0.36976
#
# Static dielectric constant tensor:
#      x y z
#    x 2.016630 -0.079240 -0.039130 
#    y -0.079240 1.980530 0.013600 
#    z -0.039130 0.013600 1.816930 
# 
# From -- ./inp_files/145250.got.cif
#   From: 2010.05.17/outbox.cif.g08.bks.cpg/sg2_73_cif.got.tgz:145250.got - 2010.06.03 11:33:40.
