data_PCOD9005772
_publ_section_title
;
Structure prediction by ZEFSAII (Michael W. Deem and Ramdas Pophale) SiO2 
 PCOD9005772
Probable space group: P -1
;
_chemical_formula_sum "Si O2"
_cell_formula_units_Z 16
_cell_length_a 10.115016
_cell_length_b 10.686038
_cell_length_c 9.806167
_cell_angle_alpha 113.911775
_cell_angle_beta 61.418567
_cell_angle_gamma 118.576205
_cell_volume 795.695365
_symmetry_space_group_name_H-M "P -1"
_symmetry_group_IT_number 2
_symmetry_cell_setting 'triclinic'
loop_
_space_group_symop_operation_xyz
x,y,z
-x,-y,-z
loop_
_atom_site_type_symbol
_atom_site_label
_atom_site_fract_x
_atom_site_fract_y
_atom_site_fract_z
Si Si1 0.874204 0.076459 0.951410
Si Si2 0.444422 0.604737 0.170757
Si Si3 0.858772 0.387287 0.843549
Si Si4 0.633639 0.947563 0.480181
Si Si5 0.877953 0.082647 0.646164
Si Si6 0.439843 0.608645 0.489108
Si Si7 0.786094 0.861114 0.135315
Si Si8 0.176425 0.650542 0.833224
O O1 0.824126 0.031473 0.803305
O O2 0.064013 0.178914 0.902884
O O3 0.790367 0.177103 0.108497
O O4 0.841419 0.934935 0.996019
O O5 0.293198 0.629176 0.184537
O O6 0.402872 0.554973 0.326601
O O7 0.608046 0.745565 0.160621
O O8 0.500000 0.500000 0.000000
O O9 0.931694 0.259929 0.714368
O O10 0.998272 0.544741 0.832235
O O11 0.806119 0.376098 0.024706
O O12 0.562885 0.776891 0.485323
O O13 0.769084 0.970284 0.307746
O O14 0.500000 0.000000 0.500000
O O15 0.724946 0.038116 0.603498
O O16 0.000000 0.000000 0.500000
O O17 0.500000 0.500000 0.500000
O O18 0.292962 0.617337 0.654257
#
# Coordination Sequence:
#
# PCOD9005772 Si02
#       8
#     2   2   2   2   2   2   2   2
#     4  10  21  38  63  93 121 173 209 272 312 385
#     4  11  23  42  63  91 129 169 212 264 330 389
#     4  10  23  40  65  90 127 172 210 267 324 383
#     4  11  23  42  65  90 131 171 211 269 323 384
#     4  11  22  38  62  96 126 165 218 264 318 383
#     4  11  25  40  65  94 126 169 212 266 325 386
#     4  10  21  39  61  88 128 164 216 255 330 376
#     4  10  22  42  62  88 128 163 218 258 325 385
#
# _framework density 20.108198999999999
#
# number of rings (size 3 to 8) (size 9 to 14) (size 15 to 20)
#    0.000    1.500    1.250    3.750    1.750    4.500 
#    0.000    3.125    0.000    0.000    0.000    0.000 
#    0.000    0.000    0.000    0.000    0.000    0.000 
#
# Total GULP energy -89167.867988 kJ/mol
# GULP energy per Si atom -5572.991749 kJ/mol
# Density = 2.006243 g / cm^3
# Si number density = 20.108199 Si / 1000 Ang^3
#
#
#
# Elastic Constant Matrix: (Units=GPa)
#
#
# Indices 1 2 3 4 5 6 
#
# 1 128.2186 25.5002 57.9896 4.1571 19.9495 -0.0169
# 2 25.5002 43.1854 30.6239 7.6084 16.0902 -0.7221
# 3 57.9896 30.6239 140.3091 20.5537 3.8657 -0.7758
# 4 4.1571 7.6084 20.5537 26.4237 -0.7919 -4.5540
# 5 19.9495 16.0902 3.8657 -0.7919 40.7833 8.7644
# 6 -0.0169 -0.7221 -0.7758 -4.5540 8.7644 27.7683
#
#
#
# Elastic Compliance Matrix: (Units=1/GPa)
#
#
# Indices 1 2 3 4 5 6 
#
# 1 0.010703 -0.002151 -0.004167 0.002318 -0.004283 0.001566
# 2 -0.002151 0.033973 -0.005431 -0.004920 -0.012782 0.003958
# 3 -0.004167 -0.005431 0.010878 -0.006482 0.003452 -0.001993
# 4 0.002318 -0.004920 -0.006482 0.045141 0.000829 0.006834
# 5 -0.004283 -0.012782 0.003452 0.000829 0.033652 -0.010724
# 6 0.001566 0.003958 -0.001993 0.006834 -0.010724 0.040566
#
#
# Mechanical properties :
#
#
# Convention : Reuss Voigt Hill
#
# Bulk Modulus (GPa) = 31.19586 59.99337 45.59461
# Shear Modulus (GPa) = 23.91229 32.16834 28.04031
#
# Velocity S-wave (km/s) = 3.45219 4.00404 3.73831
# Velocity P-wave (km/s) = 5.60695 7.16076 6.43095
#
# Compressibility (1/GPa) = 0.03205554
#
# Stress axis : x y z
#
# Youngs Moduli (GPa) = 93.43048 29.43500 91.92763
#
# Poissons Ratio (x) = 0.06333 0.38306
# Poissons Ratio (y) = 0.20101 0.49926
# Poissons Ratio (z) = 0.38932 0.15986
#
# Static dielectric constant tensor:
#      x y z
#    x 1.765960 0.000310 0.016940 
#    y 0.000310 1.787380 0.074880 
#    z 0.016940 0.074880 1.781480 
# 
# From -- ./inp_files/189044.got.cif
#   From: 2010.05.17/outbox.cif.g08.bks.cpg/sg2_95_cif.got.tgz:189044.got - 2010.06.03 11:33:40.
