data_PCOD9005343
_publ_section_title
;
Structure prediction by ZEFSAII (Michael W. Deem and Ramdas Pophale) SiO2 
 PCOD9005343
Probable space group: P -1
;
_chemical_formula_sum "Si O2"
_cell_formula_units_Z 14
_cell_length_a 13.951233
_cell_length_b 8.674569
_cell_length_c 12.182716
_cell_angle_alpha 122.059904
_cell_angle_beta 135.319791
_cell_angle_gamma 92.254793
_cell_volume 627.978197
_symmetry_space_group_name_H-M "P -1"
_symmetry_group_IT_number 2
_symmetry_cell_setting 'triclinic'
loop_
_space_group_symop_operation_xyz
x,y,z
-x,-y,-z
loop_
_atom_site_type_symbol
_atom_site_label
_atom_site_fract_x
_atom_site_fract_y
_atom_site_fract_z
Si Si1 0.204577 0.609172 0.672322
Si Si2 0.878593 0.878347 0.521994
Si Si3 0.450415 0.820367 0.543006
Si Si4 0.479467 0.814284 0.795132
Si Si5 0.287321 0.622734 0.100392
Si Si6 0.097346 0.728737 0.251281
Si Si7 0.295081 0.246591 0.890171
O O1 0.195317 0.387334 0.606863
O O2 0.277764 0.688348 0.635375
O O3 0.000000 0.500000 0.500000
O O4 0.370454 0.878265 0.970032
O O5 0.748293 0.837471 0.302752
O O6 0.885882 0.043562 0.681455
O O7 0.091458 0.047486 0.711964
O O8 0.475258 0.725627 0.636483
O O9 0.360590 0.653339 0.296532
O O10 0.303187 0.836148 0.472714
O O11 0.633892 0.106995 0.764801
O O12 0.566529 0.755129 0.931721
O O13 0.356081 0.514927 0.046541
O O14 0.058028 0.413018 0.831708
O O15 0.000000 0.500000 0.000000
#
# Coordination Sequence:
#
# PCOD9005343 Si02
#       7
#     2   2   2   2   2   2   2
#     4  11  24  42  58  89 131 164 200 256 314 365
#     4  10  21  38  65  86 122 165 203 256 307 367
#     4  10  21  38  62  90 119 167 204 253 309 363
#     4  11  25  37  60  93 126 162 208 257 305 368
#     4   9  20  40  63  86 123 160 210 251 306 367
#     4   9  20  38  63  89 118 159 210 254 298 368
#     4  10  21  38  61  94 119 159 209 255 307 370
#
# _framework density 22.293766999999999
#
# number of rings (size 3 to 8) (size 9 to 14) (size 15 to 20)
#    0.000    2.000    1.429    0.857    6.000    3.429 
#    0.000    0.000    0.000    2.571    0.000    0.000 
#    0.000    0.000    0.000    0.000    0.000    0.000 
#
# Total GULP energy -78095.257386 kJ/mol
# GULP energy per Si atom -5578.232670 kJ/mol
# Density = 2.224303 g / cm^3
# Si number density = 22.293767 Si / 1000 Ang^3
#
#
#
# Elastic Constant Matrix: (Units=GPa)
#
#
# Indices 1 2 3 4 5 6 
#
# 1 73.2800 20.8390 33.0777 -3.8826 -6.5448 2.7160
# 2 20.8390 69.3930 29.1618 3.8388 -0.8871 -8.2983
# 3 33.0777 29.1618 67.8183 8.1065 14.3198 2.4163
# 4 -3.8826 3.8388 8.1065 27.0469 -0.3369 -8.6391
# 5 -6.5448 -0.8871 14.3198 -0.3369 42.6598 1.2574
# 6 2.7160 -8.2983 2.4163 -8.6391 1.2574 33.9665
#
#
#
# Elastic Compliance Matrix: (Units=1/GPa)
#
#
# Indices 1 2 3 4 5 6 
#
# 1 0.020243 -0.001482 -0.011530 0.006755 0.006990 0.000299
# 2 -0.001482 0.019030 -0.008434 0.001448 0.002845 0.005631
# 3 -0.011530 -0.008434 0.027831 -0.010670 -0.011211 -0.005417
# 4 0.006755 0.001448 -0.010670 0.044757 0.004654 0.011784
# 5 0.006990 0.002845 -0.011211 0.004654 0.028341 0.001068
# 6 0.000299 0.005631 -0.005417 0.011784 0.001068 0.034135
#
#
# Mechanical properties :
#
#
# Convention : Reuss Voigt Hill
#
# Bulk Modulus (GPa) = 41.30307 41.84980 41.57644
# Shear Modulus (GPa) = 22.19246 29.22882 25.71064
#
# Velocity S-wave (km/s) = 3.15851 3.62481 3.39966
# Velocity P-wave (km/s) = 5.64522 6.02758 5.83953
#
# Compressibility (1/GPa) = 0.02421127
#
# Stress axis : x y z
#
# Youngs Moduli (GPa) = 49.39865 52.54913 35.93083
#
# Poissons Ratio (x) = 0.07790 0.41428
# Poissons Ratio (y) = 0.07323 0.30305
# Poissons Ratio (z) = 0.56957 0.44321
#
# Static dielectric constant tensor:
#      x y z
#    x 1.882510 0.015620 0.005600 
#    y 0.015620 1.861950 -0.015950 
#    z 0.005600 -0.015950 1.855440 
# 
# From -- ./inp_files/530159.got.cif
#   From: 2010.05.17/outbox.cif.g08.bks.cpg/sg2_266_cif.got.tgz:530159.got - 2010.06.03 11:33:40.
