data_PCOD9005927
_publ_section_title
;
Structure prediction by ZEFSAII (Michael W. Deem and Ramdas Pophale) SiO2 
 PCOD9005927
Probable space group: P -1
;
_chemical_formula_sum "Si O2"
_cell_formula_units_Z 16
_cell_length_a 8.943009
_cell_length_b 11.324305
_cell_length_c 8.522689
_cell_angle_alpha 101.820740
_cell_angle_beta 63.974951
_cell_angle_gamma 107.163750
_cell_volume 738.200764
_symmetry_space_group_name_H-M "P -1"
_symmetry_group_IT_number 2
_symmetry_cell_setting 'triclinic'
loop_
_space_group_symop_operation_xyz
x,y,z
-x,-y,-z
loop_
_atom_site_type_symbol
_atom_site_label
_atom_site_fract_x
_atom_site_fract_y
_atom_site_fract_z
Si Si1 0.659754 0.754359 0.433326
Si Si2 0.493214 0.535380 0.240974
Si Si3 0.855902 0.615376 0.503529
Si Si4 0.156271 0.502644 0.040649
Si Si5 0.919729 0.348265 0.307893
Si Si6 0.367586 0.720128 0.132028
Si Si7 0.438626 0.069567 0.693858
Si Si8 0.612951 0.178119 0.201311
O O1 0.528402 0.631349 0.395302
O O2 0.818886 0.707773 0.413303
O O3 0.686807 0.852331 0.304560
O O4 0.561626 0.808057 0.630804
O O5 0.323957 0.430271 0.327126
O O6 0.472866 0.621370 0.123784
O O7 0.666886 0.489894 0.127935
O O8 0.876487 0.482327 0.393777
O O9 0.011301 0.681450 0.563049
O O10 0.186055 0.623653 0.170236
O O11 0.092385 0.377483 0.132435
O O12 0.000000 0.500000 0.000000
O O13 0.768064 0.260602 0.257158
O O14 0.407710 0.828716 0.270451
O O15 0.395689 0.780782 0.963275
O O16 0.500000 0.000000 0.500000
O O17 0.370192 0.963202 0.823096
#
# Coordination Sequence:
#
# PCOD9005927 Si02
#       8
#     2   2   2   2   2   2   2   2
#     4  10  21  38  64  88 121 174 218 255 305 384
#     4  11  22  38  60  93 135 167 208 247 320 400
#     4  11  22  38  60  93 132 172 205 255 321 387
#     4  12  23  37  58  98 137 165 196 258 328 383
#     4  11  24  36  59  97 136 160 206 264 322 378
#     4  11  22  37  64  93 127 168 210 261 318 379
#     4   9  22  41  64  90 119 168 230 264 296 372
#     4  11  21  40  64  92 127 165 217 265 314 363
#
# _framework density 21.674323000000001
#
# number of rings (size 3 to 8) (size 9 to 14) (size 15 to 20)
#    0.000    1.250    3.750    2.625    1.750    0.000 
#    0.000    0.625    0.000    7.500    0.000    0.000 
#    0.000    0.000    0.000    0.000    0.000    0.000 
#
# Total GULP energy -89241.518801 kJ/mol
# GULP energy per Si atom -5577.594925 kJ/mol
# Density = 2.162499 g / cm^3
# Si number density = 21.674323 Si / 1000 Ang^3
#
#
#
# Elastic Constant Matrix: (Units=GPa)
#
#
# Indices 1 2 3 4 5 6 
#
# 1 128.4982 50.7782 35.4576 7.2404 34.5160 -10.2974
# 2 50.7782 103.3536 15.6791 3.4046 16.8591 -6.4999
# 3 35.4576 15.6791 56.2437 -0.3917 13.8324 1.7447
# 4 7.2404 3.4046 -0.3917 32.6006 3.6226 17.0105
# 5 34.5160 16.8591 13.8324 3.6226 45.1934 -6.9941
# 6 -10.2974 -6.4999 1.7447 17.0105 -6.9941 38.6691
#
#
#
# Elastic Compliance Matrix: (Units=1/GPa)
#
#
# Indices 1 2 3 4 5 6 
#
# 1 0.013137 -0.004272 -0.005808 -0.003815 -0.005787 0.003674
# 2 -0.004272 0.012088 -0.000507 -0.000808 -0.000853 0.001118
# 3 -0.005808 -0.000507 0.022654 0.004837 -0.003535 -0.005421
# 4 -0.003815 -0.000808 0.004837 0.043371 -0.005048 -0.021362
# 5 -0.005787 -0.000853 -0.003535 -0.005048 0.029279 0.005991
# 6 0.003674 0.001118 -0.005421 -0.021362 0.005991 0.037752
#
#
# Mechanical properties :
#
#
# Convention : Reuss Voigt Hill
#
# Bulk Modulus (GPa) = 37.44736 54.65839 46.05287
# Shear Modulus (GPa) = 26.54526 35.70466 31.12496
#
# Velocity S-wave (km/s) = 3.50342 4.06313 3.79361
# Velocity P-wave (km/s) = 5.80345 6.87639 6.36258
#
# Compressibility (1/GPa) = 0.02670416
#
# Stress axis : x y z
#
# Youngs Moduli (GPa) = 76.11974 82.72941 44.14233
#
# Poissons Ratio (x) = 0.35346 0.25639
# Poissons Ratio (y) = 0.32522 0.02236
# Poissons Ratio (z) = 0.44212 0.04191
#
# Static dielectric constant tensor:
#      x y z
#    x 1.808950 -0.036150 0.023080 
#    y -0.036150 1.819640 -0.019120 
#    z 0.023080 -0.019120 1.917870 
# 
# From -- ./inp_files/188408.got.cif
#   From: 2010.05.17/outbox.cif.g08.bks.cpg/sg2_95_cif.got.tgz:188408.got - 2010.06.03 11:33:40.
