data_PCOD9005167
_publ_section_title
;
Structure prediction by ZEFSAII (Michael W. Deem and Ramdas Pophale) SiO2 
 PCOD9005167
Probable space group: P -1
;
_chemical_formula_sum "Si O2"
_cell_formula_units_Z 16
_cell_length_a 15.065627
_cell_length_b 13.804649
_cell_length_c 15.263524
_cell_angle_alpha 43.084961
_cell_angle_beta 27.427168
_cell_angle_gamma 27.194012
_cell_volume 641.321538
_symmetry_space_group_name_H-M "P -1"
_symmetry_group_IT_number 2
_symmetry_cell_setting 'triclinic'
loop_
_space_group_symop_operation_xyz
x,y,z
-x,-y,-z
loop_
_atom_site_type_symbol
_atom_site_label
_atom_site_fract_x
_atom_site_fract_y
_atom_site_fract_z
Si Si1 0.927411 0.301332 0.126781
Si Si2 0.819943 0.897904 0.782143
Si Si3 0.972280 0.958902 0.293413
Si Si4 0.793963 0.261456 0.942839
Si Si5 0.325958 0.246206 0.690801
Si Si6 0.260879 0.720769 0.364668
Si Si7 0.003431 0.428017 0.690277
Si Si8 0.458862 0.172157 0.299713
O O1 0.590991 0.493490 0.257537
O O2 0.964026 0.283955 0.210620
O O3 0.066280 0.069914 0.130989
O O4 0.120396 0.318554 0.903965
O O5 0.001770 0.794450 0.600746
O O6 0.764432 0.095384 0.719381
O O7 0.500000 0.000000 0.000000
O O8 0.979700 0.888753 0.237221
O O9 0.187253 0.748053 0.308264
O O10 0.638193 0.146677 0.502842
O O11 0.900429 0.325487 0.871058
O O12 0.500000 0.500000 0.000000
O O13 0.696519 0.160512 0.124023
O O14 0.131229 0.428319 0.664693
O O15 0.427008 0.042466 0.690800
O O16 0.254393 0.274576 0.496952
O O17 0.736409 0.658932 0.722554
#
# Coordination Sequence:
#
# PCOD9005167 Si02
#       8
#     2   2   2   2   2   2   2   2
#     4  11  25  41  65  98 130 164 204 253 312 379
#     4  10  22  45  73  99 126 161 201 249 310 377
#     4  11  24  42  58  93 132 165 212 263 310 367
#     4  10  21  38  61  83 119 170 216 263 312 360
#     4  12  24  38  60  89 124 164 212 260 311 367
#     4  10  24  43  68  96 131 164 200 252 310 377
#     4  10  23  38  57  85 115 163 220 267 311 361
#     4  10  21  39  57  80 117 161 210 269 311 359
#
# _framework density 24.948481999999998
#
# number of rings (size 3 to 8) (size 9 to 14) (size 15 to 20)
#    0.000    1.500    2.500    1.500    3.500    4.000 
#    0.000    0.000    0.000    0.000    0.000    0.000 
#    0.000    0.000    0.000    0.000    0.000    0.000 
#
# Total GULP energy -89607.955137 kJ/mol
# GULP energy per Si atom -5600.497196 kJ/mol
# Density = 2.489170 g / cm^3
# Si number density = 24.948482 Si / 1000 Ang^3
#
#
#
# Elastic Constant Matrix: (Units=GPa)
#
#
# Indices 1 2 3 4 5 6 
#
# 1 60.2074 34.1433 13.9610 -8.1601 -5.8003 -23.5828
# 2 34.1433 86.2011 23.6536 -5.9168 3.7044 -18.7154
# 3 13.9610 23.6536 138.9893 -4.1803 -12.0759 -10.4982
# 4 -8.1601 -5.9168 -4.1803 23.9686 -1.3529 -4.5341
# 5 -5.8003 3.7044 -12.0759 -1.3529 33.5756 -0.1483
# 6 -23.5828 -18.7154 -10.4982 -4.5341 -0.1483 46.6523
#
#
#
# Elastic Compliance Matrix: (Units=1/GPa)
#
#
# Indices 1 2 3 4 5 6 
#
# 1 0.027726 -0.008076 0.000332 0.010099 0.006260 0.011852
# 2 -0.008076 0.016030 -0.002074 0.001000 -0.003861 0.001967
# 3 0.000332 -0.002074 0.007930 0.001405 0.003201 0.001267
# 4 0.010099 0.001000 0.001405 0.047867 0.004115 0.010488
# 5 0.006260 -0.003861 0.003201 0.004115 0.032620 0.002839
# 6 0.011852 0.001967 0.001267 0.010488 0.002839 0.029529
#
#
# Mechanical properties :
#
#
# Convention : Reuss Voigt Hill
#
# Bulk Modulus (GPa) = 31.19917 47.65708 39.42813
# Shear Modulus (GPa) = 26.03874 35.08196 30.56035
#
# Velocity S-wave (km/s) = 3.23414 3.75397 3.50371
# Velocity P-wave (km/s) = 5.14576 6.15901 5.67504
#
# Compressibility (1/GPa) = 0.03205213
#
# Stress axis : x y z
#
# Youngs Moduli (GPa) = 36.06718 62.38279 126.09733
#
# Poissons Ratio (x) = 0.50379 -0.04189
# Poissons Ratio (y) = 0.29127 0.26148
# Poissons Ratio (z) = -0.01198 0.12936
#
# Static dielectric constant tensor:
#      x y z
#    x 1.959140 -0.031760 -0.039530 
#    y -0.031760 1.989800 0.002760 
#    z -0.039530 0.002760 1.970210 
# 
# From -- ./inp_files/348410.got.cif
#   From: 2010.05.17/outbox.cif.g08.bks.cpg/sg2_175_cif.got.tgz:348410.got - 2010.06.03 11:33:40.
