data_PCOD9005603
_publ_section_title
;
Structure prediction by ZEFSAII (Michael W. Deem and Ramdas Pophale) SiO2 
 PCOD9005603
Probable space group: P -1
;
_chemical_formula_sum "Si O2"
_cell_formula_units_Z 14
_cell_length_a 9.336878
_cell_length_b 15.706008
_cell_length_c 16.065134
_cell_angle_alpha 152.980365
_cell_angle_beta 144.981845
_cell_angle_gamma 38.640411
_cell_volume 602.052090
_symmetry_space_group_name_H-M "P -1"
_symmetry_group_IT_number 2
_symmetry_cell_setting 'triclinic'
loop_
_space_group_symop_operation_xyz
x,y,z
-x,-y,-z
loop_
_atom_site_type_symbol
_atom_site_label
_atom_site_fract_x
_atom_site_fract_y
_atom_site_fract_z
Si Si1 0.581103 0.702077 0.059206
Si Si2 0.978699 0.388781 0.268297
Si Si3 0.251433 0.710183 0.222932
Si Si4 0.595041 0.137015 0.730712
Si Si5 0.404525 0.303076 0.266239
Si Si6 0.786773 0.779935 0.597814
Si Si7 0.313731 0.095838 0.874765
O O1 0.630420 0.779607 0.240808
O O2 0.567477 0.853416 0.111352
O O3 0.764865 0.506113 0.951991
O O4 0.306583 0.647226 0.897116
O O5 0.133569 0.333922 0.210844
O O6 0.123355 0.267054 0.307183
O O7 0.950902 0.612962 0.473798
O O8 0.314898 0.713706 0.157366
O O9 0.492083 0.759817 0.430070
O O10 0.990024 0.855741 0.239445
O O11 0.500000 0.000000 0.500000
O O12 0.801895 0.989476 0.754313
O O13 0.500000 0.500000 0.500000
O O14 0.584090 0.119813 0.234959
O O15 0.378746 0.239074 0.102680
#
# Coordination Sequence:
#
# PCOD9005603 Si02
#       7
#     2   2   2   2   2   2   2
#     4  11  23  43  70  96 136 179 221 279 337 397
#     4  10  22  42  69  97 132 176 229 273 333 399
#     4  10  22  42  66  95 139 174 218 274 341 398
#     4  10  21  38  62  96 130 170 224 271 329 401
#     4  11  27  45  69 101 137 179 226 281 341 400
#     4   9  21  38  68 100 129 171 226 278 325 398
#     4  11  26  46  68 102 138 180 224 276 346 406
#
# _framework density 23.253802
#
# number of rings (size 3 to 8) (size 9 to 14) (size 15 to 20)
#    0.000    1.714    0.000    2.571    8.000    5.714 
#    2.571    3.571    0.000    0.000    0.000    0.000 
#    0.000    0.000    0.000    0.000    0.000    0.000 
#
# Total GULP energy -78285.784458 kJ/mol
# GULP energy per Si atom -5591.841747 kJ/mol
# Density = 2.320088 g / cm^3
# Si number density = 23.253802 Si / 1000 Ang^3
#
#
#
# Elastic Constant Matrix: (Units=GPa)
#
#
# Indices 1 2 3 4 5 6 
#
# 1 106.9152 14.4424 27.4336 -3.9056 -5.3438 -6.2404
# 2 14.4424 93.9358 27.2614 10.0867 20.7180 -6.4244
# 3 27.4336 27.2614 89.3127 9.9667 -4.3724 3.4904
# 4 -3.9056 10.0867 9.9667 34.0251 1.2706 5.3940
# 5 -5.3438 20.7180 -4.3724 1.2706 17.4318 3.2005
# 6 -6.2404 -6.4244 3.4904 5.3940 3.2005 33.6193
#
#
#
# Elastic Compliance Matrix: (Units=1/GPa)
#
#
# Indices 1 2 3 4 5 6 
#
# 1 0.010712 -0.002063 -0.002729 0.002297 0.004689 0.001063
# 2 -0.002063 0.019696 -0.006486 -0.004335 -0.026691 0.007291
# 3 -0.002729 -0.006486 0.015026 -0.002591 0.011563 -0.003991
# 4 0.002297 -0.004335 -0.002591 0.032458 0.003889 -0.005711
# 5 0.004689 -0.026691 0.011563 0.003889 0.095932 -0.015187
# 6 0.001063 0.007291 -0.003991 -0.005711 -0.015187 0.034112
#
#
# Mechanical properties :
#
#
# Convention : Reuss Voigt Hill
#
# Bulk Modulus (GPa) = 43.71065 47.60430 45.65748
# Shear Modulus (GPa) = 20.99797 31.75034 26.37416
#
# Velocity S-wave (km/s) = 3.00824 3.69912 3.37142
# Velocity P-wave (km/s) = 5.55914 6.22581 5.90189
#
# Compressibility (1/GPa) = 0.02287772
#
# Stress axis : x y z
#
# Youngs Moduli (GPa) = 93.34926 50.77161 66.55203
#
# Poissons Ratio (x) = 0.10475 0.18162
# Poissons Ratio (y) = 0.19260 0.43166
# Poissons Ratio (z) = 0.25475 0.32931
#
# Static dielectric constant tensor:
#      x y z
#    x 1.884880 0.002780 -0.022380 
#    y 0.002780 1.881090 0.017340 
#    z -0.022380 0.017340 1.979930 
# 
# From -- ./inp_files/506003.got.cif
#   From: 2010.05.17/outbox.cif.g08.bks.cpg/sg2_254_cif.got.tgz:506003.got - 2010.06.03 11:33:40.
