data_PCOD9005364
_publ_section_title
;
Structure prediction by ZEFSAII (Michael W. Deem and Ramdas Pophale) SiO2 
 PCOD9005364
Probable space group: P -1
;
_chemical_formula_sum "Si O2"
_cell_formula_units_Z 14
_cell_length_a 10.542499
_cell_length_b 8.915526
_cell_length_c 17.702384
_cell_angle_alpha 152.861286
_cell_angle_beta 131.869015
_cell_angle_gamma 58.174930
_cell_volume 554.209421
_symmetry_space_group_name_H-M "P -1"
_symmetry_group_IT_number 2
_symmetry_cell_setting 'triclinic'
loop_
_space_group_symop_operation_xyz
x,y,z
-x,-y,-z
loop_
_atom_site_type_symbol
_atom_site_label
_atom_site_fract_x
_atom_site_fract_y
_atom_site_fract_z
Si Si1 0.930899 0.993618 0.791730
Si Si2 0.393654 0.644092 0.331286
Si Si3 0.609051 0.424330 0.435400
Si Si4 0.567075 0.400597 0.061113
Si Si5 0.913952 0.278020 0.131856
Si Si6 0.207479 0.360063 0.979033
Si Si7 0.207058 0.897434 0.512334
O O1 0.748368 0.748845 0.612899
O O2 0.051156 0.809593 0.807808
O O3 0.874602 0.337162 0.952387
O O4 0.039001 0.067669 0.790487
O O5 0.506503 0.390317 0.299544
O O6 0.266345 0.479374 0.140938
O O7 0.289051 0.722539 0.397877
O O8 0.500000 0.000000 0.500000
O O9 0.500000 0.500000 0.500000
O O10 0.718814 0.173993 0.406632
O O11 0.709574 0.189382 0.997782
O O12 0.387539 0.297129 0.988717
O O13 0.698595 0.716225 0.292509
O O14 0.500000 0.500000 0.000000
O O15 0.010439 0.667563 0.329751
O O16 0.000000 0.000000 0.000000
#
# Coordination Sequence:
#
# PCOD9005364 Si02
#       7
#     2   2   2   2   2   2   2
#     4  10  21  38  61  96 131 174 215 272 334 402
#     4  11  18  34  66 101 131 171 223 272 337 401
#     4   9  18  35  61  95 135 173 223 264 324 400
#     4  12  26  44  66  98 137 180 232 283 340 405
#     4  11  24  44  68  96 132 178 232 283 342 410
#     4  11  22  39  65  97 139 175 224 278 340 404
#     4  10  22  42  68  96 135 180 224 278 339 408
#
# _framework density 25.261208
#
# number of rings (size 3 to 8) (size 9 to 14) (size 15 to 20)
#    0.000    1.429    2.857    3.000    0.000    6.286 
#    0.000    0.000    0.000    6.000    0.000    0.000 
#    0.000    0.000    0.000    0.000    0.000    0.000 
#
# Total GULP energy -77989.739979 kJ/mol
# GULP energy per Si atom -5570.695713 kJ/mol
# Density = 2.520371 g / cm^3
# Si number density = 25.261208 Si / 1000 Ang^3
#
#
#
# Elastic Constant Matrix: (Units=GPa)
#
#
# Indices 1 2 3 4 5 6 
#
# 1 182.8901 25.7212 44.0426 11.7928 47.9866 -17.3586
# 2 25.7212 99.2454 -1.3937 -18.0286 11.7658 -9.7341
# 3 44.0426 -1.3937 89.0792 21.4509 31.9526 11.3956
# 4 11.7928 -18.0286 21.4509 33.9391 16.3528 5.8743
# 5 47.9866 11.7658 31.9526 16.3528 47.8265 -3.3464
# 6 -17.3586 -9.7341 11.3956 5.8743 -3.3464 40.7271
#
#
#
# Elastic Compliance Matrix: (Units=1/GPa)
#
#
# Indices 1 2 3 4 5 6 
#
# 1 0.008085 -0.000943 -0.002313 0.000635 -0.006324 0.003257
# 2 -0.000943 0.012786 0.000288 0.009502 -0.005588 0.000744
# 3 -0.002313 0.000288 0.017140 -0.005126 -0.007841 -0.005618
# 4 0.000635 0.009502 -0.005126 0.045633 -0.015424 -0.003873
# 5 -0.006324 -0.005588 -0.007841 -0.015424 0.039394 0.003625
# 6 0.003257 0.000744 -0.005618 -0.003873 0.003625 0.028548
#
#
# Mechanical properties :
#
#
# Convention : Reuss Voigt Hill
#
# Bulk Modulus (GPa) = 31.17925 56.43942 43.80934
# Shear Modulus (GPa) = 29.72386 44.68818 37.20602
#
# Velocity S-wave (km/s) = 3.43397 4.21056 3.84194
# Velocity P-wave (km/s) = 5.30023 6.78449 6.08776
#
# Compressibility (1/GPa) = 0.03207261
#
# Stress axis : x y z
#
# Youngs Moduli (GPa) = 123.68829 78.21038 58.34337
#
# Poissons Ratio (x) = 0.07378 0.13497
# Poissons Ratio (y) = 0.11669 -0.01678
# Poissons Ratio (z) = 0.28613 -0.02250
#
# Static dielectric constant tensor:
#      x y z
#    x 2.064980 -0.080670 0.089280 
#    y -0.080670 2.103150 0.110760 
#    z 0.089280 0.110760 2.651110 
# 
# From -- ./inp_files/557732.got.cif
#   From: 2010.05.17/outbox.cif.g08.bks.cpg/sg2_279_cif.got.tgz:557732.got - 2010.06.03 11:33:40.
