data_PCOD9005540
_publ_section_title
;
Structure prediction by ZEFSAII (Michael W. Deem and Ramdas Pophale) SiO2 
 PCOD9005540
Probable space group: P -1
;
_chemical_formula_sum "Si O2"
_cell_formula_units_Z 15
_cell_length_a 7.283188
_cell_length_b 11.860439
_cell_length_c 8.579771
_cell_angle_alpha 130.652956
_cell_angle_beta 83.705463
_cell_angle_gamma 82.565560
_cell_volume 538.705607
_symmetry_space_group_name_H-M "P -1"
_symmetry_group_IT_number 2
_symmetry_cell_setting 'triclinic'
loop_
_space_group_symop_operation_xyz
x,y,z
-x,-y,-z
loop_
_atom_site_type_symbol
_atom_site_label
_atom_site_fract_x
_atom_site_fract_y
_atom_site_fract_z
Si Si1 0.676169 0.992313 0.302219
Si Si2 0.000000 0.500000 0.000000
Si Si3 0.314485 0.331341 0.935083
Si Si4 0.910945 0.821615 0.829895
Si Si5 0.530126 0.546817 0.236008
Si Si6 0.823112 0.219014 0.695316
Si Si7 0.230142 0.854485 0.007948
Si Si8 0.573775 0.754052 0.667682
O O1 0.617571 0.849713 0.261376
O O2 0.812332 0.065234 0.463241
O O3 0.502130 0.118699 0.349226
O O4 0.799267 0.900818 0.065568
O O5 0.025128 0.679601 0.235961
O O6 0.904514 0.596584 0.935605
O O7 0.281049 0.438833 0.869665
O O8 0.450404 0.399628 0.092126
O O9 0.791147 0.719078 0.669937
O O10 0.128115 0.765630 0.812900
O O11 0.876981 0.966136 0.845380
O O12 0.370473 0.669000 0.261954
O O13 0.543089 0.602182 0.455599
O O14 0.794769 0.188763 0.852524
O O15 0.440813 0.826171 0.890534
#
# Coordination Sequence:
#
# PCOD9005540 Si02
#       8
#     2   1   2   2   2   2   2   2
#     4  10  21  38  69  96 123 166 223 262 324 379
#     4  10  22  42  58  94 138 154 204 274 332 368
#     4  10  21  39  64  91 126 167 214 267 316 389
#     4  10  22  38  58  96 136 172 205 273 320 384
#     4   9  22  41  63  92 127 168 215 260 331 373
#     4  10  22  39  69  97 123 168 210 277 317 385
#     4  10  21  38  62  92 135 165 216 261 327 382
#     4  10  22  42  63  95 132 173 208 274 317 390
#
# _framework density 27.844522999999999
#
# number of rings (size 3 to 8) (size 9 to 14) (size 15 to 20)
#    0.000    2.133    0.000    2.400    5.600    3.200 
#    9.600    0.667    0.000   15.200    0.000    0.000 
#    0.000    0.000    0.000    0.000    0.000    0.000 
#
# Total GULP energy -83654.495173 kJ/mol
# GULP energy per Si atom -5576.966345 kJ/mol
# Density = 2.778115 g / cm^3
# Si number density = 27.844523 Si / 1000 Ang^3
#
#
#
# Elastic Constant Matrix: (Units=GPa)
#
#
# Indices 1 2 3 4 5 6 
#
# 1 91.9230 24.1637 57.6937 6.9562 43.1860 4.4025
# 2 24.1637 153.8312 59.2927 1.6479 17.8422 -1.8167
# 3 57.6937 59.2927 188.5923 23.4728 63.6102 8.8918
# 4 6.9562 1.6479 23.4728 43.9533 6.8425 2.5726
# 5 43.1860 17.8422 63.6102 6.8425 52.8068 2.6413
# 6 4.4025 -1.8167 8.8918 2.5726 2.6413 32.2846
#
#
#
# Elastic Compliance Matrix: (Units=1/GPa)
#
#
# Indices 1 2 3 4 5 6 
#
# 1 0.017950 -0.001076 -0.000433 -0.000366 -0.013685 -0.001240
# 2 -0.001076 0.007549 -0.002693 0.001045 0.001382 0.001117
# 3 -0.000433 -0.002693 0.010448 -0.003629 -0.010761 -0.001800
# 4 -0.000366 0.001045 -0.003629 0.024580 0.001181 -0.000947
# 5 -0.013685 0.001382 -0.010761 0.001181 0.042403 0.001344
# 6 -0.001240 0.001117 -0.001800 -0.000947 0.001344 0.031668
#
#
# Mechanical properties :
#
#
# Convention : Reuss Voigt Hill
#
# Bulk Modulus (GPa) = 36.30813 79.62743 57.96778
# Shear Modulus (GPa) = 32.85506 45.35538 39.10522
#
# Velocity S-wave (km/s) = 3.43876 4.04032 3.75162
# Velocity P-wave (km/s) = 5.36979 7.10104 6.29522
#
# Compressibility (1/GPa) = 0.02754204
#
# Stress axis : x y z
#
# Youngs Moduli (GPa) = 55.71158 132.46026 95.71412
#
# Poissons Ratio (x) = 0.14254 0.04144
# Poissons Ratio (y) = 0.05995 0.25778
# Poissons Ratio (z) = 0.02412 0.35675
#
# Static dielectric constant tensor:
#      x y z
#    x 3.550690 0.214450 -0.006600 
#    y 0.214450 2.422110 0.096370 
#    z -0.006600 0.096370 2.174610 
# 
# From -- ./inp_files/190929.got.cif
#   From: 2010.05.17/outbox.cif.g08.bks.cpg/sg2_96_cif.got.tgz:190929.got - 2010.06.03 11:33:40.
