data_PCOD9005765
_publ_section_title
;
Structure prediction by ZEFSAII (Michael W. Deem and Ramdas Pophale) SiO2 
 PCOD9005765
Probable space group: P -1
;
_chemical_formula_sum "Si O2"
_cell_formula_units_Z 14
_cell_length_a 9.790969
_cell_length_b 13.040438
_cell_length_c 18.887849
_cell_angle_alpha 28.356661
_cell_angle_beta 48.093143
_cell_angle_gamma 34.817269
_cell_volume 640.612050
_symmetry_space_group_name_H-M "P -1"
_symmetry_group_IT_number 2
_symmetry_cell_setting 'triclinic'
loop_
_space_group_symop_operation_xyz
x,y,z
-x,-y,-z
loop_
_atom_site_type_symbol
_atom_site_label
_atom_site_fract_x
_atom_site_fract_y
_atom_site_fract_z
Si Si1 0.396122 0.570969 0.900042
Si Si2 0.374198 0.429847 0.531712
Si Si3 0.196463 0.108000 0.832677
Si Si4 0.844886 0.907141 0.601836
Si Si5 0.864249 0.410135 0.899850
Si Si6 0.110896 0.647013 0.351290
Si Si7 0.406539 0.844811 0.599139
O O1 0.582906 0.598918 0.855128
O O2 0.325607 0.741988 0.748894
O O3 0.162362 0.694115 0.953440
O O4 0.563897 0.228449 0.039519
O O5 0.500000 0.500000 0.500000
O O6 0.254323 0.317961 0.680678
O O7 0.192109 0.669066 0.388639
O O8 0.592978 0.146594 0.584073
O O9 0.027956 0.205824 0.901267
O O10 0.067129 0.150568 0.776288
O O11 0.935471 0.600174 0.777487
O O12 0.801427 0.932491 0.518133
O O13 0.000000 0.000000 0.500000
O O14 0.367813 0.434809 0.350594
O O15 0.000000 0.500000 0.500000
O O16 0.500000 0.000000 0.500000
#
# Coordination Sequence:
#
# PCOD9005765 Si02
#       7
#     2   2   2   2   2   2   2
#     4  11  23  38  65  97 134 164 211 267 321 378
#     4  10  21  38  63  92 130 170 215 263 311 382
#     4  11  20  40  65  95 133 164 210 261 325 378
#     4  11  22  41  66  91 128 171 218 261 319 386
#     4  11  22  38  64  98 127 169 207 262 322 375
#     4   9  20  34  60  92 123 158 211 258 315 369
#     4  11  21  40  62  93 127 162 216 268 316 376
#
# _framework density 21.854101
#
# number of rings (size 3 to 8) (size 9 to 14) (size 15 to 20)
#    0.000    1.429    4.286    1.286    0.000    1.143 
#    0.000    0.714    3.143    2.571    0.000    0.000 
#    0.000    0.000    0.000    0.000    0.000    0.000 
#
# Total GULP energy -78099.698520 kJ/mol
# GULP energy per Si atom -5578.549894 kJ/mol
# Density = 2.180436 g / cm^3
# Si number density = 21.854101 Si / 1000 Ang^3
#
#
#
# Elastic Constant Matrix: (Units=GPa)
#
#
# Indices 1 2 3 4 5 6 
#
# 1 123.9040 21.5872 48.3608 9.3678 -15.0194 20.7832
# 2 21.5872 131.9319 78.1395 24.6232 4.3850 12.6657
# 3 48.3608 78.1395 143.7237 37.8556 -4.2395 17.9959
# 4 9.3678 24.6232 37.8556 48.3266 6.4884 -0.7081
# 5 -15.0194 4.3850 -4.2395 6.4884 34.7497 4.9301
# 6 20.7832 12.6657 17.9959 -0.7081 4.9301 27.7517
#
#
#
# Elastic Compliance Matrix: (Units=1/GPa)
#
#
# Indices 1 2 3 4 5 6 
#
# 1 0.011100 0.000468 -0.002455 -0.001367 0.005830 -0.008005
# 2 0.000468 0.011415 -0.005949 -0.001059 -0.001560 -0.001452
# 3 -0.002455 -0.005949 0.013873 -0.007923 0.003612 -0.005287
# 4 -0.001367 -0.001059 -0.007923 0.028916 -0.008074 0.008817
# 5 0.005830 -0.001560 0.003612 -0.008074 0.035210 -0.012457
# 6 -0.008005 -0.001452 -0.005287 0.008817 -0.012457 0.048558
#
#
# Mechanical properties :
#
#
# Convention : Reuss Voigt Hill
#
# Bulk Modulus (GPa) = 48.74127 77.30384 63.02255
# Shear Modulus (GPa) = 29.10629 38.93042 34.01836
#
# Velocity S-wave (km/s) = 3.65341 4.22522 3.94967
# Velocity P-wave (km/s) = 6.33624 7.69758 7.04985
#
# Compressibility (1/GPa) = 0.02051650
#
# Stress axis : x y z
#
# Youngs Moduli (GPa) = 90.08765 87.60040 72.08012
#
# Poissons Ratio (x) = -0.04096 0.17695
# Poissons Ratio (y) = -0.04212 0.42880
# Poissons Ratio (z) = 0.22116 0.52113
#
# Static dielectric constant tensor:
#      x y z
#    x 1.813000 -0.000440 0.018140 
#    y -0.000440 1.922210 0.011360 
#    z 0.018140 0.011360 1.822680 
# 
# From -- ./inp_files/327478.got.cif
#   From: 2010.05.17/outbox.cif.g08.bks.cpg/sg2_164_cif.got.tgz:327478.got - 2010.06.03 11:33:40.
