data_PCOD9005349
_publ_section_title
;
Structure prediction by ZEFSAII (Michael W. Deem and Ramdas Pophale) SiO2 
 PCOD9005349
Probable space group: P -1
;
_chemical_formula_sum "Si O2"
_cell_formula_units_Z 16
_cell_length_a 9.494637
_cell_length_b 15.695836
_cell_length_c 7.740784
_cell_angle_alpha 59.688457
_cell_angle_beta 132.822811
_cell_angle_gamma 94.218806
_cell_volume 660.974388
_symmetry_space_group_name_H-M "P -1"
_symmetry_group_IT_number 2
_symmetry_cell_setting 'triclinic'
loop_
_space_group_symop_operation_xyz
x,y,z
-x,-y,-z
loop_
_atom_site_type_symbol
_atom_site_label
_atom_site_fract_x
_atom_site_fract_y
_atom_site_fract_z
Si Si1 0.630843 0.261656 0.839990
Si Si2 0.912823 0.322330 0.801223
Si Si3 0.976620 0.389350 0.286904
Si Si4 0.731638 0.274337 0.371509
Si Si5 0.287702 0.985958 0.783958
Si Si6 0.082907 0.964018 0.305090
Si Si7 0.746304 0.638537 0.798451
Si Si8 0.664236 0.580990 0.274543
O O1 0.838196 0.277619 0.950866
O O2 0.493230 0.289849 0.520672
O O3 0.488199 0.353710 0.761363
O O4 0.661673 0.142227 0.037694
O O5 0.866765 0.261359 0.668261
O O6 0.759245 0.451557 0.514305
O O7 0.147002 0.313216 0.024684
O O8 0.114971 0.366233 0.253396
O O9 0.134392 0.390765 0.569340
O O10 0.868215 0.310848 0.316092
O O11 0.798436 0.512959 0.001707
O O12 0.740627 0.159059 0.447575
O O13 0.492342 0.369057 0.068169
O O14 0.188631 0.021331 0.469711
O O15 0.109620 0.036369 0.734794
O O16 0.500000 0.000000 0.000000
O O17 0.000000 0.000000 0.000000
#
# Coordination Sequence:
#
# PCOD9005349 Si02
#       8
#     2   2   2   2   2   2   2   2
#     4  11  21  40  66  92 125 168 223 273 330 396
#     4  11  23  36  61  99 137 174 207 260 328 413
#     4   9  20  37  59  92 128 171 212 256 315 393
#     4  12  23  38  65  90 133 177 211 269 342 398
#     4  11  27  48  77 102 131 186 244 297 358 421
#     4  11  27  50  71 103 142 177 238 309 360 409
#     4   9  20  36  61  92 130 167 213 260 313 393
#     4  10  21  38  61  94 132 172 215 255 318 405
#
# _framework density 24.206686000000001
#
# number of rings (size 3 to 8) (size 9 to 14) (size 15 to 20)
#    0.000    1.500    1.250    3.750    3.500    5.500 
#    0.000    0.000    0.000    0.000    0.000    0.000 
#    0.000    0.000    0.000    0.000    0.000    0.000 
#
# Total GULP energy -89421.639872 kJ/mol
# GULP energy per Si atom -5588.852492 kJ/mol
# Density = 2.415159 g / cm^3
# Si number density = 24.206686 Si / 1000 Ang^3
#
#
#
# Elastic Constant Matrix: (Units=GPa)
#
#
# Indices 1 2 3 4 5 6 
#
# 1 71.0704 17.4642 27.3804 8.8001 -14.0349 -4.3582
# 2 17.4642 68.8623 34.4346 17.5978 1.3990 -2.1426
# 3 27.3804 34.4346 76.4762 38.8781 -13.1386 7.4883
# 4 8.8001 17.5978 38.8781 38.9040 -8.0183 -4.1098
# 5 -14.0349 1.3990 -13.1386 -8.0183 33.4476 8.2918
# 6 -4.3582 -2.1426 7.4883 -4.1098 8.2918 29.1743
#
#
#
# Elastic Compliance Matrix: (Units=1/GPa)
#
#
# Indices 1 2 3 4 5 6 
#
# 1 0.018342 -0.001982 -0.008893 0.007115 0.004878 0.004493
# 2 -0.001982 0.020593 -0.011207 0.001499 -0.007319 0.006384
# 3 -0.008893 -0.011207 0.044116 -0.037124 0.010547 -0.021702
# 4 0.007115 0.001499 -0.037124 0.062279 -0.001676 0.019951
# 5 0.004878 -0.007319 0.010547 -0.001676 0.039453 -0.013965
# 6 0.004493 0.006384 -0.021702 0.019951 -0.013965 0.047767
#
#
# Mechanical properties :
#
#
# Convention : Reuss Voigt Hill
#
# Bulk Modulus (GPa) = 25.71665 41.66302 33.68984
# Shear Modulus (GPa) = 17.26070 29.44715 23.35393
#
# Velocity S-wave (km/s) = 2.67321 3.49160 3.10945
# Velocity P-wave (km/s) = 4.49165 5.78825 5.18067
#
# Compressibility (1/GPa) = 0.03888531
#
# Stress axis : x y z
#
# Youngs Moduli (GPa) = 54.52099 48.56081 22.66761
#
# Poissons Ratio (x) = 0.09625 0.20159
# Poissons Ratio (y) = 0.10807 0.25404
# Poissons Ratio (z) = 0.48487 0.54422
#
# Static dielectric constant tensor:
#      x y z
#    x 1.969230 -0.063560 -0.095960 
#    y -0.063560 1.922630 0.082030 
#    z -0.095960 0.082030 2.042880 
# 
# From -- ./inp_files/269895.got.cif
#   From: 2010.05.17/outbox.cif.g08.bks.cpg/sg2_135_cif.got.tgz:269895.got - 2010.06.03 11:33:40.
