data_PCOD9005978
_publ_section_title
;
Structure prediction by ZEFSAII (Michael W. Deem and Ramdas Pophale) SiO2 
 PCOD9005978
Probable space group: P -1
;
_chemical_formula_sum "Si O2"
_cell_formula_units_Z 16
_cell_length_a 20.770489
_cell_length_b 7.784860
_cell_length_c 20.349349
_cell_angle_alpha 35.577996
_cell_angle_beta 22.351394
_cell_angle_gamma 48.337943
_cell_volume 668.689741
_symmetry_space_group_name_H-M "P -1"
_symmetry_group_IT_number 2
_symmetry_cell_setting 'triclinic'
loop_
_space_group_symop_operation_xyz
x,y,z
-x,-y,-z
loop_
_atom_site_type_symbol
_atom_site_label
_atom_site_fract_x
_atom_site_fract_y
_atom_site_fract_z
Si Si1 0.468238 0.063217 0.271910
Si Si2 0.856299 0.201303 0.610383
Si Si3 0.358434 0.158271 0.713933
Si Si4 0.748794 0.724161 0.756942
Si Si5 0.870927 0.854051 0.449478
Si Si6 0.190413 0.319386 0.071262
Si Si7 0.580958 0.564633 0.569712
Si Si8 0.986612 0.801519 0.141157
O O1 0.257590 0.990995 0.510027
O O2 0.580241 0.076184 0.228127
O O3 0.462010 0.782549 0.315669
O O4 0.568467 0.408169 0.036039
O O5 0.830362 0.513300 0.561738
O O6 0.077662 0.319003 0.358312
O O7 0.747560 0.033476 0.700009
O O8 0.804714 0.924620 0.800545
O O9 0.500000 0.500000 0.500000
O O10 0.384474 0.193074 0.600135
O O11 0.140005 0.053275 0.965204
O O12 0.804575 0.792351 0.607573
O O13 0.083006 0.091693 0.182319
O O14 0.068426 0.525875 0.139560
O O15 0.398609 0.530948 0.790055
O O16 0.769123 0.663254 0.403321
O O17 0.000000 0.000000 0.000000
#
# Coordination Sequence:
#
# PCOD9005978 Si02
#       8
#     2   2   2   2   2   2   2   2
#     4  11  20  39  66  95 132 185 223 279 349 400
#     4  10  22  40  63  99 137 178 235 285 336 414
#     4   9  21  39  65  91 130 172 219 281 335 404
#     4  10  21  38  64  90 135 182 224 287 348 389
#     4  11  22  39  66 101 138 181 235 279 340 419
#     4  11  21  40  69  97 137 175 227 286 341 413
#     4  10  21  40  69  95 129 180 226 276 356 405
#     4  10  21  40  67  96 127 172 227 282 340 410
#
# _framework density 23.927388000000001
#
# number of rings (size 3 to 8) (size 9 to 14) (size 15 to 20)
#    0.000    1.750    1.250    4.125    0.000    2.500 
#    0.000    1.875   24.750    0.000    0.000    0.000 
#    0.000    0.000    0.000    0.000    0.000    0.000 
#
# Total GULP energy -89442.153326 kJ/mol
# GULP energy per Si atom -5590.134583 kJ/mol
# Density = 2.387293 g / cm^3
# Si number density = 23.927388 Si / 1000 Ang^3
#
#
#
# Elastic Constant Matrix: (Units=GPa)
#
#
# Indices 1 2 3 4 5 6 
#
# 1 83.6758 28.8337 40.5094 6.2670 -24.8499 -1.6841
# 2 28.8337 95.7616 30.2771 -6.2581 -19.1509 7.7760
# 3 40.5094 30.2771 147.4591 14.0157 -33.8601 -7.0626
# 4 6.2670 -6.2581 14.0157 34.8080 -2.7211 -11.7486
# 5 -24.8499 -19.1509 -33.8601 -2.7211 30.3288 -6.5470
# 6 -1.6841 7.7760 -7.0626 -11.7486 -6.5470 36.6853
#
#
#
# Elastic Compliance Matrix: (Units=1/GPa)
#
#
# Indices 1 2 3 4 5 6 
#
# 1 0.017010 -0.002774 -0.001272 -0.001249 0.011242 0.002730
# 2 -0.002774 0.012879 -0.001209 0.003236 0.004531 -0.001245
# 3 -0.001272 -0.001209 0.010000 -0.002169 0.009852 0.003187
# 4 -0.001249 0.003236 -0.002169 0.034267 0.003943 0.010517
# 5 0.011242 0.004531 0.009852 0.003943 0.059267 0.013292
# 6 0.002730 -0.001245 0.003187 0.010517 0.013292 0.034002
#
#
# Mechanical properties :
#
#
# Convention : Reuss Voigt Hill
#
# Bulk Modulus (GPa) = 34.03932 58.45964 46.24948
# Shear Modulus (GPa) = 26.63411 35.51617 31.07514
#
# Velocity S-wave (km/s) = 3.33997 3.85688 3.60769
# Velocity P-wave (km/s) = 5.39730 6.65727 6.06012
#
# Compressibility (1/GPa) = 0.02937779
#
# Stress axis : x y z
#
# Youngs Moduli (GPa) = 58.78871 77.64634 99.99588
#
# Poissons Ratio (x) = 0.21543 0.12723
# Poissons Ratio (y) = 0.16311 0.12089
# Poissons Ratio (z) = 0.07480 0.09387
#
# Static dielectric constant tensor:
#      x y z
#    x 1.986030 0.016970 -0.018600 
#    y 0.016970 1.938550 -0.014970 
#    z -0.018600 -0.014970 1.964730 
# 
# From -- ./inp_files/614026.got.cif
#   From: 2010.05.17/outbox.cif.g08.bks.cpg/sg2_308_cif.got.tgz:614026.got - 2010.06.03 11:33:40.
