data_PCOD9005132
_publ_section_title
;
Structure prediction by ZEFSAII (Michael W. Deem and Ramdas Pophale) SiO2 
 PCOD9005132
Probable space group: P -1
;
_chemical_formula_sum "Si O2"
_cell_formula_units_Z 14
_cell_length_a 7.885333
_cell_length_b 8.623563
_cell_length_c 11.942824
_cell_angle_alpha 89.459691
_cell_angle_beta 70.222345
_cell_angle_gamma 126.051886
_cell_volume 594.176458
_symmetry_space_group_name_H-M "P -1"
_symmetry_group_IT_number 2
_symmetry_cell_setting 'triclinic'
loop_
_space_group_symop_operation_xyz
x,y,z
-x,-y,-z
loop_
_atom_site_type_symbol
_atom_site_label
_atom_site_fract_x
_atom_site_fract_y
_atom_site_fract_z
Si Si1 0.800273 0.480744 0.104073
Si Si2 0.350560 0.526148 0.632738
Si Si3 0.371176 0.050902 0.113793
Si Si4 0.891053 0.239242 0.611058
Si Si5 0.503031 0.724062 0.299357
Si Si6 0.684146 0.961804 0.459275
Si Si7 0.332770 0.290497 0.969967
O O1 0.798064 0.472735 0.237131
O O2 0.567625 0.267413 0.121300
O O3 0.826327 0.672092 0.057494
O O4 0.000000 0.500000 0.000000
O O5 0.459382 0.430411 0.662950
O O6 0.554831 0.746368 0.544975
O O7 0.157908 0.397653 0.582677
O O8 0.232419 0.903845 0.250183
O O9 0.229040 0.101131 0.072721
O O10 0.500000 0.000000 0.000000
O O11 0.738930 0.314362 0.626465
O O12 0.874068 0.125883 0.502724
O O13 0.701112 0.925667 0.324482
O O14 0.535253 0.727951 0.159140
O O15 0.500000 0.000000 0.500000
O O16 0.500000 0.500000 0.000000
#
# Coordination Sequence:
#
# PCOD9005132 Si02
#       7
#     2   2   2   2   2   2   2
#     4  10  21  38  60  93 127 166 212 264 317 380
#     4  11  23  43  65  94 129 168 214 261 326 380
#     4  11  19  37  63  88 130 165 206 266 316 373
#     4  11  23  42  67  95 129 170 212 262 324 376
#     4  10  22  42  65  92 131 168 210 267 316 377
#     4  10  23  44  68  94 128 167 215 269 314 379
#     4   9  20  36  60  91 125 166 209 253 324 375
#
# _framework density 23.562024999999998
#
# number of rings (size 3 to 8) (size 9 to 14) (size 15 to 20)
#    0.000    1.714    2.857    1.286    2.000    2.857 
#    2.571    5.000    0.000    0.000    0.000    0.000 
#    0.000    0.000    0.000    0.000    0.000    0.000 
#
# Total GULP energy -78140.324268 kJ/mol
# GULP energy per Si atom -5581.451733 kJ/mol
# Density = 2.350840 g / cm^3
# Si number density = 23.562025 Si / 1000 Ang^3
#
#
#
# Elastic Constant Matrix: (Units=GPa)
#
#
# Indices 1 2 3 4 5 6 
#
# 1 68.0841 32.1421 21.3623 -13.0612 4.6301 -7.8145
# 2 32.1421 97.3640 28.9214 23.7289 19.8627 2.6830
# 3 21.3623 28.9214 113.7972 29.6456 3.1180 -3.0929
# 4 -13.0612 23.7289 29.6456 46.1239 -6.4017 14.1406
# 5 4.6301 19.8627 3.1180 -6.4017 38.9611 4.0073
# 6 -7.8145 2.6830 -3.0929 14.1406 4.0073 39.3262
#
#
#
# Elastic Compliance Matrix: (Units=1/GPa)
#
#
# Indices 1 2 3 4 5 6 
#
# 1 0.026336 -0.013127 -0.007331 0.020856 0.007859 -0.002748
# 2 -0.013127 0.021105 0.002654 -0.019473 -0.013074 0.004495
# 3 -0.007331 0.002654 0.013452 -0.014228 -0.004409 0.004985
# 4 0.020856 -0.019473 -0.014228 0.054741 0.019362 -0.017302
# 5 0.007859 -0.013074 -0.004409 0.019362 0.035807 -0.008504
# 6 -0.002748 0.004495 0.004985 -0.017302 -0.008504 0.032056
#
#
# Mechanical properties :
#
#
# Convention : Reuss Voigt Hill
#
# Bulk Modulus (GPa) = 39.54906 49.34411 44.44659
# Shear Modulus (GPa) = 21.97471 38.00354 29.98912
#
# Velocity S-wave (km/s) = 3.05722 4.02047 3.57147
# Velocity P-wave (km/s) = 5.41143 6.52226 5.99264
#
# Compressibility (1/GPa) = 0.02528505
#
# Stress axis : x y z
#
# Youngs Moduli (GPa) = 37.97036 47.38187 74.33786
#
# Poissons Ratio (x) = 0.62198 0.54497
# Poissons Ratio (y) = 0.49844 -0.19728
# Poissons Ratio (z) = 0.27836 -0.12574
#
# Static dielectric constant tensor:
#      x y z
#    x 1.912140 -0.010510 0.070740 
#    y -0.010510 1.893080 0.069960 
#    z 0.070740 0.069960 1.994870 
# 
# From -- ./inp_files/204561.got.cif
#   From: 2010.05.17/outbox.cif.g08.bks.cpg/sg2_103_cif.got.tgz:204561.got - 2010.06.03 11:33:40.
