data_PCOD9005248
_publ_section_title
;
Structure prediction by ZEFSAII (Michael W. Deem and Ramdas Pophale) SiO2 
 PCOD9005248
Probable space group: P -1
;
_chemical_formula_sum "Si O2"
_cell_formula_units_Z 12
_cell_length_a 10.168481
_cell_length_b 5.086270
_cell_length_c 11.242008
_cell_angle_alpha 117.884717
_cell_angle_beta 75.256140
_cell_angle_gamma 69.227886
_cell_volume 413.712205
_symmetry_space_group_name_H-M "P -1"
_symmetry_group_IT_number 2
_symmetry_cell_setting 'triclinic'
loop_
_space_group_symop_operation_xyz
x,y,z
-x,-y,-z
loop_
_atom_site_type_symbol
_atom_site_label
_atom_site_fract_x
_atom_site_fract_y
_atom_site_fract_z
Si Si1 0.788696 0.313147 0.109472
Si Si2 0.896979 0.856602 0.210841
Si Si3 0.242233 0.399767 0.470737
Si Si4 0.663026 0.490557 0.929072
Si Si5 0.504050 0.713864 0.779703
Si Si6 0.979029 0.348797 0.634096
O O1 0.904389 0.986165 0.104299
O O2 0.611160 0.433224 0.230486
O O3 0.814426 0.635785 0.175218
O O4 0.781183 0.237454 0.955177
O O5 0.807346 0.216536 0.385344
O O6 0.154591 0.361464 0.364403
O O7 0.055662 0.618067 0.210221
O O8 0.423202 0.241664 0.348960
O O9 0.151985 0.307516 0.569489
O O10 0.656791 0.464570 0.781141
O O11 0.500000 0.500000 0.000000
O O12 0.609189 0.894039 0.055178
O O13 0.000000 0.000000 0.500000
#
# Coordination Sequence:
#
# PCOD9005248 Si02
#       6
#     2   2   2   2   2   2
#     4  11  21  38  60  88 123 159 190 239 297 356
#     4  11  21  38  60  88 123 159 190 239 297 356
#     4  10  21  38  61  89 119 157 200 242 291 353
#     4   9  20  38  58  84 118 160 200 237 293 345
#     4  10  21  38  61  89 119 157 200 242 291 353
#     4   9  20  38  58  84 118 160 200 237 293 345
#
# _framework density 29.005669000000001
#
# number of rings (size 3 to 8) (size 9 to 14) (size 15 to 20)
#    0.000    2.000    3.333    0.000    0.000    6.667 
#    0.000    0.000    0.000    2.000    0.000    0.000 
#    0.000    0.000    0.000    0.000    0.000    0.000 
#
# Total GULP energy -67080.972266 kJ/mol
# GULP energy per Si atom -5590.081022 kJ/mol
# Density = 2.893965 g / cm^3
# Si number density = 29.005669 Si / 1000 Ang^3
#
#
#
# Elastic Constant Matrix: (Units=GPa)
#
#
# Indices 1 2 3 4 5 6 
#
# 1 114.4569 65.2120 50.2134 -4.4022 26.1416 -4.6846
# 2 65.2120 203.9024 53.9307 -17.8975 11.1832 38.6010
# 3 50.2134 53.9307 142.7832 -21.9113 6.8073 -1.6115
# 4 -4.4022 -17.8975 -21.9113 73.1657 -3.6816 11.6842
# 5 26.1416 11.1832 6.8073 -3.6816 70.2999 -15.1154
# 6 -4.6846 38.6010 -1.6115 11.6842 -15.1154 65.0233
#
#
#
# Elastic Compliance Matrix: (Units=1/GPa)
#
#
# Indices 1 2 3 4 5 6 
#
# 1 0.013179 -0.003806 -0.003263 -0.001710 -0.003505 0.002620
# 2 -0.003806 0.007715 -0.001278 0.002106 -0.000747 -0.005438
# 3 -0.003263 -0.001278 0.008928 0.002117 0.000780 0.000546
# 4 -0.001710 0.002106 0.002117 0.015366 0.000024 -0.004077
# 5 -0.003505 -0.000747 0.000780 0.000024 0.016439 0.004027
# 6 0.002620 -0.005438 0.000546 -0.004077 0.004027 0.020478
#
#
# Mechanical properties :
#
#
# Convention : Reuss Voigt Hill
#
# Bulk Modulus (GPa) = 76.17431 88.87272 82.52351
# Shear Modulus (GPa) = 48.46181 61.15021 54.80601
#
# Velocity S-wave (km/s) = 4.09194 4.59651 4.35155
# Velocity P-wave (km/s) = 6.97454 7.67313 7.33216
#
# Compressibility (1/GPa) = 0.01312779
#
# Stress axis : x y z
#
# Youngs Moduli (GPa) = 75.87943 129.62074 112.01145
#
# Poissons Ratio (x) = 0.49330 0.36549
# Poissons Ratio (y) = 0.28877 0.14316
# Poissons Ratio (z) = 0.24759 0.16567
#
# Static dielectric constant tensor:
#      x y z
#    x 2.559730 -0.127220 -0.004450 
#    y -0.127220 2.353570 -0.104990 
#    z -0.004450 -0.104990 2.218140 
# 
# From -- ./inp_files/371971.got.cif
#   From: 2010.05.17/outbox.cif.g08.bks.cpg/sg2_186_cif.got.tgz:371971.got - 2010.06.03 11:33:40.
