data_PCOD9005839
_publ_section_title
;
Structure prediction by ZEFSAII (Michael W. Deem and Ramdas Pophale) SiO2 
 PCOD9005839
Probable space group: P -1
;
_chemical_formula_sum "Si O2"
_cell_formula_units_Z 10
_cell_length_a 5.145366
_cell_length_b 13.512177
_cell_length_c 9.641528
_cell_angle_alpha 117.413187
_cell_angle_beta 137.517946
_cell_angle_gamma 80.852419
_cell_volume 383.216635
_symmetry_space_group_name_H-M "P -1"
_symmetry_group_IT_number 2
_symmetry_cell_setting 'triclinic'
loop_
_space_group_symop_operation_xyz
x,y,z
-x,-y,-z
loop_
_atom_site_type_symbol
_atom_site_label
_atom_site_fract_x
_atom_site_fract_y
_atom_site_fract_z
Si Si1 0.041437 0.393444 0.034067
Si Si2 0.564766 0.953298 0.725363
Si Si3 0.547042 0.141083 0.117320
Si Si4 0.624195 0.148040 0.713581
Si Si5 0.876640 0.384304 0.276996
O O1 0.400510 0.365757 0.074187
O O2 0.099386 0.412590 0.235127
O O3 0.000000 0.500000 0.000000
O O4 0.648928 0.281506 0.807506
O O5 0.337137 0.847533 0.666130
O O6 0.564582 0.907470 0.540275
O O7 0.426196 0.069270 0.717693
O O8 0.000000 0.000000 0.000000
O O9 0.863870 0.252629 0.238927
O O10 0.094439 0.148334 0.914607
O O11 0.500000 0.000000 0.000000
O O12 0.000000 0.500000 0.500000
#
# Coordination Sequence:
#
# PCOD9005839 Si02
#       5
#     2   2   2   2   2
#     4  11  24  45  70  99 141 184 233 282 358 411
#     4   9  18  37  61  92 131 174 223 282 350 403
#     4  10  21  38  63  95 138 178 231 281 358 407
#     4   9  20  38  63  96 138 173 232 286 341 418
#     4  11  25  46  69 104 140 181 238 292 341 425
#
# _framework density 26.094899999999999
#
# number of rings (size 3 to 8) (size 9 to 14) (size 15 to 20)
#    0.000    2.000    0.000    2.400    2.800    2.400 
#   14.400    0.000    0.000    0.000    0.000    0.000 
#    0.000    0.000    0.000    0.000    0.000    0.000 
#
# Total GULP energy -55685.642776 kJ/mol
# GULP energy per Si atom -5568.564278 kJ/mol
# Density = 2.603551 g / cm^3
# Si number density = 26.094900 Si / 1000 Ang^3
#
#
#
# Elastic Constant Matrix: (Units=GPa)
#
#
# Indices 1 2 3 4 5 6 
#
# 1 90.7154 39.1533 -5.5696 -12.9520 -3.1069 26.0238
# 2 39.1533 252.2440 62.9655 0.5567 -7.1286 47.0205
# 3 -5.5696 62.9655 107.3573 8.8486 -6.0704 24.7390
# 4 -12.9520 0.5567 8.8486 42.1927 5.1793 -10.1747
# 5 -3.1069 -7.1286 -6.0704 5.1793 36.4507 -5.3655
# 6 26.0238 47.0205 24.7390 -10.1747 -5.3655 42.9852
#
#
#
# Elastic Compliance Matrix: (Units=1/GPa)
#
#
# Indices 1 2 3 4 5 6 
#
# 1 0.014681 -0.001514 0.003566 0.001633 0.000008 -0.008897
# 2 -0.001514 0.005533 -0.002298 -0.001046 0.000124 -0.004046
# 3 0.003566 -0.002298 0.013036 -0.003671 0.001393 -0.007842
# 4 0.001633 -0.001046 -0.003671 0.027407 -0.003344 0.008339
# 5 0.000008 0.000124 0.001393 -0.003344 0.028434 0.001817
# 6 -0.008897 -0.004046 -0.007842 0.008339 0.001817 0.039790
#
#
# Mechanical properties :
#
#
# Convention : Reuss Voigt Hill
#
# Bulk Modulus (GPa) = 30.52704 71.49053 51.00879
# Shear Modulus (GPa) = 35.63972 47.91023 41.77498
#
# Velocity S-wave (km/s) = 3.69965 4.28951 4.00545
# Velocity P-wave (km/s) = 5.47483 7.21034 6.40167
#
# Compressibility (1/GPa) = 0.03275784
#
# Stress axis : x y z
#
# Youngs Moduli (GPa) = 68.11304 180.73412 76.71018
#
# Poissons Ratio (x) = 0.27359 -0.27352
# Poissons Ratio (y) = 0.10311 0.17629
# Poissons Ratio (z) = -0.24286 0.41536
#
# Static dielectric constant tensor:
#      x y z
#    x 2.506400 0.042210 -0.133140 
#    y 0.042210 2.227380 0.056790 
#    z -0.133140 0.056790 2.150630 
# 
# From -- ./inp_files/24915.got.cif
#   From: 2010.05.17/outbox.cif.g08.bks.cpg/sg2_13_cif.got.tgz:24915.got - 2010.06.03 11:33:40.
