data_PCOD9005523
_publ_section_title
;
Structure prediction by ZEFSAII (Michael W. Deem and Ramdas Pophale) SiO2 
 PCOD9005523
Probable space group: P -1
;
_chemical_formula_sum "Si O2"
_cell_formula_units_Z 16
_cell_length_a 22.691661
_cell_length_b 25.811803
_cell_length_c 9.902493
_cell_angle_alpha 151.946624
_cell_angle_beta 27.482530
_cell_angle_gamma 164.809047
_cell_volume 684.499457
_symmetry_space_group_name_H-M "P -1"
_symmetry_group_IT_number 2
_symmetry_cell_setting 'triclinic'
loop_
_space_group_symop_operation_xyz
x,y,z
-x,-y,-z
loop_
_atom_site_type_symbol
_atom_site_label
_atom_site_fract_x
_atom_site_fract_y
_atom_site_fract_z
Si Si1 0.843356 0.723061 0.747851
Si Si2 0.554596 0.920318 0.350599
Si Si3 0.620604 0.718335 0.813221
Si Si4 0.483450 0.341925 0.805215
Si Si5 0.813788 0.402288 0.324969
Si Si6 0.099592 0.697527 0.667320
Si Si7 0.180474 0.343433 0.669430
Si Si8 0.803465 0.188825 0.693995
O O1 0.670135 0.543144 0.796855
O O2 0.812805 0.652436 0.496272
O O3 0.093554 0.857370 0.590808
O O4 0.765116 0.793923 0.057773
O O5 0.291973 0.744470 0.423589
O O6 0.739988 0.103830 0.290040
O O7 0.580255 0.010974 0.643289
O O8 0.643561 0.863528 0.073639
O O9 0.438875 0.554127 0.688156
O O10 0.848095 0.803570 0.555369
O O11 0.508162 0.622357 0.970887
O O12 0.571045 0.280504 0.486162
O O13 0.897408 0.499548 0.527105
O O14 0.012057 0.607714 0.304589
O O15 0.795752 0.260638 0.004986
O O16 0.989940 0.690731 0.994935
#
# Coordination Sequence:
#
# PCOD9005523 Si02
#       8
#     2   2   2   2   2   2   2   2
#     4   9  19  34  61  88 115 152 204 251 294 356
#     4  10  23  40  60  89 129 162 198 255 309 355
#     4  10  21  38  62  92 123 156 202 258 303 358
#     4   9  17  36  58  89 115 153 200 253 297 351
#     4   9  17  34  61  84 111 156 205 245 289 360
#     4  10  21  40  62  89 124 164 205 247 303 366
#     4  10  21  38  63  92 119 157 212 249 294 371
#     4   9  19  36  56  84 117 155 200 246 298 355
#
# _framework density 23.374745000000001
#
# number of rings (size 3 to 8) (size 9 to 14) (size 15 to 20)
#    0.000    2.500    1.250    0.000    1.750    2.000 
#    2.250    6.250    0.000    0.000    0.000    0.000 
#    0.000    0.000    0.000    0.000    0.000    0.000 
#
# Total GULP energy -89221.854868 kJ/mol
# GULP energy per Si atom -5576.365929 kJ/mol
# Density = 2.332154 g / cm^3
# Si number density = 23.374745 Si / 1000 Ang^3
#
#
#
# Elastic Constant Matrix: (Units=GPa)
#
#
# Indices 1 2 3 4 5 6 
#
# 1 112.5528 28.6237 31.3838 9.6626 -8.8776 -7.4517
# 2 28.6237 48.2468 12.7576 -5.4712 -8.2924 -8.8688
# 3 31.3838 12.7576 100.9108 0.9451 -24.7117 4.2600
# 4 9.6626 -5.4712 0.9451 17.2720 -5.2988 7.2244
# 5 -8.8776 -8.2924 -24.7117 -5.2988 41.3925 -11.1196
# 6 -7.4517 -8.8688 4.2600 7.2244 -11.1196 40.5594
#
#
#
# Elastic Compliance Matrix: (Units=1/GPa)
#
#
# Indices 1 2 3 4 5 6 
#
# 1 0.012779 -0.007728 -0.003380 -0.010948 -0.001545 0.002540
# 2 -0.007728 0.028868 0.000201 0.013831 0.007193 0.004380
# 3 -0.003380 0.000201 0.012691 0.003721 0.007208 -0.000597
# 4 -0.010948 0.013831 0.003721 0.075393 0.009559 -0.010186
# 5 -0.001545 0.007193 0.007208 0.009559 0.032905 0.007850
# 6 0.002540 0.004380 -0.000597 -0.010186 0.007850 0.030109
#
#
# Mechanical properties :
#
#
# Convention : Reuss Voigt Hill
#
# Bulk Modulus (GPa) = 30.74680 45.24897 37.99789
# Shear Modulus (GPa) = 22.18283 32.44113 27.31198
#
# Velocity S-wave (km/s) = 3.08394 3.72946 3.42195
# Velocity P-wave (km/s) = 5.08560 6.15997 5.64839
#
# Compressibility (1/GPa) = 0.03252371
#
# Stress axis : x y z
#
# Youngs Moduli (GPa) = 78.25548 34.64013 78.79535
#
# Poissons Ratio (x) = 0.26769 0.26635
# Poissons Ratio (y) = 0.60473 -0.01582
# Poissons Ratio (z) = 0.26452 -0.00695
#
# Static dielectric constant tensor:
#      x y z
#    x 1.882860 -0.026530 -0.038430 
#    y -0.026530 1.888600 -0.009770 
#    z -0.038430 -0.009770 1.938350 
# 
# From -- ./inp_files/350040.got.cif
#   From: 2010.05.17/outbox.cif.g08.bks.cpg/sg2_176_cif.got.tgz:350040.got - 2010.06.03 11:33:40.
