data_PCOD9005496
_publ_section_title
;
Structure prediction by ZEFSAII (Michael W. Deem and Ramdas Pophale) SiO2 
 PCOD9005496
Probable space group: P -1
;
_chemical_formula_sum "Si O2"
_cell_formula_units_Z 14
_cell_length_a 25.428058
_cell_length_b 10.699255
_cell_length_c 11.639352
_cell_angle_alpha 154.773317
_cell_angle_beta 30.306079
_cell_angle_gamma 145.677149
_cell_volume 666.054897
_symmetry_space_group_name_H-M "P -1"
_symmetry_group_IT_number 2
_symmetry_cell_setting 'triclinic'
loop_
_space_group_symop_operation_xyz
x,y,z
-x,-y,-z
loop_
_atom_site_type_symbol
_atom_site_label
_atom_site_fract_x
_atom_site_fract_y
_atom_site_fract_z
Si Si1 0.209839 0.596093 0.941346
Si Si2 0.918832 0.207862 0.863638
Si Si3 0.906024 0.546253 0.572387
Si Si4 0.799510 0.069024 0.206250
Si Si5 0.370181 0.730931 0.906440
Si Si6 0.611676 0.938234 0.614535
Si Si7 0.117455 0.909920 0.559380
O O1 0.333964 0.623590 0.748777
O O2 0.143861 0.263301 0.815323
O O3 0.155473 0.715275 0.035509
O O4 0.211313 0.803131 0.225057
O O5 0.000000 0.000000 0.500000
O O6 0.000000 0.500000 0.000000
O O7 0.835554 0.074186 0.010276
O O8 0.909827 0.276500 0.428887
O O9 0.018605 0.779292 0.553459
O O10 0.872082 0.370516 0.373906
O O11 0.830308 0.761552 0.937239
O O12 0.683429 0.061811 0.470735
O O13 0.487760 0.938699 0.836185
O O14 0.377806 0.402035 0.666828
O O15 0.341721 0.880949 0.208624
#
# Coordination Sequence:
#
# PCOD9005496 Si02
#       7
#     2   2   2   2   2   2   2
#     4  12  22  38  59  83 117 159 197 238 291 348
#     4  12  26  42  59  82 119 166 208 242 279 340
#     4  11  22  35  56  86 117 149 191 246 302 356
#     4  12  22  38  59  83 117 160 199 239 291 348
#     4  10  21  38  62  91 119 148 189 245 305 358
#     4  10  21  38  62  91 119 148 189 245 305 358
#     4  11  22  35  56  86 117 148 189 245 302 356
#
# _framework density 21.019288
#
# number of rings (size 3 to 8) (size 9 to 14) (size 15 to 20)
#    0.000    0.857    0.000   10.286    0.000    2.286 
#    0.000    2.143    0.000    0.000    0.000   12.000 
#    0.000    0.000    0.000    0.000    0.000    0.000 
#
# Total GULP energy -77967.038089 kJ/mol
# GULP energy per Si atom -5569.074149 kJ/mol
# Density = 2.097145 g / cm^3
# Si number density = 21.019288 Si / 1000 Ang^3
#
#
#
# Elastic Constant Matrix: (Units=GPa)
#
#
# Indices 1 2 3 4 5 6 
#
# 1 103.0869 59.5762 -4.1150 -17.7111 5.2009 16.3548
# 2 59.5762 106.2743 15.6677 -24.1619 6.6181 2.9270
# 3 -4.1150 15.6677 82.9087 16.2263 19.5988 -14.3620
# 4 -17.7111 -24.1619 16.2263 92.3185 23.3241 -10.8894
# 5 5.2009 6.6181 19.5988 23.3241 34.6377 -8.2192
# 6 16.3548 2.9270 -14.3620 -10.8894 -8.2192 36.2506
#
#
#
# Elastic Compliance Matrix: (Units=1/GPa)
#
#
# Indices 1 2 3 4 5 6 
#
# 1 0.016235 -0.008849 0.002165 0.000654 -0.003943 -0.006450
# 2 -0.008849 0.015764 -0.003360 0.003718 -0.001788 0.002100
# 3 0.002165 -0.003360 0.015207 -0.001014 -0.006780 0.003478
# 4 0.000654 0.003718 -0.001014 0.014746 -0.009882 0.001192
# 5 -0.003943 -0.001788 -0.006780 -0.009882 0.041650 0.005712
# 6 -0.006450 0.002100 0.003478 0.001192 0.005712 0.033357
#
#
# Mechanical properties :
#
#
# Convention : Reuss Voigt Hill
#
# Bulk Modulus (GPa) = 36.87340 48.28088 42.57714
# Shear Modulus (GPa) = 30.10473 47.38409 38.74441
#
# Velocity S-wave (km/s) = 3.78860 4.75311 4.29800
# Velocity P-wave (km/s) = 6.05960 7.28989 6.70303
#
# Compressibility (1/GPa) = 0.02711982
#
# Stress axis : x y z
#
# Youngs Moduli (GPa) = 61.59386 63.43464 65.75782
#
# Poissons Ratio (x) = 0.56132 -0.14235
# Poissons Ratio (y) = 0.54503 0.22092
# Poissons Ratio (z) = -0.13333 0.21311
#
# Static dielectric constant tensor:
#      x y z
#    x 1.741530 -0.093970 0.006180 
#    y -0.093970 1.655990 0.027430 
#    z 0.006180 0.027430 1.859260 
# 
# From -- ./inp_files/476666.got.cif
#   From: 2010.05.17/outbox.cif.g08.bks.cpg/sg2_239_cif.got.tgz:476666.got - 2010.06.03 11:33:40.
