data_PCOD9005148
_publ_section_title
;
Structure prediction by ZEFSAII (Michael W. Deem and Ramdas Pophale) SiO2 
 PCOD9005148
Probable space group: P -1
;
_chemical_formula_sum "Si O2"
_cell_formula_units_Z 12
_cell_length_a 11.674987
_cell_length_b 8.348233
_cell_length_c 15.563189
_cell_angle_alpha 110.613044
_cell_angle_beta 29.992298
_cell_angle_gamma 130.779421
_cell_volume 473.992513
_symmetry_space_group_name_H-M "P -1"
_symmetry_group_IT_number 2
_symmetry_cell_setting 'triclinic'
loop_
_space_group_symop_operation_xyz
x,y,z
-x,-y,-z
loop_
_atom_site_type_symbol
_atom_site_label
_atom_site_fract_x
_atom_site_fract_y
_atom_site_fract_z
Si Si1 0.997316 0.435151 0.615132
Si Si2 0.210347 0.232696 0.340341
Si Si3 0.203293 0.999166 0.007477
Si Si4 0.089827 0.238513 0.231821
Si Si5 0.008298 0.382217 0.055933
Si Si6 0.160557 0.420906 0.693490
O O1 0.099352 0.686655 0.618161
O O2 0.185272 0.416162 0.422259
O O3 0.026321 0.353921 0.671726
O O4 0.610940 0.235925 0.793879
O O5 0.067505 0.133413 0.318633
O O6 0.608762 0.408206 0.116842
O O7 0.000000 0.000000 0.500000
O O8 0.096358 0.857864 0.960135
O O9 0.105391 0.815025 0.113529
O O10 0.012161 0.068481 0.171394
O O11 0.500000 0.500000 0.000000
O O12 0.780580 0.352728 0.268187
O O13 0.000000 0.500000 0.000000
O O14 0.500000 0.500000 0.500000
#
# Coordination Sequence:
#
# PCOD9005148 Si02
#       6
#     2   2   2   2   2   2
#     4  11  22  40  63  92 127 170 213 264 321 382
#     4  12  23  41  69  97 126 171 219 263 314 384
#     4  10  21  39  63  93 126 168 214 264 317 378
#     4  10  23  42  62  92 132 173 211 259 323 383
#     4  10  21  38  60  95 128 160 212 272 315 367
#     4  11  22  40  64  93 127 168 216 266 317 384
#
# _framework density 25.316856999999999
#
# number of rings (size 3 to 8) (size 9 to 14) (size 15 to 20)
#    0.000    1.333    0.000    8.000    0.000    1.333 
#    0.000   10.833    0.000    4.000    0.000    1.167 
#    0.000    0.000    0.000    0.000    0.000    0.000 
#
# Total GULP energy -67204.618106 kJ/mol
# GULP energy per Si atom -5600.384842 kJ/mol
# Density = 2.525923 g / cm^3
# Si number density = 25.316857 Si / 1000 Ang^3
#
#
#
# Elastic Constant Matrix: (Units=GPa)
#
#
# Indices 1 2 3 4 5 6 
#
# 1 84.1900 22.9722 42.4004 -1.8361 6.7255 -2.6635
# 2 22.9722 151.0132 45.9331 48.9323 -9.0264 3.7574
# 3 42.4004 45.9331 90.1114 36.6725 -12.3933 -2.6435
# 4 -1.8361 48.9323 36.6725 53.4349 -8.8675 6.4159
# 5 6.7255 -9.0264 -12.3933 -8.8675 45.3900 5.3161
# 6 -2.6635 3.7574 -2.6435 6.4159 5.3161 37.8045
#
#
#
# Elastic Compliance Matrix: (Units=1/GPa)
#
#
# Indices 1 2 3 4 5 6 
#
# 1 0.020174 -0.003167 -0.013496 0.012117 -0.004869 -0.000579
# 2 -0.003167 0.010128 0.000302 -0.009517 0.000670 0.000312
# 3 -0.013496 0.000302 0.025246 -0.017574 0.005163 0.003041
# 4 0.012117 -0.009517 -0.017574 0.040706 0.000212 -0.006368
# 5 -0.004869 0.000670 0.005163 0.000212 0.024755 -0.003566
# 6 -0.000579 0.000312 0.003041 -0.006368 -0.003566 0.028175
#
#
# Mechanical properties :
#
#
# Convention : Reuss Voigt Hill
#
# Bulk Modulus (GPa) = 43.81163 60.88066 52.34614
# Shear Modulus (GPa) = 26.38334 41.59314 33.98824
#
# Velocity S-wave (km/s) = 3.23170 4.05767 3.66801
# Velocity P-wave (km/s) = 5.59178 6.78621 6.21774
#
# Compressibility (1/GPa) = 0.02282499
#
# Stress axis : x y z
#
# Youngs Moduli (GPa) = 49.56903 98.73853 39.61096
#
# Poissons Ratio (x) = 0.31267 0.53460
# Poissons Ratio (y) = 0.15697 -0.01195
# Poissons Ratio (z) = 0.66899 -0.02979
#
# Static dielectric constant tensor:
#      x y z
#    x 1.937320 -0.041110 0.025250 
#    y -0.041110 2.135890 -0.001560 
#    z 0.025250 -0.001560 1.967120 
# 
# From -- ./inp_files/162018.got.cif
#   From: 2010.05.17/outbox.cif.g08.bks.cpg/sg2_82_cif.got.tgz:162018.got - 2010.06.03 11:33:40.
