data_PCOD9005544
_publ_section_title
;
Structure prediction by ZEFSAII (Michael W. Deem and Ramdas Pophale) SiO2 
 PCOD9005544
Probable space group: P -1
;
_chemical_formula_sum "Si O2"
_cell_formula_units_Z 14
_cell_length_a 7.294127
_cell_length_b 24.563515
_cell_length_c 6.398232
_cell_angle_alpha 100.339242
_cell_angle_beta 67.321717
_cell_angle_gamma 138.020132
_cell_volume 696.744309
_symmetry_space_group_name_H-M "P -1"
_symmetry_group_IT_number 2
_symmetry_cell_setting 'triclinic'
loop_
_space_group_symop_operation_xyz
x,y,z
-x,-y,-z
loop_
_atom_site_type_symbol
_atom_site_label
_atom_site_fract_x
_atom_site_fract_y
_atom_site_fract_z
Si Si1 0.133848 0.115099 0.513026
Si Si2 0.228332 0.751428 0.821593
Si Si3 0.169811 0.310838 0.425935
Si Si4 0.854782 0.165350 0.767616
Si Si5 0.301115 0.413701 0.816470
Si Si6 0.222688 0.032571 0.734409
Si Si7 0.321331 0.546904 0.964644
O O1 0.429011 0.193656 0.310721
O O2 0.218480 0.082071 0.604982
O O3 0.996014 0.135159 0.727646
O O4 0.897195 0.044248 0.398325
O O5 0.108387 0.733928 0.628727
O O6 0.198026 0.803147 0.996869
O O7 0.999508 0.661849 0.971560
O O8 0.244256 0.376722 0.591140
O O9 0.446737 0.363943 0.185979
O O10 0.085334 0.242904 0.563602
O O11 0.545537 0.093011 0.733850
O O12 0.359953 0.490952 0.838486
O O13 0.570757 0.436907 0.830580
O O14 0.000000 0.000000 0.000000
O O15 0.000000 0.500000 0.000000
#
# Coordination Sequence:
#
# PCOD9005544 Si02
#       7
#     2   2   2   2   2   2   2
#     4  11  24  40  65  90 120 167 202 252 314 355
#     4  10  21  42  60  91 128 157 209 252 297 369
#     4  10  21  41  61  86 128 161 196 252 303 355
#     4  11  23  41  63  92 123 163 206 253 304 365
#     4   9  21  40  60  86 127 159 193 256 299 344
#     4  11  23  43  63  91 124 158 208 257 304 365
#     4  10  21  38  62  93 118 158 206 243 296 366
#
# _framework density 20.093456
#
# number of rings (size 3 to 8) (size 9 to 14) (size 15 to 20)
#    0.000    1.714    2.857    0.857    2.000    2.286 
#    7.714    0.000    0.000    0.000    0.000    0.000 
#    0.000    0.000    0.000    0.000    0.000    0.000 
#
# Total GULP energy -78117.448978 kJ/mol
# GULP energy per Si atom -5579.817784 kJ/mol
# Density = 2.004772 g / cm^3
# Si number density = 20.093456 Si / 1000 Ang^3
#
#
#
# Elastic Constant Matrix: (Units=GPa)
#
#
# Indices 1 2 3 4 5 6 
#
# 1 75.5303 31.5211 24.0422 7.7207 -5.7107 19.1536
# 2 31.5211 86.1593 15.9955 5.2146 0.1188 25.7368
# 3 24.0422 15.9955 57.5120 10.5494 6.9249 7.4640
# 4 7.7207 5.2146 10.5494 32.1689 7.7858 7.6330
# 5 -5.7107 0.1188 6.9249 7.7858 25.5622 2.3297
# 6 19.1536 25.7368 7.4640 7.6330 2.3297 22.6448
#
#
#
# Elastic Compliance Matrix: (Units=1/GPa)
#
#
# Indices 1 2 3 4 5 6 
#
# 1 0.020369 -0.002285 -0.006973 -0.001127 0.007957 -0.012772
# 2 -0.002285 0.018469 -0.002279 0.002645 0.000974 -0.019298
# 3 -0.006973 -0.002279 0.022094 -0.004431 -0.006490 0.003367
# 4 -0.001127 0.002645 -0.004431 0.037569 -0.009386 -0.012291
# 5 0.007957 0.000974 -0.006490 -0.009386 0.046175 -0.007285
# 6 -0.012772 -0.019298 0.003367 -0.012291 -0.007285 0.080679
#
#
# Mechanical properties :
#
#
# Convention : Reuss Voigt Hill
#
# Bulk Modulus (GPa) = 26.41588 40.25769 33.33678
# Shear Modulus (GPa) = 19.15365 25.91803 22.53584
#
# Velocity S-wave (km/s) = 3.09079 3.59538 3.35259
# Velocity P-wave (km/s) = 5.09042 6.10855 5.62258
#
# Compressibility (1/GPa) = 0.03785602
#
# Stress axis : x y z
#
# Youngs Moduli (GPa) = 49.09536 54.14568 45.26153
#
# Poissons Ratio (x) = 0.12372 0.31562
# Poissons Ratio (y) = 0.11218 0.10317
# Poissons Ratio (z) = 0.34235 0.12342
#
# Static dielectric constant tensor:
#      x y z
#    x 1.704540 0.005140 0.015420 
#    y 0.005140 1.730830 -0.022630 
#    z 0.015420 -0.022630 1.716100 
# 
# From -- ./inp_files/5049.got.cif
#   From: 2010.05.17/outbox.cif.g08.bks.cpg/sg2_3_cif.got.tgz:5049.got - 2010.06.03 11:33:40.
