data_PCOD9005730
_publ_section_title
;
Structure prediction by ZEFSAII (Michael W. Deem and Ramdas Pophale) SiO2 
 PCOD9005730
Probable space group: P -1
;
_chemical_formula_sum "Si O2"
_cell_formula_units_Z 16
_cell_length_a 20.464493
_cell_length_b 11.847297
_cell_length_c 5.818729
_cell_angle_alpha 75.006140
_cell_angle_beta 75.081326
_cell_angle_gamma 29.076281
_cell_volume 660.765685
_symmetry_space_group_name_H-M "P -1"
_symmetry_group_IT_number 2
_symmetry_cell_setting 'triclinic'
loop_
_space_group_symop_operation_xyz
x,y,z
-x,-y,-z
loop_
_atom_site_type_symbol
_atom_site_label
_atom_site_fract_x
_atom_site_fract_y
_atom_site_fract_z
Si Si1 0.820042 0.878807 0.055735
Si Si2 0.901346 0.564223 0.798481
Si Si3 0.783584 0.324116 0.100291
Si Si4 0.974570 0.137073 0.639385
Si Si5 0.797955 0.532353 0.276370
Si Si6 0.674251 0.906899 0.448177
Si Si7 0.381989 0.666902 0.205874
Si Si8 0.474829 0.351227 0.647399
O O1 0.700312 0.975897 0.213036
O O2 0.941060 0.701087 0.222448
O O3 0.881028 0.717244 0.868971
O O4 0.757968 0.093417 0.916950
O O5 0.808234 0.703709 0.589004
O O6 0.845162 0.548462 0.026610
O O7 0.770169 0.448733 0.233743
O O8 0.631811 0.506690 0.126496
O O9 0.854183 0.274595 0.842061
O O10 0.888108 0.069607 0.229939
O O11 0.920611 0.328716 0.450983
O O12 0.000000 0.000000 0.500000
O O13 0.676119 0.781332 0.380758
O O14 0.549664 0.125323 0.606320
O O15 0.393923 0.532421 0.415267
O O16 0.412023 0.726878 0.328885
O O17 0.500000 0.500000 0.000000
#
# Coordination Sequence:
#
# PCOD9005730 Si02
#       8
#     2   2   2   2   2   2   2   2
#     4  10  21  39  64  89 126 172 214 267 320 376
#     4  10  21  38  63  91 127 167 214 267 323 374
#     4  10  22  43  65  95 129 169 214 266 323 386
#     4   9  20  42  64  90 128 160 215 267 316 383
#     4  10  22  39  64  95 129 168 214 271 315 382
#     4  11  21  41  62  95 136 170 214 265 315 390
#     4  11  23  44  61  94 131 167 222 264 320 386
#     4  11  25  41  67  92 132 176 212 268 322 384
#
# _framework density 24.214331000000001
#
# number of rings (size 3 to 8) (size 9 to 14) (size 15 to 20)
#    0.000    1.750    2.500    1.125    1.750    2.500 
#    6.750    2.500    0.000    0.000    0.000    0.000 
#    0.000    0.000    0.000    0.000    0.000    0.000 
#
# Total GULP energy -89499.328435 kJ/mol
# GULP energy per Si atom -5593.708027 kJ/mol
# Density = 2.415922 g / cm^3
# Si number density = 24.214331 Si / 1000 Ang^3
#
#
#
# Elastic Constant Matrix: (Units=GPa)
#
#
# Indices 1 2 3 4 5 6 
#
# 1 52.2904 31.5489 7.7123 2.8403 8.3153 4.4603
# 2 31.5489 140.0175 32.4333 2.7616 -2.6803 8.1687
# 3 7.7123 32.4333 69.1306 -5.5408 7.0907 5.7432
# 4 2.8403 2.7616 -5.5408 45.9446 2.8088 -2.2716
# 5 8.3153 -2.6803 7.0907 2.8088 11.7731 3.8372
# 6 4.4603 8.1687 5.7432 -2.2716 3.8372 34.5365
#
#
#
# Elastic Compliance Matrix: (Units=1/GPa)
#
#
# Indices 1 2 3 4 5 6 
#
# 1 0.026419 -0.007006 0.002613 0.000464 -0.022033 0.000289
# 2 -0.007006 0.010292 -0.005182 -0.001612 0.011464 -0.002047
# 3 0.002613 -0.005182 0.018409 0.003258 -0.014787 -0.000316
# 4 0.000464 -0.001612 0.003258 0.022880 -0.008855 0.002268
# 5 -0.022033 0.011464 -0.014787 -0.008855 0.117738 -0.011071
# 6 0.000289 -0.002047 -0.000316 0.002268 -0.011071 0.030834
#
#
# Mechanical properties :
#
#
# Convention : Reuss Voigt Hill
#
# Bulk Modulus (GPa) = 27.80096 44.98084 36.39090
# Shear Modulus (GPa) = 19.40154 31.10044 25.25099
#
# Velocity S-wave (km/s) = 2.83369 3.58772 3.23276
# Velocity P-wave (km/s) = 4.71302 5.98153 5.38476
#
# Compressibility (1/GPa) = 0.03596997
#
# Stress axis : x y z
#
# Youngs Moduli (GPa) = 37.85092 97.16729 54.32103
#
# Poissons Ratio (x) = 0.68074 -0.14192
# Poissons Ratio (y) = 0.26518 0.28148
# Poissons Ratio (z) = -0.09889 0.50350
#
# Static dielectric constant tensor:
#      x y z
#    x 1.965630 -0.019140 0.030710 
#    y -0.019140 1.909060 -0.001310 
#    z 0.030710 -0.001310 1.919200 
# 
# From -- ./inp_files/118648.got.cif
#   From: 2010.05.17/outbox.cif.g08.bks.cpg/sg2_60_cif.got.tgz:118648.got - 2010.06.03 11:33:40.
