data_PCOD9005516
_publ_section_title
;
Structure prediction by ZEFSAII (Michael W. Deem and Ramdas Pophale) SiO2 
 PCOD9005516
Probable space group: P -1
;
_chemical_formula_sum "Si O2"
_cell_formula_units_Z 16
_cell_length_a 28.816468
_cell_length_b 6.696516
_cell_length_c 11.788375
_cell_angle_alpha 126.918019
_cell_angle_beta 155.000431
_cell_angle_gamma 51.293818
_cell_volume 746.226352
_symmetry_space_group_name_H-M "P -1"
_symmetry_group_IT_number 2
_symmetry_cell_setting 'triclinic'
loop_
_space_group_symop_operation_xyz
x,y,z
-x,-y,-z
loop_
_atom_site_type_symbol
_atom_site_label
_atom_site_fract_x
_atom_site_fract_y
_atom_site_fract_z
Si Si1 0.318789 0.120201 0.672963
Si Si2 0.762261 0.583556 0.186891
Si Si3 0.565607 0.327300 0.685968
Si Si4 0.801577 0.533683 0.004047
Si Si5 0.015021 0.278615 0.665169
Si Si6 0.379012 0.194807 0.482569
Si Si7 0.498658 0.420407 0.128219
Si Si8 0.186093 0.061544 0.158627
O O1 0.293814 0.193706 0.773785
O O2 0.382814 0.327457 0.833381
O O3 0.402392 0.839224 0.749378
O O4 0.205289 0.131148 0.354389
O O5 0.756422 0.659326 0.067424
O O6 0.892682 0.469330 0.466937
O O7 0.694033 0.361227 0.977322
O O8 0.500000 0.500000 0.500000
O O9 0.512199 0.449796 0.725985
O O10 0.562518 0.041609 0.547831
O O11 0.910237 0.622446 0.230232
O O12 0.710012 0.612317 0.728640
O O13 0.827071 0.228816 0.975879
O O14 0.000000 0.000000 0.500000
O O15 0.085715 0.240544 0.925885
O O16 0.464072 0.350249 0.778766
O O17 0.303793 0.080394 0.365895
#
# Coordination Sequence:
#
# PCOD9005516 Si02
#       8
#     2   2   2   2   2   2   2   2
#     4  10  23  42  62  93 139 177 214 261 334 388
#     4  11  22  41  65  98 132 171 212 271 324 388
#     4  11  21  38  66  99 131 165 220 275 321 373
#     4  11  21  41  71  95 129 166 214 275 326 371
#     4  11  23  40  70 103 121 163 225 270 326 383
#     4  11  21  38  69 101 124 170 231 261 326 380
#     4  10  21  38  62  91 133 176 217 265 316 393
#     4  11  22  41  68  92 134 173 210 272 324 388
#
# _framework density 21.441216000000001
#
# number of rings (size 3 to 8) (size 9 to 14) (size 15 to 20)
#    0.000    1.250    3.750    3.000    0.000    1.000 
#    0.000    4.375    0.000    0.000    0.000    0.000 
#    0.000    0.000    0.000    0.000    0.000    0.000 
#
# Total GULP energy -89437.439870 kJ/mol
# GULP energy per Si atom -5589.839992 kJ/mol
# Density = 2.139241 g / cm^3
# Si number density = 21.441216 Si / 1000 Ang^3
#
#
#
# Elastic Constant Matrix: (Units=GPa)
#
#
# Indices 1 2 3 4 5 6 
#
# 1 86.7082 28.5220 31.0603 20.9948 10.3776 1.6677
# 2 28.5220 77.3862 28.6127 24.6920 11.5949 -1.1453
# 3 31.0603 28.6127 103.5193 23.7042 8.5510 -3.2154
# 4 20.9948 24.6920 23.7042 37.3234 5.2351 -2.0533
# 5 10.3776 11.5949 8.5510 5.2351 42.4240 5.6043
# 6 1.6677 -1.1453 -3.2154 -2.0533 5.6043 33.9396
#
#
#
# Elastic Compliance Matrix: (Units=1/GPa)
#
#
# Indices 1 2 3 4 5 6 
#
# 1 0.014677 -0.002777 -0.002463 -0.004687 -0.001616 -0.001065
# 2 -0.002777 0.017815 -0.001870 -0.008613 -0.002816 0.000504
# 3 -0.002463 -0.001870 0.012145 -0.004911 -0.000868 0.001055
# 4 -0.004687 -0.008613 -0.004911 0.038420 -0.000499 0.001881
# 5 -0.001616 -0.002816 -0.000868 -0.000499 0.025547 -0.004347
# 6 -0.001065 0.000504 0.001055 0.001881 -0.004347 0.030465
#
#
# Mechanical properties :
#
#
# Convention : Reuss Voigt Hill
#
# Bulk Modulus (GPa) = 32.87639 49.33373 41.10506
# Shear Modulus (GPa) = 30.59446 34.69864 32.64655
#
# Velocity S-wave (km/s) = 3.78153 4.02719 3.90629
# Velocity P-wave (km/s) = 5.86798 6.68455 6.28953
#
# Compressibility (1/GPa) = 0.03041696
#
# Stress axis : x y z
#
# Youngs Moduli (GPa) = 68.13220 56.13257 82.33965
#
# Poissons Ratio (x) = 0.15590 0.20277
# Poissons Ratio (y) = 0.18922 0.15399
# Poissons Ratio (z) = 0.16778 0.10498
#
# Static dielectric constant tensor:
#      x y z
#    x 1.829160 0.046010 -0.003460 
#    y 0.046010 1.771890 0.022470 
#    z -0.003460 0.022470 1.815780 
# 
# From -- ./inp_files/475938.got.cif
#   From: 2010.05.17/outbox.cif.g08.bks.cpg/sg2_238_cif.got.tgz:475938.got - 2010.06.03 11:33:40.
