data_PCOD9005723
_publ_section_title
;
Structure prediction by ZEFSAII (Michael W. Deem and Ramdas Pophale) SiO2 
 PCOD9005723
Probable space group: P -1
;
_chemical_formula_sum "Si O2"
_cell_formula_units_Z 12
_cell_length_a 18.145014
_cell_length_b 5.179751
_cell_length_c 13.957817
_cell_angle_alpha 89.495091
_cell_angle_beta 28.232231
_cell_angle_gamma 74.351922
_cell_volume 516.692505
_symmetry_space_group_name_H-M "P -1"
_symmetry_group_IT_number 2
_symmetry_cell_setting 'triclinic'
loop_
_space_group_symop_operation_xyz
x,y,z
-x,-y,-z
loop_
_atom_site_type_symbol
_atom_site_label
_atom_site_fract_x
_atom_site_fract_y
_atom_site_fract_z
Si Si1 0.123626 0.561671 0.477079
Si Si2 0.530379 0.860599 0.675108
Si Si3 0.453685 0.657188 0.450386
Si Si4 0.094995 0.252059 0.808182
Si Si5 0.744593 0.669096 0.867022
Si Si6 0.013189 0.166427 0.700863
O O1 0.264476 0.444285 0.227286
O O2 0.144684 0.273919 0.509139
O O3 0.912822 0.728430 0.672195
O O4 0.110329 0.810437 0.563684
O O5 0.487715 0.612168 0.692454
O O6 0.751791 0.699301 0.416180
O O7 0.464612 0.135442 0.669963
O O8 0.435013 0.035132 0.881756
O O9 0.500000 0.500000 0.500000
O O10 0.229660 0.907776 0.698472
O O11 0.979084 0.242188 0.852292
O O12 0.000000 0.500000 0.000000
O O13 0.829697 0.384869 0.845851
#
# Coordination Sequence:
#
# PCOD9005723 Si02
#       6
#     2   2   2   2   2   2
#     4   9  21  36  66  92 125 164 207 255 309 375
#     4  10  24  40  63  92 124 162 210 260 309 372
#     4  10  24  41  63  87 127 163 215 254 312 365
#     4  10  26  44  63  91 130 167 209 261 317 369
#     4   9  21  38  67  92 126 160 215 249 314 370
#     4  10  21  38  63  91 125 165 209 253 311 366
#
# _framework density 23.224644999999999
#
# number of rings (size 3 to 8) (size 9 to 14) (size 15 to 20)
#    2.000    0.333    0.000    1.000    7.000    0.667 
#    0.000    1.667    0.000    0.000    0.000    0.000 
#    0.000    0.000    0.000    0.000    0.000    0.000 
#
# Total GULP energy -66883.246157 kJ/mol
# GULP energy per Si atom -5573.603846 kJ/mol
# Density = 2.317179 g / cm^3
# Si number density = 23.224645 Si / 1000 Ang^3
#
#
#
# Elastic Constant Matrix: (Units=GPa)
#
#
# Indices 1 2 3 4 5 6 
#
# 1 87.5139 34.5365 36.0835 7.5063 37.7446 2.0485
# 2 34.5365 107.2816 25.9751 23.8004 12.4375 19.4022
# 3 36.0835 25.9751 139.9977 11.1629 45.7909 13.5552
# 4 7.5063 23.8004 11.1629 22.0465 9.4348 12.1836
# 5 37.7446 12.4375 45.7909 9.4348 36.9147 9.6934
# 6 2.0485 19.4022 13.5552 12.1836 9.6934 31.9111
#
#
#
# Elastic Compliance Matrix: (Units=1/GPa)
#
#
# Indices 1 2 3 4 5 6 
#
# 1 0.027603 -0.009492 0.004643 0.008360 -0.035443 0.009601
# 2 -0.009492 0.015983 -0.003232 -0.014816 0.013761 -0.006259
# 3 0.004643 -0.003232 0.013032 0.003709 -0.021065 0.001114
# 4 0.008360 -0.014816 0.003709 0.074668 -0.023436 -0.014493
# 5 -0.035443 0.013761 -0.021065 -0.023436 0.095317 -0.017149
# 6 0.009601 -0.006259 0.001114 -0.014493 -0.017149 0.044795
#
#
# Mechanical properties :
#
#
# Convention : Reuss Voigt Hill
#
# Bulk Modulus (GPa) = 24.71835 58.66482 41.69159
# Shear Modulus (GPa) = 16.60868 34.05433 25.33150
#
# Velocity S-wave (km/s) = 2.67710 3.83339 3.30618
# Velocity P-wave (km/s) = 4.49689 6.70132 5.70656
#
# Compressibility (1/GPa) = 0.04045577
#
# Stress axis : x y z
#
# Youngs Moduli (GPa) = 36.22783 62.56507 76.73173
#
# Poissons Ratio (x) = 0.59390 -0.35629
# Poissons Ratio (y) = 0.34389 0.24803
# Poissons Ratio (z) = -0.16822 0.20224
#
# Static dielectric constant tensor:
#      x y z
#    x 1.928910 -0.010450 -0.048400 
#    y -0.010450 1.868720 -0.028860 
#    z -0.048400 -0.028860 1.885150 
# 
# From -- ./inp_files/104067.got.cif
#   From: 2010.05.17/outbox.cif.g08.bks.cpg/sg2_53_cif.got.tgz:104067.got - 2010.06.03 11:33:40.
