data_PCOD9005530
_publ_section_title
;
Structure prediction by ZEFSAII (Michael W. Deem and Ramdas Pophale) SiO2 
 PCOD9005530
Probable space group: P -1
;
_chemical_formula_sum "Si O2"
_cell_formula_units_Z 16
_cell_length_a 8.404363
_cell_length_b 9.484918
_cell_length_c 18.854046
_cell_angle_alpha 145.536061
_cell_angle_beta 76.259080
_cell_angle_gamma 123.427108
_cell_volume 630.719716
_symmetry_space_group_name_H-M "P -1"
_symmetry_group_IT_number 2
_symmetry_cell_setting 'triclinic'
loop_
_space_group_symop_operation_xyz
x,y,z
-x,-y,-z
loop_
_atom_site_type_symbol
_atom_site_label
_atom_site_fract_x
_atom_site_fract_y
_atom_site_fract_z
Si Si1 0.152067 0.226990 0.204141
Si Si2 0.770446 0.487711 0.444501
Si Si3 0.458217 0.217602 0.839503
Si Si4 0.876000 0.216306 0.565589
Si Si5 0.082217 0.474020 0.055492
Si Si6 0.454379 0.345279 0.109013
Si Si7 0.790446 0.379949 0.178171
Si Si8 0.482093 0.582885 0.425115
O O1 0.150388 0.516846 0.333750
O O2 0.249978 0.272565 0.136055
O O3 0.318856 0.281300 0.265958
O O4 0.946779 0.854245 0.079023
O O5 0.625170 0.535996 0.435687
O O6 0.675573 0.421757 0.506458
O O7 0.014522 0.786598 0.518582
O O8 0.730873 0.164538 0.290682
O O9 0.669095 0.248700 0.837977
O O10 0.438806 0.336235 0.815873
O O11 0.500000 0.500000 0.000000
O O12 0.056532 0.368959 0.672102
O O13 0.651409 0.897895 0.488630
O O14 0.937710 0.437611 0.119883
O O15 0.000000 0.500000 0.000000
O O16 0.621144 0.404648 0.173300
O O17 0.352990 0.999470 0.938919
#
# Coordination Sequence:
#
# PCOD9005530 Si02
#       8
#     2   2   2   2   2   2   2   2
#     4  11  23  40  64  94 131 170 220 273 324 391
#     4  11  25  44  68  96 129 175 223 268 326 392
#     4  12  23  40  65  97 134 167 213 275 336 392
#     4  12  24  43  68  95 128 173 222 274 327 384
#     4  11  22  37  61  95 133 175 217 268 333 395
#     4  10  21  38  62  92 127 171 212 269 335 387
#     4  10  21  38  62  92 128 169 220 268 326 396
#     4  11  25  46  67  94 134 178 223 271 320 384
#
# _framework density 25.367844999999999
#
# number of rings (size 3 to 8) (size 9 to 14) (size 15 to 20)
#    0.000    1.000    0.000    7.500    0.000    5.500 
#    0.000    1.250    0.000    0.000    0.000    0.000 
#    0.000    0.000    0.000    0.000    0.000    0.000 
#
# Total GULP energy -89547.326541 kJ/mol
# GULP energy per Si atom -5596.707909 kJ/mol
# Density = 2.531011 g / cm^3
# Si number density = 25.367845 Si / 1000 Ang^3
#
#
#
# Elastic Constant Matrix: (Units=GPa)
#
#
# Indices 1 2 3 4 5 6 
#
# 1 77.8136 42.4566 6.7386 0.1468 -2.6729 6.4940
# 2 42.4566 143.6277 41.3833 13.7207 -10.6121 19.7045
# 3 6.7386 41.3833 63.5823 4.3574 1.3731 16.5932
# 4 0.1468 13.7207 4.3574 34.2555 3.4238 -2.4226
# 5 -2.6729 -10.6121 1.3731 3.4238 44.0984 3.7777
# 6 6.4940 19.7045 16.5932 -2.4226 3.7777 43.5612
#
#
#
# Elastic Compliance Matrix: (Units=1/GPa)
#
#
# Indices 1 2 3 4 5 6 
#
# 1 0.015591 -0.005268 0.001786 0.001830 -0.000479 -0.000478
# 2 -0.005268 0.011181 -0.005831 -0.004204 0.003098 -0.002553
# 3 0.001786 -0.005831 0.020831 -0.000566 -0.001431 -0.005471
# 4 0.001830 -0.004204 -0.000566 0.031585 -0.003671 0.003919
# 5 -0.000479 0.003098 -0.001431 -0.003671 0.023986 -0.003069
# 6 -0.000478 -0.002553 -0.005471 0.003919 -0.003069 0.026751
#
#
# Mechanical properties :
#
#
# Convention : Reuss Voigt Hill
#
# Bulk Modulus (GPa) = 34.51069 51.79784 43.15426
# Shear Modulus (GPa) = 31.60399 37.34602 34.47500
#
# Velocity S-wave (km/s) = 3.53346 3.84106 3.69047
# Velocity P-wave (km/s) = 5.50279 6.33520 5.93361
#
# Compressibility (1/GPa) = 0.02897653
#
# Stress axis : x y z
#
# Youngs Moduli (GPa) = 64.14030 89.44058 48.00533
#
# Poissons Ratio (x) = 0.47117 -0.08574
# Poissons Ratio (y) = 0.33789 0.27993
# Poissons Ratio (z) = -0.11456 0.52154
#
# Static dielectric constant tensor:
#      x y z
#    x 1.984700 0.034750 -0.036360 
#    y 0.034750 2.104670 -0.047040 
#    z -0.036360 -0.047040 1.978150 
# 
# From -- ./inp_files/447248.got.cif
#   From: 2010.05.17/outbox.cif.g08.bks.cpg/sg2_224_cif.got.tgz:447248.got - 2010.06.03 11:33:40.
