data_PCOD9005819
_publ_section_title
;
Structure prediction by ZEFSAII (Michael W. Deem and Ramdas Pophale) SiO2 
 PCOD9005819
Probable space group: P -1
;
_chemical_formula_sum "Si O2"
_cell_formula_units_Z 16
_cell_length_a 7.049701
_cell_length_b 9.146071
_cell_length_c 21.363500
_cell_angle_alpha 47.794333
_cell_angle_beta 101.995637
_cell_angle_gamma 132.473313
_cell_volume 672.135674
_symmetry_space_group_name_H-M "P -1"
_symmetry_group_IT_number 2
_symmetry_cell_setting 'triclinic'
loop_
_space_group_symop_operation_xyz
x,y,z
-x,-y,-z
loop_
_atom_site_type_symbol
_atom_site_label
_atom_site_fract_x
_atom_site_fract_y
_atom_site_fract_z
Si Si1 0.300248 0.016162 0.048140
Si Si2 0.740025 0.656186 0.418368
Si Si3 0.157081 0.303700 0.134501
Si Si4 0.794352 0.679097 0.730490
Si Si5 0.689588 0.420105 0.666231
Si Si6 0.859640 0.140627 0.779714
Si Si7 0.793063 0.335711 0.431054
Si Si8 0.289366 0.051146 0.902835
O O1 0.135890 0.908369 0.132992
O O2 0.457846 0.922405 0.086186
O O3 0.557411 0.368216 0.961352
O O4 0.142105 0.924146 0.997257
O O5 0.500000 0.500000 0.500000
O O6 0.580412 0.653333 0.350890
O O7 0.785735 0.467944 0.453101
O O8 0.041745 0.989561 0.358721
O O9 0.079531 0.308225 0.198523
O O10 0.206747 0.105010 0.193138
O O11 0.917167 0.155997 0.108383
O O12 0.832343 0.602607 0.688138
O O13 0.456430 0.382495 0.806149
O O14 0.627497 0.140888 0.752071
O O15 0.934272 0.603811 0.576174
O O16 0.141468 0.462148 0.679599
O O17 0.500000 0.000000 0.500000
#
# Coordination Sequence:
#
# PCOD9005819 Si02
#       8
#     2   2   2   2   2   2   2   2
#     4  10  21  38  63  94 136 176 228 279 336 394
#     4  12  26  45  74 103 131 177 226 272 346 408
#     4  11  22  40  68  96 131 182 228 279 333 398
#     4  11  21  40  68  96 131 176 223 273 334 398
#     4  10  24  46  68  98 140 173 219 282 335 395
#     4  10  22  43  62  98 138 173 233 278 329 408
#     4  10  23  45  69 102 136 170 223 279 331 408
#     4  10  21  39  63  98 133 175 229 281 333 398
#
# _framework density 23.804715999999999
#
# number of rings (size 3 to 8) (size 9 to 14) (size 15 to 20)
#    0.750    0.750    2.500    2.250    0.000    3.000 
#    0.000    7.500    0.000    0.000    0.000    0.000 
#    0.000    0.000    0.000    0.000    0.000    0.000 
#
# Total GULP energy -89317.473378 kJ/mol
# GULP energy per Si atom -5582.342086 kJ/mol
# Density = 2.375054 g / cm^3
# Si number density = 23.804716 Si / 1000 Ang^3
#
#
#
# Elastic Constant Matrix: (Units=GPa)
#
#
# Indices 1 2 3 4 5 6 
#
# 1 93.1088 44.6451 17.0548 2.0284 -1.0590 -12.2184
# 2 44.6451 143.1337 55.9177 2.7725 2.7233 -16.6110
# 3 17.0548 55.9177 134.0368 -6.5213 -17.7669 -7.7361
# 4 2.0284 2.7725 -6.5213 59.5686 -7.8119 2.8194
# 5 -1.0590 2.7233 -17.7669 -7.8119 42.8731 8.1908
# 6 -12.2184 -16.6110 -7.7361 2.8194 8.1908 34.7854
#
#
#
# Elastic Compliance Matrix: (Units=1/GPa)
#
#
# Indices 1 2 3 4 5 6 
#
# 1 0.012884 -0.003700 0.000042 -0.000400 -0.000039 0.002809
# 2 -0.003700 0.010260 -0.004121 -0.001418 -0.003397 0.003598
# 3 0.000042 -0.004121 0.009859 0.001965 0.004912 -0.001077
# 4 -0.000400 -0.001418 0.001965 0.017838 0.004705 -0.002935
# 5 -0.000039 -0.003397 0.004912 0.004705 0.027862 -0.007485
# 6 0.002809 0.003598 -0.001077 -0.002935 -0.007485 0.033214
#
#
# Mechanical properties :
#
#
# Convention : Reuss Voigt Hill
#
# Bulk Modulus (GPa) = 57.32672 67.27939 62.30306
# Shear Modulus (GPa) = 37.51179 44.28955 40.90067
#
# Velocity S-wave (km/s) = 3.97396 4.31807 4.14958
# Velocity P-wave (km/s) = 6.72241 7.29283 7.01342
#
# Compressibility (1/GPa) = 0.01744387
#
# Stress axis : x y z
#
# Youngs Moduli (GPa) = 77.61739 97.46214 101.42833
#
# Poissons Ratio (x) = 0.36066 -0.00426
# Poissons Ratio (y) = 0.28722 0.41801
# Poissons Ratio (z) = -0.00326 0.40166
#
# Static dielectric constant tensor:
#      x y z
#    x 1.954030 0.005370 0.023840 
#    y 0.005370 1.876980 0.053570 
#    z 0.023840 0.053570 1.965400 
# 
# From -- ./inp_files/587911.got.cif
#   From: 2010.05.17/outbox.cif.g08.bks.cpg/sg2_294_cif.got.tgz:587911.got - 2010.06.03 11:33:40.
