data_PCOD9005852
_publ_section_title
;
Structure prediction by ZEFSAII (Michael W. Deem and Ramdas Pophale) SiO2 
 PCOD9005852
Probable space group: P -1
;
_chemical_formula_sum "Si O2"
_cell_formula_units_Z 16
_cell_length_a 11.093641
_cell_length_b 13.264745
_cell_length_c 5.476002
_cell_angle_alpha 55.469893
_cell_angle_beta 73.010235
_cell_angle_gamma 64.621473
_cell_volume 598.475844
_symmetry_space_group_name_H-M "P -1"
_symmetry_group_IT_number 2
_symmetry_cell_setting 'triclinic'
loop_
_space_group_symop_operation_xyz
x,y,z
-x,-y,-z
loop_
_atom_site_type_symbol
_atom_site_label
_atom_site_fract_x
_atom_site_fract_y
_atom_site_fract_z
Si Si1 0.040493 0.800012 0.876897
Si Si2 0.153330 0.653298 0.534491
Si Si3 0.593052 0.577583 0.947367
Si Si4 0.216562 0.138227 0.814593
Si Si5 0.404457 0.722514 0.221540
Si Si6 0.766663 0.051021 0.345654
Si Si7 0.839583 0.555959 0.515084
Si Si8 0.499147 0.135112 0.625680
O O1 0.063378 0.708904 0.748713
O O2 0.125761 0.895758 0.663355
O O3 0.088623 0.725995 0.214886
O O4 0.882586 0.876681 0.895662
O O5 0.294474 0.672767 0.485595
O O6 0.185315 0.502951 0.648566
O O7 0.741250 0.520402 0.818967
O O8 0.550185 0.730100 0.683549
O O9 0.500000 0.500000 0.000000
O O10 0.531807 0.606563 0.213730
O O11 0.191375 0.291656 0.637361
O O12 0.376913 0.082526 0.790077
O O13 0.173665 0.071435 0.698386
O O14 0.465082 0.809674 0.223794
O O15 0.309900 0.821220 0.948433
O O16 0.638156 0.037968 0.577276
O O17 0.000000 0.500000 0.500000
#
# Coordination Sequence:
#
# PCOD9005852 Si02
#       8
#     2   2   2   2   2   2   2   2
#     4  11  24  46  74 101 139 188 236 290 345 420
#     4  11  23  45  74 101 139 187 236 286 351 418
#     4  10  21  38  63  96 132 175 230 279 340 419
#     4  11  24  44  64 105 138 181 233 291 352 420
#     4  10  21  41  67  99 130 179 238 286 347 410
#     4  10  22  44  70  95 137 182 236 286 349 418
#     4  11  23  43  67 100 141 185 225 291 356 415
#     4  10  22  41  65  99 133 182 223 295 350 407
#
# _framework density 26.734579
#
# number of rings (size 3 to 8) (size 9 to 14) (size 15 to 20)
#    0.000    1.500    3.750    0.750    0.000    2.500 
#    9.000    1.875    0.000    0.000    0.000    0.000 
#    0.000    0.000    0.000    0.000    0.000    0.000 
#
# Total GULP energy -89363.470988 kJ/mol
# GULP energy per Si atom -5585.216937 kJ/mol
# Density = 2.667373 g / cm^3
# Si number density = 26.734579 Si / 1000 Ang^3
#
#
#
# Elastic Constant Matrix: (Units=GPa)
#
#
# Indices 1 2 3 4 5 6 
#
# 1 119.8786 45.7811 27.5359 14.6113 -28.4338 -19.0657
# 2 45.7811 200.5060 49.9395 50.1322 -29.5568 -4.9677
# 3 27.5359 49.9395 98.0852 13.8102 -30.5002 -15.5540
# 4 14.6113 50.1322 13.8102 54.9340 -3.5265 -9.4352
# 5 -28.4338 -29.5568 -30.5002 -3.5265 41.0311 -1.8803
# 6 -19.0657 -4.9677 -15.5540 -9.4352 -1.8803 46.5448
#
#
#
# Elastic Compliance Matrix: (Units=1/GPa)
#
#
# Indices 1 2 3 4 5 6 
#
# 1 0.011363 -0.001385 0.000751 -0.000610 0.007609 0.004941
# 2 -0.001385 0.007721 -0.002188 -0.006259 0.002362 -0.001648
# 3 0.000751 -0.002188 0.015315 -0.000426 0.010545 0.005531
# 4 -0.000610 -0.006259 -0.000426 0.024651 -0.002955 0.003817
# 5 0.007609 0.002362 0.010545 -0.002955 0.039292 0.007881
# 6 0.004941 -0.001648 0.005531 0.003817 0.007881 0.026273
#
#
# Mechanical properties :
#
#
# Convention : Reuss Voigt Hill
#
# Bulk Modulus (GPa) = 34.77707 73.88695 54.33201
# Shear Modulus (GPa) = 35.75418 48.18287 41.96853
#
# Velocity S-wave (km/s) = 3.66098 4.24992 3.96640
# Velocity P-wave (km/s) = 5.55940 7.19581 6.42987
#
# Compressibility (1/GPa) = 0.02875458
#
# Stress axis : x y z
#
# Youngs Moduli (GPa) = 88.00323 129.52053 65.29749
#
# Poissons Ratio (x) = 0.17937 -0.04901
# Poissons Ratio (y) = 0.12187 0.14285
# Poissons Ratio (z) = -0.06605 0.28334
#
# Static dielectric constant tensor:
#      x y z
#    x 2.121950 -0.003470 0.105240 
#    y -0.003470 1.236260 -0.060700 
#    z 0.105240 -0.060700 2.331970 
# 
# From -- ./inp_files/68974.got.cif
#   From: 2010.05.17/outbox.cif.g08.bks.cpg/sg2_35_cif.got.tgz:68974.got - 2010.06.03 11:33:40.
