data_PCOD9005866
_publ_section_title
;
Structure prediction by ZEFSAII (Michael W. Deem and Ramdas Pophale) SiO2 
 PCOD9005866
Probable space group: P -1
;
_chemical_formula_sum "Si O2"
_cell_formula_units_Z 14
_cell_length_a 8.805374
_cell_length_b 8.444570
_cell_length_c 8.003313
_cell_angle_alpha 79.171106
_cell_angle_beta 61.956548
_cell_angle_gamma 77.533314
_cell_volume 510.269008
_symmetry_space_group_name_H-M "P -1"
_symmetry_group_IT_number 2
_symmetry_cell_setting 'triclinic'
loop_
_space_group_symop_operation_xyz
x,y,z
-x,-y,-z
loop_
_atom_site_type_symbol
_atom_site_label
_atom_site_fract_x
_atom_site_fract_y
_atom_site_fract_z
Si Si1 0.420769 0.191269 0.151026
Si Si2 0.832564 0.205875 0.918741
Si Si3 0.636150 0.142780 0.626026
Si Si4 0.506188 0.585098 0.159157
Si Si5 0.626709 0.650231 0.512772
Si Si6 0.006508 0.516198 0.792878
Si Si7 0.968222 0.123619 0.238769
O O1 0.331001 0.277467 0.344311
O O2 0.395405 0.007430 0.216804
O O3 0.628830 0.196178 0.057482
O O4 0.368611 0.285414 0.984916
O O5 0.881275 0.387618 0.818678
O O6 0.922633 0.168529 0.061434
O O7 0.912315 0.052417 0.793134
O O8 0.657258 0.294074 0.705977
O O9 0.467620 0.211228 0.587531
O O10 0.794668 0.097935 0.430563
O O11 0.524435 0.455511 0.323942
O O12 0.500000 0.500000 0.000000
O O13 0.802053 0.556883 0.361594
O O14 0.977334 0.712299 0.738011
O O15 0.000000 0.500000 0.000000
#
# Coordination Sequence:
#
# PCOD9005866 Si02
#       7
#     2   2   2   2   2   2   2
#     4  11  24  41  66 100 132 177 209 277 340 390
#     4  10  22  40  59  96 141 164 216 272 332 394
#     4  12  22  39  71  97 125 169 233 270 325 394
#     4  10  24  42  60  94 140 167 214 277 334 389
#     4  11  22  41  69 100 125 171 225 274 324 393
#     4  10  22  37  62  94 134 169 213 276 331 380
#     4  10  21  38  63  97 130 171 216 280 324 384
#
# _framework density 27.436506000000001
#
# number of rings (size 3 to 8) (size 9 to 14) (size 15 to 20)
#    0.000    1.429    2.857    2.143    6.000    1.143 
#    0.000    1.429    0.000    0.000    0.000    0.000 
#    0.000    0.000    0.000    0.000    0.000    0.000 
#
# Total GULP energy -78293.005504 kJ/mol
# GULP energy per Si atom -5592.357536 kJ/mol
# Density = 2.737406 g / cm^3
# Si number density = 27.436506 Si / 1000 Ang^3
#
#
#
# Elastic Constant Matrix: (Units=GPa)
#
#
# Indices 1 2 3 4 5 6 
#
# 1 112.3177 51.9283 42.3598 10.1045 -16.0933 14.9523
# 2 51.9283 192.3566 76.1968 7.3549 -14.1736 7.1123
# 3 42.3598 76.1968 179.8240 17.8751 -1.8486 -2.5873
# 4 10.1045 7.3549 17.8751 77.4966 -10.9377 -8.1724
# 5 -16.0933 -14.1736 -1.8486 -10.9377 48.9949 0.3461
# 6 14.9523 7.1123 -2.5873 -8.1724 0.3461 31.2730
#
#
#
# Elastic Compliance Matrix: (Units=1/GPa)
#
#
# Indices 1 2 3 4 5 6 
#
# 1 0.011814 -0.001964 -0.001893 -0.001087 0.003038 -0.005676
# 2 -0.001964 0.006812 -0.002449 0.000278 0.001301 -0.000754
# 3 -0.001893 -0.002449 0.007173 -0.001178 -0.001335 0.001763
# 4 -0.001087 0.000278 -0.001178 0.014109 0.002800 0.004015
# 5 0.003038 0.001301 -0.001335 0.002800 0.022369 -0.001375
# 6 -0.005676 -0.000754 0.001763 0.004015 -0.001375 0.036072
#
#
# Mechanical properties :
#
#
# Convention : Reuss Voigt Hill
#
# Bulk Modulus (GPa) = 75.83090 91.71868 83.77479
# Shear Modulus (GPa) = 43.34314 52.48714 47.91514
#
# Velocity S-wave (km/s) = 3.97893 4.37858 4.18353
# Velocity P-wave (km/s) = 6.98627 7.68535 7.34413
#
# Compressibility (1/GPa) = 0.01318724
#
# Stress axis : x y z
#
# Youngs Moduli (GPa) = 84.64423 146.79809 139.40475
#
# Poissons Ratio (x) = 0.28833 0.26391
# Poissons Ratio (y) = 0.16625 0.34140
# Poissons Ratio (z) = 0.16024 0.35950
#
# Static dielectric constant tensor:
#      x y z
#    x 2.277380 -0.012670 0.069740 
#    y -0.012670 2.310190 -0.023560 
#    z 0.069740 -0.023560 2.109680 
# 
# From -- ./inp_files/207795.got.cif
#   From: 2010.05.17/outbox.cif.g08.bks.cpg/sg2_104_cif.got.tgz:207795.got - 2010.06.03 11:33:40.
