data_PCOD9005759
_publ_section_title
;
Structure prediction by ZEFSAII (Michael W. Deem and Ramdas Pophale) SiO2 
 PCOD9005759
Probable space group: P -1
;
_chemical_formula_sum "Si O2"
_cell_formula_units_Z 14
_cell_length_a 17.048962
_cell_length_b 7.986409
_cell_length_c 7.986395
_cell_angle_alpha 122.601404
_cell_angle_beta 136.004934
_cell_angle_gamma 43.995106
_cell_volume 524.135743
_symmetry_space_group_name_H-M "P -1"
_symmetry_group_IT_number 2
_symmetry_cell_setting 'triclinic'
loop_
_space_group_symop_operation_xyz
x,y,z
-x,-y,-z
loop_
_atom_site_type_symbol
_atom_site_label
_atom_site_fract_x
_atom_site_fract_y
_atom_site_fract_z
Si Si1 0.326936 0.198921 0.205204
Si Si2 0.500000 0.000000 0.000000
Si Si3 0.326936 0.794797 0.801077
Si Si4 0.020480 0.135662 0.455941
Si Si5 0.385783 0.535940 0.087904
Si Si6 0.000000 0.000000 0.000000
Si Si7 0.385783 0.912093 0.464058
Si Si8 0.020481 0.544058 0.864338
O O1 0.456021 0.211119 0.419712
O O2 0.306550 0.119221 0.313410
O O3 0.184193 0.426292 0.047106
O O4 0.371886 0.974695 0.025305
O O5 0.607782 0.700580 0.992642
O O6 0.392219 0.992636 0.700579
O O7 0.456021 0.580289 0.788881
O O8 0.184192 0.952894 0.573706
O O9 0.306551 0.686589 0.880777
O O10 0.990416 0.387183 0.612817
O O11 0.948804 0.132815 0.178027
O O12 0.000000 0.000000 0.500000
O O13 0.352608 0.714982 0.285016
O O14 0.051195 0.178028 0.132814
O O15 0.000000 0.500000 0.000000
#
# Coordination Sequence:
#
# PCOD9005759 Si02
#       8
#     2   1   2   2   2   1   2   2
#     4   9  20  42  67  91 126 174 215 269 339 403
#     4  12  22  38  50  98 134 164 212 270 318 386
#     4   9  20  42  67  91 126 174 215 269 339 403
#     4  11  24  47  72 101 138 180 235 294 351 415
#     4  10  21  38  63  92 127 171 218 261 331 406
#     4  12  26  46  70 104 134 190 232 286 346 414
#     4  10  21  38  63  92 127 171 218 261 331 406
#     4  11  24  47  72 101 138 180 235 294 351 415
#
# _framework density 26.710637999999999
#
# number of rings (size 3 to 8) (size 9 to 14) (size 15 to 20)
#    0.000    1.714    2.857    0.857    4.000    0.000 
#    5.143    0.000    0.000    0.000    0.000    0.000 
#    0.000    0.000    0.000    0.000    0.000    0.000 
#
# Total GULP energy -77964.312110 kJ/mol
# GULP energy per Si atom -5568.879436 kJ/mol
# Density = 2.664984 g / cm^3
# Si number density = 26.710638 Si / 1000 Ang^3
#
#
#
# Elastic Constant Matrix: (Units=GPa)
#
#
# Indices 1 2 3 4 5 6 
#
# 1 95.5775 23.9306 28.6605 17.2972 -8.4720 9.7094
# 2 23.9306 133.5755 91.1450 30.8082 0.6857 21.5944
# 3 28.6605 91.1450 151.8010 35.8592 -24.4977 5.6956
# 4 17.2972 30.8082 35.8592 43.9052 -9.4939 13.9400
# 5 -8.4720 0.6857 -24.4977 -9.4939 50.1289 -1.6526
# 6 9.7094 21.5944 5.6956 13.9400 -1.6526 50.5806
#
#
#
# Elastic Compliance Matrix: (Units=1/GPa)
#
#
# Indices 1 2 3 4 5 6 
#
# 1 0.011605 -0.000594 -0.000980 -0.002820 0.000922 -0.001056
# 2 -0.000594 0.015209 -0.009083 -0.002666 -0.005410 -0.004798
# 3 -0.000980 -0.009083 0.014192 -0.004773 0.006122 0.003983
# 4 -0.002820 -0.002666 -0.004773 0.032440 0.003153 -0.006620
# 5 0.000922 -0.005410 0.006122 0.003153 0.023812 0.001353
# 6 -0.001056 -0.004798 0.003983 -0.006620 0.001353 0.023442
#
#
# Mechanical properties :
#
#
# Convention : Reuss Voigt Hill
#
# Bulk Modulus (GPa) = 50.78154 74.26955 62.52555
# Shear Modulus (GPa) = 33.65257 44.73747 39.19502
#
# Velocity S-wave (km/s) = 3.55335 4.09699 3.83481
# Velocity P-wave (km/s) = 5.99066 7.08844 6.56255
#
# Compressibility (1/GPa) = 0.01969219
#
# Stress axis : x y z
#
# Youngs Moduli (GPa) = 86.17258 65.75058 70.46174
#
# Poissons Ratio (x) = 0.03905 0.06904
# Poissons Ratio (y) = 0.05118 0.64000
# Poissons Ratio (z) = 0.08443 0.59721
#
# Static dielectric constant tensor:
#      x y z
#    x 1.749410 -0.049420 0.043120 
#    y -0.049420 2.055400 -0.079570 
#    z 0.043120 -0.079570 2.033650 
# 
# From -- ./inp_files/178426.got.cif
#   From: 2010.05.17/outbox.cif.g08.bks.cpg/sg2_90_cif.got.tgz:178426.got - 2010.06.03 11:33:40.
