data_PCOD9005912
_publ_section_title
;
Structure prediction by ZEFSAII (Michael W. Deem and Ramdas Pophale) SiO2 
 PCOD9005912
Probable space group: P -1
;
_chemical_formula_sum "Si O2"
_cell_formula_units_Z 16
_cell_length_a 13.709618
_cell_length_b 14.243218
_cell_length_c 13.998786
_cell_angle_alpha 145.814787
_cell_angle_beta 148.289486
_cell_angle_gamma 46.204825
_cell_volume 806.677110
_symmetry_space_group_name_H-M "P -1"
_symmetry_group_IT_number 2
_symmetry_cell_setting 'triclinic'
loop_
_space_group_symop_operation_xyz
x,y,z
-x,-y,-z
loop_
_atom_site_type_symbol
_atom_site_label
_atom_site_fract_x
_atom_site_fract_y
_atom_site_fract_z
Si Si1 0.575404 0.395921 0.113596
Si Si2 0.940130 0.537263 0.088093
Si Si3 0.145322 0.625162 0.513636
Si Si4 0.812546 0.972763 0.103871
Si Si5 0.184969 0.798530 0.204198
Si Si6 0.218455 0.567938 0.877403
Si Si7 0.802247 0.898958 0.247396
Si Si8 0.466975 0.011677 0.733315
O O1 0.675608 0.434696 0.330595
O O2 0.729978 0.419552 0.179608
O O3 0.401205 0.501394 0.026660
O O4 0.507869 0.202218 0.896256
O O5 0.832489 0.708865 0.144236
O O6 0.114309 0.563226 0.327363
O O7 0.823186 0.377618 0.894675
O O8 0.000000 0.500000 0.000000
O O9 0.958315 0.554897 0.351330
O O10 0.157373 0.826399 0.694135
O O11 0.744693 0.906618 0.095221
O O12 0.003576 0.892545 0.165945
O O13 0.657483 0.937454 0.865210
O O14 0.362464 0.908126 0.476978
O O15 0.179833 0.744752 0.044189
O O16 0.665324 0.980253 0.276661
O O17 0.000000 0.000000 0.500000
#
# Coordination Sequence:
#
# PCOD9005912 Si02
#       8
#     2   2   2   2   2   2   2   2
#     4  10  22  42  64  89 115 161 206 247 297 358
#     4  11  20  35  60  86 119 158 190 243 300 343
#     4  10  21  38  64  86 118 158 205 243 291 361
#     4  11  22  38  61  86 121 163 200 243 290 356
#     4  11  22  38  58  88 125 154 195 248 305 345
#     4  10  22  40  65  89 121 154 199 256 306 347
#     4  12  20  39  64  83 118 167 200 236 295 358
#     4  11  23  39  60  88 121 157 206 241 290 362
#
# _framework density 19.834454000000001
#
# number of rings (size 3 to 8) (size 9 to 14) (size 15 to 20)
#    0.000    1.250    3.750    3.000    0.000    2.500 
#    0.000    3.125    0.000    0.000    0.000    0.000 
#    0.000    0.000    0.000    0.000    0.000    0.000 
#
# Total GULP energy -89396.764113 kJ/mol
# GULP energy per Si atom -5587.297757 kJ/mol
# Density = 1.978931 g / cm^3
# Si number density = 19.834454 Si / 1000 Ang^3
#
#
#
# Elastic Constant Matrix: (Units=GPa)
#
#
# Indices 1 2 3 4 5 6 
#
# 1 33.4096 7.6111 8.0768 -6.9670 -4.6667 11.9067
# 2 7.6111 50.1787 30.2972 -9.9049 -3.6887 8.4378
# 3 8.0768 30.2972 85.1010 -11.2582 0.4452 4.8475
# 4 -6.9670 -9.9049 -11.2582 18.1264 2.1823 -1.9981
# 5 -4.6667 -3.6887 0.4452 2.1823 28.5113 -2.9375
# 6 11.9067 8.4378 4.8475 -1.9981 -2.9375 12.8531
#
#
#
# Elastic Compliance Matrix: (Units=1/GPa)
#
#
# Indices 1 2 3 4 5 6 
#
# 1 0.048598 0.004169 -0.001646 0.014721 0.002839 -0.044198
# 2 0.004169 0.029694 -0.008592 0.010259 0.002012 -0.018061
# 3 -0.001646 -0.008592 0.015504 0.004700 -0.001815 0.001634
# 4 0.014721 0.010259 0.004700 0.068350 -0.002822 -0.012164
# 5 0.002839 0.002012 -0.001815 -0.002822 0.036521 0.004642
# 6 -0.044198 -0.018061 0.001634 -0.012164 0.004642 0.129156
#
#
# Mechanical properties :
#
#
# Convention : Reuss Voigt Hill
#
# Bulk Modulus (GPa) = 12.24621 28.96216 20.60418
# Shear Modulus (GPa) = 13.61729 20.07843 16.84786
#
# Velocity S-wave (km/s) = 2.62305 3.18512 2.91765
# Velocity P-wave (km/s) = 3.91937 5.30663 4.66485
#
# Compressibility (1/GPa) = 0.08165792
#
# Stress axis : x y z
#
# Youngs Moduli (GPa) = 20.57716 33.67694 64.49934
#
# Poissons Ratio (x) = -0.14041 0.10620
# Poissons Ratio (y) = -0.08579 0.55416
# Poissons Ratio (z) = 0.03388 0.28934
#
# Static dielectric constant tensor:
#      x y z
#    x 1.713020 0.006880 -0.015710 
#    y 0.006880 1.694860 -0.015690 
#    z -0.015710 -0.015690 1.691700 
# 
# From -- ./inp_files/272354.got.cif
#   From: 2010.05.17/outbox.cif.g08.bks.cpg/sg2_137_cif.got.tgz:272354.got - 2010.06.03 11:33:40.
