data_PCOD9005200
_publ_section_title
;
Structure prediction by ZEFSAII (Michael W. Deem and Ramdas Pophale) SiO2 
 PCOD9005200
Probable space group: P -1
;
_chemical_formula_sum "Si O2"
_cell_formula_units_Z 14
_cell_length_a 9.104457
_cell_length_b 9.119252
_cell_length_c 16.815299
_cell_angle_alpha 127.206899
_cell_angle_beta 128.592096
_cell_angle_gamma 31.507162
_cell_volume 561.117785
_symmetry_space_group_name_H-M "P -1"
_symmetry_group_IT_number 2
_symmetry_cell_setting 'triclinic'
loop_
_space_group_symop_operation_xyz
x,y,z
-x,-y,-z
loop_
_atom_site_type_symbol
_atom_site_label
_atom_site_fract_x
_atom_site_fract_y
_atom_site_fract_z
Si Si1 0.067522 0.009964 0.115582
Si Si2 0.908179 0.364313 0.449077
Si Si3 0.319616 0.788655 0.480198
Si Si4 0.785009 0.500639 0.961014
Si Si5 0.300766 0.390483 0.840427
Si Si6 0.914947 0.355141 0.725058
Si Si7 0.324257 0.812592 0.772279
O O1 0.095574 0.798819 0.102224
O O2 0.376450 0.883978 0.172285
O O3 0.813170 0.342980 0.154820
O O4 0.000000 0.000000 0.000000
O O5 0.582148 0.632808 0.458382
O O6 0.858728 0.239204 0.323561
O O7 0.000000 0.500000 0.500000
O O8 0.132662 0.117890 0.511122
O O9 0.500000 0.500000 0.500000
O O10 0.063714 0.841352 0.385589
O O11 0.500904 0.710814 0.879218
O O12 0.706889 0.582467 0.056122
O O13 0.000000 0.500000 0.000000
O O14 0.060797 0.416304 0.752567
O O15 0.587668 0.626582 0.734209
O O16 0.119020 0.140265 0.795541
#
# Coordination Sequence:
#
# PCOD9005200 Si02
#       7
#     2   2   2   2   2   2   2
#     4  10  23  40  55  82 116 156 196 243 292 336
#     4  10  21  41  65  88 128 157 190 252 315 348
#     4  10  21  40  64  93 119 154 207 245 291 373
#     4  11  22  39  62  86 116 158 207 236 285 353
#     4  11  22  41  59  81 122 159 191 242 301 336
#     4  10  21  38  61  87 120 156 192 243 299 345
#     4  10  22  38  58  93 118 151 202 244 285 357
#
# _framework density 24.950198
#
# number of rings (size 3 to 8) (size 9 to 14) (size 15 to 20)
#    0.000    1.714    1.429    3.429    2.000    4.000 
#    5.143    0.000    0.000    0.000    0.000    0.000 
#    0.000    0.000    0.000    0.000    0.000    0.000 
#
# Total GULP energy -78009.820586 kJ/mol
# GULP energy per Si atom -5572.130042 kJ/mol
# Density = 2.489341 g / cm^3
# Si number density = 24.950198 Si / 1000 Ang^3
#
#
#
# Elastic Constant Matrix: (Units=GPa)
#
#
# Indices 1 2 3 4 5 6 
#
# 1 140.7161 24.3317 45.3405 -2.4889 29.2682 21.3994
# 2 24.3317 105.3091 35.4650 -25.7454 1.4703 15.7367
# 3 45.3405 35.4650 68.7419 -9.1667 24.0672 23.9177
# 4 -2.4889 -25.7454 -9.1667 33.8504 8.1721 3.4257
# 5 29.2682 1.4703 24.0672 8.1721 43.6517 -2.8656
# 6 21.3994 15.7367 23.9177 3.4257 -2.8656 40.7319
#
#
#
# Elastic Compliance Matrix: (Units=1/GPa)
#
#
# Indices 1 2 3 4 5 6 
#
# 1 0.009850 -0.000300 -0.002844 0.001463 -0.005556 -0.003903
# 2 -0.000300 0.013979 -0.004715 0.009585 0.000321 -0.003258
# 3 -0.002844 -0.004715 0.034466 0.012463 -0.020545 -0.019416
# 4 0.001463 0.009585 0.012463 0.046368 -0.017968 -0.016954
# 5 -0.005556 0.000321 -0.020545 -0.017968 0.042586 0.019366
# 6 -0.003903 -0.003258 -0.019416 -0.016954 0.019366 0.042050
#
#
# Mechanical properties :
#
#
# Convention : Reuss Voigt Hill
#
# Bulk Modulus (GPa) = 23.48658 58.33796 40.91227
# Shear Modulus (GPa) = 22.80959 37.62212 30.21586
#
# Velocity S-wave (km/s) = 3.02686 3.88737 3.48378
# Velocity P-wave (km/s) = 4.65292 6.60162 5.71100
#
# Compressibility (1/GPa) = 0.04257751
#
# Stress axis : x y z
#
# Youngs Moduli (GPa) = 101.52597 71.53804 29.01434
#
# Poissons Ratio (x) = 0.02144 0.08251
# Poissons Ratio (y) = 0.03043 0.13680
# Poissons Ratio (z) = 0.28870 0.33729
#
# Static dielectric constant tensor:
#      x y z
#    x 2.033510 0.017250 -0.102310 
#    y 0.017250 2.031920 0.070630 
#    z -0.102310 0.070630 2.128620 
# 
# From -- ./inp_files/115869.got.cif
#   From: 2010.05.17/outbox.cif.g08.bks.cpg/sg2_58_cif.got.tgz:115869.got - 2010.06.03 11:33:40.
