data_PCOD9005448
_publ_section_title
;
Structure prediction by ZEFSAII (Michael W. Deem and Ramdas Pophale) SiO2 
 PCOD9005448
Probable space group: P -1
;
_chemical_formula_sum "Si O2"
_cell_formula_units_Z 12
_cell_length_a 11.607515
_cell_length_b 8.642231
_cell_length_c 9.052681
_cell_angle_alpha 121.840508
_cell_angle_beta 121.741290
_cell_angle_gamma 43.040180
_cell_volume 510.838646
_symmetry_space_group_name_H-M "P -1"
_symmetry_group_IT_number 2
_symmetry_cell_setting 'triclinic'
loop_
_space_group_symop_operation_xyz
x,y,z
-x,-y,-z
loop_
_atom_site_type_symbol
_atom_site_label
_atom_site_fract_x
_atom_site_fract_y
_atom_site_fract_z
Si Si1 0.491170 0.552101 0.693152
Si Si2 0.162888 0.055191 0.064116
Si Si3 0.157995 0.005862 0.595806
Si Si4 0.526438 0.806440 0.306837
Si Si5 0.843332 0.197503 0.799748
Si Si6 0.093597 0.453049 0.695007
O O1 0.500000 0.500000 0.500000
O O2 0.468874 0.388927 0.695860
O O3 0.682406 0.471734 0.814660
O O4 0.322111 0.820290 0.715708
O O5 0.033040 0.303808 0.183300
O O6 0.362184 0.951654 0.155631
O O7 0.173102 0.869262 0.081799
O O8 0.039038 0.104966 0.868945
O O9 0.101889 0.259631 0.693480
O O10 0.199193 0.927870 0.408718
O O11 0.000000 0.000000 0.500000
O O12 0.708618 0.661348 0.269962
O O13 0.500000 0.000000 0.500000
O O14 0.000000 0.500000 0.500000
#
# Coordination Sequence:
#
# PCOD9005448 Si02
#       6
#     2   2   2   2   2   2
#     4   9  19  36  58  83 118 159 192 236 299 358
#     4  10  21  38  62  89 121 149 200 253 294 344
#     4  11  22  38  62  87 119 157 198 245 300 362
#     4  11  20  35  64  89 115 157 202 250 290 347
#     4   9  19  40  59  86 119 156 192 248 300 347
#     4  12  21  38  62  90 115 154 210 247 286 356
#
# _framework density 23.490783
#
# number of rings (size 3 to 8) (size 9 to 14) (size 15 to 20)
#    0.000    1.667    3.333    3.000    0.000    0.000 
#    3.000    4.167    0.000    0.000    0.000    0.000 
#    0.000    0.000    0.000    0.000    0.000    0.000 
#
# Total GULP energy -66921.733577 kJ/mol
# GULP energy per Si atom -5576.811131 kJ/mol
# Density = 2.343732 g / cm^3
# Si number density = 23.490783 Si / 1000 Ang^3
#
#
#
# Elastic Constant Matrix: (Units=GPa)
#
#
# Indices 1 2 3 4 5 6 
#
# 1 103.9419 58.1639 0.7305 -21.9198 8.5608 -20.8617
# 2 58.1639 204.9663 48.8771 -37.3767 22.4600 -23.7721
# 3 0.7305 48.8771 75.1783 -22.8722 17.8014 -14.0069
# 4 -21.9198 -37.3767 -22.8722 40.8781 -15.5050 12.9721
# 5 8.5608 22.4600 17.8014 -15.5050 24.6130 -11.2541
# 6 -20.8617 -23.7721 -14.0069 12.9721 -11.2541 55.4552
#
#
#
# Elastic Compliance Matrix: (Units=1/GPa)
#
#
# Indices 1 2 3 4 5 6 
#
# 1 0.013339 -0.003467 0.004332 0.005473 0.000406 0.003428
# 2 -0.003467 0.007309 -0.003710 0.002205 -0.001344 0.000103
# 3 0.004332 -0.003710 0.019791 0.006569 -0.007381 0.002004
# 4 0.005473 0.002205 0.006569 0.039425 0.015525 -0.001408
# 5 0.000406 -0.001344 -0.007381 0.015525 0.059662 0.006189
# 6 0.003428 0.000103 0.002004 -0.001408 0.006189 0.021458
#
#
# Mechanical properties :
#
#
# Convention : Reuss Voigt Hill
#
# Bulk Modulus (GPa) = 28.77735 66.62551 47.70143
# Shear Modulus (GPa) = 28.04939 42.61028 35.32983
#
# Velocity S-wave (km/s) = 3.45927 4.26363 3.88233
# Velocity P-wave (km/s) = 5.31342 7.25686 6.35981
#
# Compressibility (1/GPa) = 0.03474955
#
# Stress axis : x y z
#
# Youngs Moduli (GPa) = 74.96663 136.82122 50.52761
#
# Poissons Ratio (x) = 0.47441 -0.21890
# Poissons Ratio (y) = 0.25993 0.18744
# Poissons Ratio (z) = -0.32477 0.50757
#
# Static dielectric constant tensor:
#      x y z
#    x 1.964950 -0.064810 -0.061560 
#    y -0.064810 1.879610 0.028420 
#    z -0.061560 0.028420 1.972250 
# 
# From -- ./inp_files/158830.got.cif
#   From: 2010.05.17/outbox.cif.g08.bks.cpg/sg2_80_cif.got.tgz:158830.got - 2010.06.03 11:33:40.
