data_PCOD9005091
_publ_section_title
;
Structure prediction by ZEFSAII (Michael W. Deem and Ramdas Pophale) SiO2 
 PCOD9005091
Probable space group: P -1
;
_chemical_formula_sum "Si O2"
_cell_formula_units_Z 16
_cell_length_a 22.455147
_cell_length_b 12.653018
_cell_length_c 8.099745
_cell_angle_alpha 80.663119
_cell_angle_beta 54.894848
_cell_angle_gamma 31.460582
_cell_volume 628.249417
_symmetry_space_group_name_H-M "P -1"
_symmetry_group_IT_number 2
_symmetry_cell_setting 'triclinic'
loop_
_space_group_symop_operation_xyz
x,y,z
-x,-y,-z
loop_
_atom_site_type_symbol
_atom_site_label
_atom_site_fract_x
_atom_site_fract_y
_atom_site_fract_z
Si Si1 0.908781 0.119095 0.878473
Si Si2 0.292584 0.959611 0.143718
Si Si3 0.894023 0.320058 0.077855
Si Si4 0.826517 0.107913 0.704841
Si Si5 0.270225 0.103857 0.817355
Si Si6 0.842803 0.834402 0.351084
Si Si7 0.406352 0.113563 0.386422
Si Si8 0.171574 0.455761 0.331082
O O1 0.962578 0.952996 0.964292
O O2 0.780276 0.242000 0.904748
O O3 0.128033 0.871035 0.519137
O O4 0.802321 0.366084 0.076954
O O5 0.325773 0.946786 0.284303
O O6 0.966682 0.670547 0.554715
O O7 0.320931 0.791989 0.114227
O O8 0.372306 0.914634 0.869613
O O9 0.715567 0.622513 0.396281
O O10 0.043843 0.206794 0.794495
O O11 0.061996 0.724885 0.457659
O O12 0.245580 0.049251 0.725168
O O13 0.381663 0.047847 0.561793
O O14 0.033120 0.482541 0.137078
O O15 0.281849 0.269235 0.372729
O O16 0.650577 0.796296 0.029281
#
# Coordination Sequence:
#
# PCOD9005091 Si02
#       8
#     2   2   2   2   2   2   2   2
#     4  10  17  28  49  71 109 127 173 224 262 294
#     4  10  18  34  52  78 108 137 175 218 262 313
#     4  10  17  29  47  77 103 134 169 218 266 300
#     4   9  18  31  47  78 101 135 173 216 265 305
#     4  10  20  30  52  75 109 141 175 213 256 322
#     4  10  18  31  48  75 106 136 173 218 258 308
#     4  10  19  33  50  79 115 141 168 207 273 329
#     4   9  18  33  52  74 115 142 164 215 270 323
#
# _framework density 25.467592
#
# number of rings (size 3 to 8) (size 9 to 14) (size 15 to 20)
#    0.750    1.500    2.500    3.375    0.000    0.000 
#    0.000    5.625    0.000    1.500    0.000    8.750 
#   11.250    0.125    0.000    0.500    0.000    0.000 
#
# Total GULP energy -89513.806454 kJ/mol
# GULP energy per Si atom -5594.612903 kJ/mol
# Density = 2.540963 g / cm^3
# Si number density = 25.467592 Si / 1000 Ang^3
#
#
#
# Elastic Constant Matrix: (Units=GPa)
#
#
# Indices 1 2 3 4 5 6 
#
# 1 103.9573 40.2567 44.6586 -0.1993 41.3415 26.3714
# 2 40.2567 105.6262 43.1540 -28.4894 7.9880 6.6407
# 3 44.6586 43.1540 107.6193 -28.0792 27.1848 7.4907
# 4 -0.1993 -28.4894 -28.0792 43.9016 -2.5468 2.8144
# 5 41.3415 7.9880 27.1848 -2.5468 41.6625 0.3873
# 6 26.3714 6.6407 7.4907 2.8144 0.3873 38.4940
#
#
#
# Elastic Compliance Matrix: (Units=1/GPa)
#
#
# Indices 1 2 3 4 5 6 
#
# 1 0.028315 -0.008823 -0.002802 -0.007775 -0.024899 -0.016512
# 2 -0.008823 0.015364 -0.002476 0.008603 0.007921 0.003167
# 3 -0.002802 -0.002476 0.015087 0.007746 -0.006106 -0.001094
# 4 -0.007775 0.008603 0.007746 0.033466 0.003058 -0.000143
# 5 -0.024899 0.007921 -0.006106 0.003058 0.051211 0.016140
# 6 -0.016512 0.003167 -0.001094 -0.000143 0.016140 0.036804
#
#
# Mechanical properties :
#
#
# Convention : Reuss Voigt Hill
#
# Bulk Modulus (GPa) = 32.71825 63.70460 48.21142
# Shear Modulus (GPa) = 22.86896 37.42054 30.14475
#
# Velocity S-wave (km/s) = 2.99985 3.83736 3.44416
# Velocity P-wave (km/s) = 4.98736 6.68596 5.89812
#
# Compressibility (1/GPa) = 0.03056399
#
# Stress axis : x y z
#
# Youngs Moduli (GPa) = 35.31732 65.08814 66.28189
#
# Poissons Ratio (x) = 0.57425 0.18570
# Poissons Ratio (y) = 0.31159 0.16414
# Poissons Ratio (z) = 0.09895 0.16118
#
# Static dielectric constant tensor:
#      x y z
#    x 2.048980 -0.030990 -0.000860 
#    y -0.030990 1.976900 -0.017390 
#    z -0.000860 -0.017390 2.022540 
# 
# From -- ./inp_files/353501.got.cif
#   From: 2010.05.17/outbox.cif.g08.bks.cpg/sg2_177_cif.got.tgz:353501.got - 2010.06.03 11:33:40.
