data_PCOD9005975
_publ_section_title
;
Structure prediction by ZEFSAII (Michael W. Deem and Ramdas Pophale) SiO2 
 PCOD9005975
Probable space group: P -1
;
_chemical_formula_sum "Si O2"
_cell_formula_units_Z 15
_cell_length_a 5.700016
_cell_length_b 14.298922
_cell_length_c 12.408779
_cell_angle_alpha 145.291589
_cell_angle_beta 98.197037
_cell_angle_gamma 90.599488
_cell_volume 555.170997
_symmetry_space_group_name_H-M "P -1"
_symmetry_group_IT_number 2
_symmetry_cell_setting 'triclinic'
loop_
_space_group_symop_operation_xyz
x,y,z
-x,-y,-z
loop_
_atom_site_type_symbol
_atom_site_label
_atom_site_fract_x
_atom_site_fract_y
_atom_site_fract_z
Si Si1 0.604887 0.891021 0.550765
Si Si2 0.349261 0.644940 0.139377
Si Si3 0.783812 0.339768 0.299995
Si Si4 0.902103 0.593816 0.928664
Si Si5 0.000000 0.000000 0.000000
Si Si6 0.965130 0.075958 0.279001
Si Si7 0.340282 0.648439 0.474349
Si Si8 0.554388 0.806360 0.048214
O O1 0.501448 0.819109 0.361847
O O2 0.895376 0.948371 0.626924
O O3 0.537594 0.724016 0.467445
O O4 0.508256 0.039993 0.742350
O O5 0.166027 0.570158 0.154824
O O6 0.500000 0.500000 0.000000
O O7 0.182719 0.663809 0.043520
O O8 0.590961 0.341107 0.386351
O O9 0.000000 0.500000 0.500000
O O10 0.881727 0.169481 0.153390
O O11 0.644347 0.320144 0.157110
O O12 0.818871 0.531794 0.744828
O O13 0.717352 0.715318 0.048990
O O14 0.144870 0.068670 0.185839
O O15 0.853849 0.234540 0.435281
O O16 0.751707 0.914938 0.078584
#
# Coordination Sequence:
#
# PCOD9005975 Si02
#       8
#     2   2   2   2   1   2   2   2
#     4  10  21  41  66  94 130 176 222 272 343 402
#     4  10  22  43  71  92 122 175 223 278 352 406
#     4  11  25  43  66 101 139 185 233 272 338 406
#     4  10  23  42  63  96 133 162 224 288 333 408
#     4  10  22  40  66  90 136 180 226 270 320 400
#     4  10  21  38  64  90 131 177 222 270 333 394
#     4   9  22  39  63  93 130 178 222 275 326 401
#     4  11  25  41  63  99 138 171 222 281 337 402
#
# _framework density 27.018702999999999
#
# number of rings (size 3 to 8) (size 9 to 14) (size 15 to 20)
#    0.000    1.867    1.333    0.800    3.733   10.133 
#    0.000    1.333    0.000    0.000    0.000    0.000 
#    0.000    0.000    0.000    0.000    0.000    0.000 
#
# Total GULP energy -83532.434430 kJ/mol
# GULP energy per Si atom -5568.828962 kJ/mol
# Density = 2.695721 g / cm^3
# Si number density = 27.018703 Si / 1000 Ang^3
#
#
#
# Elastic Constant Matrix: (Units=GPa)
#
#
# Indices 1 2 3 4 5 6 
#
# 1 54.7983 23.2272 49.4578 1.7963 9.3360 -22.2251
# 2 23.2272 96.4178 53.7985 -6.1348 2.9803 -21.3639
# 3 49.4578 53.7985 178.9576 -29.1851 19.3427 -19.6953
# 4 1.7963 -6.1348 -29.1851 53.4253 -3.9024 -3.0546
# 5 9.3360 2.9803 19.3427 -3.9024 40.9928 4.4908
# 6 -22.2251 -21.3639 -19.6953 -3.0546 4.4908 50.9002
#
#
#
# Elastic Compliance Matrix: (Units=1/GPa)
#
#
# Indices 1 2 3 4 5 6 
#
# 1 0.030342 -0.001231 -0.007152 -0.004857 -0.005017 0.010116
# 2 -0.001231 0.013325 -0.003302 0.000015 0.000461 0.003738
# 3 -0.007152 -0.003302 0.009551 0.004904 -0.002135 -0.000330
# 4 -0.004857 0.000015 0.004904 0.021674 0.000743 0.001019
# 5 -0.005017 0.000461 -0.002135 0.000743 0.027148 -0.005174
# 6 0.010116 0.003738 -0.000330 0.001019 -0.005174 0.026022
#
#
# Mechanical properties :
#
#
# Convention : Reuss Voigt Hill
#
# Bulk Modulus (GPa) = 33.50210 64.79341 49.14776
# Shear Modulus (GPa) = 30.98230 42.64302 36.81266
#
# Velocity S-wave (km/s) = 3.38997 3.97706 3.69519
# Velocity P-wave (km/s) = 5.26773 6.71732 6.03620
#
# Compressibility (1/GPa) = 0.02984887
#
# Stress axis : x y z
#
# Youngs Moduli (GPa) = 32.95745 75.04524 104.69937
#
# Poissons Ratio (x) = 0.09242 0.74880
# Poissons Ratio (y) = 0.04059 0.34567
# Poissons Ratio (z) = 0.23571 0.24776
#
# Static dielectric constant tensor:
#      x y z
#    x 2.426400 0.141680 0.114290 
#    y 0.141680 2.263000 -0.070230 
#    z 0.114290 -0.070230 2.109320 
# 
# From -- ./inp_files/105511.got.cif
#   From: 2010.05.17/outbox.cif.g08.bks.cpg/sg2_53_cif.got.tgz:105511.got - 2010.06.03 11:33:40.
