data_PCOD9005032
_publ_section_title
;
Structure prediction by ZEFSAII (Michael W. Deem and Ramdas Pophale) SiO2 
 PCOD9005032
Probable space group: P -1
;
_chemical_formula_sum "Si O2"
_cell_formula_units_Z 16
_cell_length_a 12.357810
_cell_length_b 8.379843
_cell_length_c 10.344249
_cell_angle_alpha 55.774649
_cell_angle_beta 54.871693
_cell_angle_gamma 83.762689
_cell_volume 686.810690
_symmetry_space_group_name_H-M "P -1"
_symmetry_group_IT_number 2
_symmetry_cell_setting 'triclinic'
loop_
_space_group_symop_operation_xyz
x,y,z
-x,-y,-z
loop_
_atom_site_type_symbol
_atom_site_label
_atom_site_fract_x
_atom_site_fract_y
_atom_site_fract_z
Si Si1 0.754707 0.717167 0.607360
Si Si2 0.522409 0.260906 0.323278
Si Si3 0.329345 0.352680 0.803145
Si Si4 0.246788 0.654904 0.066708
Si Si5 0.940144 0.641185 0.887255
Si Si6 0.045699 0.745704 0.333911
Si Si7 0.429632 0.764818 0.412373
Si Si8 0.811925 0.074882 0.580189
O O1 0.635732 0.772937 0.587646
O O2 0.718276 0.482109 0.781185
O O3 0.898805 0.781994 0.400126
O O4 0.777198 0.841788 0.669798
O O5 0.587247 0.503079 0.203335
O O6 0.448382 0.832809 0.519051
O O7 0.613308 0.228900 0.156699
O O8 0.350747 0.519111 0.595529
O O9 0.421410 0.211724 0.764963
O O10 0.169139 0.279398 0.991620
O O11 0.145850 0.502402 0.102760
O O12 0.157462 0.788214 0.124452
O O13 0.072107 0.806316 0.658002
O O14 0.000000 0.500000 0.000000
O O15 0.118820 0.860142 0.359306
O O16 0.000000 0.500000 0.500000
O O17 0.326803 0.861232 0.367739
#
# Coordination Sequence:
#
# PCOD9005032 Si02
#       8
#     2   2   2   2   2   2   2   2
#     4  11  23  36  58  87 121 158 181 244 299 345
#     4   9  19  38  61  84 114 150 200 238 281 344
#     4   8  18  32  57  92 104 144 198 245 268 333
#     4  10  21  38  60  88 109 155 201 235 278 348
#     4  11  19  35  62  87 114 148 195 247 282 340
#     4  10  22  36  58  85 112 158 196 235 272 356
#     4   9  19  35  60  89 111 148 194 245 284 335
#     4  12  22  38  58  88 122 152 191 237 305 339
#
# _framework density 23.296085000000001
#
# number of rings (size 3 to 8) (size 9 to 14) (size 15 to 20)
#    0.750    1.250    3.750    0.750    3.500    1.500 
#    0.000    1.875    0.000    3.750    0.000    0.000 
#    0.000    0.000    0.000    0.000    0.000    0.000 
#
# Total GULP energy -89424.000050 kJ/mol
# GULP energy per Si atom -5589.000003 kJ/mol
# Density = 2.324306 g / cm^3
# Si number density = 23.296085 Si / 1000 Ang^3
#
#
#
# Elastic Constant Matrix: (Units=GPa)
#
#
# Indices 1 2 3 4 5 6 
#
# 1 114.3920 21.3520 44.1321 12.8212 -23.0979 -29.5125
# 2 21.3520 75.7960 46.1552 29.5456 -20.0616 -24.9263
# 3 44.1321 46.1552 115.7193 39.4250 -20.1638 -29.9936
# 4 12.8212 29.5456 39.4250 47.6007 -12.2419 -14.2561
# 5 -23.0979 -20.0616 -20.1638 -12.2419 27.9813 12.0942
# 6 -29.5125 -24.9263 -29.9936 -14.2561 12.0942 31.6914
#
#
#
# Elastic Compliance Matrix: (Units=1/GPa)
#
#
# Indices 1 2 3 4 5 6 
#
# 1 0.013093 0.002252 -0.002941 0.002180 0.007186 0.009419
# 2 0.002252 0.023015 -0.003578 -0.006599 0.008275 0.010686
# 3 -0.002941 -0.003578 0.015339 -0.008052 0.000274 0.005237
# 4 0.002180 -0.006599 -0.008052 0.033095 0.004754 0.002292
# 5 0.007186 0.008275 0.000274 0.004754 0.051660 -0.004116
# 6 0.009419 0.010686 0.005237 0.002292 -0.004116 0.056289
#
#
# Mechanical properties :
#
#
# Convention : Reuss Voigt Hill
#
# Bulk Modulus (GPa) = 23.30334 58.79841 41.05088
# Shear Modulus (GPa) = 23.22028 34.40589 28.81308
#
# Velocity S-wave (km/s) = 3.16055 3.84721 3.52066
# Velocity P-wave (km/s) = 4.83152 6.71037 5.84691
#
# Compressibility (1/GPa) = 0.04291230
#
# Stress axis : x y z
#
# Youngs Moduli (GPa) = 76.37814 43.45030 65.19349
#
# Poissons Ratio (x) = -0.09786 0.19172
# Poissons Ratio (y) = -0.17202 0.23329
# Poissons Ratio (z) = 0.22461 0.15549
#
# Static dielectric constant tensor:
#      x y z
#    x 1.817870 0.001850 -0.000640 
#    y 0.001850 1.947510 -0.033500 
#    z -0.000640 -0.033500 1.904510 
# 
# From -- ./inp_files/332151.got.cif
#   From: 2010.05.17/outbox.cif.g08.bks.cpg/sg2_167_cif.got.tgz:332151.got - 2010.06.03 11:33:40.
