data_PCOD9005232
_publ_section_title
;
Structure prediction by ZEFSAII (Michael W. Deem and Ramdas Pophale) SiO2 
 PCOD9005232
Probable space group: P -1
;
_chemical_formula_sum "Si O2"
_cell_formula_units_Z 16
_cell_length_a 9.302777
_cell_length_b 13.432339
_cell_length_c 8.974066
_cell_angle_alpha 119.786848
_cell_angle_beta 64.679798
_cell_angle_gamma 128.146956
_cell_volume 753.282998
_symmetry_space_group_name_H-M "P -1"
_symmetry_group_IT_number 2
_symmetry_cell_setting 'triclinic'
loop_
_space_group_symop_operation_xyz
x,y,z
-x,-y,-z
loop_
_atom_site_type_symbol
_atom_site_label
_atom_site_fract_x
_atom_site_fract_y
_atom_site_fract_z
Si Si1 0.373441 0.824859 0.077828
Si Si2 0.457702 0.871915 0.726732
Si Si3 0.716797 0.558478 0.470092
Si Si4 0.521803 0.700871 0.142519
Si Si5 0.773722 0.920056 0.417857
Si Si6 0.880695 0.386837 0.344988
Si Si7 0.986826 0.191439 0.656289
Si Si8 0.757078 0.583966 0.817645
O O1 0.421728 0.727067 0.070258
O O2 0.163845 0.786799 0.177817
O O3 0.500064 0.977732 0.195919
O O4 0.415329 0.834219 0.891064
O O5 0.641275 0.875605 0.590047
O O6 0.278688 0.757617 0.634025
O O7 0.500000 0.500000 0.500000
O O8 0.774431 0.446714 0.347936
O O9 0.843929 0.674949 0.386612
O O10 0.762987 0.609859 0.658029
O O11 0.634929 0.837206 0.286229
O O12 0.373560 0.575493 0.214088
O O13 0.664933 0.657564 0.992028
O O14 0.925233 0.876160 0.331980
O O15 0.877650 0.080431 0.492478
O O16 0.000000 0.500000 0.500000
O O17 0.038232 0.371551 0.182447
#
# Coordination Sequence:
#
# PCOD9005232 Si02
#       8
#     2   2   2   2   2   2   2   2
#     4  10  24  42  68  95 128 167 212 269 314 379
#     4  10  22  43  68  93 129 167 215 258 325 375
#     4  11  22  39  66  94 124 171 212 258 318 383
#     4  11  23  42  62  93 129 169 208 265 323 364
#     4  10  22  41  66  89 132 168 206 268 308 381
#     4  10  21  38  61  88 123 163 206 260 306 374
#     4  10  22  40  65  96 123 164 223 254 315 375
#     4  10  24  40  59  92 133 163 213 261 315 382
#
# _framework density 21.240358000000001
#
# number of rings (size 3 to 8) (size 9 to 14) (size 15 to 20)
#    0.000    1.750    0.000    3.750    5.250    5.000 
#    0.000    2.500    0.000    0.000    0.000    0.000 
#    0.000    0.000    0.000    0.000    0.000    0.000 
#
# Total GULP energy -89376.025990 kJ/mol
# GULP energy per Si atom -5586.001624 kJ/mol
# Density = 2.119201 g / cm^3
# Si number density = 21.240358 Si / 1000 Ang^3
#
#
#
# Elastic Constant Matrix: (Units=GPa)
#
#
# Indices 1 2 3 4 5 6 
#
# 1 127.6193 35.2926 35.4497 -1.1749 -35.2934 11.2313
# 2 35.2926 69.9857 15.7874 2.2820 -7.2185 18.3133
# 3 35.4497 15.7874 57.9986 -0.4233 -15.6416 3.5701
# 4 -1.1749 2.2820 -0.4233 25.4306 6.6061 3.1809
# 5 -35.2934 -7.2185 -15.6416 6.6061 36.8966 -1.1058
# 6 11.2313 18.3133 3.5701 3.1809 -1.1058 38.0329
#
#
#
# Elastic Compliance Matrix: (Units=1/GPa)
#
#
# Indices 1 2 3 4 5 6 
#
# 1 0.013022 -0.004312 -0.003993 -0.001601 0.010178 -0.000965
# 2 -0.004312 0.018854 -0.002468 -0.000567 -0.001607 -0.007573
# 3 -0.003993 -0.002468 0.021684 -0.000993 0.005085 0.000563
# 4 -0.001601 -0.000567 -0.000993 0.042175 -0.009704 -0.002970
# 5 0.010178 -0.001607 0.005085 -0.009704 0.040395 -0.000723
# 6 -0.000965 -0.007573 0.000563 -0.002970 -0.000723 0.030399
#
#
# Mechanical properties :
#
#
# Convention : Reuss Voigt Hill
#
# Bulk Modulus (GPa) = 31.23668 47.62921 39.43295
# Shear Modulus (GPa) = 25.15763 31.34362 28.25062
#
# Velocity S-wave (km/s) = 3.44528 3.84560 3.65093
# Velocity P-wave (km/s) = 5.52855 6.49545 6.03140
#
# Compressibility (1/GPa) = 0.03201364
#
# Stress axis : x y z
#
# Youngs Moduli (GPa) = 76.79159 53.03905 46.11757
#
# Poissons Ratio (x) = 0.22869 0.18416
# Poissons Ratio (y) = 0.33110 0.11383
# Poissons Ratio (z) = 0.30665 0.13092
#
# Static dielectric constant tensor:
#      x y z
#    x 1.771820 0.020010 0.009160 
#    y 0.020010 1.756310 0.031820 
#    z 0.009160 0.031820 1.800460 
# 
# From -- ./inp_files/189908.got.cif
#   From: 2010.05.17/outbox.cif.g08.bks.cpg/sg2_95_cif.got.tgz:189908.got - 2010.06.03 11:33:40.
