data_PCOD9005382
_publ_section_title
;
Structure prediction by ZEFSAII (Michael W. Deem and Ramdas Pophale) SiO2 
 PCOD9005382
Probable space group: P -1
;
_chemical_formula_sum "Si O2"
_cell_formula_units_Z 14
_cell_length_a 8.717312
_cell_length_b 21.376211
_cell_length_c 7.836953
_cell_angle_alpha 50.838728
_cell_angle_beta 72.166517
_cell_angle_gamma 32.794772
_cell_volume 518.223142
_symmetry_space_group_name_H-M "P -1"
_symmetry_group_IT_number 2
_symmetry_cell_setting 'triclinic'
loop_
_space_group_symop_operation_xyz
x,y,z
-x,-y,-z
loop_
_atom_site_type_symbol
_atom_site_label
_atom_site_fract_x
_atom_site_fract_y
_atom_site_fract_z
Si Si1 0.878053 0.390066 0.241124
Si Si2 0.189656 0.428452 0.852273
Si Si3 0.109542 0.191599 0.831831
Si Si4 0.055590 0.891605 0.796111
Si Si5 0.046555 0.376112 0.712750
Si Si6 0.720478 0.153232 0.700725
Si Si7 0.848534 0.254101 0.283839
O O1 0.985155 0.433815 0.188675
O O2 0.012652 0.263863 0.280085
O O3 0.939760 0.312955 0.525821
O O4 0.492217 0.572726 0.000493
O O5 0.023265 0.422168 0.832585
O O6 0.217206 0.471940 0.594443
O O7 0.563463 0.245002 0.101168
O O8 0.066310 0.272142 0.865848
O O9 0.943542 0.179735 0.942956
O O10 0.500000 0.000000 0.000000
O O11 0.944059 0.893089 0.662311
O O12 0.804509 0.069104 0.641691
O O13 0.383841 0.264040 0.703238
O O14 0.745790 0.236542 0.500733
O O15 0.000000 0.000000 0.000000
#
# Coordination Sequence:
#
# PCOD9005382 Si02
#       7
#     2   2   2   2   2   2   2
#     4   9  21  42  61  91 131 169 212 262 316 377
#     4   9  20  39  61  92 125 162 221 256 313 380
#     4  11  22  40  70  97 133 165 217 264 322 392
#     4  11  22  41  68  98 125 172 213 266 321 384
#     4  10  21  38  62 100 128 161 216 269 320 371
#     4  12  22  39  69  96 128 172 216 268 324 382
#     4  10  23  41  64  96 130 168 222 262 318 386
#
# _framework density 27.015391000000001
#
# number of rings (size 3 to 8) (size 9 to 14) (size 15 to 20)
#    0.000    1.714    2.857    1.286    0.000    5.143 
#   12.857    7.143    0.000    0.000    0.000    0.000 
#    0.000    0.000    0.000    0.000    0.000    0.000 
#
# Total GULP energy -78291.469700 kJ/mol
# GULP energy per Si atom -5592.247836 kJ/mol
# Density = 2.695390 g / cm^3
# Si number density = 27.015391 Si / 1000 Ang^3
#
#
#
# Elastic Constant Matrix: (Units=GPa)
#
#
# Indices 1 2 3 4 5 6 
#
# 1 146.4426 55.0545 56.7377 -6.0552 -21.4224 41.6077
# 2 55.0545 117.4457 19.9080 -2.2910 15.6455 41.5639
# 3 56.7377 19.9080 158.6612 16.1308 -13.6053 -5.5513
# 4 -6.0552 -2.2910 16.1308 28.6934 8.7807 3.6748
# 5 -21.4224 15.6455 -13.6053 8.7807 52.9755 -2.3170
# 6 41.6077 41.5639 -5.5513 3.6748 -2.3170 79.2033
#
#
#
# Elastic Compliance Matrix: (Units=1/GPa)
#
#
# Indices 1 2 3 4 5 6 
#
# 1 0.011801 -0.003698 -0.003956 0.003777 0.004021 -0.004594
# 2 -0.003698 0.013480 -0.001550 0.003961 -0.006777 -0.005622
# 3 -0.003956 -0.001550 0.009012 -0.007312 0.002557 0.003937
# 4 0.003777 0.003961 -0.007312 0.043730 -0.009069 -0.006870
# 5 0.004021 -0.006777 0.002557 -0.009069 0.024785 0.002769
# 6 -0.004594 -0.005622 0.003937 -0.006870 0.002769 0.018665
#
#
# Mechanical properties :
#
#
# Convention : Reuss Voigt Hill
#
# Bulk Modulus (GPa) = 62.94487 76.21665 69.58076
# Shear Modulus (GPa) = 34.44076 51.56438 43.00257
#
# Velocity S-wave (km/s) = 3.57439 4.37361 3.99404
# Velocity P-wave (km/s) = 6.35494 7.33336 6.86161
#
# Compressibility (1/GPa) = 0.01588692
#
# Stress axis : x y z
#
# Youngs Moduli (GPa) = 84.73775 74.18183 110.96003
#
# Poissons Ratio (x) = 0.27429 0.43897
# Poissons Ratio (y) = 0.31333 0.17196
# Poissons Ratio (z) = 0.33523 0.11496
#
# Static dielectric constant tensor:
#      x y z
#    x 2.098390 0.052700 -0.028730 
#    y 0.052700 2.215370 0.072960 
#    z -0.028730 0.072960 2.136580 
# 
# From -- ./inp_files/223181.got.cif
#   From: 2010.05.17/outbox.cif.g08.bks.cpg/sg2_112_cif.got.tgz:223181.got - 2010.06.03 11:33:40.
