data_PCOD9005138
_publ_section_title
;
Structure prediction by ZEFSAII (Michael W. Deem and Ramdas Pophale) SiO2 
 PCOD9005138
Probable space group: P -1
;
_chemical_formula_sum "Si O2"
_cell_formula_units_Z 16
_cell_length_a 15.737201
_cell_length_b 6.127979
_cell_length_c 14.710954
_cell_angle_alpha 122.719548
_cell_angle_beta 141.111402
_cell_angle_gamma 56.177637
_cell_volume 724.112788
_symmetry_space_group_name_H-M "P -1"
_symmetry_group_IT_number 2
_symmetry_cell_setting 'triclinic'
loop_
_space_group_symop_operation_xyz
x,y,z
-x,-y,-z
loop_
_atom_site_type_symbol
_atom_site_label
_atom_site_fract_x
_atom_site_fract_y
_atom_site_fract_z
Si Si1 0.294763 0.098877 0.620897
Si Si2 0.862389 0.791303 0.107971
Si Si3 0.086920 0.223545 0.638881
Si Si4 0.632971 0.710465 0.635872
Si Si5 0.586628 0.658231 0.779629
Si Si6 0.948749 0.830576 0.683117
Si Si7 0.431815 0.285075 0.618986
Si Si8 0.076082 0.224489 0.141516
O O1 0.217244 0.186311 0.670561
O O2 0.177372 0.996654 0.443722
O O3 0.331798 0.314203 0.629435
O O4 0.441878 0.888384 0.712883
O O5 0.865237 0.795074 0.220741
O O6 0.973770 0.518154 0.108068
O O7 0.712646 0.775517 0.943494
O O8 0.920833 0.038611 0.179462
O O9 0.993499 0.527275 0.614947
O O10 0.000000 0.000000 0.500000
O O11 0.618337 0.544507 0.676892
O O12 0.635405 0.610097 0.511440
O O13 0.777139 0.795171 0.788172
O O14 0.502192 0.970327 0.593758
O O15 0.557385 0.427110 0.766867
O O16 0.895815 0.816721 0.737285
O O17 0.000000 0.000000 0.000000
#
# Coordination Sequence:
#
# PCOD9005138 Si02
#       8
#     2   2   2   2   2   2   2   2
#     4  11  24  41  70  98 124 172 216 279 328 393
#     4  11  26  44  65 102 138 177 220 279 330 398
#     4  11  25  44  74 100 127 171 227 281 337 390
#     4  10  21  38  60  94 126 181 221 271 322 388
#     4  11  25  41  63  95 138 173 219 266 335 401
#     4  11  24  43  70 100 132 167 231 278 331 397
#     4  10  22  40  62  93 135 169 224 273 326 388
#     4  11  23  40  67  97 138 179 226 269 334 390
#
# _framework density 22.096004000000001
#
# number of rings (size 3 to 8) (size 9 to 14) (size 15 to 20)
#    0.000    1.250    2.500    2.250    3.500    6.500 
#    0.000    1.250    0.000    0.000    0.000    0.000 
#    0.000    0.000    0.000    0.000    0.000    0.000 
#
# Total GULP energy -89421.016284 kJ/mol
# GULP energy per Si atom -5588.813518 kJ/mol
# Density = 2.204571 g / cm^3
# Si number density = 22.096004 Si / 1000 Ang^3
#
#
#
# Elastic Constant Matrix: (Units=GPa)
#
#
# Indices 1 2 3 4 5 6 
#
# 1 167.0162 25.4813 29.7425 7.7438 9.5924 12.4641
# 2 25.4813 79.0947 36.8111 9.7796 2.3392 -0.2478
# 3 29.7425 36.8111 106.9318 7.0210 20.0450 -3.2208
# 4 7.7438 9.7796 7.0210 33.3823 5.2712 13.3950
# 5 9.5924 2.3392 20.0450 5.2712 31.5715 8.3586
# 6 12.4641 -0.2478 -3.2208 13.3950 8.3586 27.3804
#
#
#
# Elastic Compliance Matrix: (Units=1/GPa)
#
#
# Indices 1 2 3 4 5 6 
#
# 1 0.006728 -0.001583 -0.001437 0.000640 -0.000194 -0.003500
# 2 -0.001583 0.016080 -0.005340 -0.004259 0.003020 0.001400
# 3 -0.001437 -0.005340 0.013585 -0.001896 -0.009036 0.005890
# 4 0.000640 -0.004259 -0.001896 0.039413 -0.000004 -0.019834
# 5 -0.000194 0.003020 -0.009036 -0.000004 0.040795 -0.013399
# 6 -0.003500 0.001400 0.005890 -0.019834 -0.013399 0.052615
#
#
# Mechanical properties :
#
#
# Convention : Reuss Voigt Hill
#
# Bulk Modulus (GPa) = 50.83020 59.67915 55.25467
# Shear Modulus (GPa) = 25.97510 35.86736 30.92123
#
# Velocity S-wave (km/s) = 3.43236 4.03333 3.74492
# Velocity P-wave (km/s) = 6.22594 6.98269 6.61515
#
# Compressibility (1/GPa) = 0.01967334
#
# Stress axis : x y z
#
# Youngs Moduli (GPa) = 148.64226 62.19030 73.60813
#
# Poissons Ratio (x) = 0.09844 0.10580
# Poissons Ratio (y) = 0.23527 0.39303
# Poissons Ratio (z) = 0.21365 0.33207
#
# Static dielectric constant tensor:
#      x y z
#    x 1.820430 0.037120 -0.016980 
#    y 0.037120 1.833920 -0.003700 
#    z -0.016980 -0.003700 1.837110 
# 
# From -- ./inp_files/85140.got.cif
#   From: 2010.05.17/outbox.cif.g08.bks.cpg/sg2_43_cif.got.tgz:85140.got - 2010.06.03 11:33:40.
