data_PCOD9005510
_publ_section_title
;
Structure prediction by ZEFSAII (Michael W. Deem and Ramdas Pophale) SiO2 
 PCOD9005510
Probable space group: P -1
;
_chemical_formula_sum "Si O2"
_cell_formula_units_Z 16
_cell_length_a 8.692162
_cell_length_b 8.653060
_cell_length_c 17.886739
_cell_angle_alpha 33.399511
_cell_angle_beta 105.456070
_cell_angle_gamma 98.185175
_cell_volume 705.601505
_symmetry_space_group_name_H-M "P -1"
_symmetry_group_IT_number 2
_symmetry_cell_setting 'triclinic'
loop_
_space_group_symop_operation_xyz
x,y,z
-x,-y,-z
loop_
_atom_site_type_symbol
_atom_site_label
_atom_site_fract_x
_atom_site_fract_y
_atom_site_fract_z
Si Si1 0.936907 0.783386 0.424865
Si Si2 0.857581 0.406894 0.337201
Si Si3 0.663349 0.897180 0.517552
Si Si4 0.135416 0.086007 0.229666
Si Si5 0.334081 0.134369 0.759642
Si Si6 0.176871 0.712442 0.993689
Si Si7 0.665429 0.325455 0.679652
Si Si8 0.894643 0.383756 0.811294
O O1 0.764971 0.882170 0.323954
O O2 0.000000 0.500000 0.500000
O O3 0.980349 0.712441 0.545171
O O4 0.051541 0.009248 0.325521
O O5 0.754315 0.617646 0.297205
O O6 0.928827 0.562181 0.214110
O O7 0.751035 0.165103 0.399849
O O8 0.632043 0.669103 0.541333
O O9 0.780099 0.689400 0.671045
O O10 0.500000 0.000000 0.500000
O O11 0.980724 0.151494 0.128266
O O12 0.261569 0.815418 0.329970
O O13 0.209421 0.374311 0.123286
O O14 0.508436 0.202167 0.734684
O O15 0.321120 0.857042 0.919836
O O16 0.129392 0.756616 0.056219
O O17 0.807827 0.231544 0.796109
#
# Coordination Sequence:
#
# PCOD9005510 Si02
#       8
#     2   2   2   2   2   2   2   2
#     4   9  19  35  63  88 119 160 207 259 304 360
#     4  11  19  39  64  91 125 157 217 253 307 368
#     4  10  21  39  59  89 132 160 192 260 314 371
#     4  10  21  41  62  90 121 165 208 259 303 362
#     4  10  21  38  62  91 126 167 201 260 310 366
#     4  10  22  41  63  86 128 161 215 258 295 361
#     4  10  22  38  61  94 125 162 205 248 324 368
#     4  10  22  37  64  94 117 170 205 256 304 366
#
# _framework density 22.675688999999998
#
# number of rings (size 3 to 8) (size 9 to 14) (size 15 to 20)
#    0.750    1.250    1.250    3.375    0.000    3.000 
#    0.000    9.375    0.000    0.000    0.000    0.000 
#    0.000    0.000    0.000    0.000    0.000    0.000 
#
# Total GULP energy -89322.118356 kJ/mol
# GULP energy per Si atom -5582.632397 kJ/mol
# Density = 2.262408 g / cm^3
# Si number density = 22.675689 Si / 1000 Ang^3
#
#
#
# Elastic Constant Matrix: (Units=GPa)
#
#
# Indices 1 2 3 4 5 6 
#
# 1 127.1629 26.2972 40.3722 -21.6087 -35.1802 0.6446
# 2 26.2972 60.5858 29.7095 -9.8684 -14.7983 -2.9421
# 3 40.3722 29.7095 92.7210 -11.3579 -29.7850 5.2194
# 4 -21.6087 -9.8684 -11.3579 42.8810 -6.9855 -9.3901
# 5 -35.1802 -14.7983 -29.7850 -6.9855 45.0441 -13.4614
# 6 0.6446 -2.9421 5.2194 -9.3901 -13.4614 24.8189
#
#
#
# Elastic Compliance Matrix: (Units=1/GPa)
#
#
# Indices 1 2 3 4 5 6 
#
# 1 0.015407 0.001206 0.000082 0.014718 0.019510 0.015876
# 2 0.001206 0.022829 -0.003726 0.009661 0.011460 0.013329
# 3 0.000082 -0.003726 0.016429 0.006713 0.012338 0.005333
# 4 0.014718 0.009661 0.006713 0.049522 0.038421 0.038926
# 5 0.019510 0.011460 0.012338 0.038421 0.070585 0.051078
# 6 0.015876 0.013329 0.005333 0.038926 0.051078 0.082769
#
#
# Mechanical properties :
#
#
# Convention : Reuss Voigt Hill
#
# Bulk Modulus (GPa) = 20.08461 52.58083 36.33272
# Shear Modulus (GPa) = 17.92043 34.82153 26.37098
#
# Velocity S-wave (km/s) = 2.81426 3.92297 3.41392
# Velocity P-wave (km/s) = 4.40870 6.61499 5.62115
#
# Compressibility (1/GPa) = 0.04978937
#
# Stress axis : x y z
#
# Youngs Moduli (GPa) = 64.90699 43.80420 60.86903
#
# Poissons Ratio (x) = -0.05285 -0.00497
# Poissons Ratio (y) = -0.07831 0.22677
# Poissons Ratio (z) = -0.00530 0.16319
#
# Static dielectric constant tensor:
#      x y z
#    x 1.828710 -0.011970 -0.001040 
#    y -0.011970 1.893960 -0.024140 
#    z -0.001040 -0.024140 1.876700 
# 
# From -- ./inp_files/432938.got.cif
#   From: 2010.05.17/outbox.cif.g08.bks.cpg/sg2_217_cif.got.tgz:432938.got - 2010.06.03 11:33:40.
