data_PCOD9005987
_publ_section_title
;
Structure prediction by ZEFSAII (Michael W. Deem and Ramdas Pophale) SiO2 
 PCOD9005987
Probable space group: P -1
;
_chemical_formula_sum "Si O2"
_cell_formula_units_Z 16
_cell_length_a 13.471090
_cell_length_b 9.855969
_cell_length_c 7.583400
_cell_angle_alpha 63.462980
_cell_angle_beta 53.818613
_cell_angle_gamma 92.777476
_cell_volume 655.596922
_symmetry_space_group_name_H-M "P -1"
_symmetry_group_IT_number 2
_symmetry_cell_setting 'triclinic'
loop_
_space_group_symop_operation_xyz
x,y,z
-x,-y,-z
loop_
_atom_site_type_symbol
_atom_site_label
_atom_site_fract_x
_atom_site_fract_y
_atom_site_fract_z
Si Si1 0.093226 0.055382 0.200441
Si Si2 0.200777 0.409125 0.758946
Si Si3 0.549936 0.738717 0.870530
Si Si4 0.538675 0.996329 0.259716
Si Si5 0.602938 0.716160 0.211606
Si Si6 0.279590 0.432351 0.275031
Si Si7 0.912598 0.525615 0.821272
Si Si8 0.858156 0.230849 0.782078
O O1 0.079832 0.903278 0.178946
O O2 0.000000 0.000000 0.500000
O O3 0.092872 0.213669 0.007522
O O4 0.247800 0.130175 0.067686
O O5 0.345095 0.409771 0.674292
O O6 0.217700 0.456150 0.510291
O O7 0.143960 0.499773 0.906351
O O8 0.550356 0.919539 0.788924
O O9 0.675720 0.719232 0.659354
O O10 0.543582 0.661249 0.114209
O O11 0.413324 0.606047 0.997179
O O12 0.500000 0.000000 0.500000
O O13 0.523200 0.810451 0.336897
O O14 0.696105 0.128813 0.991052
O O15 0.180844 0.404766 0.231036
O O16 0.889992 0.357154 0.838996
O O17 0.064286 0.663722 0.534028
#
# Coordination Sequence:
#
# PCOD9005987 Si02
#       8
#     2   2   2   2   2   2   2   2
#     4   9  17  37  63  87 116 158 201 249 308 355
#     4  10  21  38  64  91 120 162 207 252 305 367
#     4  11  22  39  57  90 126 162 205 256 309 367
#     4  11  22  38  62  90 125 163 210 255 310 371
#     4   9  20  36  60  86 118 164 203 246 309 359
#     4  11  23  39  62  90 126 160 207 256 305 371
#     4  11  21  42  64  91 126 160 209 251 317 364
#     4  10  21  38  65  86 124 169 196 260 312 359
#
# _framework density 24.405239999999999
#
# number of rings (size 3 to 8) (size 9 to 14) (size 15 to 20)
#    0.750    1.000    3.750    1.125    0.000    1.500 
#    0.000    4.375    2.750    0.000    0.000    0.000 
#    0.000    0.000    0.000    0.000    0.000    0.000 
#
# Total GULP energy -89341.078633 kJ/mol
# GULP energy per Si atom -5583.817415 kJ/mol
# Density = 2.434969 g / cm^3
# Si number density = 24.405240 Si / 1000 Ang^3
#
#
#
# Elastic Constant Matrix: (Units=GPa)
#
#
# Indices 1 2 3 4 5 6 
#
# 1 57.7810 4.8583 21.5704 8.3119 -3.9404 -15.5746
# 2 4.8583 142.4870 13.8826 30.4490 0.7301 -19.5613
# 3 21.5704 13.8826 80.7182 29.8361 7.8154 0.7308
# 4 8.3119 30.4490 29.8361 41.6278 3.2318 -0.8712
# 5 -3.9404 0.7301 7.8154 3.2318 19.3582 5.8646
# 6 -15.5746 -19.5613 0.7308 -0.8712 5.8646 29.6920
#
#
#
# Elastic Compliance Matrix: (Units=1/GPa)
#
#
# Indices 1 2 3 4 5 6 
#
# 1 0.023561 0.001902 -0.006583 -0.001391 0.003673 0.013007
# 2 0.001902 0.009512 0.000717 -0.007607 -0.001190 0.007258
# 3 -0.006583 0.000717 0.019323 -0.012626 -0.006276 -0.002587
# 4 -0.001391 -0.007607 -0.012626 0.038831 -0.000087 -0.004274
# 5 0.003673 -0.001190 -0.006276 -0.000087 0.058082 -0.010177
# 6 0.013007 0.007258 -0.002587 -0.004274 -0.010177 0.047232
#
#
# Mechanical properties :
#
#
# Convention : Reuss Voigt Hill
#
# Bulk Modulus (GPa) = 22.48809 40.17874 31.33341
# Shear Modulus (GPa) = 22.80084 34.18060 28.49072
#
# Velocity S-wave (km/s) = 3.05988 3.74644 3.42043
# Velocity P-wave (km/s) = 4.66029 5.93408 5.33534
#
# Compressibility (1/GPa) = 0.04446799
#
# Stress axis : x y z
#
# Youngs Moduli (GPa) = 42.44325 105.13549 51.75239
#
# Poissons Ratio (x) = -0.19998 0.34067
# Poissons Ratio (y) = -0.08073 -0.03711
# Poissons Ratio (z) = 0.27939 -0.07538
#
# Static dielectric constant tensor:
#      x y z
#    x 2.002210 -0.088670 -0.026140 
#    y -0.088670 2.052690 -0.036040 
#    z -0.026140 -0.036040 1.957070 
# 
# From -- ./inp_files/304730.got.cif
#   From: 2010.05.17/outbox.cif.g08.bks.cpg/sg2_153_cif.got.tgz:304730.got - 2010.06.03 11:33:40.
