data_PCOD9005704
_publ_section_title
;
Structure prediction by ZEFSAII (Michael W. Deem and Ramdas Pophale) SiO2 
 PCOD9005704
Probable space group: P -1
;
_chemical_formula_sum "Si O2"
_cell_formula_units_Z 16
_cell_length_a 10.728863
_cell_length_b 11.981170
_cell_length_c 14.246257
_cell_angle_alpha 137.454467
_cell_angle_beta 77.694081
_cell_angle_gamma 128.914056
_cell_volume 848.100092
_symmetry_space_group_name_H-M "P -1"
_symmetry_group_IT_number 2
_symmetry_cell_setting 'triclinic'
loop_
_space_group_symop_operation_xyz
x,y,z
-x,-y,-z
loop_
_atom_site_type_symbol
_atom_site_label
_atom_site_fract_x
_atom_site_fract_y
_atom_site_fract_z
Si Si1 0.552768 0.695465 0.183152
Si Si2 0.714911 0.596811 0.437747
Si Si3 0.347534 0.739113 0.908637
Si Si4 0.092803 0.956977 0.530870
Si Si5 0.634693 0.219402 0.855742
Si Si6 0.368422 0.721142 0.377014
Si Si7 0.926512 0.416882 0.775383
Si Si8 0.514064 0.746542 0.566436
O O1 0.525562 0.837004 0.211865
O O2 0.409709 0.603602 0.231029
O O3 0.736221 0.841910 0.305740
O O4 0.500000 0.500000 0.000000
O O5 0.651165 0.424182 0.255115
O O6 0.655524 0.730394 0.514432
O O7 0.621110 0.446431 0.453302
O O8 0.929915 0.772254 0.515019
O O9 0.143555 0.629127 0.871272
O O10 0.365762 0.705911 0.994220
O O11 0.500000 0.000000 0.000000
O O12 0.126588 0.824595 0.381015
O O13 0.000000 0.000000 0.500000
O O14 0.817765 0.389730 0.866652
O O15 0.603744 0.997842 0.742503
O O16 0.164672 0.585217 0.302203
O O17 0.411442 0.706202 0.464519
O O18 0.500000 0.000000 0.500000
#
# Coordination Sequence:
#
# PCOD9005704 Si02
#       8
#     2   2   2   2   2   2   2   2
#     4  11  24  38  60  96 124 154 205 263 325 358
#     4  10  24  38  62  90 119 171 210 253 312 378
#     4  11  23  41  58  91 129 159 203 263 322 360
#     4  11  21  39  63  90 125 160 212 263 302 373
#     4  11  21  40  63  88 126 164 200 264 312 370
#     4  11  19  40  63  85 117 161 203 255 309 371
#     4  10  21  38  63  91 113 165 219 241 311 383
#     4  11  20  41  63  85 123 166 211 253 309 381
#
# _framework density 18.865698999999999
#
# number of rings (size 3 to 8) (size 9 to 14) (size 15 to 20)
#    0.000    1.250    5.000    1.875    5.250    0.000 
#    6.750    1.875    0.000    1.500    0.000    0.000 
#    0.000    0.000    0.000    0.000    0.000    0.000 
#
# Total GULP energy -89144.831282 kJ/mol
# GULP energy per Si atom -5571.551955 kJ/mol
# Density = 1.882276 g / cm^3
# Si number density = 18.865699 Si / 1000 Ang^3
#
#
#
# Elastic Constant Matrix: (Units=GPa)
#
#
# Indices 1 2 3 4 5 6 
#
# 1 98.6199 40.8434 46.1484 -6.4626 8.4338 -8.7856
# 2 40.8434 87.9962 29.5272 -12.3597 8.0418 -1.7623
# 3 46.1484 29.5272 96.6070 -13.8424 0.3221 -1.6305
# 4 -6.4626 -12.3597 -13.8424 35.2221 -1.2545 3.7706
# 5 8.4338 8.0418 0.3221 -1.2545 40.2996 -2.3840
# 6 -8.7856 -1.7623 -1.6305 3.7706 -2.3840 24.7803
#
#
#
# Elastic Compliance Matrix: (Units=1/GPa)
#
#
# Indices 1 2 3 4 5 6 
#
# 1 0.015601 -0.005207 -0.006049 -0.001933 -0.001950 0.004869
# 2 -0.005207 0.014978 -0.001568 0.003793 -0.001866 -0.001641
# 3 -0.006049 -0.001568 0.014287 0.004201 0.001488 -0.001812
# 4 -0.001933 0.003793 0.004201 0.031555 0.000306 -0.004911
# 5 -0.001950 -0.001866 0.001488 0.000306 0.025693 0.001699
# 6 0.004869 -0.001641 -0.001812 -0.004911 0.001699 0.042756
#
#
# Mechanical properties :
#
#
# Convention : Reuss Voigt Hill
#
# Bulk Modulus (GPa) = 52.04015 57.36235 54.70125
# Shear Modulus (GPa) = 28.26069 31.17402 29.71735
#
# Velocity S-wave (km/s) = 3.87459 4.06940 3.97319
# Velocity P-wave (km/s) = 6.90370 7.24926 7.07858
#
# Compressibility (1/GPa) = 0.01921593
#
# Stress axis : x y z
#
# Youngs Moduli (GPa) = 64.09832 66.76592 69.99514
#
# Poissons Ratio (x) = 0.34766 0.42342
# Poissons Ratio (y) = 0.33377 0.10978
# Poissons Ratio (z) = 0.38775 0.10471
#
# Static dielectric constant tensor:
#      x y z
#    x 1.687350 -0.008190 -0.028910 
#    y -0.008190 1.679080 0.004760 
#    z -0.028910 0.004760 1.750330 
# 
# From -- ./inp_files/499509.got.cif
#   From: 2010.05.17/outbox.cif.g08.bks.cpg/sg2_250_cif.got.tgz:499509.got - 2010.06.03 11:33:40.
