data_PCOD9005162
_publ_section_title
;
Structure prediction by ZEFSAII (Michael W. Deem and Ramdas Pophale) SiO2 
 PCOD9005162
Probable space group: P -1
;
_chemical_formula_sum "Si O2"
_cell_formula_units_Z 12
_cell_length_a 16.478933
_cell_length_b 24.687067
_cell_length_c 20.902592
_cell_angle_alpha 165.179061
_cell_angle_beta 16.576157
_cell_angle_gamma 162.063132
_cell_volume 583.496835
_symmetry_space_group_name_H-M "P -1"
_symmetry_group_IT_number 2
_symmetry_cell_setting 'triclinic'
loop_
_space_group_symop_operation_xyz
x,y,z
-x,-y,-z
loop_
_atom_site_type_symbol
_atom_site_label
_atom_site_fract_x
_atom_site_fract_y
_atom_site_fract_z
Si Si1 0.656689 0.255248 0.652879
Si Si2 0.311172 0.983181 0.996988
Si Si3 0.360310 0.304388 0.799880
Si Si4 0.299389 0.929065 0.314044
Si Si5 0.412682 0.295858 0.384782
Si Si6 0.705949 0.651887 0.669288
O O1 0.550524 0.285095 0.696030
O O2 0.014247 0.315286 0.459015
O O3 0.500000 0.000000 0.500000
O O4 0.560689 0.430645 0.970242
O O5 0.565487 0.964942 0.735616
O O6 0.463912 0.096727 0.077139
O O7 0.194091 0.166940 0.257783
O O8 0.999223 0.781914 0.011277
O O9 0.393887 0.135030 0.527309
O O10 0.942328 0.803648 0.444166
O O11 0.451490 0.736451 0.990413
O O12 0.500000 0.500000 0.500000
O O13 0.581802 0.410537 0.452513
#
# Coordination Sequence:
#
# PCOD9005162 Si02
#       6
#     2   2   2   2   2   2
#     4  11  21  39  59  84 111 153 193 233 284 339
#     4   8  17  34  57  82 115 147 183 229 279 332
#     4  10  21  38  61  80 117 150 185 240 286 325
#     4   9  18  34  57  86 115 149 185 235 284 331
#     4   9  16  29  57  88 113 151 184 228 281 337
#     4   9  18  32  56  84 116 147 192 225 275 338
#
# _framework density 20.565664999999999
#
# number of rings (size 3 to 8) (size 9 to 14) (size 15 to 20)
#    1.000    1.667    1.667    0.500    0.000    0.667 
#    0.000   12.500    0.000    2.000    0.000    0.000 
#    0.000    0.000    0.000    0.000    0.000    0.000 
#
# Total GULP energy -66810.462248 kJ/mol
# GULP energy per Si atom -5567.538521 kJ/mol
# Density = 2.051886 g / cm^3
# Si number density = 20.565665 Si / 1000 Ang^3
#
#
#
# Elastic Constant Matrix: (Units=GPa)
#
#
# Indices 1 2 3 4 5 6 
#
# 1 104.3126 54.5924 63.4646 -5.2009 19.1398 26.6157
# 2 54.5924 79.5418 60.2338 13.3165 23.5803 20.6978
# 3 63.4646 60.2338 103.3471 0.6312 24.1368 13.3205
# 4 -5.2009 13.3165 0.6312 36.8558 -5.5806 4.4478
# 5 19.1398 23.5803 24.1368 -5.5806 26.1669 7.4058
# 6 26.6157 20.6978 13.3205 4.4478 7.4058 30.5665
#
#
#
# Elastic Compliance Matrix: (Units=1/GPa)
#
#
# Indices 1 2 3 4 5 6 
#
# 1 0.021267 -0.008261 -0.007737 0.008152 0.004083 -0.011728
# 2 -0.008261 0.036033 -0.010831 -0.016071 -0.018244 -0.005728
# 3 -0.007737 -0.010831 0.021299 0.000853 -0.005760 0.006061
# 4 0.008152 -0.016071 0.000853 0.037484 0.017505 -0.006283
# 5 0.004083 -0.018244 -0.005760 0.017505 0.062525 -0.006387
# 6 -0.011728 -0.005728 0.006061 -0.006283 -0.006387 0.046627
#
#
# Mechanical properties :
#
#
# Convention : Reuss Voigt Hill
#
# Bulk Modulus (GPa) = 40.09361 71.53147 55.81254
# Shear Modulus (GPa) = 17.40919 25.97855 21.69387
#
# Velocity S-wave (km/s) = 2.91265 3.55801 3.25138
# Velocity P-wave (km/s) = 5.55420 7.19282 6.42596
#
# Compressibility (1/GPa) = 0.02494163
#
# Stress axis : x y z
#
# Youngs Moduli (GPa) = 47.02167 27.75254 46.95103
#
# Poissons Ratio (x) = 0.22925 0.36326
# Poissons Ratio (y) = 0.38843 0.50852
# Poissons Ratio (z) = 0.36380 0.30058
#
# Static dielectric constant tensor:
#      x y z
#    x 1.742980 -0.019120 0.006120 
#    y -0.019120 1.747960 0.030260 
#    z 0.006120 0.030260 1.767750 
# 
# From -- ./inp_files/574368.got.cif
#   From: 2010.05.17/outbox.cif.g08.bks.cpg/sg2_288_cif.got.tgz:574368.got - 2010.06.03 11:33:40.
