data_PCOD9005008
_publ_section_title
;
Structure prediction by ZEFSAII (Michael W. Deem and Ramdas Pophale) SiO2 
 PCOD9005008
Probable space group: P -1
;
_chemical_formula_sum "Si O2"
_cell_formula_units_Z 16
_cell_length_a 8.221043
_cell_length_b 7.322454
_cell_length_c 15.545527
_cell_angle_alpha 122.899283
_cell_angle_beta 100.144111
_cell_angle_gamma 110.166880
_cell_volume 654.490440
_symmetry_space_group_name_H-M "P -1"
_symmetry_group_IT_number 2
_symmetry_cell_setting 'triclinic'
loop_
_space_group_symop_operation_xyz
x,y,z
-x,-y,-z
loop_
_atom_site_type_symbol
_atom_site_label
_atom_site_fract_x
_atom_site_fract_y
_atom_site_fract_z
Si Si1 0.630235 0.951539 0.866175
Si Si2 0.314644 0.037334 0.658456
Si Si3 0.290254 0.465382 0.202272
Si Si4 0.769476 0.249444 0.599105
Si Si5 0.224359 0.637055 0.696398
Si Si6 0.809387 0.996710 0.707377
Si Si7 0.066445 0.529281 0.915937
Si Si8 0.085044 0.305012 0.460632
O O1 0.733665 0.806664 0.871673
O O2 0.400347 0.761637 0.810362
O O3 0.679040 0.976769 0.772925
O O4 0.720702 0.217971 0.993149
O O5 0.326592 0.893394 0.536443
O O6 0.270978 0.880999 0.704130
O O7 0.097294 0.975571 0.602496
O O8 0.503407 0.314338 0.762259
O O9 0.313675 0.585114 0.329426
O O10 0.096231 0.441632 0.141092
O O11 0.744203 0.059956 0.626966
O O12 0.004143 0.457195 0.663523
O O13 0.244402 0.445315 0.584881
O O14 0.827946 0.754786 0.627996
O O15 0.021794 0.253011 0.812290
O O16 0.000000 0.500000 0.000000
O O17 0.000000 0.500000 0.500000
#
# Coordination Sequence:
#
# PCOD9005008 Si02
#       8
#     2   2   2   2   2   2   2   2
#     4  11  24  38  67  90 126 161 215 253 307 364
#     4  10  21  38  60  86 133 163 203 249 310 368
#     4  11  23  37  65  95 119 166 211 252 307 368
#     4  10  22  39  61  92 130 165 206 252 307 374
#     4  10  22  39  61  92 130 165 200 256 313 365
#     4  10  22  39  65  88 123 165 209 246 318 356
#     4   9  20  44  64  87 120 163 208 266 299 360
#     4   9  21  37  62  89 131 158 201 249 312 362
#
# _framework density 24.446498999999999
#
# number of rings (size 3 to 8) (size 9 to 14) (size 15 to 20)
#    0.000    2.000    0.000    4.125   10.500    1.500 
#    0.000    2.500    2.750    4.500    0.000    0.000 
#    0.000    0.000    0.000    0.000    0.000    0.000 
#
# Total GULP energy -89093.336457 kJ/mol
# GULP energy per Si atom -5568.333529 kJ/mol
# Density = 2.439086 g / cm^3
# Si number density = 24.446499 Si / 1000 Ang^3
#
#
#
# Elastic Constant Matrix: (Units=GPa)
#
#
# Indices 1 2 3 4 5 6 
#
# 1 50.1764 22.0879 32.6002 14.6087 14.3614 12.2658
# 2 22.0879 92.5010 12.8149 -10.2352 -2.5363 9.8196
# 3 32.6002 12.8149 102.0707 17.9887 10.7011 11.5475
# 4 14.6087 -10.2352 17.9887 36.4775 7.0837 4.5760
# 5 14.3614 -2.5363 10.7011 7.0837 42.4153 8.4261
# 6 12.2658 9.8196 11.5475 4.5760 8.4261 25.3270
#
#
#
# Elastic Compliance Matrix: (Units=1/GPa)
#
#
# Indices 1 2 3 4 5 6 
#
# 1 0.034537 -0.008043 -0.006675 -0.010567 -0.007502 -0.006159
# 2 -0.008043 0.014067 -0.000378 0.007203 0.003202 -0.003753
# 3 -0.006675 -0.000378 0.012805 -0.003511 -0.000047 -0.001809
# 4 -0.010567 0.007203 -0.003511 0.035813 -0.000622 -0.002338
# 5 -0.007502 0.003202 -0.000047 -0.000622 0.027757 -0.006709
# 6 -0.006159 -0.003753 -0.001809 -0.002338 -0.006709 0.047401
#
#
# Mechanical properties :
#
#
# Convention : Reuss Voigt Hill
#
# Bulk Modulus (GPa) = 32.03467 42.19488 37.11477
# Shear Modulus (GPa) = 23.47674 32.66029 28.06852
#
# Velocity S-wave (km/s) = 3.10228 3.65909 3.39213
# Velocity P-wave (km/s) = 5.09555 5.92870 5.52784
#
# Compressibility (1/GPa) = 0.03121618
#
# Stress axis : x y z
#
# Youngs Moduli (GPa) = 28.95469 71.08871 78.09470
#
# Poissons Ratio (x) = 0.57178 0.52130
# Poissons Ratio (y) = 0.23289 0.02951
# Poissons Ratio (z) = 0.19328 0.02686
#
# Static dielectric constant tensor:
#      x y z
#    x 2.050430 -0.021710 0.071340 
#    y -0.021710 2.152360 -0.083280 
#    z 0.071340 -0.083280 2.087410 
# 
# From -- ./inp_files/557590.got.cif
#   From: 2010.05.17/outbox.cif.g08.bks.cpg/sg2_279_cif.got.tgz:557590.got - 2010.06.03 11:33:40.
