data_PCOD9005202
_publ_section_title
;
Structure prediction by ZEFSAII (Michael W. Deem and Ramdas Pophale) SiO2 
 PCOD9005202
Probable space group: P -1
;
_chemical_formula_sum "Si O2"
_cell_formula_units_Z 16
_cell_length_a 15.411272
_cell_length_b 20.501080
_cell_length_c 8.749087
_cell_angle_alpha 129.233583
_cell_angle_beta 128.770075
_cell_angle_gamma 21.612070
_cell_volume 781.524817
_symmetry_space_group_name_H-M "P -1"
_symmetry_group_IT_number 2
_symmetry_cell_setting 'triclinic'
loop_
_space_group_symop_operation_xyz
x,y,z
-x,-y,-z
loop_
_atom_site_type_symbol
_atom_site_label
_atom_site_fract_x
_atom_site_fract_y
_atom_site_fract_z
Si Si1 0.490540 0.326441 0.718762
Si Si2 0.836776 0.324816 0.296588
Si Si3 0.762802 0.809119 0.938825
Si Si4 0.137340 0.676536 0.327740
Si Si5 0.895274 0.540948 0.607416
Si Si6 0.992278 0.041334 0.384667
Si Si7 0.236781 0.164350 0.389761
Si Si8 0.602980 0.313283 0.130756
O O1 0.348075 0.502753 0.760338
O O2 0.355369 0.336589 0.517749
O O3 0.488884 0.328626 0.903062
O O4 0.760351 0.145482 0.697207
O O5 0.825146 0.370571 0.522838
O O6 0.758989 0.280025 0.165047
O O7 0.098744 0.170818 0.293095
O O8 0.850904 0.653550 0.824040
O O9 0.764566 0.825690 0.781687
O O10 0.948267 0.744679 0.134842
O O11 0.500000 0.000000 0.000000
O O12 0.044633 0.833872 0.459402
O O13 0.388564 0.502504 0.261339
O O14 0.000000 0.500000 0.500000
O O15 0.077166 0.344876 0.559781
O O16 0.774577 0.155640 0.209288
O O17 0.000000 0.000000 0.500000
O O18 0.500000 0.000000 0.500000
#
# Coordination Sequence:
#
# PCOD9005202 Si02
#       8
#     2   2   2   2   2   2   2   2
#     4  11  21  38  60  87 116 152 197 246 295 353
#     4  10  21  38  61  87 121 157 195 244 298 359
#     4  11  22  40  62  87 118 160 206 251 298 355
#     4  11  22  40  61  85 119 160 197 245 302 358
#     4   9  20  38  59  83 116 155 195 245 297 350
#     4  11  23  39  58  87 121 153 194 245 298 360
#     4  10  21  39  61  88 119 159 203 250 302 355
#     4  11  22  38  61  88 117 158 197 240 300 360
#
# _framework density 20.472798999999998
#
# number of rings (size 3 to 8) (size 9 to 14) (size 15 to 20)
#    0.000    1.500    0.000    7.500    0.000    4.000 
#    0.000   11.875    0.000    0.000    0.000    0.000 
#    0.000    0.000    0.000    0.000    0.000    0.000 
#
# Total GULP energy -89390.076114 kJ/mol
# GULP energy per Si atom -5586.879757 kJ/mol
# Density = 2.042620 g / cm^3
# Si number density = 20.472799 Si / 1000 Ang^3
#
#
#
# Elastic Constant Matrix: (Units=GPa)
#
#
# Indices 1 2 3 4 5 6 
#
# 1 61.5462 17.3713 9.2945 -4.9839 -9.3360 -6.4451
# 2 17.3713 117.1679 41.8208 -15.5883 -8.5441 -13.3633
# 3 9.2945 41.8208 98.0335 -14.5479 -12.4547 3.9539
# 4 -4.9839 -15.5883 -14.5479 37.3142 -2.2646 -10.9303
# 5 -9.3360 -8.5441 -12.4547 -2.2646 25.4319 -2.9578
# 6 -6.4451 -13.3633 3.9539 -10.9303 -2.9578 31.2954
#
#
#
# Elastic Compliance Matrix: (Units=1/GPa)
#
#
# Indices 1 2 3 4 5 6 
#
# 1 0.018589 -0.001035 0.000023 0.004136 0.007499 0.005537
# 2 -0.001035 0.012020 -0.004102 0.005734 0.003059 0.007729
# 3 0.000023 -0.004102 0.013149 0.003200 0.005145 -0.001804
# 4 0.004136 0.005734 0.003200 0.036475 0.010190 0.016598
# 5 0.007499 0.003059 0.005145 0.010190 0.047723 0.010270
# 6 0.005537 0.007729 -0.001804 0.016598 0.010270 0.043390
#
#
# Mechanical properties :
#
#
# Convention : Reuss Voigt Hill
#
# Bulk Modulus (GPa) = 29.82486 45.96900 37.89693
# Shear Modulus (GPa) = 25.94012 32.69237 29.31624
#
# Velocity S-wave (km/s) = 3.56343 4.00042 3.78823
# Velocity P-wave (km/s) = 5.61519 6.62120 6.13884
#
# Compressibility (1/GPa) = 0.03352908
#
# Stress axis : x y z
#
# Youngs Moduli (GPa) = 53.79495 83.19706 76.04854
#
# Poissons Ratio (x) = 0.08615 -0.00171
# Poissons Ratio (y) = 0.05570 0.31193
# Poissons Ratio (z) = -0.00121 0.34125
#
# Static dielectric constant tensor:
#      x y z
#    x 1.758480 0.013430 -0.002010 
#    y 0.013430 1.706460 -0.006290 
#    z -0.002010 -0.006290 1.741650 
# 
# From -- ./inp_files/218738.got.cif
#   From: 2010.05.17/outbox.cif.g08.bks.cpg/sg2_110_cif.got.tgz:218738.got - 2010.06.03 11:33:40.
