data_PCOD9005165
_publ_section_title
;
Structure prediction by ZEFSAII (Michael W. Deem and Ramdas Pophale) SiO2 
 PCOD9005165
Probable space group: P -1
;
_chemical_formula_sum "Si O2"
_cell_formula_units_Z 14
_cell_length_a 11.554306
_cell_length_b 9.325300
_cell_length_c 12.282613
_cell_angle_alpha 119.376986
_cell_angle_beta 38.816497
_cell_angle_gamma 110.158392
_cell_volume 721.169686
_symmetry_space_group_name_H-M "P -1"
_symmetry_group_IT_number 2
_symmetry_cell_setting 'triclinic'
loop_
_space_group_symop_operation_xyz
x,y,z
-x,-y,-z
loop_
_atom_site_type_symbol
_atom_site_label
_atom_site_fract_x
_atom_site_fract_y
_atom_site_fract_z
Si Si1 0.621820 0.311462 0.723588
Si Si2 0.446989 0.037135 0.367884
Si Si3 0.136386 0.748621 0.691742
Si Si4 0.226211 0.101028 0.761725
Si Si5 0.370587 0.648487 0.698147
Si Si6 0.792624 0.539068 0.852607
Si Si7 0.845916 0.515555 0.028099
O O1 0.701758 0.292058 0.533622
O O2 0.751329 0.426449 0.738867
O O3 0.625164 0.123503 0.695275
O O4 0.410871 0.387287 0.927502
O O5 0.296248 0.114027 0.591529
O O6 0.527117 0.184106 0.298046
O O7 0.609824 0.962667 0.301046
O O8 0.218754 0.690031 0.727877
O O9 0.949409 0.666598 0.763339
O O10 0.097248 0.947655 0.799139
O O11 0.173889 0.287147 0.902417
O O12 0.500000 0.500000 0.500000
O O13 0.310782 0.577722 0.830873
O O14 0.876939 0.439345 0.858328
O O15 0.000000 0.500000 0.000000
#
# Coordination Sequence:
#
# PCOD9005165 Si02
#       7
#     2   2   2   2   2   2   2
#     4  10  21  38  61  82 115 153 197 239 273 341
#     4   9  17  34  58  83 109 147 195 241 275 337
#     4  10  21  38  61  86 110 151 198 243 282 337
#     4   9  18  33  57  84 111 144 192 240 290 330
#     4  11  20  33  59  86 114 148 185 239 299 339
#     4  11  22  37  57  87 117 153 193 235 283 343
#     4  12  22  35  52  87 123 144 182 241 294 345
#
# _framework density 19.412907000000001
#
# number of rings (size 3 to 8) (size 9 to 14) (size 15 to 20)
#    0.000    1.714    4.286    2.143    0.000    1.714 
#    0.000    0.714    0.000    9.429    0.000    0.000 
#    0.000    0.000    0.000    0.000    0.000    0.000 
#
# Total GULP energy -77938.012889 kJ/mol
# GULP energy per Si atom -5567.000921 kJ/mol
# Density = 1.936872 g / cm^3
# Si number density = 19.412907 Si / 1000 Ang^3
#
#
#
# Elastic Constant Matrix: (Units=GPa)
#
#
# Indices 1 2 3 4 5 6 
#
# 1 56.7824 38.8831 1.7788 2.6274 4.8729 20.3626
# 2 38.8831 147.6839 29.6369 -10.4488 1.1120 24.4187
# 3 1.7788 29.6369 53.9726 -10.3417 9.9040 3.9154
# 4 2.6274 -10.4488 -10.3417 24.5308 4.4863 -1.5815
# 5 4.8729 1.1120 9.9040 4.4863 23.9661 -1.4234
# 6 20.3626 24.4187 3.9154 -1.5815 -1.4234 37.5286
#
#
#
# Elastic Compliance Matrix: (Units=1/GPa)
#
#
# Indices 1 2 3 4 5 6 
#
# 1 0.026368 -0.006054 0.003877 -0.003256 -0.006736 -0.011165
# 2 -0.006054 0.009928 -0.005088 0.002148 0.002324 -0.002466
# 3 0.003877 -0.005088 0.025777 0.010614 -0.013283 -0.001539
# 4 -0.003256 0.002148 0.010614 0.048923 -0.012933 0.000833
# 5 -0.006736 0.002324 -0.013283 -0.012933 0.051190 0.004925
# 6 -0.011165 -0.002466 -0.001539 0.000833 0.004925 0.034691
#
#
# Mechanical properties :
#
#
# Convention : Reuss Voigt Hill
#
# Bulk Modulus (GPa) = 21.03330 44.33740 32.68535
# Shear Modulus (GPa) = 22.00176 29.74779 25.87477
#
# Velocity S-wave (km/s) = 3.37019 3.91880 3.65480
# Velocity P-wave (km/s) = 5.09926 6.58519 5.88928
#
# Compressibility (1/GPa) = 0.04754366
#
# Stress axis : x y z
#
# Youngs Moduli (GPa) = 37.92504 100.72065 38.79415
#
# Poissons Ratio (x) = 0.60976 -0.15042
# Poissons Ratio (y) = 0.22960 0.19740
# Poissons Ratio (z) = -0.14705 0.51250
#
# Static dielectric constant tensor:
#      x y z
#    x 1.752140 0.006200 -0.032320 
#    y 0.006200 1.771450 -0.073490 
#    z -0.032320 -0.073490 1.785700 
# 
# From -- ./inp_files/161463.got.cif
#   From: 2010.05.17/outbox.cif.g08.bks.cpg/sg2_81_cif.got.tgz:161463.got - 2010.06.03 11:33:40.
