data_PCOD9005837
_publ_section_title
;
Structure prediction by ZEFSAII (Michael W. Deem and Ramdas Pophale) SiO2 
 PCOD9005837
Probable space group: P -1
;
_chemical_formula_sum "Si O2"
_cell_formula_units_Z 14
_cell_length_a 10.994277
_cell_length_b 9.748726
_cell_length_c 7.327373
_cell_angle_alpha 49.316718
_cell_angle_beta 110.352362
_cell_angle_gamma 110.515925
_cell_volume 549.847443
_symmetry_space_group_name_H-M "P -1"
_symmetry_group_IT_number 2
_symmetry_cell_setting 'triclinic'
loop_
_space_group_symop_operation_xyz
x,y,z
-x,-y,-z
loop_
_atom_site_type_symbol
_atom_site_label
_atom_site_fract_x
_atom_site_fract_y
_atom_site_fract_z
Si Si1 0.068519 0.535672 0.745484
Si Si2 0.978338 0.119279 0.059422
Si Si3 0.132492 0.300123 0.301038
Si Si4 0.681579 0.019641 0.010676
Si Si5 0.575179 0.549644 0.683555
Si Si6 0.661808 0.283102 0.451787
Si Si7 0.549338 0.155804 0.155859
O O1 0.967602 0.676832 0.606111
O O2 0.677944 0.202092 0.729798
O O3 0.198629 0.604251 0.636069
O O4 0.993246 0.334190 0.819073
O O5 0.833169 0.030060 0.126175
O O6 0.077198 0.140237 0.265800
O O7 0.000000 0.000000 0.000000
O O8 0.286817 0.318697 0.401114
O O9 0.121928 0.484049 0.016313
O O10 0.603202 0.025270 0.151468
O O11 0.605533 0.869710 0.959416
O O12 0.500000 0.500000 0.500000
O O13 0.467872 0.624120 0.687240
O O14 0.603195 0.364924 0.950666
O O15 0.614204 0.128862 0.407168
#
# Coordination Sequence:
#
# PCOD9005837 Si02
#       7
#     2   2   2   2   2   2   2
#     4   9  20  39  69  88 128 177 225 270 329 394
#     4  10  21  38  63  95 135 174 218 274 334 401
#     4   9  20  42  64  97 131 181 216 279 340 393
#     4  11  25  42  66  98 138 175 225 264 348 411
#     4  12  24  41  71 102 132 167 237 281 329 401
#     4  12  24  41  73 101 125 180 233 276 330 403
#     4  11  23  44  63  96 141 176 207 290 337 391
#
# _framework density 25.461611000000001
#
# number of rings (size 3 to 8) (size 9 to 14) (size 15 to 20)
#    0.857    0.571    2.857    2.571    4.000    0.571 
#    0.000    0.000    0.000    2.571    0.000    0.000 
#    0.000    0.000    0.000    0.000    0.000    0.000 
#
# Total GULP energy -78199.106511 kJ/mol
# GULP energy per Si atom -5585.650465 kJ/mol
# Density = 2.540366 g / cm^3
# Si number density = 25.461611 Si / 1000 Ang^3
#
#
#
# Elastic Constant Matrix: (Units=GPa)
#
#
# Indices 1 2 3 4 5 6 
#
# 1 162.9736 76.2196 15.7537 24.5894 14.8768 26.8808
# 2 76.2196 128.5007 17.3578 31.3775 13.2108 15.3027
# 3 15.7537 17.3578 64.4112 25.1534 9.2027 -1.7319
# 4 24.5894 31.3775 25.1534 53.3219 10.5285 0.4060
# 5 14.8768 13.2108 9.2027 10.5285 34.4487 10.3060
# 6 26.8808 15.3027 -1.7319 0.4060 10.3060 53.7028
#
#
#
# Elastic Compliance Matrix: (Units=1/GPa)
#
#
# Indices 1 2 3 4 5 6 
#
# 1 0.009083 -0.004612 -0.000546 -0.001043 -0.000763 -0.003096
# 2 -0.004612 0.011854 -0.000176 -0.004593 -0.000840 -0.000879
# 3 -0.000546 -0.000176 0.019367 -0.008236 -0.002817 0.001551
# 4 -0.001043 -0.004593 -0.008236 0.026675 -0.004401 0.002208
# 5 -0.000763 -0.000840 -0.002817 -0.004401 0.033535 -0.005872
# 6 -0.003096 -0.000879 0.001551 0.002208 -0.005872 0.021581
#
#
# Mechanical properties :
#
#
# Convention : Reuss Voigt Hill
#
# Bulk Modulus (GPa) = 33.74306 63.83863 48.79084
# Shear Modulus (GPa) = 35.05269 44.73165 39.89217
#
# Velocity S-wave (km/s) = 3.71440 4.19600 3.96252
# Velocity P-wave (km/s) = 5.62823 6.97152 6.33558
#
# Compressibility (1/GPa) = 0.02963573
#
# Stress axis : x y z
#
# Youngs Moduli (GPa) = 110.09078 84.35838 51.63515
#
# Poissons Ratio (x) = 0.38908 0.02817
# Poissons Ratio (y) = 0.50777 0.00911
# Poissons Ratio (z) = 0.06006 0.01488
#
# Static dielectric constant tensor:
#      x y z
#    x 2.108190 -0.071450 -0.051140 
#    y -0.071450 2.100040 0.040350 
#    z -0.051140 0.040350 2.228560 
# 
# From -- ./inp_files/243174.got.cif
#   From: 2010.05.17/outbox.cif.g08.bks.cpg/sg2_122_cif.got.tgz:243174.got - 2010.06.03 11:33:40.
