data_PCOD9005577
_publ_section_title
;
Structure prediction by ZEFSAII (Michael W. Deem and Ramdas Pophale) SiO2 
 PCOD9005577
Probable space group: P -1
;
_chemical_formula_sum "Si O2"
_cell_formula_units_Z 14
_cell_length_a 6.459716
_cell_length_b 9.457349
_cell_length_c 16.066261
_cell_angle_alpha 136.087047
_cell_angle_beta 117.959798
_cell_angle_gamma 78.689037
_cell_volume 584.997928
_symmetry_space_group_name_H-M "P -1"
_symmetry_group_IT_number 2
_symmetry_cell_setting 'triclinic'
loop_
_space_group_symop_operation_xyz
x,y,z
-x,-y,-z
loop_
_atom_site_type_symbol
_atom_site_label
_atom_site_fract_x
_atom_site_fract_y
_atom_site_fract_z
Si Si1 0.642549 0.118128 0.655845
Si Si2 0.991365 0.445204 0.102234
Si Si3 0.265802 0.155457 0.939448
Si Si4 0.886821 0.460466 0.553035
Si Si5 0.195591 0.722714 0.836779
Si Si6 0.380980 0.175498 0.337779
Si Si7 0.479683 0.787771 0.148261
O O1 0.849621 0.320446 0.757815
O O2 0.498786 0.199480 0.741776
O O3 0.500000 0.000000 0.500000
O O4 0.727239 0.933192 0.643006
O O5 0.112739 0.319074 0.005837
O O6 0.973800 0.321383 0.133378
O O7 0.716268 0.414500 0.006086
O O8 0.531579 0.238707 0.064141
O O9 0.295228 0.155674 0.845907
O O10 0.178176 0.924045 0.863693
O O11 0.671921 0.256241 0.433860
O O12 0.740266 0.636965 0.624864
O O13 0.000000 0.500000 0.500000
O O14 0.113546 0.509738 0.677810
O O15 0.351097 0.983167 0.187483
#
# Coordination Sequence:
#
# PCOD9005577 Si02
#       7
#     2   2   2   2   2   2   2
#     4  10  22  41  62  88 127 163 202 251 308 365
#     4  11  21  39  67  88 123 168 201 248 306 365
#     4  10  21  38  62  94 123 154 210 259 293 361
#     4  11  21  37  61  87 122 162 201 245 305 366
#     4  10  22  36  58  95 123 154 204 255 308 354
#     4   9  22  38  57  87 122 157 199 249 302 357
#     4   9  21  40  62  90 122 162 204 249 304 359
#
# _framework density 23.931711
#
# number of rings (size 3 to 8) (size 9 to 14) (size 15 to 20)
#    0.857    1.143    0.000    3.429    0.000    6.286 
#    0.000    2.857    0.000    8.571    0.000    0.000 
#    0.000    0.000    0.000    0.000    0.000    0.000 
#
# Total GULP energy -78114.729554 kJ/mol
# GULP energy per Si atom -5579.623540 kJ/mol
# Density = 2.387724 g / cm^3
# Si number density = 23.931711 Si / 1000 Ang^3
#
#
#
# Elastic Constant Matrix: (Units=GPa)
#
#
# Indices 1 2 3 4 5 6 
#
# 1 67.5874 36.3449 31.0366 3.6442 13.7901 22.4829
# 2 36.3449 120.7978 51.8908 10.1393 3.7490 37.1685
# 3 31.0366 51.8908 163.0914 5.3061 33.3259 31.1620
# 4 3.6442 10.1393 5.3061 49.4871 15.9637 -5.0564
# 5 13.7901 3.7490 33.3259 15.9637 34.2601 4.7288
# 6 22.4829 37.1685 31.1620 -5.0564 4.7288 40.7044
#
#
#
# Elastic Compliance Matrix: (Units=1/GPa)
#
#
# Indices 1 2 3 4 5 6 
#
# 1 0.020653 -0.004033 0.000177 0.001031 -0.007579 -0.006852
# 2 -0.004033 0.014066 -0.003100 -0.005510 0.007011 -0.009742
# 3 0.000177 -0.003100 0.009611 0.002416 -0.009766 -0.003190
# 4 0.001031 -0.005510 0.002416 0.026881 -0.015762 0.007782
# 5 -0.007579 0.007011 -0.009766 -0.015762 0.048640 -0.002348
# 6 -0.006852 -0.009742 -0.003190 0.007782 -0.002348 0.040930
#
#
# Mechanical properties :
#
#
# Convention : Reuss Voigt Hill
#
# Bulk Modulus (GPa) = 32.87517 65.55790 49.21654
# Shear Modulus (GPa) = 27.05175 40.37060 33.71117
#
# Velocity S-wave (km/s) = 3.36575 4.11165 3.75726
# Velocity P-wave (km/s) = 5.37320 7.07065 6.27955
#
# Compressibility (1/GPa) = 0.03041809
#
# Stress axis : x y z
#
# Youngs Moduli (GPa) = 48.41871 71.09465 104.05142
#
# Poissons Ratio (x) = 0.28674 -0.01844
# Poissons Ratio (y) = 0.19528 0.32254
# Poissons Ratio (z) = -0.00858 0.22038
#
# Static dielectric constant tensor:
#      x y z
#    x 1.960250 0.004250 0.015550 
#    y 0.004250 1.964230 0.011310 
#    z 0.015550 0.011310 1.963670 
# 
# From -- ./inp_files/542069.got.cif
#   From: 2010.05.17/outbox.cif.g08.bks.cpg/sg2_272_cif.got.tgz:542069.got - 2010.06.03 11:33:40.
