data_PCOD9005851
_publ_section_title
;
Structure prediction by ZEFSAII (Michael W. Deem and Ramdas Pophale) SiO2 
 PCOD9005851
Probable space group: P -1
;
_chemical_formula_sum "Si O2"
_cell_formula_units_Z 15
_cell_length_a 11.539128
_cell_length_b 15.642923
_cell_length_c 5.243594
_cell_angle_alpha 49.039199
_cell_angle_beta 112.475462
_cell_angle_gamma 130.167179
_cell_volume 544.841948
_symmetry_space_group_name_H-M "P -1"
_symmetry_group_IT_number 2
_symmetry_cell_setting 'triclinic'
loop_
_space_group_symop_operation_xyz
x,y,z
-x,-y,-z
loop_
_atom_site_type_symbol
_atom_site_label
_atom_site_fract_x
_atom_site_fract_y
_atom_site_fract_z
Si Si1 0.201368 0.402226 0.007056
Si Si2 0.023826 0.658969 0.665200
Si Si3 0.576322 0.910185 0.570790
Si Si4 0.769314 0.871358 0.176606
Si Si5 0.980998 0.860948 0.955017
Si Si6 0.516948 0.323614 0.424501
Si Si7 0.000000 0.500000 0.500000
Si Si8 0.685500 0.197762 0.071224
O O1 0.119723 0.246191 0.144738
O O2 0.375656 0.520324 0.875179
O O3 0.119308 0.455994 0.660927
O O4 0.142957 0.398619 0.249216
O O5 0.072710 0.581320 0.678434
O O6 0.133900 0.698638 0.934939
O O7 0.061066 0.794015 0.289087
O O8 0.561504 0.785393 0.655689
O O9 0.407621 0.853088 0.642184
O O10 0.644764 0.054228 0.203286
O O11 0.685523 0.935417 0.847886
O O12 0.871579 0.862661 0.068378
O O13 0.626441 0.721082 0.430968
O O14 0.880252 0.980192 0.274932
O O15 0.617393 0.272484 0.731941
#
# Coordination Sequence:
#
# PCOD9005851 Si02
#       8
#     2   2   2   2   2   2   1   2
#     4  11  24  40  64  99 134 177 218 268 334 400
#     4  11  22  40  68  98 134 173 218 270 330 401
#     4  10  21  39  65  95 129 170 222 277 333 389
#     4  10  23  45  68  93 129 178 230 282 329 383
#     4  10  24  44  67  95 130 175 233 279 326 384
#     4  11  24  40  65  97 135 176 217 276 335 395
#     4  10  22  40  64  94 136 176 210 264 328 396
#     4  10  21  38  63  96 131 171 219 270 332 400
#
# _framework density 27.530923000000001
#
# number of rings (size 3 to 8) (size 9 to 14) (size 15 to 20)
#    0.000    1.600    1.333    2.400    1.867    8.000 
#    0.000    4.000    0.000    0.000    0.000    0.000 
#    0.000    0.000    0.000    0.000    0.000    0.000 
#
# Total GULP energy -83780.050753 kJ/mol
# GULP energy per Si atom -5585.336717 kJ/mol
# Density = 2.746826 g / cm^3
# Si number density = 27.530923 Si / 1000 Ang^3
#
#
#
# Elastic Constant Matrix: (Units=GPa)
#
#
# Indices 1 2 3 4 5 6 
#
# 1 135.8822 71.9938 35.6682 -22.2953 -12.7560 2.7619
# 2 71.9938 157.2724 57.8334 -37.7885 -24.3080 6.9972
# 3 35.6682 57.8334 91.4975 -36.6829 1.4907 4.2276
# 4 -22.2953 -37.7885 -36.6829 53.7654 1.6074 -5.5042
# 5 -12.7560 -24.3080 1.4907 1.6074 50.7436 3.2483
# 6 2.7619 6.9972 4.2276 -5.5042 3.2483 47.2914
#
#
#
# Elastic Compliance Matrix: (Units=1/GPa)
#
#
# Indices 1 2 3 4 5 6 
#
# 1 0.009862 -0.003841 -0.001209 0.000558 0.000649 0.000121
# 2 -0.003841 0.011202 -0.004388 0.003051 0.004497 -0.000995
# 3 -0.001209 -0.004388 0.017655 0.008594 -0.003220 0.000363
# 4 0.000558 0.003051 0.008594 0.027018 0.000374 0.001867
# 5 0.000649 0.004497 -0.003220 0.000374 0.022229 -0.001899
# 6 0.000121 -0.000995 0.000363 0.001867 -0.001899 0.021601
#
#
# Mechanical properties :
#
#
# Convention : Reuss Voigt Hill
#
# Bulk Modulus (GPa) = 50.39300 79.51588 64.95444
# Shear Modulus (GPa) = 37.02158 44.97053 40.99605
#
# Velocity S-wave (km/s) = 3.67103 4.04599 3.86306
# Velocity P-wave (km/s) = 6.02599 7.12543 6.59865
#
# Compressibility (1/GPa) = 0.01984403
#
# Stress axis : x y z
#
# Youngs Moduli (GPa) = 101.40317 89.26748 56.64089
#
# Poissons Ratio (x) = 0.34284 0.06849
# Poissons Ratio (y) = 0.38945 0.24852
# Poissons Ratio (z) = 0.12262 0.39168
#
# Static dielectric constant tensor:
#      x y z
#    x 2.047900 -0.014120 0.094030 
#    y -0.014120 2.201820 0.001970 
#    z 0.094030 0.001970 2.116650 
# 
# From -- ./inp_files/75511.got.cif
#   From: 2010.05.17/outbox.cif.g08.bks.cpg/sg2_38_cif.got.tgz:75511.got - 2010.06.03 11:33:40.
