data_PCOD9005634
_publ_section_title
;
Structure prediction by ZEFSAII (Michael W. Deem and Ramdas Pophale) SiO2 
 PCOD9005634
Probable space group: P -1
;
_chemical_formula_sum "Si O2"
_cell_formula_units_Z 14
_cell_length_a 14.356519
_cell_length_b 13.413390
_cell_length_c 8.692668
_cell_angle_alpha 45.731643
_cell_angle_beta 67.692296
_cell_angle_gamma 33.624439
_cell_volume 571.523891
_symmetry_space_group_name_H-M "P -1"
_symmetry_group_IT_number 2
_symmetry_cell_setting 'triclinic'
loop_
_space_group_symop_operation_xyz
x,y,z
-x,-y,-z
loop_
_atom_site_type_symbol
_atom_site_label
_atom_site_fract_x
_atom_site_fract_y
_atom_site_fract_z
Si Si1 0.230784 0.534093 0.202836
Si Si2 0.087609 0.900042 0.304282
Si Si3 0.523766 0.648879 0.499042
Si Si4 0.894220 0.911544 0.620381
Si Si5 0.050690 0.489592 0.189926
Si Si6 0.581320 0.052695 0.339040
Si Si7 0.362591 0.054764 0.939481
O O1 0.357938 0.376915 0.446618
O O2 0.117216 0.530137 0.227799
O O3 0.397943 0.368658 0.148691
O O4 0.078379 0.838713 0.981433
O O5 0.014458 0.838321 0.483868
O O6 0.300464 0.648687 0.363294
O O7 0.081898 0.011344 0.332983
O O8 0.343579 0.807956 0.544653
O O9 0.411292 0.851883 0.210339
O O10 0.996049 0.646267 0.903626
O O11 0.224268 0.170811 0.437796
O O12 0.857368 0.648345 0.201207
O O13 0.500000 0.000000 0.500000
O O14 0.616054 0.998081 0.196495
O O15 0.500000 0.000000 0.000000
#
# Coordination Sequence:
#
# PCOD9005634 Si02
#       7
#     2   2   2   2   2   2   2
#     4  10  22  42  59  94 125 161 204 250 309 372
#     4  10  21  40  66  85 131 165 206 250 315 360
#     4  11  23  40  62  94 127 158 213 259 300 367
#     4   9  21  39  63  96 118 163 212 254 304 370
#     4   9  20  41  63  87 126 159 201 250 314 367
#     4  10  21  38  63  84 125 161 196 251 309 363
#     4  11  23  40  63  93 120 161 210 253 307 372
#
# _framework density 24.495916000000001
#
# number of rings (size 3 to 8) (size 9 to 14) (size 15 to 20)
#    0.000    2.000    0.000    3.000    8.000    0.571 
#    5.143    4.286    0.000    0.000    0.000    0.000 
#    0.000    0.000    0.000    0.000    0.000    0.000 
#
# Total GULP energy -78177.901014 kJ/mol
# GULP energy per Si atom -5584.135787 kJ/mol
# Density = 2.444016 g / cm^3
# Si number density = 24.495916 Si / 1000 Ang^3
#
#
#
# Elastic Constant Matrix: (Units=GPa)
#
#
# Indices 1 2 3 4 5 6 
#
# 1 62.1611 35.9800 23.3978 -9.0625 4.6866 -13.6753
# 2 35.9800 139.6903 48.1670 -37.4258 2.7069 -3.7790
# 3 23.3978 48.1670 77.4927 -23.1561 16.9465 -6.2025
# 4 -9.0625 -37.4258 -23.1561 47.9521 -0.8483 3.1849
# 5 4.6866 2.7069 16.9465 -0.8483 35.8217 -12.7411
# 6 -13.6753 -3.7790 -6.2025 3.1849 -12.7411 38.6213
#
#
#
# Elastic Compliance Matrix: (Units=1/GPa)
#
#
# Indices 1 2 3 4 5 6 
#
# 1 0.021382 -0.004424 -0.004121 -0.001851 0.002040 0.007302
# 2 -0.004424 0.011349 -0.004338 0.006030 0.001506 -0.001153
# 3 -0.004121 -0.004338 0.020432 0.005680 -0.009442 -0.002185
# 4 -0.001851 0.006030 0.005680 0.028064 -0.003125 -0.002498
# 5 0.002040 0.001506 -0.009442 -0.003125 0.036016 0.011492
# 6 0.007302 -0.001153 -0.002185 -0.002498 0.011492 0.032011
#
#
# Mechanical properties :
#
#
# Convention : Reuss Voigt Hill
#
# Bulk Modulus (GPa) = 36.50015 54.93706 45.71861
# Shear Modulus (GPa) = 27.15111 35.93230 31.54170
#
# Velocity S-wave (km/s) = 3.33287 3.83413 3.59225
# Velocity P-wave (km/s) = 5.45376 6.48663 5.99249
#
# Compressibility (1/GPa) = 0.02739715
#
# Stress axis : x y z
#
# Youngs Moduli (GPa) = 46.76841 88.11033 48.94182
#
# Poissons Ratio (x) = 0.38984 0.20167
# Poissons Ratio (y) = 0.20692 0.21233
# Poissons Ratio (z) = 0.19271 0.38225
#
# Static dielectric constant tensor:
#      x y z
#    x 1.945490 -0.029170 -0.068060 
#    y -0.029170 1.921670 -0.092600 
#    z -0.068060 -0.092600 1.936660 
# 
# From -- ./inp_files/168905.got.cif
#   From: 2010.05.17/outbox.cif.g08.bks.cpg/sg2_85_cif.got.tgz:168905.got - 2010.06.03 11:33:40.
