data_PCOD9005791
_publ_section_title
;
Structure prediction by ZEFSAII (Michael W. Deem and Ramdas Pophale) SiO2 
 PCOD9005791
Probable space group: P -1
;
_chemical_formula_sum "Si O2"
_cell_formula_units_Z 16
_cell_length_a 13.356109
_cell_length_b 18.952264
_cell_length_c 23.847342
_cell_angle_alpha 21.331591
_cell_angle_beta 157.899633
_cell_angle_gamma 156.071599
_cell_volume 766.633732
_symmetry_space_group_name_H-M "P -1"
_symmetry_group_IT_number 2
_symmetry_cell_setting 'triclinic'
loop_
_space_group_symop_operation_xyz
x,y,z
-x,-y,-z
loop_
_atom_site_type_symbol
_atom_site_label
_atom_site_fract_x
_atom_site_fract_y
_atom_site_fract_z
Si Si1 0.221946 0.811832 0.971170
Si Si2 0.801407 0.505059 0.475881
Si Si3 0.655535 0.180468 0.103849
Si Si4 0.216037 0.357114 0.329339
Si Si5 0.662212 0.919978 0.595122
Si Si6 0.293317 0.446570 0.730076
Si Si7 0.092375 0.300052 0.493131
Si Si8 0.545064 0.269948 0.670047
O O1 0.247418 0.783258 0.937866
O O2 0.942885 0.868906 0.796455
O O3 0.199850 0.587804 0.150436
O O4 0.500000 0.000000 0.000000
O O5 0.469726 0.364392 0.413460
O O6 0.827498 0.621902 0.344242
O O7 0.870238 0.650817 0.457808
O O8 0.024771 0.389891 0.674259
O O9 0.921268 0.201810 0.265899
O O10 0.421837 0.947516 0.160141
O O11 0.525289 0.345966 0.934419
O O12 0.331640 0.302131 0.488216
O O13 0.443942 0.697493 0.625017
O O14 0.500000 0.000000 0.500000
O O15 0.794922 0.104150 0.481228
O O16 0.354274 0.246034 0.644309
O O17 0.164147 0.526721 0.333718
#
# Coordination Sequence:
#
# PCOD9005791 Si02
#       8
#     2   2   2   2   2   2   2   2
#     4  12  24  37  65 100 128 162 219 275 315 371
#     4  10  21  38  63  93 133 165 205 263 328 379
#     4  12  23  40  64  99 127 167 218 270 313 374
#     4  11  22  41  61  97 127 167 220 264 317 372
#     4  12  23  40  68  94 129 163 213 272 321 371
#     4  11  23  38  63  99 132 165 209 272 326 375
#     4  10  21  41  61  93 123 175 216 252 316 386
#     4  10  23  39  67  89 134 174 213 260 319 385
#
# _framework density 20.870462
#
# number of rings (size 3 to 8) (size 9 to 14) (size 15 to 20)
#    0.000    1.000    5.000    3.000    1.750    0.000 
#    0.000    2.500    0.000    3.000    0.000    0.000 
#    0.000    0.000    0.000    0.000    0.000    0.000 
#
# Total GULP energy -89239.056335 kJ/mol
# GULP energy per Si atom -5577.441021 kJ/mol
# Density = 2.082296 g / cm^3
# Si number density = 20.870462 Si / 1000 Ang^3
#
#
#
# Elastic Constant Matrix: (Units=GPa)
#
#
# Indices 1 2 3 4 5 6 
#
# 1 90.2668 13.3657 49.1926 -3.1228 22.8133 2.6274
# 2 13.3657 85.4245 27.4937 -18.0955 20.2973 20.7843
# 3 49.1926 27.4937 80.4836 0.1042 18.3653 9.0146
# 4 -3.1228 -18.0955 0.1042 44.8529 4.0263 0.5678
# 5 22.8133 20.2973 18.3653 4.0263 34.3026 6.0765
# 6 2.6274 20.7843 9.0146 0.5678 6.0765 29.6274
#
#
#
# Elastic Compliance Matrix: (Units=1/GPa)
#
#
# Indices 1 2 3 4 5 6 
#
# 1 0.018816 0.003092 -0.010577 0.003401 -0.009296 0.001222
# 2 0.003092 0.019910 -0.005157 0.009317 -0.010266 -0.010745
# 3 -0.010577 -0.005157 0.020958 -0.002799 -0.000512 -0.001662
# 4 0.003401 0.009317 -0.002799 0.027131 -0.008622 -0.004738
# 5 -0.009296 -0.010266 -0.000512 -0.008622 0.042771 -0.000425
# 6 0.001222 -0.010745 -0.001662 -0.004738 -0.000425 0.041866
#
#
# Mechanical properties :
#
#
# Convention : Reuss Voigt Hill
#
# Bulk Modulus (GPa) = 29.06975 48.47544 38.77260
# Shear Modulus (GPa) = 24.01513 32.83144 28.42329
#
# Velocity S-wave (km/s) = 3.39584 3.97054 3.69438
# Velocity P-wave (km/s) = 5.41614 6.65564 6.06762
#
# Compressibility (1/GPa) = 0.03440002
#
# Stress axis : x y z
#
# Youngs Moduli (GPa) = 53.14597 50.22700 47.71457
#
# Poissons Ratio (x) = -0.15531 0.50467
# Poissons Ratio (y) = -0.16434 0.24607
# Poissons Ratio (z) = 0.56212 0.25903
#
# Static dielectric constant tensor:
#      x y z
#    x 1.802760 0.006520 -0.007750 
#    y 0.006520 1.819520 -0.017550 
#    z -0.007750 -0.017550 1.772050 
# 
# From -- ./inp_files/619872.got.cif
#   From: 2010.05.17/outbox.cif.g08.bks.cpg/sg2_310_cif.got.tgz:619872.got - 2010.06.03 11:33:40.
