data_PCOD9005622
_publ_section_title
;
Structure prediction by ZEFSAII (Michael W. Deem and Ramdas Pophale) SiO2 
 PCOD9005622
Probable space group: P -1
;
_chemical_formula_sum "Si O2"
_cell_formula_units_Z 12
_cell_length_a 6.198138
_cell_length_b 7.254047
_cell_length_c 15.542683
_cell_angle_alpha 120.097784
_cell_angle_beta 120.313579
_cell_angle_gamma 69.173306
_cell_volume 517.006448
_symmetry_space_group_name_H-M "P -1"
_symmetry_group_IT_number 2
_symmetry_cell_setting 'triclinic'
loop_
_space_group_symop_operation_xyz
x,y,z
-x,-y,-z
loop_
_atom_site_type_symbol
_atom_site_label
_atom_site_fract_x
_atom_site_fract_y
_atom_site_fract_z
Si Si1 0.715623 0.822841 0.462917
Si Si2 0.815491 0.288181 0.956316
Si Si3 0.984035 0.646816 0.172712
Si Si4 0.375273 0.092661 0.081780
Si Si5 0.220948 0.971620 0.657797
Si Si6 0.547155 0.590621 0.699875
O O1 0.751704 0.878980 0.383563
O O2 0.382936 0.405023 0.603453
O O3 0.500000 0.000000 0.500000
O O4 0.981084 0.844436 0.565865
O O5 0.781282 0.507643 0.056984
O O6 0.836335 0.319615 0.865495
O O7 0.655587 0.101720 0.905351
O O8 0.097073 0.197373 0.023576
O O9 0.857824 0.869238 0.240618
O O10 0.163837 0.517377 0.251522
O O11 0.516884 0.278519 0.193524
O O12 0.500000 0.000000 0.000000
O O13 0.468250 0.790866 0.667477
#
# Coordination Sequence:
#
# PCOD9005622 Si02
#       6
#     2   2   2   2   2   2
#     4  11  25  48  67  98 133 169 227 280 330 395
#     4   9  21  40  62  95 141 170 216 278 314 394
#     4  10  21  44  67  97 135 179 219 271 335 386
#     4  10  21  38  63 100 131 178 221 259 335 393
#     4  11  25  45  69  97 132 174 221 276 338 391
#     4  11  24  42  69  99 129 177 220 271 334 390
#
# _framework density 23.210542
#
# number of rings (size 3 to 8) (size 9 to 14) (size 15 to 20)
#    0.000    1.667    1.667    1.500    4.667    0.667 
#    6.000    3.333    0.000    0.000    0.000    0.000 
#    0.000    0.000    0.000    0.000    0.000    0.000 
#
# Total GULP energy -67029.358346 kJ/mol
# GULP energy per Si atom -5585.779862 kJ/mol
# Density = 2.315771 g / cm^3
# Si number density = 23.210542 Si / 1000 Ang^3
#
#
#
# Elastic Constant Matrix: (Units=GPa)
#
#
# Indices 1 2 3 4 5 6 
#
# 1 45.5169 24.8245 28.5460 12.7290 2.0352 2.0250
# 2 24.8245 138.9053 46.7058 14.3609 5.6363 -4.0755
# 3 28.5460 46.7058 96.3801 29.0111 1.1528 3.1588
# 4 12.7290 14.3609 29.0111 52.5079 -4.8035 10.9012
# 5 2.0352 5.6363 1.1528 -4.8035 23.0909 -4.9067
# 6 2.0250 -4.0755 3.1588 10.9012 -4.9067 18.8639
#
#
#
# Elastic Compliance Matrix: (Units=1/GPa)
#
#
# Indices 1 2 3 4 5 6 
#
# 1 0.028209 -0.002637 -0.006227 -0.002542 -0.002426 -0.001717
# 2 -0.002637 0.009046 -0.003495 -0.000613 -0.001327 0.002832
# 3 -0.006227 -0.003495 0.015857 -0.006531 -0.000560 0.000887
# 4 -0.002542 -0.000613 -0.006531 0.026487 0.003408 -0.013186
# 5 -0.002426 -0.001327 -0.000560 0.003408 0.046762 0.010261
# 6 -0.001717 0.002832 0.000887 -0.013186 0.010261 0.063948
#
#
# Mechanical properties :
#
#
# Convention : Reuss Voigt Hill
#
# Bulk Modulus (GPa) = 35.21764 53.43944 44.32854
# Shear Modulus (GPa) = 22.27273 30.94094 26.60684
#
# Velocity S-wave (km/s) = 3.10109 3.65506 3.38942
# Velocity P-wave (km/s) = 5.29419 6.39425 5.87005
#
# Compressibility (1/GPa) = 0.02839486
#
# Stress axis : x y z
#
# Youngs Moduli (GPa) = 35.44999 110.54747 63.06352
#
# Poissons Ratio (x) = 0.29149 0.39267
# Poissons Ratio (y) = 0.09348 0.22041
# Poissons Ratio (z) = 0.22073 0.38637
#
# Static dielectric constant tensor:
#      x y z
#    x 1.827140 -0.010660 0.000180 
#    y -0.010660 1.945660 -0.035680 
#    z 0.000180 -0.035680 1.940110 
# 
# From -- ./inp_files/546739.got.cif
#   From: 2010.05.17/outbox.cif.g08.bks.cpg/sg2_274_cif.got.tgz:546739.got - 2010.06.03 11:33:40.
