data_PCOD9005322
_publ_section_title
;
Structure prediction by ZEFSAII (Michael W. Deem and Ramdas Pophale) SiO2 
 PCOD9005322
Probable space group: P -1
;
_chemical_formula_sum "Si O2"
_cell_formula_units_Z 16
_cell_length_a 8.739570
_cell_length_b 12.461387
_cell_length_c 18.051769
_cell_angle_alpha 23.267004
_cell_angle_beta 62.877540
_cell_angle_gamma 63.280467
_cell_volume 688.532697
_symmetry_space_group_name_H-M "P -1"
_symmetry_group_IT_number 2
_symmetry_cell_setting 'triclinic'
loop_
_space_group_symop_operation_xyz
x,y,z
-x,-y,-z
loop_
_atom_site_type_symbol
_atom_site_label
_atom_site_fract_x
_atom_site_fract_y
_atom_site_fract_z
Si Si1 0.334359 0.816510 0.054843
Si Si2 0.995143 0.327817 0.289765
Si Si3 0.388145 0.598756 0.673730
Si Si4 0.470203 0.739067 0.917851
Si Si5 0.338756 0.447661 0.618050
Si Si6 0.815248 0.526423 0.986447
Si Si7 0.957308 0.515281 0.649298
Si Si8 0.329953 0.035206 0.628833
O O1 0.482116 0.663448 0.169919
O O2 0.146345 0.752349 0.165419
O O3 0.369579 0.684398 0.049246
O O4 0.347931 0.133840 0.840977
O O5 0.803728 0.422125 0.241226
O O6 0.023504 0.428017 0.303115
O O7 0.000000 0.000000 0.500000
O O8 0.134751 0.434898 0.135414
O O9 0.353238 0.619453 0.580764
O O10 0.494264 0.854203 0.511225
O O11 0.369455 0.984140 0.739722
O O12 0.500000 0.500000 0.000000
O O13 0.667407 0.769985 0.880534
O O14 0.500000 0.500000 0.500000
O O15 0.152333 0.504829 0.584348
O O16 0.726476 0.254172 0.201211
O O17 0.000000 0.500000 0.000000
O O18 0.828323 0.747847 0.492900
#
# Coordination Sequence:
#
# PCOD9005322 Si02
#       8
#     2   2   2   2   2   2   2   2
#     4  11  22  42  65  88 122 163 202 254 307 363
#     4  11  22  38  60  89 125 163 201 251 302 361
#     4  10  23  41  62  90 122 162 207 249 307 369
#     4  10  21  38  61  92 125 160 201 245 299 360
#     4  11  24  42  65  91 120 157 204 260 312 363
#     4  11  22  37  60  93 125 162 206 250 301 362
#     4  10  23  41  62  89 120 159 207 250 306 368
#     4  10  21  39  60  86 122 158 199 251 298 358
#
# _framework density 23.237822999999999
#
# number of rings (size 3 to 8) (size 9 to 14) (size 15 to 20)
#    0.000    1.500    0.000    5.250    0.000    6.000 
#    0.000   14.375    0.000    0.000    0.000    0.000 
#    0.000    0.000    0.000    0.000    0.000    0.000 
#
# Total GULP energy -89364.714662 kJ/mol
# GULP energy per Si atom -5585.294666 kJ/mol
# Density = 2.318493 g / cm^3
# Si number density = 23.237823 Si / 1000 Ang^3
#
#
#
# Elastic Constant Matrix: (Units=GPa)
#
#
# Indices 1 2 3 4 5 6 
#
# 1 163.4729 28.0936 48.3091 3.0807 4.7817 -46.4595
# 2 28.0936 52.9296 4.4503 21.6986 -14.2152 -21.0381
# 3 48.3091 4.4503 101.3938 -0.3326 -12.0705 -17.4778
# 4 3.0807 21.6986 -0.3326 30.1593 -1.7803 -8.4182
# 5 4.7817 -14.2152 -12.0705 -1.7803 44.4267 1.9535
# 6 -46.4595 -21.0381 -17.4778 -8.4182 1.9535 39.9254
#
#
#
# Elastic Compliance Matrix: (Units=1/GPa)
#
#
# Indices 1 2 3 4 5 6 
#
# 1 0.010755 -0.004420 -0.003697 0.004525 -0.003822 0.009709
# 2 -0.004420 0.038098 0.003731 -0.023097 0.012266 0.011095
# 3 -0.003697 0.003731 0.012488 -0.001143 0.004822 0.002654
# 4 0.004525 -0.023097 -0.001143 0.049881 -0.006340 0.003422
# 5 -0.003822 0.012266 0.004822 -0.006340 0.027839 0.001428
# 6 0.009709 0.011095 0.002654 0.003422 0.001428 0.044004
#
#
# Mechanical properties :
#
#
# Convention : Reuss Voigt Hill
#
# Bulk Modulus (GPa) = 19.02264 53.27804 36.15034
# Shear Modulus (GPa) = 23.88223 38.69850 31.29037
#
# Velocity S-wave (km/s) = 3.20930 4.08526 3.67349
# Velocity P-wave (km/s) = 4.68366 6.72529 5.79510
#
# Compressibility (1/GPa) = 0.05256893
#
# Stress axis : x y z
#
# Youngs Moduli (GPa) = 92.97853 26.24778 80.07771
#
# Poissons Ratio (x) = 0.11602 0.29604
# Poissons Ratio (y) = 0.41099 -0.29875
# Poissons Ratio (z) = 0.34373 -0.09793
#
# Static dielectric constant tensor:
#      x y z
#    x 1.942800 0.007260 -0.014960 
#    y 0.007260 1.899660 -0.028070 
#    z -0.014960 -0.028070 1.882730 
# 
# From -- ./inp_files/208131.got.cif
#   From: 2010.05.17/outbox.cif.g08.bks.cpg/sg2_105_cif.got.tgz:208131.got - 2010.06.03 11:33:40.
