data_PCOD9005126
_publ_section_title
;
Structure prediction by ZEFSAII (Michael W. Deem and Ramdas Pophale) SiO2 
 PCOD9005126
Probable space group: P -1
;
_chemical_formula_sum "Si O2"
_cell_formula_units_Z 14
_cell_length_a 20.672428
_cell_length_b 4.991147
_cell_length_c 5.464793
_cell_angle_alpha 95.509147
_cell_angle_beta 95.236797
_cell_angle_gamma 66.026009
_cell_volume 511.981812
_symmetry_space_group_name_H-M "P -1"
_symmetry_group_IT_number 2
_symmetry_cell_setting 'triclinic'
loop_
_space_group_symop_operation_xyz
x,y,z
-x,-y,-z
loop_
_atom_site_type_symbol
_atom_site_label
_atom_site_fract_x
_atom_site_fract_y
_atom_site_fract_z
Si Si1 0.866385 0.170247 0.490813
Si Si2 0.278786 0.521986 0.709744
Si Si3 0.831703 0.747715 0.776552
Si Si4 0.955259 0.834854 0.089703
Si Si5 0.578028 0.892655 0.199215
Si Si6 0.688095 0.218352 0.759192
Si Si7 0.461608 0.781980 0.292491
O O1 0.804226 0.401590 0.321134
O O2 0.866575 0.398008 0.721146
O O3 0.843469 0.918619 0.560745
O O4 0.938123 0.982994 0.362482
O O5 0.340280 0.197622 0.710970
O O6 0.294572 0.656280 0.475880
O O7 0.294305 0.647483 0.977849
O O8 0.875987 0.854035 0.992849
O O9 0.746166 0.879072 0.780519
O O10 0.000000 0.500000 0.000000
O O11 0.000000 0.000000 0.000000
O O12 0.537106 0.132372 0.414057
O O13 0.544421 0.651150 0.224240
O O14 0.565834 0.981262 0.921224
O O15 0.604310 0.309332 0.739611
#
# Coordination Sequence:
#
# PCOD9005126 Si02
#       7
#     2   2   2   2   2   2   2
#     4  11  25  46  70 103 143 187 238 298 361 432
#     4  11  23  41  65  99 137 185 242 299 361 429
#     4  11  25  46  70 103 143 187 238 298 361 432
#     4  12  26  46  72 106 141 184 237 294 366 438
#     4  10  21  38  60  92 133 183 239 297 360 426
#     4  11  23  41  65  99 137 185 242 299 361 429
#     4  10  21  38  60  92 133 183 239 297 360 426
#
# _framework density 27.344722000000001
#
# number of rings (size 3 to 8) (size 9 to 14) (size 15 to 20)
#    0.000    1.143    1.429    4.286    0.000    6.857 
#    2.571    0.000    0.000    0.000    0.000    0.000 
#    0.000    0.000    0.000    0.000    0.000    0.000 
#
# Total GULP energy -78109.668619 kJ/mol
# GULP energy per Si atom -5579.262044 kJ/mol
# Density = 2.728248 g / cm^3
# Si number density = 27.344722 Si / 1000 Ang^3
#
#
#
# Elastic Constant Matrix: (Units=GPa)
#
#
# Indices 1 2 3 4 5 6 
#
# 1 109.6823 33.2531 43.8388 5.0931 20.5356 1.6892
# 2 33.2531 92.6948 34.2839 13.0611 -9.7083 2.8010
# 3 43.8388 34.2839 153.2554 -5.7060 9.4990 -2.0447
# 4 5.0931 13.0611 -5.7060 46.4522 -13.0243 4.7108
# 5 20.5356 -9.7083 9.4990 -13.0243 59.2188 -5.7814
# 6 1.6892 2.8010 -2.0447 4.7108 -5.7814 51.2930
#
#
#
# Elastic Compliance Matrix: (Units=1/GPa)
#
#
# Indices 1 2 3 4 5 6 
#
# 1 0.012249 -0.003717 -0.002446 -0.001918 -0.004953 -0.000680
# 2 -0.003717 0.013720 -0.002315 -0.002804 0.003284 -0.000091
# 3 -0.002446 -0.002315 0.007835 0.001745 -0.000374 0.000317
# 4 -0.001918 -0.002804 0.001745 0.024321 0.005141 -0.001368
# 5 -0.004953 0.003284 -0.000374 0.005141 0.020510 0.001808
# 6 -0.000680 -0.000091 0.000317 -0.001368 0.001808 0.019865
#
#
# Mechanical properties :
#
#
# Convention : Reuss Voigt Hill
#
# Bulk Modulus (GPa) = 59.35729 64.26488 61.81108
# Shear Modulus (GPa) = 41.29822 47.67658 44.48740
#
# Velocity S-wave (km/s) = 3.89045 4.18010 4.03787
# Velocity P-wave (km/s) = 6.47572 6.84474 6.66278
#
# Compressibility (1/GPa) = 0.01684713
#
# Stress axis : x y z
#
# Youngs Moduli (GPa) = 81.64193 72.88764 127.63539
#
# Poissons Ratio (x) = 0.27096 0.31214
# Poissons Ratio (y) = 0.30350 0.29547
# Poissons Ratio (z) = 0.19966 0.16873
#
# Static dielectric constant tensor:
#      x y z
#    x 2.002510 0.076640 0.228480 
#    y 0.076640 2.257380 -0.053280 
#    z 0.228480 -0.053280 2.097860 
# 
# From -- ./inp_files/11691.got.cif
#   From: 2010.05.17/outbox.cif.g08.bks.cpg/sg2_6_cif.got.tgz:11691.got - 2010.06.03 11:33:40.
