data_PCOD9005054
_publ_section_title
;
Structure prediction by ZEFSAII (Michael W. Deem and Ramdas Pophale) SiO2 
 PCOD9005054
Probable space group: P -1
;
_chemical_formula_sum "Si O2"
_cell_formula_units_Z 16
_cell_length_a 17.941238
_cell_length_b 12.561767
_cell_length_c 21.872455
_cell_angle_alpha 160.485039
_cell_angle_beta 148.943120
_cell_angle_gamma 32.020362
_cell_volume 825.825717
_symmetry_space_group_name_H-M "P -1"
_symmetry_group_IT_number 2
_symmetry_cell_setting 'triclinic'
loop_
_space_group_symop_operation_xyz
x,y,z
-x,-y,-z
loop_
_atom_site_type_symbol
_atom_site_label
_atom_site_fract_x
_atom_site_fract_y
_atom_site_fract_z
Si Si1 0.150361 0.844058 0.057433
Si Si2 0.529720 0.482170 0.938919
Si Si3 0.968126 0.547413 0.931777
Si Si4 0.610135 0.149341 0.318989
Si Si5 0.226665 0.298034 0.595644
Si Si6 0.062612 0.195145 0.304203
Si Si7 0.313002 0.658323 0.389950
Si Si8 0.104350 0.150136 0.700010
O O1 0.309792 0.766056 0.094024
O O2 0.150106 0.091070 0.247077
O O3 0.126099 0.494139 0.874162
O O4 0.000000 0.000000 0.000000
O O5 0.385382 0.388584 0.758342
O O6 0.500000 0.500000 0.000000
O O7 0.545163 0.829922 0.111017
O O8 0.793600 0.590843 0.821372
O O9 0.043035 0.241580 0.774667
O O10 0.000000 0.500000 0.000000
O O11 0.021525 0.864565 0.120302
O O12 0.479437 0.466625 0.388351
O O13 0.686279 0.197578 0.463477
O O14 0.732968 0.087838 0.319362
O O15 0.161912 0.305855 0.486080
O O16 0.094149 0.542663 0.671882
O O17 0.251787 0.944235 0.453575
O O18 0.000000 0.000000 0.500000
#
# Coordination Sequence:
#
# PCOD9005054 Si02
#       8
#     2   2   2   2   2   2   2   2
#     4  10  23  38  61  90 121 152 196 251 301 353
#     4  11  21  37  61  85 121 159 195 247 300 351
#     4  11  21  39  64  88 121 158 196 245 303 355
#     4  10  22  38  58  91 118 154 200 251 298 349
#     4  11  22  39  62  85 120 163 203 242 294 364
#     4  10  23  40  61  88 120 158 203 245 299 355
#     4  11  21  36  63  87 120 154 201 247 298 354
#     4  10  21  38  60  89 118 151 196 248 291 353
#
# _framework density 19.374548000000001
#
# number of rings (size 3 to 8) (size 9 to 14) (size 15 to 20)
#    0.000    1.500    3.750    1.500    1.750    2.500 
#    0.000    0.625    2.750    0.000    0.000    0.000 
#    0.000    0.000    0.000    0.000    0.000    0.000 
#
# Total GULP energy -89320.226704 kJ/mol
# GULP energy per Si atom -5582.514169 kJ/mol
# Density = 1.933045 g / cm^3
# Si number density = 19.374548 Si / 1000 Ang^3
#
#
#
# Elastic Constant Matrix: (Units=GPa)
#
#
# Indices 1 2 3 4 5 6 
#
# 1 114.8622 52.3599 26.6540 -6.0079 -24.0936 -28.2056
# 2 52.3599 101.2685 19.0279 -6.8790 -12.1269 -25.9030
# 3 26.6540 19.0279 78.0917 -25.9394 -6.8020 -17.0681
# 4 -6.0079 -6.8790 -25.9394 34.7123 -8.2965 2.2020
# 5 -24.0936 -12.1269 -6.8020 -8.2965 28.0816 3.8537
# 6 -28.2056 -25.9030 -17.0681 2.2020 3.8537 25.8915
#
#
#
# Elastic Compliance Matrix: (Units=1/GPa)
#
#
# Indices 1 2 3 4 5 6 
#
# 1 0.015856 -0.003495 0.000652 0.004637 0.011972 0.012030
# 2 -0.003495 0.014934 0.001494 0.003542 0.003305 0.011325
# 3 0.000652 0.001494 0.022329 0.018664 0.010231 0.013814
# 4 0.004637 0.003542 0.018664 0.048816 0.022615 0.013381
# 5 0.011972 0.003305 0.010231 0.022615 0.054681 0.013031
# 6 0.012030 0.011325 0.013814 0.013381 0.013031 0.069088
#
#
# Mechanical properties :
#
#
# Convention : Reuss Voigt Hill
#
# Bulk Modulus (GPa) = 19.83291 54.47845 37.15568
# Shear Modulus (GPa) = 20.39084 30.81576 25.60330
#
# Velocity S-wave (km/s) = 3.24768 3.99247 3.63918
# Velocity P-wave (km/s) = 4.93173 7.03084 6.07267
#
# Compressibility (1/GPa) = 0.05042125
#
# Stress axis : x y z
#
# Youngs Moduli (GPa) = 63.06850 66.95990 44.78521
#
# Poissons Ratio (x) = 0.23401 -0.02921
# Poissons Ratio (y) = 0.22041 -0.06690
# Poissons Ratio (z) = -0.04113 -0.10002
#
# Static dielectric constant tensor:
#      x y z
#    x 1.696020 -0.015520 -0.011290 
#    y -0.015520 1.666530 0.008420 
#    z -0.011290 0.008420 1.700860 
# 
# From -- ./inp_files/201470.got.cif
#   From: 2010.05.17/outbox.cif.g08.bks.cpg/sg2_101_cif.got.tgz:201470.got - 2010.06.03 11:33:40.
