data_PCOD9005935
_publ_section_title
;
Structure prediction by ZEFSAII (Michael W. Deem and Ramdas Pophale) SiO2 
 PCOD9005935
Probable space group: P -1
;
_chemical_formula_sum "Si O2"
_cell_formula_units_Z 16
_cell_length_a 9.985876
_cell_length_b 8.569615
_cell_length_c 11.641241
_cell_angle_alpha 81.073792
_cell_angle_beta 49.184024
_cell_angle_gamma 57.294546
_cell_volume 602.961960
_symmetry_space_group_name_H-M "P -1"
_symmetry_group_IT_number 2
_symmetry_cell_setting 'triclinic'
loop_
_space_group_symop_operation_xyz
x,y,z
-x,-y,-z
loop_
_atom_site_type_symbol
_atom_site_label
_atom_site_fract_x
_atom_site_fract_y
_atom_site_fract_z
Si Si1 0.702208 0.780960 0.642495
Si Si2 0.307965 0.867466 0.722223
Si Si3 0.125456 0.510538 0.773849
Si Si4 0.902684 0.415626 0.725881
Si Si5 0.093390 0.134411 0.002410
Si Si6 0.513173 0.219702 0.762095
Si Si7 0.277762 0.834494 0.131859
Si Si8 0.821921 0.201370 0.424758
O O1 0.550287 0.761714 0.642341
O O2 0.759007 0.633286 0.730194
O O3 0.921621 0.712363 0.459249
O O4 0.582839 0.002482 0.724610
O O5 0.291002 0.859781 0.596766
O O6 0.154761 0.803906 0.859637
O O7 0.180080 0.076737 0.832384
O O8 0.315775 0.368533 0.771883
O O9 0.203679 0.609693 0.632517
O O10 0.030593 0.422313 0.760108
O O11 0.069727 0.309011 0.062384
O O12 0.773399 0.323290 0.835141
O O13 0.247796 0.938462 0.014895
O O14 0.512525 0.248545 0.896008
O O15 0.706309 0.234230 0.605198
O O16 0.075745 0.023503 0.293166
#
# Coordination Sequence:
#
# PCOD9005935 Si02
#       8
#     2   2   2   2   2   2   2   2
#     4  11  24  37  64  91 133 164 208 265 316 380
#     4   9  20  41  71  90 120 174 219 254 315 369
#     4  10  23  37  62  91 127 165 211 262 312 369
#     4  11  24  39  60 100 132 164 205 264 330 372
#     4   9  21  45  68  86 129 170 218 259 311 373
#     4  12  23  37  62 100 129 165 210 255 328 383
#     4  10  22  38  65  91 131 167 206 261 318 378
#     4  10  21  38  64  88 131 166 203 261 320 379
#
# _framework density 26.535668999999999
#
# number of rings (size 3 to 8) (size 9 to 14) (size 15 to 20)
#    0.000    2.000    1.250    3.000   10.500    1.000 
#    0.000    3.750    5.500    0.000    0.000    0.000 
#    0.000    0.000    0.000    0.000    0.000    0.000 
#
# Total GULP energy -89683.462665 kJ/mol
# GULP energy per Si atom -5605.216417 kJ/mol
# Density = 2.647527 g / cm^3
# Si number density = 26.535669 Si / 1000 Ang^3
#
#
#
# Elastic Constant Matrix: (Units=GPa)
#
#
# Indices 1 2 3 4 5 6 
#
# 1 178.1611 72.7631 19.7353 -25.1308 16.9855 -11.6904
# 2 72.7631 189.9682 47.9177 -44.6753 16.7837 1.8018
# 3 19.7353 47.9177 74.8816 -9.1730 0.0287 8.3443
# 4 -25.1308 -44.6753 -9.1730 36.2802 5.9496 4.8244
# 5 16.9855 16.7837 0.0287 5.9496 38.1550 2.7090
# 6 -11.6904 1.8018 8.3443 4.8244 2.7090 43.8435
#
#
#
# Elastic Compliance Matrix: (Units=1/GPa)
#
#
# Indices 1 2 3 4 5 6 
#
# 1 0.007209 -0.001592 -0.000720 0.003102 -0.003132 0.001977
# 2 -0.001592 0.010181 -0.004615 0.011279 -0.005464 -0.000868
# 3 -0.000720 -0.004615 0.016593 -0.002045 0.002878 -0.003113
# 4 0.003102 0.011279 -0.002045 0.045712 -0.013223 -0.003460
# 5 -0.003132 -0.005464 0.002878 -0.013223 0.032186 -0.001692
# 6 0.001977 -0.000868 -0.003113 -0.003460 -0.001692 0.024449
#
#
# Mechanical properties :
#
#
# Convention : Reuss Voigt Hill
#
# Bulk Modulus (GPa) = 49.68170 80.42702 65.05436
# Shear Modulus (GPa) = 31.86843 43.82872 37.84858
#
# Velocity S-wave (km/s) = 3.46925 4.06851 3.78077
# Velocity P-wave (km/s) = 5.90008 7.24190 6.60515
#
# Compressibility (1/GPa) = 0.02012814
#
# Stress axis : x y z
#
# Youngs Moduli (GPa) = 138.72048 98.21786 60.26691
#
# Poissons Ratio (x) = 0.15637 0.04341
# Poissons Ratio (y) = 0.22086 0.27814
# Poissons Ratio (z) = 0.09991 0.45329
#
# Static dielectric constant tensor:
#      x y z
#    x 2.080210 -0.010820 -0.071620 
#    y -0.010820 2.078040 0.011990 
#    z -0.071620 0.011990 2.095530 
# 
# From -- ./inp_files/381611.got.cif
#   From: 2010.05.17/outbox.cif.g08.bks.cpg/sg2_191_cif.got.tgz:381611.got - 2010.06.03 11:33:40.
