data_PCOD9005908
_publ_section_title
;
Structure prediction by ZEFSAII (Michael W. Deem and Ramdas Pophale) SiO2 
 PCOD9005908
Probable space group: P -1
;
_chemical_formula_sum "Si O2"
_cell_formula_units_Z 16
_cell_length_a 21.027950
_cell_length_b 5.552764
_cell_length_c 9.000909
_cell_angle_alpha 94.497760
_cell_angle_beta 51.777034
_cell_angle_gamma 115.831410
_cell_volume 715.480984
_symmetry_space_group_name_H-M "P -1"
_symmetry_group_IT_number 2
_symmetry_cell_setting 'triclinic'
loop_
_space_group_symop_operation_xyz
x,y,z
-x,-y,-z
loop_
_atom_site_type_symbol
_atom_site_label
_atom_site_fract_x
_atom_site_fract_y
_atom_site_fract_z
Si Si1 0.201691 0.832174 0.028955
Si Si2 0.732814 0.967136 0.381113
Si Si3 0.850508 0.844423 0.642739
Si Si4 0.610799 0.109484 0.190873
Si Si5 0.266314 0.503243 0.467176
Si Si6 0.029551 0.334633 0.335639
Si Si7 0.516574 0.264201 0.888775
Si Si8 0.535249 0.758108 0.567650
O O1 0.101335 0.563379 0.129879
O O2 0.191368 0.005785 0.187057
O O3 0.239856 0.003869 0.830525
O O4 0.279308 0.753808 0.965603
O O5 0.760372 0.270569 0.421920
O O6 0.768229 0.778124 0.400569
O O7 0.619882 0.802660 0.548824
O O8 0.774979 0.595553 0.642137
O O9 0.907021 0.758184 0.669242
O O10 0.931702 0.066904 0.425811
O O11 0.558701 0.276500 0.229201
O O12 0.556905 0.847998 0.147341
O O13 0.584162 0.024080 0.398097
O O14 0.377700 0.633597 0.309879
O O15 0.000000 0.500000 0.500000
O O16 0.500000 0.500000 0.000000
O O17 0.500000 0.000000 0.000000
O O18 0.500000 0.500000 0.500000
#
# Coordination Sequence:
#
# PCOD9005908 Si02
#       8
#     2   2   2   2   2   2   2   2
#     4  10  23  41  70  99 133 177 239 286 334 412
#     4  11  26  43  68 104 143 184 225 291 344 406
#     4  10  23  43  74  98 130 184 224 288 344 422
#     4  10  22  37  57  95 122 176 225 271 320 391
#     4  12  26  46  68 101 144 182 225 281 362 405
#     4   9  21  43  72  98 133 167 237 281 346 408
#     4  12  26  41  62  94 137 181 225 277 327 404
#     4  10  21  38  64  84 130 184 225 267 325 390
#
# _framework density 22.362580000000001
#
# number of rings (size 3 to 8) (size 9 to 14) (size 15 to 20)
#    0.000    1.500    1.250    2.250   12.250    1.000 
#    0.000    1.250    0.000    0.000    0.000    0.000 
#    0.000    0.000    0.000    0.000    0.000    0.000 
#
# Total GULP energy -89305.842626 kJ/mol
# GULP energy per Si atom -5581.615164 kJ/mol
# Density = 2.231168 g / cm^3
# Si number density = 22.362580 Si / 1000 Ang^3
#
#
#
# Elastic Constant Matrix: (Units=GPa)
#
#
# Indices 1 2 3 4 5 6 
#
# 1 49.7994 21.5069 32.5134 -4.4471 8.2372 -11.8762
# 2 21.5069 99.1250 28.0119 19.2115 -1.5314 -7.4882
# 3 32.5134 28.0119 89.4096 -1.8517 -16.0982 1.4076
# 4 -4.4471 19.2115 -1.8517 34.2111 -1.2074 1.6573
# 5 8.2372 -1.5314 -16.0982 -1.2074 31.6750 6.2881
# 6 -11.8762 -7.4882 1.4076 1.6573 6.2881 29.8240
#
#
#
# Elastic Compliance Matrix: (Units=1/GPa)
#
#
# Indices 1 2 3 4 5 6 
#
# 1 0.045639 -0.003632 -0.020599 0.004757 -0.027031 0.023669
# 2 -0.003632 0.013673 -0.003361 -0.008504 -0.000988 0.002826
# 3 -0.020599 -0.003361 0.023625 0.001903 0.020156 -0.014517
# 4 0.004757 -0.008504 0.001903 0.034889 0.001147 -0.002511
# 5 -0.027031 -0.000988 0.020156 0.001147 0.053465 -0.023299
# 6 0.023669 0.002826 -0.014517 -0.002511 -0.023299 0.049402
#
#
# Mechanical properties :
#
#
# Convention : Reuss Voigt Hill
#
# Bulk Modulus (GPa) = 36.03466 44.71092 40.37279
# Shear Modulus (GPa) = 17.53594 29.56217 23.54906
#
# Velocity S-wave (km/s) = 2.80333 3.63980 3.24860
# Velocity P-wave (km/s) = 5.16014 6.14014 5.67134
#
# Compressibility (1/GPa) = 0.02775106
#
# Stress axis : x y z
#
# Youngs Moduli (GPa) = 21.91122 73.13919 42.32744
#
# Poissons Ratio (x) = 0.26568 0.87191
# Poissons Ratio (y) = 0.07959 0.14227
# Poissons Ratio (z) = 0.45135 0.24583
#
# Static dielectric constant tensor:
#      x y z
#    x 1.895910 -0.078930 0.032740 
#    y -0.078930 1.867130 -0.073720 
#    z 0.032740 -0.073720 1.851830 
# 
# From -- ./inp_files/340462.got.cif
#   From: 2010.05.17/outbox.cif.g08.bks.cpg/sg2_171_cif.got.tgz:340462.got - 2010.06.03 11:33:40.
