data_PCOD9005733
_publ_section_title
;
Structure prediction by ZEFSAII (Michael W. Deem and Ramdas Pophale) SiO2 
 PCOD9005733
Probable space group: P -1
;
_chemical_formula_sum "Si O2"
_cell_formula_units_Z 16
_cell_length_a 9.194344
_cell_length_b 18.306324
_cell_length_c 6.343586
_cell_angle_alpha 41.946208
_cell_angle_beta 84.802768
_cell_angle_gamma 93.977602
_cell_volume 695.606748
_symmetry_space_group_name_H-M "P -1"
_symmetry_group_IT_number 2
_symmetry_cell_setting 'triclinic'
loop_
_space_group_symop_operation_xyz
x,y,z
-x,-y,-z
loop_
_atom_site_type_symbol
_atom_site_label
_atom_site_fract_x
_atom_site_fract_y
_atom_site_fract_z
Si Si1 0.148425 0.659782 0.229228
Si Si2 0.409518 0.234884 0.147567
Si Si3 0.966930 0.032438 0.667666
Si Si4 0.266400 0.020767 0.884480
Si Si5 0.159983 0.478184 0.950693
Si Si6 0.646070 0.364133 0.121478
Si Si7 0.371655 0.816139 0.125801
Si Si8 0.107997 0.285511 0.066656
O O1 0.192628 0.558979 0.568867
O O2 0.216944 0.767978 0.125692
O O3 0.222000 0.663923 0.981131
O O4 0.975293 0.650603 0.227027
O O5 0.349417 0.139834 0.532849
O O6 0.508287 0.341328 0.026724
O O7 0.263458 0.265663 0.001371
O O8 0.505641 0.185662 0.066637
O O9 0.101336 0.992211 0.860951
O O10 0.001975 0.166844 0.386474
O O11 0.000000 0.000000 0.500000
O O12 0.794779 0.984807 0.857235
O O13 0.360529 0.930618 0.995073
O O14 0.286466 0.519935 0.019069
O O15 0.141677 0.354766 0.129254
O O16 0.000000 0.500000 0.000000
O O17 0.611680 0.273153 0.506225
#
# Coordination Sequence:
#
# PCOD9005733 Si02
#       8
#     2   2   2   2   2   2   2   2
#     4  10  21  40  65  95 124 160 214 268 314 374
#     4  10  24  41  59  95 133 170 213 254 320 380
#     4  10  22  39  60  99 129 161 210 265 320 366
#     4  10  21  38  63  91 130 166 215 260 310 375
#     4  11  23  40  68  98 119 163 217 263 320 378
#     4  10  22  42  61  91 129 163 216 258 311 384
#     4  10  21  40  65  90 128 176 212 258 310 375
#     4  11  22  41  65  94 130 163 208 271 317 370
#
# _framework density 23.001501999999999
#
# number of rings (size 3 to 8) (size 9 to 14) (size 15 to 20)
#    0.000    1.750    1.250    2.250    1.750    4.000 
#    4.500    5.625    0.000    0.000    0.000    0.000 
#    0.000    0.000    0.000    0.000    0.000    0.000 
#
# Total GULP energy -89392.051820 kJ/mol
# GULP energy per Si atom -5587.003239 kJ/mol
# Density = 2.294915 g / cm^3
# Si number density = 23.001502 Si / 1000 Ang^3
#
#
#
# Elastic Constant Matrix: (Units=GPa)
#
#
# Indices 1 2 3 4 5 6 
#
# 1 76.7931 15.6030 12.7979 14.8623 -18.5897 6.3822
# 2 15.6030 96.6680 27.0949 4.9686 -21.3810 -7.2292
# 3 12.7979 27.0949 61.0406 12.8917 -23.8572 -4.3790
# 4 14.8623 4.9686 12.8917 28.1645 -4.1038 -3.5566
# 5 -18.5897 -21.3810 -23.8572 -4.1038 27.8330 4.9830
# 6 6.3822 -7.2292 -4.3790 -3.5566 4.9830 23.4443
#
#
#
# Elastic Compliance Matrix: (Units=1/GPa)
#
#
# Indices 1 2 3 4 5 6 
#
# 1 0.019270 -0.000942 0.004168 -0.010832 0.015872 -0.009774
# 2 -0.000942 0.012895 -0.003048 0.000852 0.006352 0.002443
# 3 0.004168 -0.003048 0.028291 -0.011621 0.023618 -0.003573
# 4 -0.010832 0.000852 -0.011621 0.046021 -0.011635 0.010495
# 5 0.015872 0.006352 0.023618 -0.011635 0.072651 -0.015157
# 6 -0.009774 0.002443 -0.003573 0.010495 -0.015157 0.050215
#
#
# Mechanical properties :
#
#
# Convention : Reuss Voigt Hill
#
# Bulk Modulus (GPa) = 16.44471 38.38817 27.41644
# Shear Modulus (GPa) = 20.05962 27.82208 23.94085
#
# Velocity S-wave (km/s) = 2.95634 3.48167 3.22970
# Velocity P-wave (km/s) = 4.33799 5.73484 5.08461
#
# Compressibility (1/GPa) = 0.06080985
#
# Stress axis : x y z
#
# Youngs Moduli (GPa) = 51.89488 77.54960 35.34750
#
# Poissons Ratio (x) = 0.07307 -0.14733
# Poissons Ratio (y) = 0.04890 0.10775
# Poissons Ratio (z) = -0.21629 0.23640
#
# Static dielectric constant tensor:
#      x y z
#    x 1.889590 0.025980 -0.023030 
#    y 0.025980 1.889910 0.064360 
#    z -0.023030 0.064360 1.997230 
# 
# From -- ./inp_files/37235.got.cif
#   From: 2010.05.17/outbox.cif.g08.bks.cpg/sg2_19_cif.got.tgz:37235.got - 2010.06.03 11:33:40.
