data_PCOD9005919
_publ_section_title
;
Structure prediction by ZEFSAII (Michael W. Deem and Ramdas Pophale) SiO2 
 PCOD9005919
Probable space group: P -1
;
_chemical_formula_sum "Si O2"
_cell_formula_units_Z 14
_cell_length_a 7.128875
_cell_length_b 6.971398
_cell_length_c 16.367301
_cell_angle_alpha 103.337599
_cell_angle_beta 45.830815
_cell_angle_gamma 85.541449
_cell_volume 533.552239
_symmetry_space_group_name_H-M "P -1"
_symmetry_group_IT_number 2
_symmetry_cell_setting 'triclinic'
loop_
_space_group_symop_operation_xyz
x,y,z
-x,-y,-z
loop_
_atom_site_type_symbol
_atom_site_label
_atom_site_fract_x
_atom_site_fract_y
_atom_site_fract_z
Si Si1 0.774937 0.555692 0.944169
Si Si2 0.830743 0.625020 0.751732
Si Si3 0.859497 0.272311 0.472925
Si Si4 0.270601 0.998837 0.966926
Si Si5 0.945166 0.892713 0.184596
Si Si6 0.584507 0.722320 0.603278
Si Si7 0.886979 0.823103 0.387887
O O1 0.893768 0.597344 0.825395
O O2 0.696167 0.776856 0.034803
O O3 0.989620 0.341567 0.894839
O O4 0.500000 0.500000 0.000000
O O5 0.054197 0.696696 0.643090
O O6 0.855877 0.390872 0.691782
O O7 0.535035 0.800391 0.844448
O O8 0.131809 0.272646 0.440332
O O9 0.601953 0.483836 0.590511
O O10 0.845108 0.043924 0.464600
O O11 0.197414 0.960465 0.079807
O O12 0.000000 0.000000 0.000000
O O13 0.923047 0.858659 0.284757
O O14 0.668664 0.085663 0.267422
O O15 0.630553 0.762243 0.496756
#
# Coordination Sequence:
#
# PCOD9005919 Si02
#       7
#     2   2   2   2   2   2   2
#     4  11  24  43  66  92 127 174 216 256 312 384
#     4  10  22  39  63  92 123 168 216 251 316 387
#     4  10  21  38  64  87 126 166 205 258 320 378
#     4  12  26  41  65  97 132 167 209 267 324 374
#     4  11  24  41  62  93 128 163 214 264 314 374
#     4  10  22  40  58  93 126 159 210 261 317 373
#     4  10  22  38  65  89 117 170 212 257 310 377
#
# _framework density 26.239232000000001
#
# number of rings (size 3 to 8) (size 9 to 14) (size 15 to 20)
#    0.000    1.429    1.429    3.000    4.000    3.429 
#    0.000    0.000    0.000    0.000    0.000    0.000 
#    0.000    0.000    0.000    0.000    0.000    0.000 
#
# Total GULP energy -78318.754603 kJ/mol
# GULP energy per Si atom -5594.196757 kJ/mol
# Density = 2.617951 g / cm^3
# Si number density = 26.239232 Si / 1000 Ang^3
#
#
#
# Elastic Constant Matrix: (Units=GPa)
#
#
# Indices 1 2 3 4 5 6 
#
# 1 61.0795 49.5441 25.6041 24.3622 -11.9181 2.0530
# 2 49.5441 228.6355 89.9311 76.8461 -13.2351 11.6090
# 3 25.6041 89.9311 152.7711 55.1312 -32.0842 -15.5703
# 4 24.3622 76.8461 55.1312 93.9747 -20.9171 13.5737
# 5 -11.9181 -13.2351 -32.0842 -20.9171 29.5164 -1.6586
# 6 2.0530 11.6090 -15.5703 13.5737 -1.6586 35.5004
#
#
#
# Elastic Compliance Matrix: (Units=1/GPa)
#
#
# Indices 1 2 3 4 5 6 
#
# 1 0.021195 -0.004221 0.000992 -0.001291 0.006909 0.001406
# 2 -0.004221 0.008018 -0.004054 -0.003867 -0.005421 -0.002930
# 3 0.000992 -0.004054 0.013282 -0.003586 0.010983 0.008978
# 4 -0.001291 -0.003867 -0.003586 0.018769 0.006749 -0.007095
# 5 0.006909 -0.005421 0.010983 0.006749 0.051297 0.006007
# 6 0.001406 -0.002930 0.008978 -0.007095 0.006007 0.035977
#
#
# Mechanical properties :
#
#
# Convention : Reuss Voigt Hill
#
# Bulk Modulus (GPa) = 35.80385 85.84939 60.82662
# Shear Modulus (GPa) = 29.00024 50.29210 39.64617
#
# Velocity S-wave (km/s) = 3.32810 4.38274 3.89131
# Velocity P-wave (km/s) = 5.33321 7.64200 6.58951
#
# Compressibility (1/GPa) = 0.02792996
#
# Stress axis : x y z
#
# Youngs Moduli (GPa) = 47.17986 124.72253 75.29199
#
# Poissons Ratio (x) = 0.52645 -0.07473
# Poissons Ratio (y) = 0.19914 0.30523
# Poissons Ratio (z) = -0.04682 0.50562
#
# Static dielectric constant tensor:
#      x y z
#    x 2.174300 -0.014160 0.066580 
#    y -0.014160 2.060560 0.022330 
#    z 0.066580 0.022330 2.072810 
# 
# From -- ./inp_files/90469.got.cif
#   From: 2010.05.17/outbox.cif.g08.bks.cpg/sg2_46_cif.got.tgz:90469.got - 2010.06.03 11:33:40.
