data_PCOD9005130
_publ_section_title
;
Structure prediction by ZEFSAII (Michael W. Deem and Ramdas Pophale) SiO2 
 PCOD9005130
Probable space group: P -1
;
_chemical_formula_sum "Si O2"
_cell_formula_units_Z 14
_cell_length_a 9.965356
_cell_length_b 21.979308
_cell_length_c 14.576921
_cell_angle_alpha 158.603758
_cell_angle_beta 44.542166
_cell_angle_gamma 142.049630
_cell_volume 713.033296
_symmetry_space_group_name_H-M "P -1"
_symmetry_group_IT_number 2
_symmetry_cell_setting 'triclinic'
loop_
_space_group_symop_operation_xyz
x,y,z
-x,-y,-z
loop_
_atom_site_type_symbol
_atom_site_label
_atom_site_fract_x
_atom_site_fract_y
_atom_site_fract_z
Si Si1 0.956608 0.924885 0.700916
Si Si2 0.502285 0.346223 0.355244
Si Si3 0.104868 0.972360 0.501571
Si Si4 0.680036 0.656004 0.844592
Si Si5 0.488811 0.389571 0.943000
Si Si6 0.926335 0.389001 0.782285
Si Si7 0.667469 0.277602 0.009341
O O1 0.727951 0.796861 0.684825
O O2 0.931630 0.909546 0.581148
O O3 0.107294 0.823308 0.497789
O O4 0.092092 0.146010 0.976873
O O5 0.500000 0.500000 0.500000
O O6 0.669436 0.489736 0.551109
O O7 0.570524 0.224585 0.084267
O O8 0.305082 0.172864 0.714473
O O9 0.214313 0.839410 0.245597
O O10 0.000000 0.000000 0.500000
O O11 0.509716 0.718732 0.969761
O O12 0.585575 0.559411 0.853481
O O13 0.719451 0.400686 0.864626
O O14 0.500000 0.500000 0.000000
O O15 0.132363 0.507384 0.782731
O O16 0.000000 0.500000 0.000000
#
# Coordination Sequence:
#
# PCOD9005130 Si02
#       7
#     2   2   2   2   2   2   2
#     4  11  21  38  64  89 124 159 208 257 305 364
#     4  10  21  38  60  93 123 165 197 256 309 364
#     4  11  24  39  62  89 123 164 209 259 309 364
#     4  10  21  38  61  91 124 159 207 252 305 368
#     4  11  23  37  61  93 122 161 210 258 312 363
#     4  12  19  35  64  90 125 162 198 264 311 352
#     4  11  21  37  60  94 122 158 208 250 309 369
#
# _framework density 19.634426999999999
#
# number of rings (size 3 to 8) (size 9 to 14) (size 15 to 20)
#    0.000    1.143    5.714    1.714    2.000    4.571 
#    2.571    0.714    0.000    2.571    0.000    0.000 
#    0.000    0.000    0.000    0.000    0.000    0.000 
#
# Total GULP energy -78046.758189 kJ/mol
# GULP energy per Si atom -5574.768442 kJ/mol
# Density = 1.958974 g / cm^3
# Si number density = 19.634427 Si / 1000 Ang^3
#
#
#
# Elastic Constant Matrix: (Units=GPa)
#
#
# Indices 1 2 3 4 5 6 
#
# 1 72.1495 32.7672 4.9720 -10.5926 17.5393 -13.1161
# 2 32.7672 158.2875 39.4765 -16.3697 14.9659 -13.3312
# 3 4.9720 39.4765 54.4858 -10.4318 19.8209 -8.8904
# 4 -10.5926 -16.3697 -10.4318 28.4266 -4.8204 5.8318
# 5 17.5393 14.9659 19.8209 -4.8204 22.0357 0.2801
# 6 -13.1161 -13.3312 -8.8904 5.8318 0.2801 31.2097
#
#
#
# Elastic Compliance Matrix: (Units=1/GPa)
#
#
# Indices 1 2 3 4 5 6 
#
# 1 0.024678 -0.004476 0.014174 0.004543 -0.028510 0.011904
# 2 -0.004476 0.008771 -0.007430 0.001563 0.004638 -0.000584
# 3 0.014174 -0.007430 0.041182 0.006157 -0.042106 0.013742
# 4 0.004543 0.001563 0.006157 0.040467 -0.001323 -0.003219
# 5 -0.028510 0.004638 -0.042106 -0.001323 0.102797 -0.022670
# 6 0.011904 -0.000584 0.013742 -0.003219 -0.022670 0.041514
#
#
# Mechanical properties :
#
#
# Convention : Reuss Voigt Hill
#
# Bulk Modulus (GPa) = 12.63132 48.81714 30.72423
# Shear Modulus (GPa) = 17.77723 30.18154 23.97939
#
# Velocity S-wave (km/s) = 3.01227 3.92493 3.49849
# Velocity P-wave (km/s) = 4.30646 6.74219 5.65698
#
# Compressibility (1/GPa) = 0.07916826
#
# Stress axis : x y z
#
# Youngs Moduli (GPa) = 40.52258 114.01237 24.28272
#
# Poissons Ratio (x) = 0.51027 -0.34419
# Poissons Ratio (y) = 0.18136 0.18041
# Poissons Ratio (z) = -0.57438 0.84707
#
# Static dielectric constant tensor:
#      x y z
#    x 1.670450 -0.025530 -0.001690 
#    y -0.025530 1.753450 -0.029420 
#    z -0.001690 -0.029420 1.760970 
# 
# From -- ./inp_files/331047.got.cif
#   From: 2010.05.17/outbox.cif.g08.bks.cpg/sg2_166_cif.got.tgz:331047.got - 2010.06.03 11:33:40.
