data_PCOD9005756
_publ_section_title
;
Structure prediction by ZEFSAII (Michael W. Deem and Ramdas Pophale) SiO2 
 PCOD9005756
Probable space group: P -1
;
_chemical_formula_sum "Si O2"
_cell_formula_units_Z 16
_cell_length_a 9.992971
_cell_length_b 12.349634
_cell_length_c 11.254363
_cell_angle_alpha 145.503898
_cell_angle_beta 119.447126
_cell_angle_gamma 80.400234
_cell_volume 599.626307
_symmetry_space_group_name_H-M "P -1"
_symmetry_group_IT_number 2
_symmetry_cell_setting 'triclinic'
loop_
_space_group_symop_operation_xyz
x,y,z
-x,-y,-z
loop_
_atom_site_type_symbol
_atom_site_label
_atom_site_fract_x
_atom_site_fract_y
_atom_site_fract_z
Si Si1 0.781326 0.898124 0.559382
Si Si2 0.076789 0.205237 0.129600
Si Si3 0.492677 0.026574 0.363379
Si Si4 0.617993 0.865296 0.837963
Si Si5 0.133968 0.775472 0.389791
Si Si6 0.228668 0.670025 0.579371
Si Si7 0.202101 0.235588 0.826671
Si Si8 0.561620 0.454571 0.114705
O O1 0.806012 0.845371 0.387800
O O2 0.738792 0.676960 0.413425
O O3 0.610742 0.928446 0.536557
O O4 0.943599 0.108051 0.873332
O O5 0.270152 0.257478 0.221175
O O6 0.112107 0.446276 0.395347
O O7 0.000000 0.000000 0.000000
O O8 0.432832 0.101248 0.286249
O O9 0.704013 0.166833 0.575507
O O10 0.431114 0.769180 0.087288
O O11 0.437584 0.749074 0.727744
O O12 0.754989 0.111705 0.160160
O O13 0.146163 0.644543 0.388709
O O14 0.946173 0.692237 0.169353
O O15 0.172565 0.014192 0.675929
O O16 0.401655 0.416746 0.097203
O O17 0.500000 0.500000 0.000000
#
# Coordination Sequence:
#
# PCOD9005756 Si02
#       8
#     2   2   2   2   2   2   2   2
#     4  11  23  40  62  93 131 167 207 270 325 380
#     4  12  25  40  61  99 134 167 216 267 320 390
#     4  10  21  38  63  92 126 164 214 263 322 387
#     4  10  22  43  65  92 126 173 217 265 321 387
#     4   9  19  40  63  92 122 165 217 267 313 390
#     4  10  23  42  67  90 130 175 214 265 327 380
#     4   9  19  40  67  91 127 164 221 268 322 385
#     4   9  21  38  60  88 124 167 204 259 325 374
#
# _framework density 26.683287
#
# number of rings (size 3 to 8) (size 9 to 14) (size 15 to 20)
#    0.000    2.000    1.250    1.125    1.750    8.000 
#    0.000    8.750    0.000    0.000    0.000    0.000 
#    0.000    0.000    0.000    0.000    0.000    0.000 
#
# Total GULP energy -89513.765774 kJ/mol
# GULP energy per Si atom -5594.610361 kJ/mol
# Density = 2.662255 g / cm^3
# Si number density = 26.683287 Si / 1000 Ang^3
#
#
#
# Elastic Constant Matrix: (Units=GPa)
#
#
# Indices 1 2 3 4 5 6 
#
# 1 113.7066 33.5579 12.1848 -4.1229 -2.0835 -18.1096
# 2 33.5579 74.7330 45.6787 13.1045 10.2803 -2.2027
# 3 12.1848 45.6787 143.9145 31.9846 -2.2705 0.1756
# 4 -4.1229 13.1045 31.9846 44.2649 0.3792 4.4650
# 5 -2.0835 10.2803 -2.2705 0.3792 27.3392 -1.4858
# 6 -18.1096 -2.2027 0.1756 4.4650 -1.4858 35.5213
#
#
#
# Elastic Compliance Matrix: (Units=1/GPa)
#
#
# Indices 1 2 3 4 5 6 
#
# 1 0.011564 -0.006238 0.000630 0.001892 0.003547 0.005416
# 2 -0.006238 0.021380 -0.005865 -0.002403 -0.009072 -0.001903
# 3 0.000630 -0.005865 0.010043 -0.005564 0.003205 0.000741
# 4 0.001892 -0.002403 -0.005564 0.027766 0.000057 -0.002645
# 5 0.003547 -0.009072 0.003205 0.000057 0.040683 0.002925
# 6 0.005416 -0.001903 0.000741 -0.002645 0.002925 0.031247
#
#
# Mechanical properties :
#
#
# Convention : Reuss Voigt Hill
#
# Bulk Modulus (GPa) = 49.89610 57.24410 53.57010
# Shear Modulus (GPa) = 29.01770 37.48726 33.25248
#
# Velocity S-wave (km/s) = 3.30128 3.75226 3.53397
# Velocity P-wave (km/s) = 5.76813 6.34605 6.06398
#
# Compressibility (1/GPa) = 0.02004165
#
# Stress axis : x y z
#
# Youngs Moduli (GPa) = 86.47340 46.77322 99.57225
#
# Poissons Ratio (x) = 0.29176 -0.06269
# Poissons Ratio (y) = 0.53940 0.58395
# Poissons Ratio (z) = -0.05444 0.27430
#
# Static dielectric constant tensor:
#      x y z
#    x 2.106320 0.015840 0.042160 
#    y 0.015840 2.145470 -0.015560 
#    z 0.042160 -0.015560 2.194640 
# 
# From -- ./inp_files/521945.got.cif
#   From: 2010.05.17/outbox.cif.g08.bks.cpg/sg2_261_cif.got.tgz:521945.got - 2010.06.03 11:33:40.
