data_PCOD9005036
_publ_section_title
;
Structure prediction by ZEFSAII (Michael W. Deem and Ramdas Pophale) SiO2 
 PCOD9005036
Probable space group: P -1
;
_chemical_formula_sum "Si O2"
_cell_formula_units_Z 12
_cell_length_a 15.099491
_cell_length_b 8.959735
_cell_length_c 11.645734
_cell_angle_alpha 123.232782
_cell_angle_beta 147.874024
_cell_angle_gamma 40.175209
_cell_volume 517.497145
_symmetry_space_group_name_H-M "P -1"
_symmetry_group_IT_number 2
_symmetry_cell_setting 'triclinic'
loop_
_space_group_symop_operation_xyz
x,y,z
-x,-y,-z
loop_
_atom_site_type_symbol
_atom_site_label
_atom_site_fract_x
_atom_site_fract_y
_atom_site_fract_z
Si Si1 0.068478 0.871867 0.898303
Si Si2 0.739026 0.155273 0.129365
Si Si3 0.984301 0.489861 0.304182
Si Si4 0.804181 0.350101 0.484300
Si Si5 0.601697 0.287785 0.431522
Si Si6 0.370636 0.125403 0.760974
O O1 0.248289 0.825849 0.986535
O O2 0.117502 0.630637 0.878762
O O3 0.845138 0.059726 0.654863
O O4 0.000000 0.000000 0.000000
O O5 0.742380 0.339046 0.281263
O O6 0.543681 0.162639 0.956321
O O7 0.967490 0.904309 0.324610
O O8 0.781265 0.761276 0.242383
O O9 0.130266 0.489464 0.369729
O O10 0.175394 0.309926 0.532511
O O11 0.621236 0.391890 0.382499
O O12 0.500000 0.500000 0.500000
O O13 0.513466 0.150643 0.251711
#
# Coordination Sequence:
#
# PCOD9005036 Si02
#       6
#     2   2   2   2   2   2
#     4  10  23  41  59  85 121 156 193 241 294 347
#     4  10  21  38  61  88 118 155 197 240 291 348
#     4  10  21  38  60  88 119 152 197 245 287 345
#     4  10  21  38  60  88 119 152 197 245 287 345
#     4  10  23  41  59  85 121 156 193 241 294 347
#     4  10  21  38  61  88 118 155 197 240 291 348
#
# _framework density 23.188533
#
# number of rings (size 3 to 8) (size 9 to 14) (size 15 to 20)
#    0.000    2.000    0.000    5.000    0.000   10.667 
#    0.000    6.667    0.000    0.000    0.000    0.000 
#    0.000    0.000    0.000    0.000    0.000    0.000 
#
# Total GULP energy -66933.845741 kJ/mol
# GULP energy per Si atom -5577.820478 kJ/mol
# Density = 2.313575 g / cm^3
# Si number density = 23.188533 Si / 1000 Ang^3
#
#
#
# Elastic Constant Matrix: (Units=GPa)
#
#
# Indices 1 2 3 4 5 6 
#
# 1 151.6534 45.1101 46.2448 25.5616 6.7883 20.8173
# 2 45.1101 121.7739 19.4742 18.7359 12.5470 12.5109
# 3 46.2448 19.4742 82.5317 8.1987 16.8292 -0.1142
# 4 25.5616 18.7359 8.1987 29.0600 8.2317 5.1919
# 5 6.7883 12.5470 16.8292 8.2317 41.1719 3.5567
# 6 20.8173 12.5109 -0.1142 5.1919 3.5567 31.1806
#
#
#
# Elastic Compliance Matrix: (Units=1/GPa)
#
#
# Indices 1 2 3 4 5 6 
#
# 1 0.010470 -0.001752 -0.005394 -0.006346 0.002762 -0.005565
# 2 -0.001752 0.009927 -0.000669 -0.003885 -0.001514 -0.001996
# 3 -0.005394 -0.000669 0.016437 0.001541 -0.006313 0.004393
# 4 -0.006346 -0.003885 0.001541 0.044230 -0.007179 -0.000745
# 5 0.002762 -0.001514 -0.006313 -0.007179 0.028598 -0.003326
# 6 -0.005565 -0.001996 0.004393 -0.000745 -0.003326 0.037107
#
#
# Mechanical properties :
#
#
# Convention : Reuss Voigt Hill
#
# Bulk Modulus (GPa) = 47.16013 64.17969 55.66991
# Shear Modulus (GPa) = 29.50465 36.62450 33.06457
#
# Velocity S-wave (km/s) = 3.57091 3.97851 3.78021
# Velocity P-wave (km/s) = 6.11423 6.98871 6.56604
#
# Compressibility (1/GPa) = 0.02120435
#
# Stress axis : x y z
#
# Youngs Moduli (GPa) = 95.51235 100.73802 60.83923
#
# Poissons Ratio (x) = 0.17653 0.32814
# Poissons Ratio (y) = 0.16737 0.04068
# Poissons Ratio (z) = 0.51515 0.06735
#
# Static dielectric constant tensor:
#      x y z
#    x 1.904410 -0.046760 -0.030330 
#    y -0.046760 1.932060 -0.000420 
#    z -0.030330 -0.000420 1.924230 
# 
# From -- ./inp_files/171031.got.cif
#   From: 2010.05.17/outbox.cif.g08.bks.cpg/sg2_86_cif.got.tgz:171031.got - 2010.06.03 11:33:40.
