data_PCOD9005855
_publ_section_title
;
Structure prediction by ZEFSAII (Michael W. Deem and Ramdas Pophale) SiO2 
 PCOD9005855
Probable space group: P -1
;
_chemical_formula_sum "Si O2"
_cell_formula_units_Z 14
_cell_length_a 12.009657
_cell_length_b 17.279382
_cell_length_c 5.079926
_cell_angle_alpha 81.143663
_cell_angle_beta 88.661415
_cell_angle_gamma 145.731583
_cell_volume 564.608948
_symmetry_space_group_name_H-M "P -1"
_symmetry_group_IT_number 2
_symmetry_cell_setting 'triclinic'
loop_
_space_group_symop_operation_xyz
x,y,z
-x,-y,-z
loop_
_atom_site_type_symbol
_atom_site_label
_atom_site_fract_x
_atom_site_fract_y
_atom_site_fract_z
Si Si1 0.231047 0.076523 0.227723
Si Si2 0.934498 0.334995 0.038047
Si Si3 0.993129 0.894737 0.812440
Si Si4 0.360767 0.622693 0.111139
Si Si5 0.413517 0.404354 0.805138
Si Si6 0.271078 0.706901 0.428989
Si Si7 0.603581 0.021297 0.234412
O O1 0.149896 0.116653 0.266879
O O2 0.476864 0.226577 0.133958
O O3 0.124214 0.955818 0.508816
O O4 0.147626 0.010510 0.974943
O O5 0.825440 0.326464 0.268495
O O6 0.173249 0.481707 0.017606
O O7 0.837563 0.189944 0.139485
O O8 0.863599 0.325927 0.765453
O O9 0.829757 0.743217 0.048919
O O10 0.493566 0.627874 0.198314
O O11 0.277325 0.623075 0.361760
O O12 0.500000 0.500000 0.500000
O O13 0.500000 0.500000 0.000000
O O14 0.504398 0.877201 0.312559
O O15 0.500000 0.000000 0.500000
O O16 0.500000 0.000000 0.000000
#
# Coordination Sequence:
#
# PCOD9005855 Si02
#       7
#     2   2   2   2   2   2   2
#     4   9  19  34  60  91 117 160 208 269 319 391
#     4  10  21  38  63  96 139 171 210 273 339 397
#     4   9  18  38  61  83 122 161 210 265 331 372
#     4  11  24  40  66 103 131 176 229 276 332 402
#     4  11  25  44  67  93 134 178 224 278 337 396
#     4  10  21  38  63  96 136 173 218 270 331 400
#     4   8  16  34  58  84 124 174 205 252 322 392
#
# _framework density 24.795923999999999
#
# number of rings (size 3 to 8) (size 9 to 14) (size 15 to 20)
#    0.000    2.286    0.000    1.714    0.000    8.000 
#    2.571    0.000   18.857    0.000    0.000    0.000 
#    0.000    0.286    0.000    0.000    0.000    0.000 
#
# Total GULP energy -78288.485905 kJ/mol
# GULP energy per Si atom -5592.034707 kJ/mol
# Density = 2.473949 g / cm^3
# Si number density = 24.795924 Si / 1000 Ang^3
#
#
#
# Elastic Constant Matrix: (Units=GPa)
#
#
# Indices 1 2 3 4 5 6 
#
# 1 60.9310 22.9114 29.4042 -17.4624 0.7407 17.6331
# 2 22.9114 161.6943 36.6406 -35.9961 -9.0359 17.2357
# 3 29.4042 36.6406 171.7298 -14.8036 -2.6197 8.9962
# 4 -17.4624 -35.9961 -14.8036 50.8774 4.1848 -6.9946
# 5 0.7407 -9.0359 -2.6197 4.1848 20.8114 -7.5649
# 6 17.6331 17.2357 8.9962 -6.9946 -7.5649 35.2927
#
#
#
# Elastic Compliance Matrix: (Units=1/GPa)
#
#
# Indices 1 2 3 4 5 6 
#
# 1 0.022765 -0.000546 -0.002833 0.005668 -0.006410 -0.010636
# 2 -0.000546 0.007839 -0.001048 0.004642 0.001623 -0.002020
# 3 -0.002833 -0.001048 0.006536 0.000198 0.000583 0.000426
# 4 0.005668 0.004642 0.000198 0.025106 -0.003549 -0.000934
# 5 -0.006410 0.001623 0.000583 -0.003549 0.054590 0.013259
# 6 -0.010636 -0.002020 0.000426 -0.000934 0.013259 0.037183
#
#
# Mechanical properties :
#
#
# Convention : Reuss Voigt Hill
#
# Bulk Modulus (GPa) = 35.35644 63.58526 49.47085
# Shear Modulus (GPa) = 29.01872 41.75622 35.38747
#
# Velocity S-wave (km/s) = 3.42468 4.10810 3.78186
# Velocity P-wave (km/s) = 5.47063 6.94270 6.25016
#
# Compressibility (1/GPa) = 0.02828339
#
# Stress axis : x y z
#
# Youngs Moduli (GPa) = 43.92730 127.56753 153.00925
#
# Poissons Ratio (x) = 0.06971 0.43353
# Poissons Ratio (y) = 0.02400 0.16039
# Poissons Ratio (z) = 0.12446 0.13372
#
# Static dielectric constant tensor:
#      x y z
#    x 2.002610 -0.001330 0.027420 
#    y -0.001330 1.973600 -0.078080 
#    z 0.027420 -0.078080 1.990190 
# 
# From -- ./inp_files/41109.got.cif
#   From: 2010.05.17/outbox.cif.g08.bks.cpg/sg2_21_cif.got.tgz:41109.got - 2010.06.03 11:33:40.
