data_PCOD9005270
_publ_section_title
;
Structure prediction by ZEFSAII (Michael W. Deem and Ramdas Pophale) SiO2 
 PCOD9005270
Probable space group: P -1
;
_chemical_formula_sum "Si O2"
_cell_formula_units_Z 12
_cell_length_a 15.149268
_cell_length_b 12.874027
_cell_length_c 8.608323
_cell_angle_alpha 135.706284
_cell_angle_beta 149.384667
_cell_angle_gamma 35.714072
_cell_volume 498.289951
_symmetry_space_group_name_H-M "P -1"
_symmetry_group_IT_number 2
_symmetry_cell_setting 'triclinic'
loop_
_space_group_symop_operation_xyz
x,y,z
-x,-y,-z
loop_
_atom_site_type_symbol
_atom_site_label
_atom_site_fract_x
_atom_site_fract_y
_atom_site_fract_z
Si Si1 0.784285 0.273300 0.564322
Si Si2 0.214534 0.050614 0.114159
Si Si3 0.921651 0.695241 0.525640
Si Si4 0.743458 0.400181 0.296800
Si Si5 0.589929 0.770009 0.550735
Si Si6 0.610242 0.674749 0.827178
O O1 0.802472 0.290515 0.427040
O O2 0.737385 0.459285 0.766863
O O3 0.584467 0.270183 0.300016
O O4 0.992277 0.108762 0.776239
O O5 0.173321 0.168278 0.331301
O O6 0.317520 0.110625 0.207249
O O7 0.388399 0.854496 0.225232
O O8 0.000000 0.500000 0.500000
O O9 0.109603 0.694990 0.728903
O O10 0.752053 0.733370 0.180520
O O11 0.761151 0.569096 0.542533
O O12 0.500000 0.500000 0.000000
O O13 0.537524 0.757439 0.634654
#
# Coordination Sequence:
#
# PCOD9005270 Si02
#       6
#     2   2   2   2   2   2
#     4  10  21  38  61  90 120 160 203 243 303 352
#     4  11  23  40  64  91 123 160 195 253 301 359
#     4  12  21  37  65  92 118 156 210 246 292 353
#     4  11  23  40  65  91 120 158 206 250 293 358
#     4  10  23  41  62  88 127 159 198 242 314 353
#     4  10  21  38  62  89 121 160 202 248 291 365
#
# _framework density 24.082363999999998
#
# number of rings (size 3 to 8) (size 9 to 14) (size 15 to 20)
#    0.000    1.333    3.333    2.000    4.667    4.000 
#    0.000    0.833    0.000    0.000    0.000    0.000 
#    0.000    0.000    0.000    0.000    0.000    0.000 
#
# Total GULP energy -67248.470819 kJ/mol
# GULP energy per Si atom -5604.039235 kJ/mol
# Density = 2.402755 g / cm^3
# Si number density = 24.082364 Si / 1000 Ang^3
#
#
#
# Elastic Constant Matrix: (Units=GPa)
#
#
# Indices 1 2 3 4 5 6 
#
# 1 128.0586 31.3810 7.3493 -5.6804 16.7734 11.2895
# 2 31.3810 94.0537 11.2628 -11.7170 -5.0450 0.9596
# 3 7.3493 11.2628 89.9382 -17.0777 8.2900 -1.7339
# 4 -5.6804 -11.7170 -17.0777 30.7396 -1.3553 -5.2686
# 5 16.7734 -5.0450 8.2900 -1.3553 39.2512 -6.3399
# 6 11.2895 0.9596 -1.7339 -5.2686 -6.3399 23.8156
#
#
#
# Elastic Compliance Matrix: (Units=1/GPa)
#
#
# Indices 1 2 3 4 5 6 
#
# 1 0.009993 -0.003685 -0.000130 -0.000973 -0.005776 -0.006351
# 2 -0.003685 0.012693 -0.000749 0.004476 0.004043 0.003247
# 3 -0.000130 -0.000749 0.012801 0.007050 -0.002177 0.002004
# 4 -0.000973 0.004476 0.007050 0.039849 0.002540 0.010286
# 5 -0.005776 0.004043 -0.002177 0.002540 0.030819 0.011182
# 6 -0.006351 0.003247 0.002004 0.010286 0.011182 0.050267
#
#
# Mechanical properties :
#
#
# Convention : Reuss Voigt Hill
#
# Bulk Modulus (GPa) = 37.93653 45.78184 41.85919
# Shear Modulus (GPa) = 28.68058 36.23178 32.45618
#
# Velocity S-wave (km/s) = 3.45474 3.88299 3.67511
# Velocity P-wave (km/s) = 5.63033 6.25742 5.95214
#
# Compressibility (1/GPa) = 0.02635982
#
# Stress axis : x y z
#
# Youngs Moduli (GPa) = 100.07474 78.78590 78.11858
#
# Poissons Ratio (x) = 0.29030 0.01015
# Poissons Ratio (y) = 0.36875 0.05847
# Poissons Ratio (z) = 0.01301 0.05897
#
# Static dielectric constant tensor:
#      x y z
#    x 1.839820 -0.003070 0.005120 
#    y -0.003070 1.933730 0.040130 
#    z 0.005120 0.040130 1.930070 
# 
# From -- ./inp_files/144802.got.cif
#   From: 2010.05.17/outbox.cif.g08.bks.cpg/sg2_73_cif.got.tgz:144802.got - 2010.06.03 11:33:40.
