data_PCOD9005182
_publ_section_title
;
Structure prediction by ZEFSAII (Michael W. Deem and Ramdas Pophale) SiO2 
 PCOD9005182
Probable space group: P -1
;
_chemical_formula_sum "Si O2"
_cell_formula_units_Z 16
_cell_length_a 23.234586
_cell_length_b 7.699161
_cell_length_c 9.599304
_cell_angle_alpha 124.404016
_cell_angle_beta 50.849423
_cell_angle_gamma 86.119512
_cell_volume 822.220418
_symmetry_space_group_name_H-M "P -1"
_symmetry_group_IT_number 2
_symmetry_cell_setting 'triclinic'
loop_
_space_group_symop_operation_xyz
x,y,z
-x,-y,-z
loop_
_atom_site_type_symbol
_atom_site_label
_atom_site_fract_x
_atom_site_fract_y
_atom_site_fract_z
Si Si1 0.599974 0.400926 0.371116
Si Si2 0.571281 0.731841 0.167963
Si Si3 0.441006 0.051854 0.251502
Si Si4 0.289441 0.931711 0.684834
Si Si5 0.232821 0.464594 0.112837
Si Si6 0.682735 0.120238 0.694687
Si Si7 0.203889 0.978931 0.276094
Si Si8 0.892845 0.674675 0.677590
O O1 0.500000 0.500000 0.500000
O O2 0.599074 0.655210 0.490987
O O3 0.620875 0.289165 0.447648
O O4 0.696479 0.152256 0.023351
O O5 0.677587 0.649624 0.970583
O O6 0.500000 0.000000 0.500000
O O7 0.516000 0.821326 0.147210
O O8 0.604056 0.433831 0.023231
O O9 0.362853 0.023352 0.314232
O O10 0.500000 0.000000 0.000000
O O11 0.297633 0.837113 0.473239
O O12 0.279243 0.204882 0.819118
O O13 0.189134 0.054425 0.975466
O O14 0.200752 0.736682 0.207453
O O15 0.145670 0.495054 0.332414
O O16 0.778788 0.945117 0.566746
O O17 0.117674 0.217325 0.413494
O O18 0.000000 0.500000 0.500000
#
# Coordination Sequence:
#
# PCOD9005182 Si02
#       8
#     2   2   2   2   2   2   2   2
#     4  11  21  36  55  83 122 163 212 244 288 357
#     4  11  22  37  56  80 118 165 207 234 289 360
#     4  12  24  31  51  83 119 164 204 239 294 341
#     4   9  20  38  59  83 118 150 199 254 301 350
#     4   9  20  37  62  84 118 154 203 243 302 354
#     4  11  22  38  53  83 124 158 201 255 299 355
#     4  10  21  38  61  86 116 160 198 247 300 371
#     4   9  21  41  67  89 114 151 204 257 310 372
#
# _framework density 19.459500999999999
#
# number of rings (size 3 to 8) (size 9 to 14) (size 15 to 20)
#    0.750    1.000    0.000    5.625    1.750    3.500 
#    0.000    0.625    0.000    3.000    0.000    0.000 
#    0.000    0.000    0.000    0.000    0.000    0.000 
#
# Total GULP energy -89231.039549 kJ/mol
# GULP energy per Si atom -5576.939972 kJ/mol
# Density = 1.941521 g / cm^3
# Si number density = 19.459501 Si / 1000 Ang^3
#
#
#
# Elastic Constant Matrix: (Units=GPa)
#
#
# Indices 1 2 3 4 5 6 
#
# 1 140.6091 69.1945 30.3733 16.2861 -9.5759 -17.1339
# 2 69.1945 116.3966 9.8064 2.6364 -5.2603 -20.4077
# 3 30.3733 9.8064 31.0578 1.9819 1.5790 -8.0034
# 4 16.2861 2.6364 1.9819 22.7335 -3.5268 7.7364
# 5 -9.5759 -5.2603 1.5790 -3.5268 31.6135 1.9350
# 6 -17.1339 -20.4077 -8.0034 7.7364 1.9350 48.4832
#
#
#
# Elastic Compliance Matrix: (Units=1/GPa)
#
#
# Indices 1 2 3 4 5 6 
#
# 1 0.014273 -0.006974 -0.010940 -0.008583 0.002656 0.001566
# 2 -0.006974 0.012963 0.003432 0.002080 -0.000093 0.003230
# 3 -0.010940 0.003432 0.043200 0.001289 -0.005045 0.004705
# 4 -0.008583 0.002080 0.001289 0.054123 0.004378 -0.010756
# 5 0.002656 -0.000093 -0.005045 0.004378 0.033281 -0.001960
# 6 0.001566 0.003230 0.004705 -0.010756 -0.001960 0.025110
#
#
# Mechanical properties :
#
#
# Convention : Reuss Voigt Hill
#
# Bulk Modulus (GPa) = 24.11311 56.31244 40.21278
# Shear Modulus (GPa) = 22.14942 32.47866 27.31404
#
# Velocity S-wave (km/s) = 3.37743 4.08982 3.75058
# Velocity P-wave (km/s) = 5.25621 7.16263 6.28216
#
# Compressibility (1/GPa) = 0.04147122
#
# Stress axis : x y z
#
# Youngs Moduli (GPa) = 70.06222 77.14162 23.14813
#
# Poissons Ratio (x) = 0.53800 0.25324
# Poissons Ratio (y) = 0.48863 -0.07944
# Poissons Ratio (z) = 0.76648 -0.26473
#
# Static dielectric constant tensor:
#      x y z
#    x 1.684770 0.003130 0.009690 
#    y 0.003130 1.743950 -0.003510 
#    z 0.009690 -0.003510 1.728050 
# 
# From -- ./inp_files/329556.got.cif
#   From: 2010.05.17/outbox.cif.g08.bks.cpg/sg2_165_cif.got.tgz:329556.got - 2010.06.03 11:33:40.
