data_PCOD9005689
_publ_section_title
;
Structure prediction by ZEFSAII (Michael W. Deem and Ramdas Pophale) SiO2 
 PCOD9005689
Probable space group: P -1
;
_chemical_formula_sum "Si O2"
_cell_formula_units_Z 14
_cell_length_a 8.133949
_cell_length_b 11.303725
_cell_length_c 14.560158
_cell_angle_alpha 122.904303
_cell_angle_beta 40.837914
_cell_angle_gamma 138.167019
_cell_volume 583.225460
_symmetry_space_group_name_H-M "P -1"
_symmetry_group_IT_number 2
_symmetry_cell_setting 'triclinic'
loop_
_space_group_symop_operation_xyz
x,y,z
-x,-y,-z
loop_
_atom_site_type_symbol
_atom_site_label
_atom_site_fract_x
_atom_site_fract_y
_atom_site_fract_z
Si Si1 0.396451 0.243914 0.925166
Si Si2 0.544635 0.151928 0.483751
Si Si3 0.514832 0.693050 0.866741
Si Si4 0.231987 0.858771 0.800656
Si Si5 0.152037 0.816240 0.085348
Si Si6 0.847955 0.979972 0.692390
Si Si7 0.526551 0.366901 0.736991
O O1 0.637629 0.373474 0.796801
O O2 0.313621 0.053962 0.853272
O O3 0.465716 0.268608 0.015807
O O4 0.103679 0.256164 0.055417
O O5 0.786710 0.202248 0.321174
O O6 0.638597 0.308149 0.580630
O O7 0.500000 0.000000 0.500000
O O8 0.196823 0.057643 0.544632
O O9 0.775661 0.852908 0.756717
O O10 0.523697 0.529733 0.780764
O O11 0.200165 0.677147 0.969341
O O12 0.521032 0.872404 0.729834
O O13 0.852539 0.795075 0.162763
O O14 0.104538 0.839506 0.221592
O O15 0.500000 0.000000 0.000000
#
# Coordination Sequence:
#
# PCOD9005689 Si02
#       7
#     2   2   2   2   2   2   2
#     4  11  22  36  63  90 121 156 205 253 300 350
#     4  11  22  41  63  89 120 160 207 247 300 359
#     4  11  21  37  60  92 124 155 198 249 310 357
#     4  11  22  38  64  91 116 158 209 257 287 354
#     4   9  18  33  58  87 116 151 200 242 291 349
#     4  10  21  38  63  90 119 159 203 245 302 359
#     4  11  23  38  60  90 126 158 195 252 307 359
#
# _framework density 24.004439999999999
#
# number of rings (size 3 to 8) (size 9 to 14) (size 15 to 20)
#    0.000    1.429    2.857    3.857    8.000    0.000 
#    0.000    3.571    0.000    0.000    0.000    0.000 
#    0.000    0.000    0.000    0.000    0.000    0.000 
#
# Total GULP energy -77964.819702 kJ/mol
# GULP energy per Si atom -5568.915693 kJ/mol
# Density = 2.394980 g / cm^3
# Si number density = 24.004440 Si / 1000 Ang^3
#
#
#
# Elastic Constant Matrix: (Units=GPa)
#
#
# Indices 1 2 3 4 5 6 
#
# 1 88.7517 1.6461 36.5097 0.0690 4.8107 -5.9111
# 2 1.6461 86.7689 28.5489 27.2809 9.0959 -20.7115
# 3 36.5097 28.5489 151.7943 26.9163 30.9795 -7.8863
# 4 0.0690 27.2809 26.9163 39.6377 4.9011 -8.2855
# 5 4.8107 9.0959 30.9795 4.9011 47.8374 -4.1414
# 6 -5.9111 -20.7115 -7.8863 -8.2855 -4.1414 21.3680
#
#
#
# Elastic Compliance Matrix: (Units=1/GPa)
#
#
# Indices 1 2 3 4 5 6 
#
# 1 0.013049 0.001166 -0.003792 0.002569 0.001052 0.004540
# 2 0.001166 0.017981 -0.001306 -0.008520 -0.000619 0.013845
# 3 -0.003792 -0.001306 0.009678 -0.005406 -0.005245 -0.001855
# 4 0.002569 -0.008520 -0.005406 0.035508 0.001618 0.004539
# 5 0.001052 -0.000619 -0.005245 0.001618 0.024416 0.003115
# 6 0.004540 0.013845 -0.001855 0.004539 0.003115 0.063154
#
#
# Mechanical properties :
#
#
# Convention : Reuss Voigt Hill
#
# Bulk Modulus (GPa) = 30.44672 51.19160 40.81916
# Shear Modulus (GPa) = 27.38253 39.14264 33.26259
#
# Velocity S-wave (km/s) = 3.38113 4.04250 3.72652
# Velocity P-wave (km/s) = 5.28716 6.56972 5.96302
#
# Compressibility (1/GPa) = 0.03284426
#
# Stress axis : x y z
#
# Youngs Moduli (GPa) = 76.63345 55.61457 103.32565
#
# Poissons Ratio (x) = -0.06484 0.39183
# Poissons Ratio (y) = -0.08935 0.13492
# Poissons Ratio (z) = 0.29061 0.07262
#
# Static dielectric constant tensor:
#      x y z
#    x 2.190270 0.081830 -0.038700 
#    y 0.081830 2.015910 0.005670 
#    z -0.038700 0.005670 1.953300 
# 
# From -- ./inp_files/498172.got.cif
#   From: 2010.05.17/outbox.cif.g08.bks.cpg/sg2_250_cif.got.tgz:498172.got - 2010.06.03 11:33:40.
