data_PCOD9005489
_publ_section_title
;
Structure prediction by ZEFSAII (Michael W. Deem and Ramdas Pophale) SiO2 
 PCOD9005489
Probable space group: P -1
;
_chemical_formula_sum "Si O2"
_cell_formula_units_Z 16
_cell_length_a 18.449302
_cell_length_b 10.272544
_cell_length_c 5.116272
_cell_angle_alpha 103.331839
_cell_angle_beta 85.620992
_cell_angle_gamma 130.043550
_cell_volume 718.928490
_symmetry_space_group_name_H-M "P -1"
_symmetry_group_IT_number 2
_symmetry_cell_setting 'triclinic'
loop_
_space_group_symop_operation_xyz
x,y,z
-x,-y,-z
loop_
_atom_site_type_symbol
_atom_site_label
_atom_site_fract_x
_atom_site_fract_y
_atom_site_fract_z
Si Si1 0.622690 0.626114 0.806923
Si Si2 0.800637 0.419254 0.533775
Si Si3 0.571855 0.726689 0.361294
Si Si4 0.568045 0.995417 0.663117
Si Si5 0.079910 0.480705 0.948860
Si Si6 0.767067 0.651123 0.428433
Si Si7 0.951280 0.875105 0.205399
Si Si8 0.372129 0.734099 0.816947
O O1 0.582304 0.680537 0.626928
O O2 0.540325 0.414521 0.748341
O O3 0.717129 0.687819 0.665962
O O4 0.626304 0.702221 0.120470
O O5 0.862213 0.427607 0.290711
O O6 0.818444 0.599486 0.570003
O O7 0.689038 0.279924 0.419007
O O8 0.843228 0.422388 0.793648
O O9 0.609808 0.921641 0.459219
O O10 0.483001 0.834614 0.797452
O O11 0.500000 0.000000 0.500000
O O12 0.632124 0.161597 0.907352
O O13 0.042423 0.280885 0.872169
O O14 0.000000 0.500000 0.000000
O O15 0.841105 0.782679 0.250382
O O16 0.684893 0.470127 0.215432
O O17 0.000000 0.000000 0.500000
O O18 0.000000 0.000000 0.000000
#
# Coordination Sequence:
#
# PCOD9005489 Si02
#       8
#     2   2   2   2   2   2   2   2
#     4  10  21  38  62  90 130 183 226 277 336 417
#     4   9  21  38  67  98 129 178 229 273 328 435
#     4  10  22  37  59  93 135 175 229 282 340 389
#     4  11  23  37  64  99 139 182 240 292 332 402
#     4  11  22  42  72 105 136 177 223 283 366 436
#     4   9  20  42  68  97 134 187 240 276 358 421
#     4  11  24  43  71 107 137 174 236 304 355 427
#     4   9  22  39  63 100 131 184 238 281 341 403
#
# _framework density 22.255341999999999
#
# number of rings (size 3 to 8) (size 9 to 14) (size 15 to 20)
#    0.750    1.250    1.250    1.875    5.250    4.000 
#    0.000    1.250    2.750    1.500    0.000    0.000 
#    0.000    0.000    0.000    0.000    0.000    0.000 
#
# Total GULP energy -89263.039977 kJ/mol
# GULP energy per Si atom -5578.939999 kJ/mol
# Density = 2.220469 g / cm^3
# Si number density = 22.255342 Si / 1000 Ang^3
#
#
#
# Elastic Constant Matrix: (Units=GPa)
#
#
# Indices 1 2 3 4 5 6 
#
# 1 94.0047 12.3201 35.2188 1.8668 -17.9041 7.5263
# 2 12.3201 68.4072 55.5968 -9.0800 -5.3236 7.3589
# 3 35.2188 55.5968 152.7148 14.8080 -8.4054 -0.1794
# 4 1.8668 -9.0800 14.8080 33.2146 6.0792 -10.0310
# 5 -17.9041 -5.3236 -8.4054 6.0792 41.2254 -1.1761
# 6 7.5263 7.3589 -0.1794 -10.0310 -1.1761 30.0199
#
#
#
# Elastic Compliance Matrix: (Units=1/GPa)
#
#
# Indices 1 2 3 4 5 6 
#
# 1 0.012913 0.000516 -0.002745 -0.001418 0.005220 -0.003650
# 2 0.000516 0.024259 -0.009965 0.010275 -0.000267 -0.002713
# 3 -0.002745 -0.009965 0.011619 -0.007745 0.001050 0.000654
# 4 -0.001418 0.010275 -0.007745 0.041054 -0.006601 0.011250
# 5 0.005220 -0.000267 0.001050 -0.006601 0.027610 -0.002361
# 6 -0.003650 -0.002713 0.000654 0.011250 -0.002361 0.038562
#
#
# Mechanical properties :
#
#
# Convention : Reuss Voigt Hill
#
# Bulk Modulus (GPa) = 40.97899 57.93313 49.45606
# Shear Modulus (GPa) = 26.51964 35.02472 30.77218
#
# Velocity S-wave (km/s) = 3.45571 3.97138 3.72248
# Velocity P-wave (km/s) = 5.86308 6.86416 6.38328
#
# Compressibility (1/GPa) = 0.02440275
#
# Stress axis : x y z
#
# Youngs Moduli (GPa) = 77.43947 41.22166 86.06857
#
# Poissons Ratio (x) = -0.02128 0.23629
# Poissons Ratio (y) = -0.03998 0.85767
# Poissons Ratio (z) = 0.21260 0.41077
#
# Static dielectric constant tensor:
#      x y z
#    x 1.853620 0.001910 0.002040 
#    y 0.001910 1.938350 -0.052210 
#    z 0.002040 -0.052210 1.870750 
# 
# From -- ./inp_files/108683.got.cif
#   From: 2010.05.17/outbox.cif.g08.bks.cpg/sg2_55_cif.got.tgz:108683.got - 2010.06.03 11:33:40.
