data_PCOD9005897
_publ_section_title
;
Structure prediction by ZEFSAII (Michael W. Deem and Ramdas Pophale) SiO2 
 PCOD9005897
Probable space group: P -1
;
_chemical_formula_sum "Si O2"
_cell_formula_units_Z 16
_cell_length_a 12.859387
_cell_length_b 13.128102
_cell_length_c 11.260162
_cell_angle_alpha 45.718689
_cell_angle_beta 146.896951
_cell_angle_gamma 136.627236
_cell_volume 692.480639
_symmetry_space_group_name_H-M "P -1"
_symmetry_group_IT_number 2
_symmetry_cell_setting 'triclinic'
loop_
_space_group_symop_operation_xyz
x,y,z
-x,-y,-z
loop_
_atom_site_type_symbol
_atom_site_label
_atom_site_fract_x
_atom_site_fract_y
_atom_site_fract_z
Si Si1 0.968573 0.725819 0.700960
Si Si2 0.062055 0.677530 0.273665
Si Si3 0.608273 0.093220 0.146325
Si Si4 0.612428 0.454832 0.293920
Si Si5 0.899483 0.555371 0.983998
Si Si6 0.405629 0.977003 0.293535
Si Si7 0.728188 0.752192 0.010139
Si Si8 0.535516 0.636472 0.275460
O O1 0.150294 0.846670 0.702751
O O2 0.001198 0.714410 0.882427
O O3 0.747393 0.732660 0.462816
O O4 0.982581 0.561634 0.814108
O O5 0.181281 0.572828 0.520747
O O6 0.242942 0.806790 0.272868
O O7 0.890267 0.585252 0.090122
O O8 0.954036 0.756473 0.195229
O O9 0.550072 0.013379 0.284935
O O10 0.538577 0.240488 0.963000
O O11 0.500000 0.000000 0.000000
O O12 0.422363 0.303804 0.201414
O O13 0.592840 0.509056 0.362426
O O14 0.624212 0.608059 0.112657
O O15 0.677849 0.467412 0.784581
O O16 0.285141 0.094227 0.078472
O O17 0.500000 0.000000 0.500000
#
# Coordination Sequence:
#
# PCOD9005897 Si02
#       8
#     2   2   2   2   2   2   2   2
#     4  10  22  40  68  97 131 181 229 284 348 400
#     4  12  23  41  69  98 139 185 228 286 358 406
#     4  11  26  49  69  97 142 186 233 286 342 424
#     4  11  22  40  70 100 135 180 235 287 349 413
#     4  10  21  38  64 103 135 168 231 294 338 408
#     4  12  26  47  68 103 146 187 232 287 349 418
#     4  11  24  44  65  99 141 180 234 288 347 417
#     4  11  21  42  70  99 134 179 233 292 344 414
#
# _framework density 23.105340000000002
#
# number of rings (size 3 to 8) (size 9 to 14) (size 15 to 20)
#    0.000    1.000    5.000    1.875    0.000    1.500 
#    6.750    0.000    0.000    0.000    0.000    0.000 
#    0.000    0.000    0.000    0.000    0.000    0.000 
#
# Total GULP energy -89175.860379 kJ/mol
# GULP energy per Si atom -5573.491274 kJ/mol
# Density = 2.305275 g / cm^3
# Si number density = 23.105340 Si / 1000 Ang^3
#
#
#
# Elastic Constant Matrix: (Units=GPa)
#
#
# Indices 1 2 3 4 5 6 
#
# 1 77.5393 8.5801 18.2002 7.9423 5.6915 7.7096
# 2 8.5801 55.6987 14.4840 0.5394 -3.8122 10.6834
# 3 18.2002 14.4840 65.9637 13.1985 17.9461 2.8848
# 4 7.9423 0.5394 13.1985 32.4579 0.1912 4.3220
# 5 5.6915 -3.8122 17.9461 0.1912 35.1187 -2.6349
# 6 7.7096 10.6834 2.8848 4.3220 -2.6349 33.5469
#
#
#
# Elastic Compliance Matrix: (Units=1/GPa)
#
#
# Indices 1 2 3 4 5 6 
#
# 1 0.014221 -0.001007 -0.002902 -0.001939 -0.001111 -0.002535
# 2 -0.001007 0.021174 -0.006137 0.003157 0.005131 -0.005988
# 3 -0.002902 -0.006137 0.021985 -0.008180 -0.011319 0.000896
# 4 -0.001939 0.003157 -0.008180 0.035069 0.004344 -0.004033
# 5 -0.001111 0.005131 -0.011319 0.004344 0.035107 0.001792
# 6 -0.002535 -0.005988 0.000896 -0.004033 0.001792 0.032882
#
#
# Mechanical properties :
#
#
# Convention : Reuss Voigt Hill
#
# Bulk Modulus (GPa) = 26.81799 31.30337 29.06068
# Shear Modulus (GPa) = 25.91210 30.75386 28.33298
#
# Velocity S-wave (km/s) = 3.35248 3.65228 3.50559
# Velocity P-wave (km/s) = 5.15922 5.60028 5.38426
#
# Compressibility (1/GPa) = 0.03728840
#
# Stress axis : x y z
#
# Youngs Moduli (GPa) = 70.31616 47.22787 45.48537
#
# Poissons Ratio (x) = 0.04757 0.13198
# Poissons Ratio (y) = 0.07082 0.27916
# Poissons Ratio (z) = 0.20403 0.28985
#
# Static dielectric constant tensor:
#      x y z
#    x 1.988550 -0.003940 -0.078120 
#    y -0.003940 1.858820 0.040130 
#    z -0.078120 0.040130 1.942210 
# 
# From -- ./inp_files/454577.got.cif
#   From: 2010.05.17/outbox.cif.g08.bks.cpg/sg2_228_cif.got.tgz:454577.got - 2010.06.03 11:33:40.
