data_PCOD9005933
_publ_section_title
;
Structure prediction by ZEFSAII (Michael W. Deem and Ramdas Pophale) SiO2 
 PCOD9005933
Probable space group: P -1
;
_chemical_formula_sum "Si O2"
_cell_formula_units_Z 14
_cell_length_a 7.884932
_cell_length_b 12.211931
_cell_length_c 8.769231
_cell_angle_alpha 107.827557
_cell_angle_beta 129.792883
_cell_angle_gamma 73.423684
_cell_volume 613.020022
_symmetry_space_group_name_H-M "P -1"
_symmetry_group_IT_number 2
_symmetry_cell_setting 'triclinic'
loop_
_space_group_symop_operation_xyz
x,y,z
-x,-y,-z
loop_
_atom_site_type_symbol
_atom_site_label
_atom_site_fract_x
_atom_site_fract_y
_atom_site_fract_z
Si Si1 0.753959 0.654488 0.892350
Si Si2 0.687050 0.034835 0.240397
Si Si3 0.692655 0.829528 0.352008
Si Si4 0.059302 0.621823 0.534198
Si Si5 0.236118 0.610664 0.296718
Si Si6 0.559534 0.798496 0.578452
Si Si7 0.658192 0.225440 0.094516
O O1 0.707033 0.522060 0.781494
O O2 0.742593 0.724773 0.757720
O O3 0.562576 0.722510 0.915957
O O4 0.993916 0.651383 0.105055
O O5 0.580452 0.110905 0.351953
O O6 0.795073 0.123171 0.230446
O O7 0.795757 0.917734 0.333665
O O8 0.500000 0.000000 0.000000
O O9 0.656289 0.863302 0.521281
O O10 0.842616 0.706807 0.396112
O O11 0.447497 0.818000 0.136973
O O12 0.211973 0.611908 0.466922
O O13 0.185344 0.674931 0.769318
O O14 0.000000 0.500000 0.500000
O O15 0.407598 0.700815 0.393595
#
# Coordination Sequence:
#
# PCOD9005933 Si02
#       7
#     2   2   2   2   2   2   2
#     4  10  21  38  64  88 126 169 211 251 301 379
#     4   9  20  42  69  90 121 167 215 253 313 373
#     4  11  24  40  64  96 129 162 207 266 308 362
#     4  12  25  39  62  97 126 164 213 254 311 378
#     4  11  22  39  63  91 123 174 209 246 316 375
#     4  11  22  40  65  92 126 163 205 261 316 364
#     4  10  22  42  64  92 127 168 209 257 312 370
#
# _framework density 22.837751999999998
#
# number of rings (size 3 to 8) (size 9 to 14) (size 15 to 20)
#    0.000    1.429    4.286    1.714    2.000    4.571 
#    0.000    0.000    0.000    6.857    0.000    0.000 
#    0.000    0.000    0.000    0.000    0.000    0.000 
#
# Total GULP energy -78228.349851 kJ/mol
# GULP energy per Si atom -5587.739275 kJ/mol
# Density = 2.278577 g / cm^3
# Si number density = 22.837752 Si / 1000 Ang^3
#
#
#
# Elastic Constant Matrix: (Units=GPa)
#
#
# Indices 1 2 3 4 5 6 
#
# 1 41.4694 7.2241 4.5801 -11.7264 -6.2384 8.3699
# 2 7.2241 123.6369 19.7080 -21.8814 5.3891 7.1965
# 3 4.5801 19.7080 93.2566 -16.8648 5.3164 -5.6557
# 4 -11.7264 -21.8814 -16.8648 44.0181 -2.4668 3.3600
# 5 -6.2384 5.3891 5.3164 -2.4668 31.5246 0.4721
# 6 8.3699 7.1965 -5.6557 3.3600 0.4721 21.6561
#
#
#
# Elastic Compliance Matrix: (Units=1/GPa)
#
#
# Indices 1 2 3 4 5 6 
#
# 1 0.030725 0.000575 -0.001170 0.009491 0.007132 -0.014000
# 2 0.000575 0.009379 -0.001404 0.004567 -0.000830 -0.004396
# 3 -0.001170 -0.001404 0.011978 0.003204 -0.001815 0.003589
# 4 0.009491 0.004567 0.003204 0.029600 0.003008 -0.009007
# 5 0.007132 -0.000830 -0.001815 0.003008 0.033878 -0.004160
# 6 -0.014000 -0.004396 0.003589 -0.009007 -0.004160 0.055473
#
#
# Mechanical properties :
#
#
# Convention : Reuss Voigt Hill
#
# Bulk Modulus (GPa) = 20.79657 35.70972 28.25314
# Shear Modulus (GPa) = 26.17000 34.56314 30.36657
#
# Velocity S-wave (km/s) = 3.38880 3.89449 3.65041
# Velocity P-wave (km/s) = 4.94348 5.99107 5.49231
#
# Compressibility (1/GPa) = 0.04808486
#
# Stress axis : x y z
#
# Youngs Moduli (GPa) = 32.54628 106.62604 83.48830
#
# Poissons Ratio (x) = -0.06131 0.09766
# Poissons Ratio (y) = -0.01871 0.11719
# Poissons Ratio (z) = 0.03807 0.14967
#
# Static dielectric constant tensor:
#      x y z
#    x 1.872410 0.003970 0.008790 
#    y 0.003970 1.883620 0.018090 
#    z 0.008790 0.018090 1.861190 
# 
# From -- ./inp_files/176936.got.cif
#   From: 2010.05.17/outbox.cif.g08.bks.cpg/sg2_89_cif.got.tgz:176936.got - 2010.06.03 11:33:40.
