data_PCOD9005463
_publ_section_title
;
Structure prediction by ZEFSAII (Michael W. Deem and Ramdas Pophale) SiO2 
 PCOD9005463
Probable space group: P -1
;
_chemical_formula_sum "Si O2"
_cell_formula_units_Z 16
_cell_length_a 12.879473
_cell_length_b 9.097291
_cell_length_c 12.722710
_cell_angle_alpha 42.836711
_cell_angle_beta 59.965306
_cell_angle_gamma 65.846029
_cell_volume 875.193223
_symmetry_space_group_name_H-M "P -1"
_symmetry_group_IT_number 2
_symmetry_cell_setting 'triclinic'
loop_
_space_group_symop_operation_xyz
x,y,z
-x,-y,-z
loop_
_atom_site_type_symbol
_atom_site_label
_atom_site_fract_x
_atom_site_fract_y
_atom_site_fract_z
Si Si1 0.194437 0.382347 0.361143
Si Si2 0.966172 0.724835 0.955458
Si Si3 0.738449 0.939264 0.055348
Si Si4 0.017008 0.914078 0.418208
Si Si5 0.742910 0.292315 0.675437
Si Si6 0.527325 0.069211 0.831457
Si Si7 0.824239 0.286790 0.979389
Si Si8 0.383399 0.370886 0.100882
O O1 0.236037 0.481898 0.396747
O O2 0.314647 0.308210 0.274600
O O3 0.097071 0.207653 0.500332
O O4 0.135846 0.578486 0.213965
O O5 0.069489 0.759907 0.969301
O O6 0.965444 0.895607 0.772268
O O7 0.838490 0.756503 0.063133
O O8 0.000000 0.500000 0.000000
O O9 0.605250 0.864845 0.179562
O O10 0.776616 0.069113 0.070575
O O11 0.736681 0.120100 0.866798
O O12 0.140348 0.765297 0.423769
O O13 0.000000 0.000000 0.500000
O O14 0.622670 0.251616 0.693170
O O15 0.582797 0.848120 0.864546
O O16 0.500000 0.000000 0.000000
O O17 0.715903 0.452893 0.992032
O O18 0.500000 0.500000 0.000000
#
# Coordination Sequence:
#
# PCOD9005463 Si02
#       8
#     2   2   2   2   2   2   2   2
#     4   9  19  34  55  84 104 140 185 222 274 320
#     4  11  23  35  53  81 114 142 182 223 274 327
#     4   9  18  33  51  79 112 141 177 222 276 319
#     4  11  21  35  54  79 111 143 184 226 272 322
#     4   9  18  31  51  80 108 136 177 231 271 314
#     4  10  17  28  49  82 113 138 175 229 272 316
#     4   9  19  34  55  81 109 138 180 220 278 316
#     4  10  17  31  56  86 110 137 183 228 268 320
#
# _framework density 18.281676999999998
#
# number of rings (size 3 to 8) (size 9 to 14) (size 15 to 20)
#    0.750    1.500    1.250    3.000    5.250    0.000 
#    0.000    1.250    0.000    0.750    0.000    5.250 
#    0.000    0.000    0.000    0.000    0.000    0.000 
#
# Total GULP energy -89073.930278 kJ/mol
# GULP energy per Si atom -5567.120642 kJ/mol
# Density = 1.824007 g / cm^3
# Si number density = 18.281677 Si / 1000 Ang^3
#
#
#
# Elastic Constant Matrix: (Units=GPa)
#
#
# Indices 1 2 3 4 5 6 
#
# 1 107.2556 82.8036 17.7998 10.3400 -30.2553 8.4584
# 2 82.8036 163.3210 35.5151 23.2096 -27.1778 8.2941
# 3 17.7998 35.5151 30.9927 9.3073 -23.1725 2.8158
# 4 10.3400 23.2096 9.3073 22.9029 -1.3550 -4.5557
# 5 -30.2553 -27.1778 -23.1725 -1.3550 36.8786 -0.9406
# 6 8.4584 8.2941 2.8158 -4.5557 -0.9406 33.0085
#
#
#
# Elastic Compliance Matrix: (Units=1/GPa)
#
#
# Indices 1 2 3 4 5 6 
#
# 1 0.020395 -0.009518 0.015703 -0.005681 0.019264 -0.004409
# 2 -0.009518 0.013434 -0.013460 -0.004349 -0.006540 -0.000575
# 3 0.015703 -0.013460 0.094253 -0.030372 0.060787 -0.011142
# 4 -0.005681 -0.004349 -0.030372 0.064189 -0.024251 0.013307
# 5 0.019264 -0.006540 0.060787 -0.024251 0.075157 -0.009684
# 6 -0.004409 -0.000575 -0.011142 0.013307 -0.009684 0.034081
#
#
# Mechanical properties :
#
#
# Convention : Reuss Voigt Hill
#
# Bulk Modulus (GPa) = 8.80807 63.75626 36.28216
# Shear Modulus (GPa) = 14.12816 29.58806 21.85811
#
# Velocity S-wave (km/s) = 2.78295 4.02737 3.46154
# Velocity P-wave (km/s) = 3.89292 7.52173 5.98879
#
# Compressibility (1/GPa) = 0.11353231
#
# Stress axis : x y z
#
# Youngs Moduli (GPa) = 49.03134 74.43553 10.60978
#
# Poissons Ratio (x) = 0.70849 -0.16661
# Poissons Ratio (y) = 0.46669 0.14281
# Poissons Ratio (z) = -0.76995 1.00190
#
# Static dielectric constant tensor:
#      x y z
#    x 1.693160 -0.010980 -0.035110 
#    y -0.010980 1.659600 -0.003360 
#    z -0.035110 -0.003360 1.642480 
# 
# From -- ./inp_files/418860.got.cif
#   From: 2010.05.17/outbox.cif.g08.bks.cpg/sg2_210_cif.got.tgz:418860.got - 2010.06.03 11:33:40.
