data_PCOD9005702
_publ_section_title
;
Structure prediction by ZEFSAII (Michael W. Deem and Ramdas Pophale) SiO2 
 PCOD9005702
Probable space group: P -1
;
_chemical_formula_sum "Si O2"
_cell_formula_units_Z 14
_cell_length_a 27.550220
_cell_length_b 4.929129
_cell_length_c 15.622294
_cell_angle_alpha 58.242505
_cell_angle_beta 18.425113
_cell_angle_gamma 55.562878
_cell_volume 552.592929
_symmetry_space_group_name_H-M "P -1"
_symmetry_group_IT_number 2
_symmetry_cell_setting 'triclinic'
loop_
_space_group_symop_operation_xyz
x,y,z
-x,-y,-z
loop_
_atom_site_type_symbol
_atom_site_label
_atom_site_fract_x
_atom_site_fract_y
_atom_site_fract_z
Si Si1 0.924648 0.265701 0.512741
Si Si2 0.720311 0.470895 0.469125
Si Si3 0.771449 0.290594 0.596081
Si Si4 0.684169 0.247087 0.395625
Si Si5 0.211053 0.551684 0.997976
Si Si6 0.613015 0.714335 0.930899
Si Si7 0.393935 0.856454 0.769162
O O1 0.908217 0.170099 0.457335
O O2 0.741875 0.434317 0.812995
O O3 0.000000 0.000000 0.500000
O O4 0.033692 0.519301 0.291481
O O5 0.818681 0.340364 0.411873
O O6 0.788206 0.328070 0.287456
O O7 0.678441 0.867546 0.472088
O O8 0.559563 0.344900 0.769306
O O9 0.678110 0.635251 0.737686
O O10 0.652514 0.050218 0.838029
O O11 0.740613 0.321586 0.194904
O O12 0.516714 0.515932 0.645829
O O13 0.250823 0.774206 0.969382
O O14 0.320878 0.180080 0.893831
O O15 0.500000 0.000000 0.500000
#
# Coordination Sequence:
#
# PCOD9005702 Si02
#       7
#     2   2   2   2   2   2   2
#     4  10  27  43  67  92 127 172 213 256 320 385
#     4  12  22  40  68  98 126 164 216 266 316 370
#     4  10  23  43  64  96 128 166 214 263 318 369
#     4  11  23  37  65  97 126 166 211 262 321 371
#     4  11  23  43  62  93 136 167 210 259 318 381
#     4  10  23  41  66  92 130 161 216 260 321 362
#     4  10  21  38  63  90 128 167 210 257 312 362
#
# _framework density 25.335104000000001
#
# number of rings (size 3 to 8) (size 9 to 14) (size 15 to 20)
#    0.857    0.571    0.000    6.857    6.000    0.571 
#    0.000    1.429    0.000    0.000    0.000    0.000 
#    0.000    0.000    0.000    0.000    0.000    0.000 
#
# Total GULP energy -78282.452956 kJ/mol
# GULP energy per Si atom -5591.603783 kJ/mol
# Density = 2.527744 g / cm^3
# Si number density = 25.335104 Si / 1000 Ang^3
#
#
#
# Elastic Constant Matrix: (Units=GPa)
#
#
# Indices 1 2 3 4 5 6 
#
# 1 169.9077 56.7471 15.4993 -20.0916 -15.7212 -20.6927
# 2 56.7471 150.9821 28.5702 -27.2028 -18.4218 -5.4142
# 3 15.4993 28.5702 34.7933 -11.8338 -18.3510 -6.0218
# 4 -20.0916 -27.2028 -11.8338 27.9828 3.2753 -8.2121
# 5 -15.7212 -18.4218 -18.3510 3.2753 37.4918 -6.4872
# 6 -20.6927 -5.4142 -6.0218 -8.2121 -6.4872 59.5660
#
#
#
# Elastic Compliance Matrix: (Units=1/GPa)
#
#
# Indices 1 2 3 4 5 6 
#
# 1 0.007758 -0.001779 0.002693 0.005702 0.003894 0.004016
# 2 -0.001779 0.009370 -0.003728 0.006330 0.001638 0.000908
# 3 0.002693 -0.003728 0.053384 0.021330 0.025592 0.011721
# 4 0.005702 0.006330 0.021330 0.057581 0.013352 0.014105
# 5 0.003894 0.001638 0.025592 0.013352 0.042293 0.010536
# 6 0.004016 0.000908 0.011721 0.014105 0.010536 0.022543
#
#
# Mechanical properties :
#
#
# Convention : Reuss Voigt Hill
#
# Bulk Modulus (GPa) = 15.41213 61.92403 38.66808
# Shear Modulus (GPa) = 22.70832 41.99923 32.35378
#
# Velocity S-wave (km/s) = 2.99711 4.07596 3.57744
# Velocity P-wave (km/s) = 4.25128 6.82981 5.68857
#
# Compressibility (1/GPa) = 0.06488397
#
# Stress axis : x y z
#
# Youngs Moduli (GPa) = 128.90517 106.72160 18.73224
#
# Poissons Ratio (x) = 0.18984 -0.05045
# Poissons Ratio (y) = 0.22930 0.06984
# Poissons Ratio (z) = -0.34715 0.39787
#
# Static dielectric constant tensor:
#      x y z
#    x 2.050620 -0.117360 0.048360 
#    y -0.117360 2.153820 0.035660 
#    z 0.048360 0.035660 1.995880 
# 
# From -- ./inp_files/580031.got.cif
#   From: 2010.05.17/outbox.cif.g08.bks.cpg/sg2_291_cif.got.tgz:580031.got - 2010.06.03 11:33:40.
