data_PCOD9005932
_publ_section_title
;
Structure prediction by ZEFSAII (Michael W. Deem and Ramdas Pophale) SiO2 
 PCOD9005932
Probable space group: P -1
;
_chemical_formula_sum "Si O2"
_cell_formula_units_Z 16
_cell_length_a 13.517881
_cell_length_b 7.483905
_cell_length_c 13.880459
_cell_angle_alpha 46.038724
_cell_angle_beta 133.813916
_cell_angle_gamma 126.850971
_cell_volume 709.924065
_symmetry_space_group_name_H-M "P -1"
_symmetry_group_IT_number 2
_symmetry_cell_setting 'triclinic'
loop_
_space_group_symop_operation_xyz
x,y,z
-x,-y,-z
loop_
_atom_site_type_symbol
_atom_site_label
_atom_site_fract_x
_atom_site_fract_y
_atom_site_fract_z
Si Si1 0.515439 0.043678 0.880540
Si Si2 0.771947 0.818226 0.417151
Si Si3 0.257606 0.689064 0.320300
Si Si4 0.975394 0.503275 0.096292
Si Si5 0.993150 0.937403 0.381829
Si Si6 0.314706 0.415271 0.171414
Si Si7 0.241791 0.917244 0.432775
Si Si8 0.493117 0.162070 0.242008
O O1 0.369227 0.107096 0.730277
O O2 0.637083 0.301687 0.858995
O O3 0.524647 0.823534 0.891521
O O4 0.500000 0.000000 0.000000
O O5 0.734876 0.601566 0.553979
O O6 0.850768 0.761842 0.393711
O O7 0.889557 0.036730 0.464731
O O8 0.248023 0.770179 0.393530
O O9 0.392701 0.882464 0.298576
O O10 0.112556 0.682388 0.169861
O O11 0.832248 0.597799 0.977699
O O12 0.962404 0.215492 0.234757
O O13 0.000000 0.500000 0.000000
O O14 0.080671 0.863783 0.379993
O O15 0.291440 0.210737 0.318994
O O16 0.427609 0.349300 0.196289
O O17 0.352671 0.847020 0.609870
#
# Coordination Sequence:
#
# PCOD9005932 Si02
#       8
#     2   2   2   2   2   2   2   2
#     4  12  25  42  66  95 126 175 215 253 327 389
#     4  10  21  40  60  90 126 164 214 260 309 381
#     4  10  23  39  64  97 121 165 214 257 326 379
#     4  11  21  40  61  92 128 169 211 258 316 376
#     4  10  21  38  64  88 125 169 208 262 312 367
#     4  11  24  42  65  97 132 163 211 271 313 379
#     4  11  21  41  65  96 126 162 214 264 317 375
#     4  11  24  42  67  97 129 164 213 270 319 374
#
# _framework density 22.537621000000001
#
# number of rings (size 3 to 8) (size 9 to 14) (size 15 to 20)
#    0.000    1.250    2.500    4.500    1.750    4.000 
#    4.500    0.000    0.000    0.000    0.000    0.000 
#    0.000    0.000    0.000    0.000    0.000    0.000 
#
# Total GULP energy -89327.436090 kJ/mol
# GULP energy per Si atom -5582.964756 kJ/mol
# Density = 2.248632 g / cm^3
# Si number density = 22.537621 Si / 1000 Ang^3
#
#
#
# Elastic Constant Matrix: (Units=GPa)
#
#
# Indices 1 2 3 4 5 6 
#
# 1 86.7723 1.1559 10.1447 6.3379 -2.7894 -13.2591
# 2 1.1559 55.4767 8.1122 12.5139 -6.6535 -3.1097
# 3 10.1447 8.1122 84.9555 19.2609 3.2598 -9.4691
# 4 6.3379 12.5139 19.2609 29.5440 -0.0238 -8.4068
# 5 -2.7894 -6.6535 3.2598 -0.0238 44.7163 11.8645
# 6 -13.2591 -3.1097 -9.4691 -8.4068 11.8645 29.4030
#
#
#
# Elastic Compliance Matrix: (Units=1/GPa)
#
#
# Indices 1 2 3 4 5 6 
#
# 1 0.012472 0.000254 -0.000710 -0.000775 -0.000574 0.005433
# 2 0.000254 0.020425 -0.000270 -0.009049 0.003557 -0.001834
# 3 -0.000710 -0.000270 0.014094 -0.008191 -0.001799 0.002574
# 4 -0.000775 -0.009049 -0.008191 0.046239 -0.003622 0.010738
# 5 -0.000574 0.003557 -0.001799 -0.003622 0.026187 -0.012065
# 6 0.005433 -0.001834 0.002574 0.010738 -0.012065 0.045033
#
#
# Mechanical properties :
#
#
# Convention : Reuss Voigt Hill
#
# Bulk Modulus (GPa) = 21.95904 29.55891 25.75897
# Shear Modulus (GPa) = 27.61166 34.58545 31.09856
#
# Velocity S-wave (km/s) = 3.50399 3.92160 3.71866
# Velocity P-wave (km/s) = 5.11225 5.80079 5.46737
#
# Compressibility (1/GPa) = 0.04553933
#
# Stress axis : x y z
#
# Youngs Moduli (GPa) = 80.17750 48.96047 70.94975
#
# Poissons Ratio (x) = -0.01246 0.05041
# Poissons Ratio (y) = -0.02040 0.01916
# Poissons Ratio (z) = 0.05696 0.01322
#
# Static dielectric constant tensor:
#      x y z
#    x 1.956160 -0.040600 -0.048620 
#    y -0.040600 1.989120 -0.072530 
#    z -0.048620 -0.072530 1.849980 
# 
# From -- ./inp_files/528141.got.cif
#   From: 2010.05.17/outbox.cif.g08.bks.cpg/sg2_265_cif.got.tgz:528141.got - 2010.06.03 11:33:40.
