data_PCOD9005328
_publ_section_title
;
Structure prediction by ZEFSAII (Michael W. Deem and Ramdas Pophale) SiO2 
 PCOD9005328
Probable space group: P -1
;
_chemical_formula_sum "Si O2"
_cell_formula_units_Z 16
_cell_length_a 18.661573
_cell_length_b 8.300289
_cell_length_c 9.277500
_cell_angle_alpha 99.765879
_cell_angle_beta 54.669373
_cell_angle_gamma 136.868523
_cell_volume 714.762123
_symmetry_space_group_name_H-M "P -1"
_symmetry_group_IT_number 2
_symmetry_cell_setting 'triclinic'
loop_
_space_group_symop_operation_xyz
x,y,z
-x,-y,-z
loop_
_atom_site_type_symbol
_atom_site_label
_atom_site_fract_x
_atom_site_fract_y
_atom_site_fract_z
Si Si1 0.603677 0.527275 0.575635
Si Si2 0.703899 0.938385 0.295450
Si Si3 0.653294 0.576421 0.853871
Si Si4 0.102659 0.298283 0.443495
Si Si5 0.127638 0.883208 0.135846
Si Si6 0.860338 0.367855 0.717063
Si Si7 0.429766 0.042612 0.176490
Si Si8 0.361820 0.801344 0.530678
O O1 0.681531 0.792925 0.442733
O O2 0.446182 0.289669 0.652262
O O3 0.593515 0.541464 0.762432
O O4 0.675956 0.449998 0.459849
O O5 0.733526 0.177641 0.313023
O O6 0.824117 0.030393 0.070221
O O7 0.744073 0.551239 0.695113
O O8 0.763006 0.859678 0.846572
O O9 0.539450 0.349130 0.067970
O O10 0.110571 0.399839 0.296188
O O11 0.030778 0.297393 0.655373
O O12 0.000000 0.000000 0.500000
O O13 0.152573 0.732153 0.129968
O O14 0.000000 0.500000 0.500000
O O15 0.722056 0.136151 0.744477
O O16 0.413756 0.948221 0.339048
O O17 0.500000 0.000000 0.000000
O O18 0.500000 0.000000 0.500000
#
# Coordination Sequence:
#
# PCOD9005328 Si02
#       8
#     2   2   2   2   2   2   2   2
#     4  10  21  39  57  86 125 166 199 266 319 362
#     4  10  23  39  56  86 131 164 206 248 319 391
#     4  11  22  37  66  95 124 152 222 268 311 367
#     4   9  19  39  59  90 123 161 201 265 316 371
#     4  10  23  38  62  92 125 168 207 256 324 383
#     4  10  21  38  61  92 129 159 202 269 322 367
#     4  12  22  37  66  99 120 165 219 267 312 382
#     4  10  23  39  57  89 134 166 206 259 327 375
#
# _framework density 22.385069999999999
#
# number of rings (size 3 to 8) (size 9 to 14) (size 15 to 20)
#    0.000    1.750    2.500    0.750    8.750    1.000 
#    2.250    0.625    0.000    6.750    0.000    0.000 
#    0.000    0.000    0.000    0.000    0.000    0.000 
#
# Total GULP energy -89107.827689 kJ/mol
# GULP energy per Si atom -5569.239231 kJ/mol
# Density = 2.233412 g / cm^3
# Si number density = 22.385070 Si / 1000 Ang^3
#
#
#
# Elastic Constant Matrix: (Units=GPa)
#
#
# Indices 1 2 3 4 5 6 
#
# 1 104.7867 14.1233 37.0045 -6.8376 0.1823 -25.3082
# 2 14.1233 57.4176 9.6782 -8.4708 -3.7577 -24.8861
# 3 37.0045 9.6782 100.7418 -5.6630 6.9580 -2.1426
# 4 -6.8376 -8.4708 -5.6630 36.2812 -1.8629 0.1760
# 5 0.1823 -3.7577 6.9580 -1.8629 41.1775 -1.4517
# 6 -25.3082 -24.8861 -2.1426 0.1760 -1.4517 38.2017
#
#
#
# Elastic Compliance Matrix: (Units=1/GPa)
#
#
# Indices 1 2 3 4 5 6 
#
# 1 0.013640 0.002438 -0.004992 0.002386 0.001480 0.010390
# 2 0.002438 0.026736 -0.002972 0.006345 0.003888 0.018984
# 3 -0.004992 -0.002972 0.012125 0.000154 -0.002455 -0.004657
# 4 0.002386 0.006345 0.000154 0.029597 0.002081 0.005666
# 5 0.001480 0.003888 -0.002455 0.002081 0.025295 0.004327
# 6 0.010390 0.018984 -0.004657 0.005666 0.004327 0.045304
#
#
# Mechanical properties :
#
#
# Convention : Reuss Voigt Hill
#
# Bulk Modulus (GPa) = 24.12549 42.72869 33.42709
# Shear Modulus (GPa) = 28.15883 36.60809 32.38346
#
# Velocity S-wave (km/s) = 3.55058 4.04837 3.80762
# Velocity P-wave (km/s) = 5.25449 6.40171 5.85626
#
# Compressibility (1/GPa) = 0.04144994
#
# Stress axis : x y z
#
# Youngs Moduli (GPa) = 73.31496 37.40245 82.47697
#
# Poissons Ratio (x) = -0.09121 0.41169
# Poissons Ratio (y) = -0.17878 0.24515
# Poissons Ratio (z) = 0.36595 0.11117
#
# Static dielectric constant tensor:
#      x y z
#    x 1.958360 -0.060120 -0.046280 
#    y -0.060120 1.900060 0.022780 
#    z -0.046280 0.022780 1.884550 
# 
# From -- ./inp_files/327569.got.cif
#   From: 2010.05.17/outbox.cif.g08.bks.cpg/sg2_164_cif.got.tgz:327569.got - 2010.06.03 11:33:40.
