data_PCOD9005324
_publ_section_title
;
Structure prediction by ZEFSAII (Michael W. Deem and Ramdas Pophale) SiO2 
 PCOD9005324
Probable space group: P -1
;
_chemical_formula_sum "Si O2"
_cell_formula_units_Z 16
_cell_length_a 21.100539
_cell_length_b 13.285922
_cell_length_c 11.974813
_cell_angle_alpha 144.499394
_cell_angle_beta 35.514588
_cell_angle_gamma 157.494576
_cell_volume 716.719847
_symmetry_space_group_name_H-M "P -1"
_symmetry_group_IT_number 2
_symmetry_cell_setting 'triclinic'
loop_
_space_group_symop_operation_xyz
x,y,z
-x,-y,-z
loop_
_atom_site_type_symbol
_atom_site_label
_atom_site_fract_x
_atom_site_fract_y
_atom_site_fract_z
Si Si1 0.383162 0.989582 0.883989
Si Si2 0.811634 0.965311 0.656487
Si Si3 0.369465 0.167620 0.440290
Si Si4 0.405639 0.564061 0.182732
Si Si5 0.251213 0.661637 0.225839
Si Si6 0.734816 0.608582 0.213018
Si Si7 0.796486 0.571284 0.431817
Si Si8 0.067537 0.167570 0.170445
O O1 0.271783 0.679684 0.761699
O O2 0.456765 0.129371 0.783746
O O3 0.557361 0.168140 0.863552
O O4 0.279655 0.024785 0.112337
O O5 0.015908 0.246218 0.624270
O O6 0.717545 0.904633 0.621539
O O7 0.797038 0.744888 0.512076
O O8 0.570706 0.374097 0.317064
O O9 0.345739 0.322880 0.677377
O O10 0.270802 0.889428 0.387761
O O11 0.324601 0.531784 0.383713
O O12 0.250894 0.341648 0.115342
O O13 0.500000 0.500000 0.000000
O O14 0.111945 0.420410 0.297598
O O15 0.222692 0.519064 0.023911
O O16 0.924819 0.927058 0.247085
O O17 0.000000 0.000000 0.000000
#
# Coordination Sequence:
#
# PCOD9005324 Si02
#       8
#     2   2   2   2   2   2   2   2
#     4  11  23  42  67  93 130 173 222 265 329 392
#     4  11  24  43  64  95 136 166 221 275 322 389
#     4  11  23  37  65  96 127 171 213 266 332 392
#     4  11  22  45  69  94 133 173 221 272 326 393
#     4  10  22  40  62  94 131 166 213 274 321 390
#     4  10  21  38  61  92 127 168 214 259 329 385
#     4  11  25  42  66  95 128 176 217 271 325 386
#     4   9  21  42  66  94 129 170 213 271 327 385
#
# _framework density 22.323924000000002
#
# number of rings (size 3 to 8) (size 9 to 14) (size 15 to 20)
#    0.000    1.500    2.500    1.875    3.500    0.500 
#    4.500    0.000    0.000    0.000    0.000    0.000 
#    0.000    0.000    0.000    0.000    0.000    0.000 
#
# Total GULP energy -89214.779458 kJ/mol
# GULP energy per Si atom -5575.923716 kJ/mol
# Density = 2.227311 g / cm^3
# Si number density = 22.323924 Si / 1000 Ang^3
#
#
#
# Elastic Constant Matrix: (Units=GPa)
#
#
# Indices 1 2 3 4 5 6 
#
# 1 61.9363 22.6978 3.6943 -0.7558 -12.9894 -0.0498
# 2 22.6978 126.0001 37.8659 14.2131 -17.1582 -4.7390
# 3 3.6943 37.8659 49.1880 -1.4766 -11.2341 0.9116
# 4 -0.7558 14.2131 -1.4766 46.4746 -5.6943 -5.3961
# 5 -12.9894 -17.1582 -11.2341 -5.6943 29.0441 6.5009
# 6 -0.0498 -4.7390 0.9116 -5.3961 6.5009 30.7352
#
#
#
# Elastic Compliance Matrix: (Units=1/GPa)
#
#
# Indices 1 2 3 4 5 6 
#
# 1 0.019118 -0.003648 0.003458 0.002359 0.008654 -0.002050
# 2 -0.003648 0.011812 -0.008730 -0.003688 0.000974 0.001221
# 3 0.003458 -0.008730 0.029102 0.004392 0.009266 -0.003392
# 4 0.002359 -0.003688 0.004392 0.023682 0.004664 0.002476
# 5 0.008654 0.000974 0.009266 0.004664 0.045363 -0.008887
# 6 -0.002050 0.001221 -0.003392 0.002476 -0.008887 0.035136
#
#
# Mechanical properties :
#
#
# Convention : Reuss Voigt Hill
#
# Bulk Modulus (GPa) = 23.70142 40.62671 32.16406
# Shear Modulus (GPa) = 25.49500 32.77522 29.13511
#
# Velocity S-wave (km/s) = 3.38309 3.83582 3.61655
# Velocity P-wave (km/s) = 5.08925 6.15275 5.64609
#
# Compressibility (1/GPa) = 0.04219157
#
# Stress axis : x y z
#
# Youngs Moduli (GPa) = 52.30602 84.66237 34.36206
#
# Poissons Ratio (x) = 0.30883 -0.11881
# Poissons Ratio (y) = 0.19080 0.29998
# Poissons Ratio (z) = -0.18085 0.73909
#
# Static dielectric constant tensor:
#      x y z
#    x 1.877290 -0.033880 0.054320 
#    y -0.033880 1.861510 -0.013910 
#    z 0.054320 -0.013910 1.852550 
# 
# From -- ./inp_files/543056.got.cif
#   From: 2010.05.17/outbox.cif.g08.bks.cpg/sg2_272_cif.got.tgz:543056.got - 2010.06.03 11:33:40.
