data_PCOD9005195
_publ_section_title
;
Structure prediction by ZEFSAII (Michael W. Deem and Ramdas Pophale) SiO2 
 PCOD9005195
Probable space group: P -1
;
_chemical_formula_sum "Si O2"
_cell_formula_units_Z 16
_cell_length_a 12.767715
_cell_length_b 17.839886
_cell_length_c 10.400564
_cell_angle_alpha 78.345453
_cell_angle_beta 145.397454
_cell_angle_gamma 126.821002
_cell_volume 826.786358
_symmetry_space_group_name_H-M "P -1"
_symmetry_group_IT_number 2
_symmetry_cell_setting 'triclinic'
loop_
_space_group_symop_operation_xyz
x,y,z
-x,-y,-z
loop_
_atom_site_type_symbol
_atom_site_label
_atom_site_fract_x
_atom_site_fract_y
_atom_site_fract_z
Si Si1 0.341353 0.549199 0.721037
Si Si2 0.474164 0.422252 0.600755
Si Si3 0.922665 0.318282 0.195845
Si Si4 0.487112 0.735852 0.404376
Si Si5 0.460208 0.756478 0.672479
Si Si6 0.611709 0.949800 0.142374
Si Si7 0.020476 0.003095 0.733733
Si Si8 0.832098 0.583693 0.149834
O O1 0.410275 0.658588 0.723464
O O2 0.232629 0.496717 0.773077
O O3 0.098055 0.436392 0.417399
O O4 0.633499 0.593132 0.976535
O O5 0.500000 0.500000 0.500000
O O6 0.503550 0.351238 0.584774
O O7 0.160140 0.332358 0.384650
O O8 0.718638 0.511160 0.927098
O O9 0.775957 0.311557 0.927313
O O10 0.665504 0.195104 0.059952
O O11 0.458570 0.743449 0.522984
O O12 0.784482 0.870684 0.605175
O O13 0.174387 0.712765 0.439340
O O14 0.759914 0.889916 0.978520
O O15 0.784923 0.978853 0.180945
O O16 0.835782 0.007607 0.467308
O O17 0.500000 0.000000 0.000000
#
# Coordination Sequence:
#
# PCOD9005195 Si02
#       8
#     2   2   2   2   2   2   2   2
#     4  10  22  38  58  88 118 148 190 245 295 342
#     4  11  22  38  61  88 117 154 197 238 288 349
#     4  10  21  38  61  87 115 152 198 242 294 346
#     4  11  23  40  58  82 119 157 194 242 288 341
#     4  12  23  38  59  83 119 158 193 233 288 349
#     4  10  21  41  65  87 114 150 193 244 294 343
#     4  10  24  39  59  89 115 151 198 237 287 349
#     4  10  22  37  58  88 118 149 191 241 294 344
#
# _framework density 19.352035999999998
#
# number of rings (size 3 to 8) (size 9 to 14) (size 15 to 20)
#    0.000    1.500    0.000    5.250    0.000    8.500 
#    0.000    0.000    0.000    6.750    0.000    0.000 
#    0.000    0.000    0.000    0.000    0.000    0.000 
#
# Total GULP energy -89494.416236 kJ/mol
# GULP energy per Si atom -5593.401015 kJ/mol
# Density = 1.930799 g / cm^3
# Si number density = 19.352036 Si / 1000 Ang^3
#
#
#
# Elastic Constant Matrix: (Units=GPa)
#
#
# Indices 1 2 3 4 5 6 
#
# 1 50.7648 10.8833 12.1498 -8.8647 1.2691 5.8055
# 2 10.8833 60.0813 24.6198 -13.4214 -0.2860 -8.3455
# 3 12.1498 24.6198 86.6116 -4.7782 1.4003 -6.1180
# 4 -8.8647 -13.4214 -4.7782 21.3075 6.9273 -0.0227
# 5 1.2691 -0.2860 1.4003 6.9273 36.4336 -1.2882
# 6 5.8055 -8.3455 -6.1180 -0.0227 -1.2882 31.1608
#
#
#
# Elastic Compliance Matrix: (Units=1/GPa)
#
#
# Indices 1 2 3 4 5 6 
#
# 1 0.022894 -0.001967 -0.002521 0.008537 -0.002530 -0.005385
# 2 -0.001967 0.022704 -0.005053 0.012950 -0.001831 0.005389
# 3 -0.002521 -0.005053 0.013397 -0.001166 -0.000184 0.001738
# 4 0.008537 0.012950 -0.001166 0.062265 -0.011947 0.001200
# 5 -0.002530 -0.001831 -0.000184 -0.011947 0.029841 0.001170
# 6 -0.005385 0.005389 0.001738 0.001200 0.001170 0.034929
#
#
# Mechanical properties :
#
#
# Convention : Reuss Voigt Hill
#
# Bulk Modulus (GPa) = 25.05474 32.52929 28.79201
# Shear Modulus (GPa) = 22.89217 27.76736 25.32977
#
# Velocity S-wave (km/s) = 3.44311 3.79206 3.62179
# Velocity P-wave (km/s) = 5.36485 6.00155 5.69211
#
# Compressibility (1/GPa) = 0.03991261
#
# Stress axis : x y z
#
# Youngs Moduli (GPa) = 43.68034 44.04555 74.64236
#
# Poissons Ratio (x) = 0.08664 0.18817
# Poissons Ratio (y) = 0.08592 0.37717
# Poissons Ratio (z) = 0.11011 0.22256
#
# Static dielectric constant tensor:
#      x y z
#    x 1.663980 0.014990 0.018930 
#    y 0.014990 1.635700 -0.009920 
#    z 0.018930 -0.009920 1.674050 
# 
# From -- ./inp_files/273932.got.cif
#   From: 2010.05.17/outbox.cif.g08.bks.cpg/sg2_137_cif.got.tgz:273932.got - 2010.06.03 11:33:40.
