data_PCOD9005751
_publ_section_title
;
Structure prediction by ZEFSAII (Michael W. Deem and Ramdas Pophale) SiO2 
 PCOD9005751
Probable space group: P -1
;
_chemical_formula_sum "Si O2"
_cell_formula_units_Z 14
_cell_length_a 10.508296
_cell_length_b 14.918810
_cell_length_c 8.851686
_cell_angle_alpha 58.392836
_cell_angle_beta 106.068898
_cell_angle_gamma 147.378021
_cell_volume 594.760758
_symmetry_space_group_name_H-M "P -1"
_symmetry_group_IT_number 2
_symmetry_cell_setting 'triclinic'
loop_
_space_group_symop_operation_xyz
x,y,z
-x,-y,-z
loop_
_atom_site_type_symbol
_atom_site_label
_atom_site_fract_x
_atom_site_fract_y
_atom_site_fract_z
Si Si1 0.692466 0.517974 0.092776
Si Si2 0.779331 0.147405 0.420255
Si Si3 0.523931 0.485890 0.761576
Si Si4 0.865328 0.954782 0.645906
Si Si5 0.827489 0.437119 0.629010
Si Si6 0.643868 0.753527 0.339941
Si Si7 0.116304 0.665244 0.004953
O O1 0.708445 0.611245 0.150816
O O2 0.414284 0.280074 0.221637
O O3 0.703097 0.579938 0.877410
O O4 0.895916 0.566392 0.119286
O O5 0.787971 0.182009 0.213830
O O6 0.989212 0.354907 0.404925
O O7 0.500000 0.000000 0.500000
O O8 0.829595 0.057326 0.543155
O O9 0.631741 0.638871 0.538467
O O10 0.456721 0.336760 0.780601
O O11 0.000000 0.000000 0.500000
O O12 0.055966 0.031597 0.761807
O O13 0.565667 0.312739 0.595382
O O14 0.000000 0.500000 0.500000
O O15 0.726462 0.288010 0.857217
O O16 0.000000 0.500000 0.000000
#
# Coordination Sequence:
#
# PCOD9005751 Si02
#       7
#     2   2   2   2   2   2   2
#     4  11  22  39  67  96 127 169 232 264 329 394
#     4  11  25  45  72  98 133 176 227 276 333 398
#     4  10  21  38  63  92 123 174 217 271 319 403
#     4  12  25  40  67 100 136 174 220 282 331 392
#     4  11  24  42  68  98 132 180 223 276 334 402
#     4  11  22  41  63  93 138 168 221 273 342 383
#     4  10  21  41  68  93 127 175 224 267 326 403
#
# _framework density 23.538875999999998
#
# number of rings (size 3 to 8) (size 9 to 14) (size 15 to 20)
#    0.000    1.143    1.429    6.857    4.000    0.571 
#    0.000    2.143    0.000    0.000    0.000    0.000 
#    0.000    0.000    0.000    0.000    0.000    0.000 
#
# Total GULP energy -78122.096392 kJ/mol
# GULP energy per Si atom -5580.149742 kJ/mol
# Density = 2.348530 g / cm^3
# Si number density = 23.538876 Si / 1000 Ang^3
#
#
#
# Elastic Constant Matrix: (Units=GPa)
#
#
# Indices 1 2 3 4 5 6 
#
# 1 159.8294 41.4215 25.0073 -13.2773 -10.3522 22.3256
# 2 41.4215 58.5568 26.1070 -9.4814 -0.1048 14.9783
# 3 25.0073 26.1070 89.0522 -5.3881 1.1970 5.2544
# 4 -13.2773 -9.4814 -5.3881 29.8681 1.2801 -9.8949
# 5 -10.3522 -0.1048 1.1970 1.2801 40.3183 2.8662
# 6 22.3256 14.9783 5.2544 -9.8949 2.8662 46.1444
#
#
#
# Elastic Compliance Matrix: (Units=1/GPa)
#
#
# Indices 1 2 3 4 5 6 
#
# 1 0.008132 -0.004657 -0.000746 0.001170 0.002219 -0.002225
# 2 -0.004657 0.024406 -0.005383 0.003316 -0.000772 -0.004297
# 3 -0.000746 -0.005383 0.013015 0.000600 -0.000668 0.000796
# 4 0.001170 0.003316 0.000600 0.037332 -0.001348 0.006378
# 5 0.002219 -0.000772 -0.000668 -0.001348 0.025620 -0.002627
# 6 -0.002225 -0.004297 0.000796 0.006378 -0.002627 0.025582
#
#
# Mechanical properties :
#
#
# Convention : Reuss Voigt Hill
#
# Bulk Modulus (GPa) = 41.69885 54.72333 48.21109
# Shear Modulus (GPa) = 30.55226 37.59300 34.07263
#
# Velocity S-wave (km/s) = 3.60661 4.00066 3.80874
# Velocity P-wave (km/s) = 5.92426 6.68123 6.31410
#
# Compressibility (1/GPa) = 0.02398148
#
# Stress axis : x y z
#
# Youngs Moduli (GPa) = 122.97005 40.97288 76.83336
#
# Poissons Ratio (x) = 0.19082 0.05732
# Poissons Ratio (y) = 0.57271 0.41357
# Poissons Ratio (z) = 0.09174 0.22055
#
# Static dielectric constant tensor:
#      x y z
#    x 1.892900 -0.061090 -0.032470 
#    y -0.061090 2.030960 -0.100810 
#    z -0.032470 -0.100810 1.806460 
# 
# From -- ./inp_files/206013.got.cif
#   From: 2010.05.17/outbox.cif.g08.bks.cpg/sg2_104_cif.got.tgz:206013.got - 2010.06.03 11:33:40.
