data_PCOD9005716
_publ_section_title
;
Structure prediction by ZEFSAII (Michael W. Deem and Ramdas Pophale) SiO2 
 PCOD9005716
Probable space group: P -1
;
_chemical_formula_sum "Si O2"
_cell_formula_units_Z 14
_cell_length_a 8.890220
_cell_length_b 13.774824
_cell_length_c 12.111947
_cell_angle_alpha 111.798176
_cell_angle_beta 69.074710
_cell_angle_gamma 155.321363
_cell_volume 574.270051
_symmetry_space_group_name_H-M "P -1"
_symmetry_group_IT_number 2
_symmetry_cell_setting 'triclinic'
loop_
_space_group_symop_operation_xyz
x,y,z
-x,-y,-z
loop_
_atom_site_type_symbol
_atom_site_label
_atom_site_fract_x
_atom_site_fract_y
_atom_site_fract_z
Si Si1 0.122374 0.798196 0.575925
Si Si2 0.787491 0.414253 0.390913
Si Si3 0.622695 0.995173 0.162689
Si Si4 0.059564 0.620341 0.863215
Si Si5 0.223802 0.441421 0.746149
Si Si6 0.054674 0.908909 0.446028
Si Si7 0.476960 0.257982 0.040114
O O1 0.921737 0.569198 0.518239
O O2 0.500000 0.000000 0.500000
O O3 0.203452 0.884922 0.712890
O O4 0.974661 0.805024 0.538646
O O5 0.038068 0.491378 0.275648
O O6 0.472532 0.153197 0.400510
O O7 0.677943 0.439219 0.340459
O O8 0.181377 0.751691 0.191044
O O9 0.741716 0.158178 0.122714
O O10 0.753768 0.962966 0.057360
O O11 0.319585 0.699852 0.905369
O O12 0.716309 0.436526 0.950850
O O13 0.532608 0.646022 0.839593
O O14 0.167407 0.287441 0.667398
O O15 0.000000 0.000000 0.500000
#
# Coordination Sequence:
#
# PCOD9005716 Si02
#       7
#     2   2   2   2   2   2   2
#     4  11  21  35  54  85 117 142 184 231 282 338
#     4  10  19  35  54  79 112 149 179 231 280 321
#     4  12  18  30  50  82 118 143 173 222 283 329
#     4  10  17  28  50  77 115 144 174 221 283 323
#     4  10  19  34  52  83 112 142 185 228 271 337
#     4  11  24  40  58  78 109 154 197 228 271 331
#     4  10  19  30  49  83 121 142 177 224 280 337
#
# _framework density 24.378772000000001
#
# number of rings (size 3 to 8) (size 9 to 14) (size 15 to 20)
#    0.000    1.429    8.571    0.429    0.000    5.714 
#    0.000    0.000    0.000    0.857    0.000    8.000 
#    0.000    1.429    0.000    0.000    0.000    0.000 
#
# Total GULP energy -78037.583857 kJ/mol
# GULP energy per Si atom -5574.113133 kJ/mol
# Density = 2.432328 g / cm^3
# Si number density = 24.378772 Si / 1000 Ang^3
#
#
#
# Elastic Constant Matrix: (Units=GPa)
#
#
# Indices 1 2 3 4 5 6 
#
# 1 35.3514 21.1952 32.2675 14.2986 -8.5855 -8.6405
# 2 21.1952 142.3208 61.3482 22.4552 16.0580 -35.0650
# 3 32.2675 61.3482 173.5162 54.7208 12.7577 -16.2477
# 4 14.2986 22.4552 54.7208 64.4483 -11.2139 -4.7633
# 5 -8.5855 16.0580 12.7577 -11.2139 23.5784 1.7308
# 6 -8.6405 -35.0650 -16.2477 -4.7633 1.7308 30.9563
#
#
#
# Elastic Compliance Matrix: (Units=1/GPa)
#
#
# Indices 1 2 3 4 5 6 
#
# 1 0.046838 -0.007265 -0.010548 0.006355 0.030838 -0.001439
# 2 -0.007265 0.014077 0.000715 -0.005690 -0.016378 0.014333
# 3 -0.010548 0.000715 0.012597 -0.011249 -0.016764 0.003683
# 4 0.006355 -0.005690 -0.011249 0.029782 0.026991 -0.007502
# 5 0.030838 -0.016378 -0.016764 0.026991 0.088135 -0.019518
# 6 -0.001439 0.014333 0.003683 -0.007502 -0.019518 0.050008
#
#
# Mechanical properties :
#
#
# Convention : Reuss Voigt Hill
#
# Bulk Modulus (GPa) = 25.43485 64.53449 44.98467
# Shear Modulus (GPa) = 17.31661 39.55511 28.43586
#
# Velocity S-wave (km/s) = 2.66807 4.03242 3.41899
# Velocity P-wave (km/s) = 4.46624 6.94332 5.83768
#
# Compressibility (1/GPa) = 0.03931613
#
# Stress axis : x y z
#
# Youngs Moduli (GPa) = 21.35003 71.03554 79.38414
#
# Poissons Ratio (x) = 0.51610 0.83731
# Poissons Ratio (y) = 0.15512 -0.05673
# Poissons Ratio (z) = 0.22519 -0.05077
#
# Static dielectric constant tensor:
#      x y z
#    x 2.161650 0.082470 -0.045460 
#    y 0.082470 1.945420 0.071880 
#    z -0.045460 0.071880 1.998220 
# 
# From -- ./inp_files/387802.got.cif
#   From: 2010.05.17/outbox.cif.g08.bks.cpg/sg2_194_cif.got.tgz:387802.got - 2010.06.03 11:33:40.
