data_PCOD9005936
_publ_section_title
;
Structure prediction by ZEFSAII (Michael W. Deem and Ramdas Pophale) SiO2 
 PCOD9005936
Probable space group: P -1
;
_chemical_formula_sum "Si O2"
_cell_formula_units_Z 16
_cell_length_a 7.598532
_cell_length_b 9.935905
_cell_length_c 22.416136
_cell_angle_alpha 147.639744
_cell_angle_beta 135.174276
_cell_angle_gamma 47.100109
_cell_volume 623.451799
_symmetry_space_group_name_H-M "P -1"
_symmetry_group_IT_number 2
_symmetry_cell_setting 'triclinic'
loop_
_space_group_symop_operation_xyz
x,y,z
-x,-y,-z
loop_
_atom_site_type_symbol
_atom_site_label
_atom_site_fract_x
_atom_site_fract_y
_atom_site_fract_z
Si Si1 0.342339 0.926757 0.879491
Si Si2 0.790647 0.829872 0.876395
Si Si3 0.409768 0.114491 0.377618
Si Si4 0.972698 0.588013 0.125378
Si Si5 0.189150 0.622312 0.371307
Si Si6 0.155294 0.978185 0.380033
Si Si7 0.227286 0.726876 0.124309
Si Si8 0.900146 0.526786 0.370486
O O1 0.512018 0.984257 0.886491
O O2 0.317013 0.633983 0.751620
O O3 0.051682 0.079446 0.876404
O O4 0.500000 0.000000 0.000000
O O5 0.771663 0.673618 0.752378
O O6 0.890070 0.604938 0.863939
O O7 0.000000 0.000000 0.000000
O O8 0.613524 0.286437 0.502366
O O9 0.150848 0.315507 0.371758
O O10 0.365043 0.976972 0.378152
O O11 0.437348 0.892006 0.250607
O O12 0.174852 0.580837 0.117068
O O13 0.937299 0.873149 0.251689
O O14 0.750021 0.466569 0.997678
O O15 0.195962 0.796134 0.379724
O O16 0.939195 0.658436 0.365935
O O17 0.124437 0.261872 0.505025
#
# Coordination Sequence:
#
# PCOD9005936 Si02
#       8
#     2   2   2   2   2   2   2   2
#     4  11  21  38  63  90 117 159 206 248 296 360
#     4  11  23  39  63  89 124 158 201 251 304 362
#     4  10  21  38  64  89 119 163 204 248 303 363
#     4   9  19  38  61  86 121 159 193 249 297 358
#     4  11  23  39  59  92 126 160 201 252 307 357
#     4  10  21  39  62  87 122 163 204 248 303 360
#     4   9  19  37  64  88 120 153 205 242 299 356
#     4  11  23  39  62  91 123 159 205 254 300 359
#
# _framework density 25.663571999999998
#
# number of rings (size 3 to 8) (size 9 to 14) (size 15 to 20)
#    0.000    1.750    1.250    3.000    1.750    4.000 
#    0.000    0.625    0.000    0.000    0.000    0.000 
#    0.000    0.000    0.000    0.000    0.000    0.000 
#
# Total GULP energy -89349.169431 kJ/mol
# GULP energy per Si atom -5584.323089 kJ/mol
# Density = 2.560516 g / cm^3
# Si number density = 25.663572 Si / 1000 Ang^3
#
#
#
# Elastic Constant Matrix: (Units=GPa)
#
#
# Indices 1 2 3 4 5 6 
#
# 1 79.7230 11.2267 52.6094 -1.7363 11.3240 5.4573
# 2 11.2267 68.0659 42.2882 -3.7260 10.9952 11.1501
# 3 52.6094 42.2882 333.3613 13.4996 5.1075 -21.6410
# 4 -1.7363 -3.7260 13.4996 34.8889 -3.5793 -4.7556
# 5 11.3240 10.9952 5.1075 -3.5793 42.6832 1.8590
# 6 5.4573 11.1501 -21.6410 -4.7556 1.8590 21.6273
#
#
#
# Elastic Compliance Matrix: (Units=1/GPa)
#
#
# Indices 1 2 3 4 5 6 
#
# 1 0.015371 0.001089 -0.002989 0.000716 -0.003638 -0.006961
# 2 0.001089 0.019616 -0.003507 0.001264 -0.004239 -0.013255
# 3 -0.002989 -0.003507 0.004384 -0.001239 0.000780 0.006609
# 4 0.000716 0.001264 -0.001239 0.030111 0.001967 0.004380
# 5 -0.003638 -0.004239 0.000780 0.001967 0.025464 0.002128
# 6 -0.006961 -0.013255 0.006609 0.004380 0.002128 0.062222
#
#
# Mechanical properties :
#
#
# Convention : Reuss Voigt Hill
#
# Bulk Modulus (GPa) = 35.01795 77.04431 56.03113
# Shear Modulus (GPa) = 28.16872 44.84161 36.50516
#
# Velocity S-wave (km/s) = 3.31662 4.18459 3.77563
# Velocity P-wave (km/s) = 5.32365 7.30984 6.39434
#
# Compressibility (1/GPa) = 0.02855678
#
# Stress axis : x y z
#
# Youngs Moduli (GPa) = 65.05582 50.97833 228.12281
#
# Poissons Ratio (x) = -0.05551 0.68188
# Poissons Ratio (y) = -0.07084 0.80002
# Poissons Ratio (z) = 0.19446 0.17878
#
# Static dielectric constant tensor:
#      x y z
#    x 2.009470 -0.000800 -0.004050 
#    y -0.000800 2.099130 0.024080 
#    z -0.004050 0.024080 2.057410 
# 
# From -- ./inp_files/607707.got.cif
#   From: 2010.05.17/outbox.cif.g08.bks.cpg/sg2_304_cif.got.tgz:607707.got - 2010.06.03 11:33:40.
