data_PCOD9005664
_publ_section_title
;
Structure prediction by ZEFSAII (Michael W. Deem and Ramdas Pophale) SiO2 
 PCOD9005664
Probable space group: P -1
;
_chemical_formula_sum "Si O2"
_cell_formula_units_Z 12
_cell_length_a 10.096082
_cell_length_b 14.739117
_cell_length_c 9.862979
_cell_angle_alpha 33.038606
_cell_angle_beta 97.711159
_cell_angle_gamma 119.898765
_cell_volume 554.835690
_symmetry_space_group_name_H-M "P -1"
_symmetry_group_IT_number 2
_symmetry_cell_setting 'triclinic'
loop_
_space_group_symop_operation_xyz
x,y,z
-x,-y,-z
loop_
_atom_site_type_symbol
_atom_site_label
_atom_site_fract_x
_atom_site_fract_y
_atom_site_fract_z
Si Si1 0.507318 0.051174 0.776710
Si Si2 0.297973 0.841568 0.595586
Si Si3 0.005050 0.971348 0.879276
Si Si4 0.759325 0.577709 0.136585
Si Si5 0.907125 0.300575 0.849226
Si Si6 0.072482 0.294642 0.263660
O O1 0.652322 0.091228 0.642288
O O2 0.568401 0.300414 0.461152
O O3 0.500000 0.000000 0.000000
O O4 0.297162 0.820593 0.981275
O O5 0.149892 0.853306 0.604438
O O6 0.500000 0.000000 0.500000
O O7 0.188705 0.569939 0.944631
O O8 0.081179 0.193680 0.526478
O O9 0.128699 0.914584 0.946889
O O10 0.000000 0.000000 0.000000
O O11 0.806095 0.737425 0.070138
O O12 0.927843 0.586952 0.161735
O O13 0.819957 0.709800 0.836797
O O14 0.000000 0.500000 0.500000
#
# Coordination Sequence:
#
# PCOD9005664 Si02
#       6
#     2   2   2   2   2   2
#     4  11  20  36  61  91 117 159 209 242 303 365
#     4  10  23  38  63  93 122 162 201 258 300 363
#     4  10  23  39  63  91 122 164 202 258 311 351
#     4   9  21  38  61  85 119 165 198 249 304 358
#     4  10  21  38  63  88 124 156 203 250 303 363
#     4  10  21  42  61  88 127 160 209 245 308 367
#
# _framework density 21.628022999999999
#
# number of rings (size 3 to 8) (size 9 to 14) (size 15 to 20)
#    1.000    1.000    1.667    1.500    2.333    4.000 
#    3.000    2.500    0.000    0.000    0.000    0.000 
#    0.000    0.000    0.000    0.000    0.000    0.000 
#
# Total GULP energy -66816.540091 kJ/mol
# GULP energy per Si atom -5568.045008 kJ/mol
# Density = 2.157880 g / cm^3
# Si number density = 21.628023 Si / 1000 Ang^3
#
#
#
# Elastic Constant Matrix: (Units=GPa)
#
#
# Indices 1 2 3 4 5 6 
#
# 1 47.6522 11.7503 39.8217 -0.7379 -4.0032 0.4476
# 2 11.7503 93.7275 43.0942 13.5481 -9.5071 -0.1242
# 3 39.8217 43.0942 155.3234 17.9765 -5.4523 6.1213
# 4 -0.7379 13.5481 17.9765 46.1946 10.4475 -5.0292
# 5 -4.0032 -9.5071 -5.4523 10.4475 30.9581 -1.6071
# 6 0.4476 -0.1242 6.1213 -5.0292 -1.6071 23.9353
#
#
#
# Elastic Compliance Matrix: (Units=1/GPa)
#
#
# Indices 1 2 3 4 5 6 
#
# 1 0.027341 -0.000439 -0.007330 0.003410 0.001071 0.002149
# 2 -0.000439 0.013094 -0.002936 -0.003734 0.004726 0.000360
# 3 -0.007330 -0.002936 0.009696 -0.003565 0.000903 -0.003046
# 4 0.003410 -0.003734 -0.003565 0.027124 -0.010184 0.005844
# 5 0.001071 0.004726 0.000903 -0.010184 0.037495 0.000151
# 6 0.002149 0.000360 -0.003046 0.005844 0.000151 0.043758
#
#
# Mechanical properties :
#
#
# Convention : Reuss Voigt Hill
#
# Bulk Modulus (GPa) = 34.81708 54.00394 44.41051
# Shear Modulus (GPa) = 26.38612 33.68674 30.03643
#
# Velocity S-wave (km/s) = 3.49663 3.95086 3.73067
# Velocity P-wave (km/s) = 5.69518 6.77023 6.25584
#
# Compressibility (1/GPa) = 0.02872154
#
# Stress axis : x y z
#
# Youngs Moduli (GPa) = 36.57449 76.37076 103.13063
#
# Poissons Ratio (x) = 0.03353 0.75592
# Poissons Ratio (y) = 0.01606 0.30284
# Poissons Ratio (z) = 0.26808 0.22426
#
# Static dielectric constant tensor:
#      x y z
#    x 1.824100 -0.023810 -0.020230 
#    y -0.023810 1.892540 0.053170 
#    z -0.020230 0.053170 1.808540 
# 
# From -- ./inp_files/266458.got.cif
#   From: 2010.05.17/outbox.cif.g08.bks.cpg/sg2_134_cif.got.tgz:266458.got - 2010.06.03 11:33:40.
