data_PCOD9005981
_publ_section_title
;
Structure prediction by ZEFSAII (Michael W. Deem and Ramdas Pophale) SiO2 
 PCOD9005981
Probable space group: P -1
;
_chemical_formula_sum "Si O2"
_cell_formula_units_Z 16
_cell_length_a 25.262971
_cell_length_b 10.514383
_cell_length_c 6.623249
_cell_angle_alpha 41.459104
_cell_angle_beta 122.641177
_cell_angle_gamma 133.917513
_cell_volume 838.348988
_symmetry_space_group_name_H-M "P -1"
_symmetry_group_IT_number 2
_symmetry_cell_setting 'triclinic'
loop_
_space_group_symop_operation_xyz
x,y,z
-x,-y,-z
loop_
_atom_site_type_symbol
_atom_site_label
_atom_site_fract_x
_atom_site_fract_y
_atom_site_fract_z
Si Si1 0.420493 0.487184 0.609936
Si Si2 0.092275 0.349548 0.295489
Si Si3 0.431202 0.920708 0.298435
Si Si4 0.420327 0.227033 0.572662
Si Si5 0.661116 0.959469 0.766402
Si Si6 0.076862 0.919912 0.595326
Si Si7 0.167482 0.751487 0.235135
Si Si8 0.081562 0.657797 0.569666
O O1 0.411920 0.691663 0.420109
O O2 0.391026 0.360942 0.483888
O O3 0.508015 0.601726 0.614126
O O4 0.384171 0.290713 0.933777
O O5 0.147775 0.512032 0.386862
O O6 0.010523 0.216309 0.380965
O O7 0.107407 0.171285 0.433269
O O8 0.091631 0.508306 0.932433
O O9 0.500000 0.000000 0.500000
O O10 0.366410 0.902000 0.326358
O O11 0.443665 0.100804 0.934329
O O12 0.361885 0.057646 0.493844
O O13 0.747562 0.068579 0.835212
O O14 0.087588 0.870025 0.446507
O O15 0.115723 0.820525 0.929591
O O16 0.142080 0.727986 0.440173
O O17 0.000000 0.500000 0.500000
#
# Coordination Sequence:
#
# PCOD9005981 Si02
#       8
#     2   2   2   2   2   2   2   2
#     4  10  22  39  64  90 119 154 206 254 299 361
#     4  10  21  38  64  91 119 154 208 256 300 358
#     4  11  23  39  67  93 118 157 207 255 303 364
#     4  10  22  38  64  96 118 154 207 254 304 365
#     4  11  25  40  59  89 128 165 199 253 314 364
#     4  10  21  38  64  91 117 155 206 258 301 359
#     4  11  23  41  58  85 130 162 198 252 310 359
#     4  11  19  36  62  92 117 159 203 251 300 359
#
# _framework density 19.085131000000001
#
# number of rings (size 3 to 8) (size 9 to 14) (size 15 to 20)
#    0.000    1.500    3.750    1.500    3.500    6.500 
#    0.000    0.000    0.000    0.000    0.000    0.000 
#    0.000    0.000    0.000    0.000    0.000    0.000 
#
# Total GULP energy -89264.541713 kJ/mol
# GULP energy per Si atom -5579.033857 kJ/mol
# Density = 1.904169 g / cm^3
# Si number density = 19.085131 Si / 1000 Ang^3
#
#
#
# Elastic Constant Matrix: (Units=GPa)
#
#
# Indices 1 2 3 4 5 6 
#
# 1 58.7779 46.3688 21.7808 -21.0360 -16.4066 -40.9913
# 2 46.3688 109.9160 42.5879 -12.7518 -5.3340 -44.4438
# 3 21.7808 42.5879 48.5889 -14.8674 -10.9030 -18.7135
# 4 -21.0360 -12.7518 -14.8674 15.8927 -13.4353 4.1889
# 5 -16.4066 -5.3340 -10.9030 -13.4353 20.4633 -6.4870
# 6 -40.9913 -44.4438 -18.7135 4.1889 -6.4870 40.8203
#
#
#
# Elastic Compliance Matrix: (Units=1/GPa)
#
#
# Indices 1 2 3 4 5 6 
#
# 1 0.006042 -0.002655 -0.015024 -0.025766 -0.022227 -0.004599
# 2 -0.002655 0.020254 -0.011926 -0.002395 -0.000301 0.014117
# 3 -0.015024 -0.011926 0.029539 -0.003136 -0.006296 -0.015209
# 4 -0.025766 -0.002395 -0.003136 0.009894 -0.027656 -0.035329
# 5 -0.022227 -0.000301 -0.006296 -0.027656 0.002381 -0.022318
# 6 -0.004599 0.014117 -0.015209 -0.035329 -0.022318 0.028355
#
#
# Mechanical properties :
#
#
# Convention : Reuss Voigt Hill
#
# Bulk Modulus (GPa) = -296.28744 48.75088 -123.76828
# Shear Modulus (GPa) = 32.35163 22.53826 27.44495
#
# Velocity S-wave (km/s) = 4.12165 3.44020 3.79625
# Velocity P-wave (km/s) = 11.52959 6.43268 6.76580
#
# Compressibility (1/GPa) = -0.00337510
#
# Stress axis : x y z
#
# Youngs Moduli (GPa) = 165.49884 49.37219 33.85388
#
# Poissons Ratio (x) = 0.13109 0.50862
# Poissons Ratio (y) = 0.43944 0.40374
# Poissons Ratio (z) = 2.48646 0.58881
#
# Static dielectric constant tensor:
#      x y z
#    x 1.651100 -0.036320 0.003050 
#    y -0.036320 1.706450 0.000790 
#    z 0.003050 0.000790 1.661650 
# 
# From -- ./inp_files/56247.got.cif
#   From: 2010.05.17/outbox.cif.g08.bks.cpg/sg2_29_cif.got.tgz:56247.got - 2010.06.03 11:33:40.
