data_PCOD9005570
_publ_section_title
;
Structure prediction by ZEFSAII (Michael W. Deem and Ramdas Pophale) SiO2 
 PCOD9005570
Probable space group: P -1
;
_chemical_formula_sum "Si O2"
_cell_formula_units_Z 16
_cell_length_a 7.951592
_cell_length_b 10.830765
_cell_length_c 21.923976
_cell_angle_alpha 26.567153
_cell_angle_beta 129.575007
_cell_angle_gamma 138.188516
_cell_volume 560.214201
_symmetry_space_group_name_H-M "P -1"
_symmetry_group_IT_number 2
_symmetry_cell_setting 'triclinic'
loop_
_space_group_symop_operation_xyz
x,y,z
-x,-y,-z
loop_
_atom_site_type_symbol
_atom_site_label
_atom_site_fract_x
_atom_site_fract_y
_atom_site_fract_z
Si Si1 0.166770 0.178751 0.540186
Si Si2 0.190026 0.273825 0.875358
Si Si3 0.411756 0.697792 0.967605
Si Si4 0.216503 0.798825 0.266384
Si Si5 0.841224 0.118726 0.647520
Si Si6 0.996897 0.661284 0.819479
Si Si7 0.389623 0.140832 0.480741
Si Si8 0.557958 0.764293 0.172108
O O1 0.299145 0.553722 0.419518
O O2 0.269384 0.186324 0.493811
O O3 0.176635 0.901449 0.702120
O O4 0.864514 0.060954 0.528688
O O5 0.279120 0.176597 0.877210
O O6 0.014372 0.394933 0.750504
O O7 0.444199 0.450374 0.897074
O O8 0.000000 0.000000 0.000000
O O9 0.590152 0.907160 0.860340
O O10 0.396960 0.943677 0.903545
O O11 0.137485 0.514867 0.954310
O O12 0.154059 0.905211 0.267874
O O13 0.568212 0.004769 0.602438
O O14 0.000000 0.500000 0.500000
O O15 0.951476 0.904513 0.742200
O O16 0.733947 0.404111 0.843225
O O17 0.558125 0.484107 0.335712
#
# Coordination Sequence:
#
# PCOD9005570 Si02
#       8
#     2   2   2   2   2   2   2   2
#     4  10  21  38  62  93 132 163 208 251 315 389
#     4  10  24  43  66  93 122 170 218 268 324 370
#     4  11  23  45  67  89 129 168 220 268 315 373
#     4  11  22  39  66  90 126 172 209 260 318 377
#     4  12  23  36  58  94 138 168 203 254 317 386
#     4  11  25  39  64 103 129 170 211 257 319 388
#     4  10  22  37  59  97 129 166 203 257 316 382
#     4  11  23  41  69  93 126 171 213 265 319 378
#
# _framework density 28.560504999999999
#
# number of rings (size 3 to 8) (size 9 to 14) (size 15 to 20)
#    0.000    1.250    2.500    3.375    1.750    2.500 
#    0.000    0.000    0.000    6.000    0.000    0.000 
#    0.000    0.000    0.000    0.000    0.000    0.000 
#
# Total GULP energy -89677.936612 kJ/mol
# GULP energy per Si atom -5604.871038 kJ/mol
# Density = 2.849550 g / cm^3
# Si number density = 28.560505 Si / 1000 Ang^3
#
#
#
# Elastic Constant Matrix: (Units=GPa)
#
#
# Indices 1 2 3 4 5 6 
#
# 1 115.3002 25.0302 49.9107 6.0634 -45.4564 -1.4826
# 2 25.0302 128.6703 34.2601 33.7629 7.1403 27.9051
# 3 49.9107 34.2601 188.1077 35.2787 -3.1287 12.1994
# 4 6.0634 33.7629 35.2787 58.3192 10.2047 10.4086
# 5 -45.4564 7.1403 -3.1287 10.2047 66.5307 22.7971
# 6 -1.4826 27.9051 12.1994 10.4086 22.7971 42.7749
#
#
#
# Elastic Compliance Matrix: (Units=1/GPa)
#
#
# Indices 1 2 3 4 5 6 
#
# 1 0.014947 -0.001989 -0.003223 0.000155 0.011410 -0.003383
# 2 -0.001989 0.010775 -0.000112 -0.004941 0.000301 -0.006025
# 3 -0.003223 -0.000112 0.006854 -0.003448 -0.001154 -0.000539
# 4 0.000155 -0.004941 -0.003448 0.022554 -0.003117 0.000385
# 5 0.011410 0.000301 -0.001154 -0.003117 0.027866 -0.013564
# 6 -0.003383 -0.006025 -0.000539 0.000385 -0.013564 0.034480
#
#
# Mechanical properties :
#
#
# Convention : Reuss Voigt Hill
#
# Bulk Modulus (GPa) = 45.60824 72.27556 58.94190
# Shear Modulus (GPa) = 36.91827 55.05013 45.98420
#
# Velocity S-wave (km/s) = 3.59922 4.39508 4.01691
# Velocity P-wave (km/s) = 5.76855 7.14960 6.49588
#
# Compressibility (1/GPa) = 0.02192586
#
# Stress axis : x y z
#
# Youngs Moduli (GPa) = 66.90423 92.80777 145.89567
#
# Poissons Ratio (x) = 0.18463 0.47028
# Poissons Ratio (y) = 0.13310 0.01638
# Poissons Ratio (z) = 0.21566 0.01042
#
# Static dielectric constant tensor:
#      x y z
#    x 2.168020 0.081960 0.000440 
#    y 0.081960 2.273820 -0.003600 
#    z 0.000440 -0.003600 2.192960 
# 
# From -- ./inp_files/589397.got.cif
#   From: 2010.05.17/outbox.cif.g08.bks.cpg/sg2_295_cif.got.tgz:589397.got - 2010.06.03 11:33:40.
