data_PCOD9005894
_publ_section_title
;
Structure prediction by ZEFSAII (Michael W. Deem and Ramdas Pophale) SiO2 
 PCOD9005894
Probable space group: P -1
;
_chemical_formula_sum "Si O2"
_cell_formula_units_Z 16
_cell_length_a 7.783770
_cell_length_b 6.759415
_cell_length_c 19.137484
_cell_angle_alpha 72.059331
_cell_angle_beta 42.700278
_cell_angle_gamma 84.056274
_cell_volume 637.756145
_symmetry_space_group_name_H-M "P -1"
_symmetry_group_IT_number 2
_symmetry_cell_setting 'triclinic'
loop_
_space_group_symop_operation_xyz
x,y,z
-x,-y,-z
loop_
_atom_site_type_symbol
_atom_site_label
_atom_site_fract_x
_atom_site_fract_y
_atom_site_fract_z
Si Si1 0.135669 0.205262 0.739289
Si Si2 0.101270 0.854119 0.043052
Si Si3 0.710985 0.411762 0.196324
Si Si4 0.684871 0.141546 0.633605
Si Si5 0.783128 0.707241 0.579761
Si Si6 0.566250 0.850499 0.819256
Si Si7 0.413250 0.264208 0.519727
Si Si8 0.092857 0.695613 0.705684
O O1 0.419380 0.200181 0.684463
O O2 0.190116 0.142489 0.650622
O O3 0.948944 0.087927 0.867858
O O4 0.074940 0.441448 0.728969
O O5 0.927936 0.621223 0.106180
O O6 0.400205 0.862922 0.936440
O O7 0.000000 0.000000 0.000000
O O8 0.432740 0.461792 0.298664
O O9 0.639403 0.284891 0.159716
O O10 0.802939 0.276925 0.247930
O O11 0.919026 0.304496 0.511432
O O12 0.737875 0.921652 0.607928
O O13 0.664209 0.076175 0.727939
O O14 0.704121 0.721984 0.522257
O O15 0.813647 0.746565 0.769972
O O16 0.500000 0.500000 0.500000
O O17 0.688831 0.197861 0.427425
#
# Coordination Sequence:
#
# PCOD9005894 Si02
#       8
#     2   2   2   2   2   2   2   2
#     4  10  21  39  61  92 134 167 210 272 333 382
#     4  11  22  43  66  93 132 173 222 278 328 382
#     4   9  21  41  68  96 123 175 223 269 330 393
#     4  10  21  38  64 101 132 174 215 270 337 392
#     4   9  20  39  64  97 135 172 216 266 334 415
#     4  11  22  42  71  91 130 181 224 269 321 405
#     4   9  19  39  60  94 134 168 209 276 328 392
#     4   9  21  41  64  96 128 170 221 268 330 397
#
# _framework density 25.087956999999999
#
# number of rings (size 3 to 8) (size 9 to 14) (size 15 to 20)
#    0.000    2.250    1.250    1.125    5.250    2.500 
#   13.500    3.750    0.000    4.500    0.000    0.000 
#    0.000    0.000    0.000    0.000    0.000    0.000 
#
# Total GULP energy -89426.859023 kJ/mol
# GULP energy per Si atom -5589.178689 kJ/mol
# Density = 2.503086 g / cm^3
# Si number density = 25.087957 Si / 1000 Ang^3
#
#
#
# Elastic Constant Matrix: (Units=GPa)
#
#
# Indices 1 2 3 4 5 6 
#
# 1 78.2731 21.3242 59.2013 17.3473 6.2376 -14.0540
# 2 21.3242 87.5531 47.6651 5.8960 -2.0234 -15.3375
# 3 59.2013 47.6651 185.3385 44.4571 20.2549 -15.0925
# 4 17.3473 5.8960 44.4571 43.7826 -3.7429 -1.6478
# 5 6.2376 -2.0234 20.2549 -3.7429 51.1173 13.4926
# 6 -14.0540 -15.3375 -15.0925 -1.6478 13.4926 47.8351
#
#
#
# Elastic Compliance Matrix: (Units=1/GPa)
#
#
# Indices 1 2 3 4 5 6 
#
# 1 0.017703 -0.001199 -0.004222 -0.002568 -0.001749 0.003889
# 2 -0.001199 0.014142 -0.003913 0.002792 0.001791 0.002539
# 3 -0.004222 -0.003913 0.010594 -0.008912 -0.005005 0.001952
# 4 -0.002568 0.002792 -0.008912 0.033022 0.007323 -0.003599
# 5 -0.001749 0.001791 -0.005005 0.007323 0.024527 -0.008185
# 6 0.003889 0.002539 0.001952 -0.003599 -0.008185 0.025662
#
#
# Mechanical properties :
#
#
# Convention : Reuss Voigt Hill
#
# Bulk Modulus (GPa) = 42.06865 67.50508 54.78687
# Shear Modulus (GPa) = 32.84230 43.41194 38.12712
#
# Velocity S-wave (km/s) = 3.62205 4.16431 3.90261
# Velocity P-wave (km/s) = 5.85638 7.07727 6.49557
#
# Compressibility (1/GPa) = 0.02377067
#
# Stress axis : x y z
#
# Youngs Moduli (GPa) = 56.48760 70.71177 94.39053
#
# Poissons Ratio (x) = 0.08479 0.39855
# Poissons Ratio (y) = 0.06773 0.36933
# Poissons Ratio (z) = 0.23851 0.27668
#
# Static dielectric constant tensor:
#      x y z
#    x 1.985270 0.043300 0.014460 
#    y 0.043300 2.124300 -0.044920 
#    z 0.014460 -0.044920 2.055110 
# 
# From -- ./inp_files/491455.got.cif
#   From: 2010.05.17/outbox.cif.g08.bks.cpg/sg2_246_cif.got.tgz:491455.got - 2010.06.03 11:33:40.
