data_PCOD9005827
_publ_section_title
;
Structure prediction by ZEFSAII (Michael W. Deem and Ramdas Pophale) SiO2 
 PCOD9005827
Probable space group: P -1
;
_chemical_formula_sum "Si O2"
_cell_formula_units_Z 15
_cell_length_a 12.951374
_cell_length_b 5.013543
_cell_length_c 28.176707
_cell_angle_alpha 114.686108
_cell_angle_beta 156.454717
_cell_angle_gamma 57.655686
_cell_volume 602.929373
_symmetry_space_group_name_H-M "P -1"
_symmetry_group_IT_number 2
_symmetry_cell_setting 'triclinic'
loop_
_space_group_symop_operation_xyz
x,y,z
-x,-y,-z
loop_
_atom_site_type_symbol
_atom_site_label
_atom_site_fract_x
_atom_site_fract_y
_atom_site_fract_z
Si Si1 0.287010 0.299611 0.729524
Si Si2 0.226829 0.667021 0.638253
Si Si3 0.000000 0.000000 0.000000
Si Si4 0.746415 0.598610 0.794616
Si Si5 0.334166 0.282379 0.487579
Si Si6 0.325865 0.219193 0.985589
Si Si7 0.405004 0.927377 0.588561
Si Si8 0.734439 0.083037 0.976186
O O1 0.275007 0.395995 0.677286
O O2 0.591361 0.237837 0.875015
O O3 0.007534 0.581127 0.654841
O O4 0.263322 0.964751 0.701926
O O5 0.464090 0.569068 0.691026
O O6 0.897943 0.845021 0.497742
O O7 0.124062 0.244284 0.099788
O O8 0.990550 0.165409 0.953468
O O9 0.646542 0.817451 0.721514
O O10 0.001432 0.264427 0.860168
O O11 0.395765 0.599975 0.539026
O O12 0.500000 0.000000 0.500000
O O13 0.414765 0.126998 0.561855
O O14 0.291499 0.581456 0.987618
O O15 0.500000 0.000000 0.000000
O O16 0.434702 0.058748 0.071605
#
# Coordination Sequence:
#
# PCOD9005827 Si02
#       8
#     2   2   1   2   2   2   2   2
#     4  10  21  38  63  95 127 165 214 273 330 393
#     4  10  21  39  64  96 133 164 212 270 344 402
#     4  10  24  40  68 102 128 174 232 272 348 392
#     4  11  24  43  70  96 143 177 224 287 341 407
#     4  10  22  41  65  97 134 175 229 269 332 409
#     4  11  27  43  61  93 128 176 230 270 333 403
#     4  10  23  40  65 102 134 175 219 278 342 408
#     4  11  23  42  66  90 129 169 219 281 330 396
#
# _framework density 24.878537000000001
#
# number of rings (size 3 to 8) (size 9 to 14) (size 15 to 20)
#    0.000    1.600    1.333    2.000    1.867    6.400 
#    0.000    4.000    0.000    0.000    0.000    0.000 
#    0.000    0.000    0.000    0.000    0.000    0.000 
#
# Total GULP energy -83576.526171 kJ/mol
# GULP energy per Si atom -5571.768411 kJ/mol
# Density = 2.482191 g / cm^3
# Si number density = 24.878537 Si / 1000 Ang^3
#
#
#
# Elastic Constant Matrix: (Units=GPa)
#
#
# Indices 1 2 3 4 5 6 
#
# 1 126.5911 41.1370 10.9357 2.5743 -2.2017 -29.1530
# 2 41.1370 112.7884 19.0852 0.6978 -4.5316 -15.4691
# 3 10.9357 19.0852 89.0772 4.2069 -3.6636 -12.9960
# 4 2.5743 0.6978 4.2069 23.4383 -0.4214 7.0092
# 5 -2.2017 -4.5316 -3.6636 -0.4214 22.4877 -10.3732
# 6 -29.1530 -15.4691 -12.9960 7.0092 -10.3732 57.2378
#
#
#
# Elastic Compliance Matrix: (Units=1/GPa)
#
#
# Indices 1 2 3 4 5 6 
#
# 1 0.010135 -0.002903 0.000395 -0.002634 0.002872 0.005310
# 2 -0.002903 0.010476 -0.001588 -0.000088 0.002214 0.001404
# 3 0.000395 -0.001588 0.012326 -0.003215 0.003311 0.003564
# 4 -0.002634 -0.000088 -0.003215 0.045983 -0.003821 -0.008419
# 5 0.002872 0.002214 0.003311 -0.003821 0.051481 0.012610
# 6 0.005310 0.001404 0.003564 -0.008419 0.012610 0.024681
#
#
# Mechanical properties :
#
#
# Convention : Reuss Voigt Hill
#
# Bulk Modulus (GPa) = 40.41349 52.30807 46.36078
# Shear Modulus (GPa) = 29.15069 37.78601 33.46835
#
# Velocity S-wave (km/s) = 3.42675 3.90143 3.67177
# Velocity P-wave (km/s) = 5.65123 6.43163 6.05402
#
# Compressibility (1/GPa) = 0.02474421
#
# Stress axis : x y z
#
# Youngs Moduli (GPa) = 98.66566 95.45729 81.12943
#
# Poissons Ratio (x) = 0.27716 -0.03205
# Poissons Ratio (y) = 0.28647 0.12884
# Poissons Ratio (z) = -0.03898 0.15159
#
# Static dielectric constant tensor:
#      x y z
#    x 1.723800 0.264990 -0.129670 
#    y 0.264990 1.896780 0.118530 
#    z -0.129670 0.118530 2.005030 
# 
# From -- ./inp_files/367532.got.cif
#   From: 2010.05.17/outbox.cif.g08.bks.cpg/sg2_184_cif.got.tgz:367532.got - 2010.06.03 11:33:40.
