data_PCOD9005701
_publ_section_title
;
Structure prediction by ZEFSAII (Michael W. Deem and Ramdas Pophale) SiO2 
 PCOD9005701
Probable space group: P -1
;
_chemical_formula_sum "Si O2"
_cell_formula_units_Z 16
_cell_length_a 22.223513
_cell_length_b 10.517467
_cell_length_c 18.652597
_cell_angle_alpha 145.119704
_cell_angle_beta 20.050981
_cell_angle_gamma 146.071246
_cell_volume 815.039182
_symmetry_space_group_name_H-M "P -1"
_symmetry_group_IT_number 2
_symmetry_cell_setting 'triclinic'
loop_
_space_group_symop_operation_xyz
x,y,z
-x,-y,-z
loop_
_atom_site_type_symbol
_atom_site_label
_atom_site_fract_x
_atom_site_fract_y
_atom_site_fract_z
Si Si1 0.636908 0.602168 0.329022
Si Si2 0.822221 0.908706 0.703262
Si Si3 0.726535 0.352457 0.788246
Si Si4 0.438206 0.376847 0.235989
Si Si5 0.024331 0.742870 0.041746
Si Si6 0.080829 0.180307 0.289192
Si Si7 0.418918 0.794825 0.551555
Si Si8 0.524456 0.127615 0.147186
O O1 0.500000 0.500000 0.500000
O O2 0.557961 0.779999 0.453860
O O3 0.598374 0.367847 0.217024
O O4 0.845742 0.700244 0.169799
O O5 0.702285 0.663685 0.691345
O O6 0.850585 0.902553 0.752680
O O7 0.000000 0.000000 0.500000
O O8 0.704729 0.078908 0.895279
O O9 0.771129 0.593776 0.806529
O O10 0.912528 0.277948 0.546041
O O11 0.583678 0.115430 0.805773
O O12 0.633166 0.398462 0.988838
O O13 0.410167 0.574646 0.409490
O O14 0.402623 0.164618 0.234317
O O15 0.030216 0.961031 0.189052
O O16 0.220565 0.792783 0.804242
O O17 0.000000 0.500000 0.000000
O O18 0.500000 0.000000 0.500000
#
# Coordination Sequence:
#
# PCOD9005701 Si02
#       8
#     2   2   2   2   2   2   2   2
#     4  11  23  42  69 102 131 188 228 281 348 406
#     4  11  22  35  61  92 121 162 212 267 327 385
#     4  10  21  42  62  90 134 173 208 276 340 392
#     4  10  22  41  64  92 129 172 215 266 336 403
#     4  12  25  44  73 102 139 184 238 287 337 424
#     4  11  24  40  63  98 133 168 222 278 336 399
#     4  11  26  47  68 102 143 182 231 291 346 410
#     4  10  21  38  63  90 128 164 218 266 325 404
#
# _framework density 19.630958
#
# number of rings (size 3 to 8) (size 9 to 14) (size 15 to 20)
#    0.000    1.250    1.250    5.250    5.250    2.500 
#    6.750    0.000    0.000    0.000    0.000    0.000 
#    0.000    0.000    0.000    0.000    0.000    0.000 
#
# Total GULP energy -89112.313642 kJ/mol
# GULP energy per Si atom -5569.519603 kJ/mol
# Density = 1.958628 g / cm^3
# Si number density = 19.630958 Si / 1000 Ang^3
#
#
#
# Elastic Constant Matrix: (Units=GPa)
#
#
# Indices 1 2 3 4 5 6 
#
# 1 140.2855 51.3890 46.0938 -0.9250 -7.3244 10.5889
# 2 51.3890 100.6170 34.9897 -6.7663 -1.9637 -10.7752
# 3 46.0938 34.9897 97.2269 -12.3840 -5.9573 5.5509
# 4 -0.9250 -6.7663 -12.3840 32.1522 2.0902 7.6407
# 5 -7.3244 -1.9637 -5.9573 2.0902 30.4507 1.2486
# 6 10.5889 -10.7752 5.5509 7.6407 1.2486 29.1971
#
#
#
# Elastic Compliance Matrix: (Units=1/GPa)
#
#
# Indices 1 2 3 4 5 6 
#
# 1 0.010278 -0.004788 -0.002861 -0.000788 0.001856 -0.004824
# 2 -0.004788 0.014383 -0.003454 -0.000219 -0.001205 0.007810
# 3 -0.002861 -0.003454 0.013935 0.005497 0.001618 -0.004394
# 4 -0.000788 -0.000219 0.005497 0.035630 -0.001159 -0.010115
# 5 0.001856 -0.001205 0.001618 -0.001159 0.033710 -0.002564
# 6 -0.004824 0.007810 -0.004394 -0.010115 -0.002564 0.042474
#
#
# Mechanical properties :
#
#
# Convention : Reuss Voigt Hill
#
# Bulk Modulus (GPa) = 61.01067 67.00825 64.00946
# Shear Modulus (GPa) = 28.07757 32.07046 30.07402
#
# Velocity S-wave (km/s) = 3.78599 4.04625 3.91828
# Velocity P-wave (km/s) = 7.08928 7.48583 7.29025
#
# Compressibility (1/GPa) = 0.01639058
#
# Stress axis : x y z
#
# Youngs Moduli (GPa) = 97.29541 69.52515 71.76323
#
# Poissons Ratio (x) = 0.33288 0.20531
# Poissons Ratio (y) = 0.46583 0.24787
# Poissons Ratio (z) = 0.27835 0.24014
#
# Static dielectric constant tensor:
#      x y z
#    x 1.486250 0.124450 -0.060740 
#    y 0.124450 1.808210 -0.043680 
#    z -0.060740 -0.043680 1.694980 
# 
# From -- ./inp_files/577621.got.cif
#   From: 2010.05.17/outbox.cif.g08.bks.cpg/sg2_289_cif.got.tgz:577621.got - 2010.06.03 11:33:40.
