data_PCOD9005254
_publ_section_title
;
Structure prediction by ZEFSAII (Michael W. Deem and Ramdas Pophale) SiO2 
 PCOD9005254
Probable space group: P -1
;
_chemical_formula_sum "Si O2"
_cell_formula_units_Z 12
_cell_length_a 10.937246
_cell_length_b 20.303018
_cell_length_c 9.390198
_cell_angle_alpha 57.338993
_cell_angle_beta 122.254826
_cell_angle_gamma 161.967158
_cell_volume 541.737678
_symmetry_space_group_name_H-M "P -1"
_symmetry_group_IT_number 2
_symmetry_cell_setting 'triclinic'
loop_
_space_group_symop_operation_xyz
x,y,z
-x,-y,-z
loop_
_atom_site_type_symbol
_atom_site_label
_atom_site_fract_x
_atom_site_fract_y
_atom_site_fract_z
Si Si1 0.323635 0.730373 0.772849
Si Si2 0.098038 0.344220 0.265187
Si Si3 0.314808 0.294574 0.561645
Si Si4 0.273472 0.804849 0.074507
Si Si5 0.549990 0.789843 0.129243
Si Si6 0.954400 0.388167 0.550694
O O1 0.245926 0.776928 0.736506
O O2 0.903217 0.470748 0.823797
O O3 0.377151 0.772492 0.590903
O O4 0.589096 0.820183 0.948770
O O5 0.051941 0.229653 0.403879
O O6 0.490897 0.570213 0.330741
O O7 0.072196 0.354939 0.071478
O O8 0.189224 0.145087 0.709640
O O9 0.661508 0.452949 0.476615
O O10 0.550794 0.874243 0.106688
O O11 0.130577 0.706224 0.254867
O O12 0.500000 0.000000 0.000000
O O13 0.000000 0.500000 0.500000
#
# Coordination Sequence:
#
# PCOD9005254 Si02
#       6
#     2   2   2   2   2   2
#     4   8  14  27  50  69  89 119 163 202 226 265
#     4   8  17  31  47  75  95 124 157 200 240 281
#     4   9  16  30  54  72  92 122 163 208 232 267
#     4  11  20  31  46  71 105 131 151 190 244 294
#     4   8  14  28  46  67  87 124 161 185 231 275
#     4  10  17  28  49  75  96 117 167 202 231 273
#
# _framework density 22.150943999999999
#
# number of rings (size 3 to 8) (size 9 to 14) (size 15 to 20)
#    0.000    3.333    3.333    1.000    0.000    0.667 
#    0.000    8.333    0.000    0.000    0.000   10.500 
#    0.000    0.000    0.000    0.000    0.000    0.000 
#
# Total GULP energy -66851.735106 kJ/mol
# GULP energy per Si atom -5570.977926 kJ/mol
# Density = 2.210053 g / cm^3
# Si number density = 22.150944 Si / 1000 Ang^3
#
#
#
# Elastic Constant Matrix: (Units=GPa)
#
#
# Indices 1 2 3 4 5 6 
#
# 1 60.9060 58.9694 72.9547 -0.6561 17.6286 -26.8030
# 2 58.9694 41.1933 51.7794 -15.6978 2.8526 -14.1039
# 3 72.9547 51.7794 266.3801 0.9837 -2.0497 -19.6473
# 4 -0.6561 -15.6978 0.9837 33.6073 -9.2841 12.7132
# 5 17.6286 2.8526 -2.0497 -9.2841 55.9267 -2.9282
# 6 -26.8030 -14.1039 -19.6473 12.7132 -2.9282 27.1555
#
#
#
# Elastic Compliance Matrix: (Units=1/GPa)
#
#
# Indices 1 2 3 4 5 6 
#
# 1 -0.017057 0.030332 -0.002075 0.019926 0.006474 -0.011214
# 2 0.030332 -0.009949 -0.004260 -0.017794 -0.010652 0.028871
# 3 -0.002075 -0.004260 0.005210 -0.002219 0.000727 0.000626
# 4 0.019926 -0.017794 -0.002219 0.022016 -0.001888 -0.001690
# 5 0.006474 -0.010652 0.000727 -0.001888 0.016307 0.004026
# 6 -0.011214 0.028871 0.000626 -0.001690 0.004026 0.042429
#
#
# Mechanical properties :
#
#
# Convention : Reuss Voigt Hill
#
# Bulk Modulus (GPa) = 38.17148 81.76516 59.96832
# Shear Modulus (GPa) = 253.85757 35.65630 144.75693
#
# Velocity S-wave (km/s) = 10.71692 4.01646 8.09272
# Velocity P-wave (km/s) = 13.05397 7.64866 10.69832
#
# Compressibility (1/GPa) = 0.02619757
#
# Stress axis : x y z
#
# Youngs Moduli (GPa) = -58.62636 -100.51493 191.92127
#
# Poissons Ratio (x) = 3.04882 0.39830
# Poissons Ratio (y) = 1.77826 0.81761
# Poissons Ratio (z) = -0.12167 -0.42821
#
# Static dielectric constant tensor:
#      x y z
#    x 1.949400 0.031890 -0.009190 
#    y 0.031890 1.873050 0.011790 
#    z -0.009190 0.011790 1.841810 
# 
# From -- ./inp_files/240354.got.cif
#   From: 2010.05.17/outbox.cif.g08.bks.cpg/sg2_121_cif.got.tgz:240354.got - 2010.06.03 11:33:40.
