data_PCOD9005418
_publ_section_title
;
Structure prediction by ZEFSAII (Michael W. Deem and Ramdas Pophale) SiO2 
 PCOD9005418
Probable space group: P -1
;
_chemical_formula_sum "Si O2"
_cell_formula_units_Z 16
_cell_length_a 12.545045
_cell_length_b 14.061024
_cell_length_c 15.847049
_cell_angle_alpha 151.930070
_cell_angle_beta 145.118292
_cell_angle_gamma 43.431719
_cell_volume 752.200562
_symmetry_space_group_name_H-M "P -1"
_symmetry_group_IT_number 2
_symmetry_cell_setting 'triclinic'
loop_
_space_group_symop_operation_xyz
x,y,z
-x,-y,-z
loop_
_atom_site_type_symbol
_atom_site_label
_atom_site_fract_x
_atom_site_fract_y
_atom_site_fract_z
Si Si1 0.909645 0.455083 0.046713
Si Si2 0.253754 0.567297 0.256449
Si Si3 0.284357 0.554430 0.915907
Si Si4 0.110406 0.042183 0.892462
Si Si5 0.513664 0.067381 0.259719
Si Si6 0.772164 0.782591 0.506042
Si Si7 0.686760 0.908988 0.091160
Si Si8 0.553810 0.026875 0.669509
O O1 0.790675 0.525382 0.105325
O O2 0.066043 0.594275 0.212375
O O3 0.788943 0.385103 0.832423
O O4 0.019354 0.263183 0.005633
O O5 0.415830 0.704408 0.505166
O O6 0.302716 0.330183 0.104199
O O7 0.197147 0.435825 0.687384
O O8 0.500000 0.500000 0.000000
O O9 0.293586 0.797482 0.110434
O O10 0.309932 0.051147 0.073755
O O11 0.147168 0.994696 0.779750
O O12 0.971086 0.886016 0.720724
O O13 0.499759 0.974016 0.269352
O O14 0.665472 0.956600 0.212496
O O15 0.634293 0.915051 0.458368
O O16 0.651313 0.815940 0.538614
O O17 0.500000 0.000000 0.000000
#
# Coordination Sequence:
#
# PCOD9005418 Si02
#       8
#     2   2   2   2   2   2   2   2
#     4  10  21  42  63  93 125 155 211 256 305 363
#     4  10  23  40  65  93 124 160 203 261 300 364
#     4  10  22  37  64  88 119 163 200 254 309 359
#     4  10  21  42  60  90 127 160 204 252 306 370
#     4  11  24  39  65  90 125 169 201 248 309 371
#     4  10  21  38  62  87 118 162 200 259 304 351
#     4   9  22  40  59  91 127 159 201 246 301 372
#     4  10  22  40  61  89 122 158 211 252 304 362
#
# _framework density 21.270921000000001
#
# number of rings (size 3 to 8) (size 9 to 14) (size 15 to 20)
#    0.000    2.000    1.250    0.750    8.750    5.000 
#    2.250    3.125    0.000    0.000    0.000    0.000 
#    0.000    0.000    0.000    0.000    0.000    0.000 
#
# Total GULP energy -89212.830959 kJ/mol
# GULP energy per Si atom -5575.801935 kJ/mol
# Density = 2.122251 g / cm^3
# Si number density = 21.270921 Si / 1000 Ang^3
#
#
#
# Elastic Constant Matrix: (Units=GPa)
#
#
# Indices 1 2 3 4 5 6 
#
# 1 125.8040 9.7094 5.2482 -4.3215 -31.4510 -8.4666
# 2 9.7094 25.7549 1.5158 -0.6978 -1.5829 -9.2528
# 3 5.2482 1.5158 81.3814 -3.3214 -1.8929 -10.1007
# 4 -4.3215 -0.6978 -3.3214 18.6074 -5.1225 0.2486
# 5 -31.4510 -1.5829 -1.8929 -5.1225 27.9629 -2.7414
# 6 -8.4666 -9.2528 -10.1007 0.2486 -2.7414 24.5904
#
#
#
# Elastic Compliance Matrix: (Units=1/GPa)
#
#
# Indices 1 2 3 4 5 6 
#
# 1 0.012736 -0.001567 0.000603 0.007388 0.016197 0.005774
# 2 -0.001567 0.045946 0.001611 0.002263 0.003101 0.017734
# 3 0.000603 0.001611 0.013232 0.003275 0.002906 0.006540
# 4 0.007388 0.002263 0.003275 0.061711 0.020593 0.006413
# 5 0.016197 0.003101 0.002906 0.020593 0.059532 0.014365
# 6 0.005774 0.017734 0.006540 0.006413 0.014365 0.053550
#
#
# Mechanical properties :
#
#
# Convention : Reuss Voigt Hill
#
# Bulk Modulus (GPa) = 13.65976 29.54300 21.60138
# Shear Modulus (GPa) = 18.53112 28.66327 23.59720
#
# Velocity S-wave (km/s) = 2.95480 3.67486 3.33433
# Velocity P-wave (km/s) = 4.25169 5.65024 5.00010
#
# Compressibility (1/GPa) = 0.07320775
#
# Stress axis : x y z
#
# Youngs Moduli (GPa) = 78.51635 21.76451 75.57519
#
# Poissons Ratio (x) = 0.03410 -0.04555
# Poissons Ratio (y) = 0.12303 -0.12174
# Poissons Ratio (z) = -0.04733 -0.03506
#
# Static dielectric constant tensor:
#      x y z
#    x 1.829420 -0.006470 -0.049600 
#    y -0.006470 1.769140 0.024740 
#    z -0.049600 0.024740 1.834570 
# 
# From -- ./inp_files/274220.got.cif
#   From: 2010.05.17/outbox.cif.g08.bks.cpg/sg2_138_cif.got.tgz:274220.got - 2010.06.03 11:33:40.
