data_PCOD9005015
_publ_section_title
;
Structure prediction by ZEFSAII (Michael W. Deem and Ramdas Pophale) SiO2 
 PCOD9005015
Probable space group: P -1
;
_chemical_formula_sum "Si O2"
_cell_formula_units_Z 16
_cell_length_a 20.547338
_cell_length_b 21.545485
_cell_length_c 7.833705
_cell_angle_alpha 36.154702
_cell_angle_beta 141.395491
_cell_angle_gamma 160.758253
_cell_volume 670.992543
_symmetry_space_group_name_H-M "P -1"
_symmetry_group_IT_number 2
_symmetry_cell_setting 'triclinic'
loop_
_space_group_symop_operation_xyz
x,y,z
-x,-y,-z
loop_
_atom_site_type_symbol
_atom_site_label
_atom_site_fract_x
_atom_site_fract_y
_atom_site_fract_z
Si Si1 0.385098 0.964287 0.548705
Si Si2 0.214382 0.655344 0.668353
Si Si3 0.869554 0.814226 0.529463
Si Si4 0.054208 0.958041 0.069320
Si Si5 0.360530 0.546239 0.252612
Si Si6 0.647486 0.526942 0.223395
Si Si7 0.379582 0.093195 0.582002
Si Si8 0.746547 0.993199 0.113481
O O1 0.607904 0.149728 0.519739
O O2 0.408349 0.026879 0.648925
O O3 0.262318 0.752238 0.733203
O O4 0.271007 0.948609 0.219677
O O5 0.000000 0.500000 0.500000
O O6 0.254502 0.565860 0.956667
O O7 0.686262 0.580914 0.702105
O O8 0.000000 0.000000 0.500000
O O9 0.040153 0.872509 0.706134
O O10 0.806748 0.852549 0.186090
O O11 0.845838 0.733409 0.071722
O O12 0.176636 0.971437 0.373426
O O13 0.000000 0.000000 0.000000
O O14 0.287140 0.441188 0.518465
O O15 0.592394 0.767013 0.261585
O O16 0.540656 0.327409 0.386382
O O17 0.500000 0.500000 0.000000
O O18 0.343332 0.032727 0.839964
#
# Coordination Sequence:
#
# PCOD9005015 Si02
#       8
#     2   2   2   2   2   2   2   2
#     4  10  23  42  65  93 118 158 211 259 314 379
#     4  10  22  43  67  87 123 160 204 268 322 362
#     4  12  23  35  57  88 122 163 206 248 300 367
#     4  12  20  35  57  86 124 165 203 245 299 367
#     4  10  21  38  60  87 118 159 204 247 311 373
#     4  11  20  36  60  88 126 165 202 246 305 367
#     4  11  22  38  63  91 125 165 207 253 310 370
#     4  10  21  39  60  87 125 161 197 254 309 359
#
# _framework density 23.845269999999999
#
# number of rings (size 3 to 8) (size 9 to 14) (size 15 to 20)
#    0.000    1.250    3.750    2.250    0.000    3.500 
#    0.000   10.000    0.000   10.500    0.000    0.000 
#    0.000    0.000    0.000    0.000    0.000    0.000 
#
# Total GULP energy -89294.961791 kJ/mol
# GULP energy per Si atom -5580.935112 kJ/mol
# Density = 2.379100 g / cm^3
# Si number density = 23.845270 Si / 1000 Ang^3
#
#
#
# Elastic Constant Matrix: (Units=GPa)
#
#
# Indices 1 2 3 4 5 6 
#
# 1 88.5599 34.4833 2.2246 -6.0305 5.4565 -30.6246
# 2 34.4833 141.0980 38.1229 2.8181 21.0845 -17.3716
# 3 2.2246 38.1229 102.3604 -1.7381 9.0694 -1.2010
# 4 -6.0305 2.8181 -1.7381 41.4384 -2.9895 13.9967
# 5 5.4565 21.0845 9.0694 -2.9895 21.3330 3.1932
# 6 -30.6246 -17.3716 -1.2010 13.9967 3.1932 47.0360
#
#
#
# Elastic Compliance Matrix: (Units=1/GPa)
#
#
# Indices 1 2 3 4 5 6 
#
# 1 0.015799 -0.002271 0.000944 -0.001195 -0.003876 0.010091
# 2 -0.002271 0.010402 -0.002996 -0.003151 -0.009447 0.003866
# 3 0.000944 -0.002996 0.011035 0.000781 -0.001814 -0.000319
# 4 -0.001195 -0.003151 0.000781 0.028555 0.008738 -0.011012
# 5 -0.003876 -0.009447 -0.001814 0.008738 0.061117 -0.012808
# 6 0.010091 0.003866 -0.000319 -0.011012 -0.012808 0.033396
#
#
# Mechanical properties :
#
#
# Convention : Reuss Voigt Hill
#
# Bulk Modulus (GPa) = 34.97659 53.51997 44.24828
# Shear Modulus (GPa) = 28.01424 39.10732 33.56078
#
# Velocity S-wave (km/s) = 3.43130 4.05414 3.75566
# Velocity P-wave (km/s) = 5.51348 6.66394 6.11582
#
# Compressibility (1/GPa) = 0.02859056
#
# Stress axis : x y z
#
# Youngs Moduli (GPa) = 63.29433 96.13319 90.62084
#
# Poissons Ratio (x) = 0.21831 -0.08554
# Poissons Ratio (y) = 0.14373 0.27150
# Poissons Ratio (z) = -0.05974 0.28801
#
# Static dielectric constant tensor:
#      x y z
#    x 2.056010 -0.069380 -0.109850 
#    y -0.069380 1.929490 0.013400 
#    z -0.109850 0.013400 2.004670 
# 
# From -- ./inp_files/349452.got.cif
#   From: 2010.05.17/outbox.cif.g08.bks.cpg/sg2_175_cif.got.tgz:349452.got - 2010.06.03 11:33:40.
