data_PCOD9005102
_publ_section_title
;
Structure prediction by ZEFSAII (Michael W. Deem and Ramdas Pophale) SiO2 
 PCOD9005102
Probable space group: P -1
;
_chemical_formula_sum "Si O2"
_cell_formula_units_Z 14
_cell_length_a 13.122404
_cell_length_b 7.563527
_cell_length_c 7.037678
_cell_angle_alpha 123.126054
_cell_angle_beta 108.061961
_cell_angle_gamma 77.431849
_cell_volume 555.128948
_symmetry_space_group_name_H-M "P -1"
_symmetry_group_IT_number 2
_symmetry_cell_setting 'triclinic'
loop_
_space_group_symop_operation_xyz
x,y,z
-x,-y,-z
loop_
_atom_site_type_symbol
_atom_site_label
_atom_site_fract_x
_atom_site_fract_y
_atom_site_fract_z
Si Si1 0.313960 0.222413 0.824678
Si Si2 0.257906 0.614893 0.284958
Si Si3 0.671727 0.681626 0.556443
Si Si4 0.139081 0.068014 0.102487
Si Si5 0.453986 0.882653 0.585472
Si Si6 0.082851 0.162873 0.567024
Si Si7 0.939380 0.341645 0.066098
O O1 0.322939 0.303826 0.659274
O O2 0.198881 0.120011 0.709444
O O3 0.414950 0.058727 0.818834
O O4 0.306348 0.420660 0.072494
O O5 0.268075 0.532107 0.456786
O O6 0.341038 0.792760 0.410121
O O7 0.139231 0.660274 0.162536
O O8 0.549944 0.709952 0.577096
O O9 0.739479 0.868075 0.795164
O O10 0.103399 0.120760 0.330860
O O11 0.057052 0.228048 0.034102
O O12 0.116983 0.822108 0.920131
O O13 0.500000 0.000000 0.500000
O O14 0.055408 0.416507 0.722821
O O15 0.000000 0.000000 0.500000
#
# Coordination Sequence:
#
# PCOD9005102 Si02
#       7
#     2   2   2   2   2   2   2
#     4   9  22  41  61  89 124 164 202 253 318 363
#     4  11  22  40  63  91 123 160 211 257 308 374
#     4  10  22  40  63  91 124 163 210 258 306 370
#     4  10  22  41  59  87 127 164 206 257 313 367
#     4  10  21  41  64  90 126 163 205 257 308 371
#     4  10  21  38  60  91 126 160 206 257 309 377
#     4  10  22  37  60  86 118 163 204 250 311 369
#
# _framework density 25.219366000000001
#
# number of rings (size 3 to 8) (size 9 to 14) (size 15 to 20)
#    0.000    2.000    0.000    3.429    0.000   10.857 
#    0.000    8.571    0.000    0.000    0.000    0.000 
#    0.000    0.000    0.000    0.000    0.000    0.000 
#
# Total GULP energy -78328.172773 kJ/mol
# GULP energy per Si atom -5594.869484 kJ/mol
# Density = 2.516197 g / cm^3
# Si number density = 25.219366 Si / 1000 Ang^3
#
#
#
# Elastic Constant Matrix: (Units=GPa)
#
#
# Indices 1 2 3 4 5 6 
#
# 1 109.0081 50.0378 46.3021 15.0908 -10.6491 -1.8542
# 2 50.0378 124.1444 34.7329 15.4488 9.7288 -5.0330
# 3 46.3021 34.7329 95.2170 19.0681 -0.0976 4.7067
# 4 15.0908 15.4488 19.0681 39.6363 2.3894 15.1582
# 5 -10.6491 9.7288 -0.0976 2.3894 29.5440 3.6558
# 6 -1.8542 -5.0330 4.7067 15.1582 3.6558 41.8647
#
#
#
# Elastic Compliance Matrix: (Units=1/GPa)
#
#
# Indices 1 2 3 4 5 6 
#
# 1 0.014345 -0.004661 -0.004910 -0.001978 0.006756 0.000753
# 2 -0.004661 0.011203 -0.001437 -0.002612 -0.005500 0.002728
# 3 -0.004910 -0.001437 0.014282 -0.004242 -0.000859 -0.000385
# 4 -0.001978 -0.002612 -0.004242 0.033710 -0.001104 -0.012034
# 5 0.006756 -0.005500 -0.000859 -0.001104 0.038581 -0.003235
# 6 0.000753 0.002728 -0.000385 -0.012034 -0.003235 0.028931
#
#
# Mechanical properties :
#
#
# Convention : Reuss Voigt Hill
#
# Bulk Modulus (GPa) = 56.13682 65.61278 60.87480
# Shear Modulus (GPa) = 29.58473 35.36211 32.47342
#
# Velocity S-wave (km/s) = 3.42876 3.74863 3.59226
# Velocity P-wave (km/s) = 6.16303 6.69400 6.43400
#
# Compressibility (1/GPa) = 0.01781362
#
# Stress axis : x y z
#
# Youngs Moduli (GPa) = 69.70873 89.26461 70.01931
#
# Poissons Ratio (x) = 0.41608 0.34377
# Poissons Ratio (y) = 0.32492 0.10063
# Poissons Ratio (z) = 0.34225 0.12829
#
# Static dielectric constant tensor:
#      x y z
#    x 1.994930 -0.019010 -0.013020 
#    y -0.019010 2.090120 -0.008380 
#    z -0.013020 -0.008380 2.032010 
# 
# From -- ./inp_files/54946.got.cif
#   From: 2010.05.17/outbox.cif.g08.bks.cpg/sg2_28_cif.got.tgz:54946.got - 2010.06.03 11:33:40.
