data_PCOD9005222
_publ_section_title
;
Structure prediction by ZEFSAII (Michael W. Deem and Ramdas Pophale) SiO2 
 PCOD9005222
Probable space group: P -1
;
_chemical_formula_sum "Si O2"
_cell_formula_units_Z 14
_cell_length_a 9.458013
_cell_length_b 20.612783
_cell_length_c 9.743943
_cell_angle_alpha 27.989987
_cell_angle_beta 45.369852
_cell_angle_gamma 47.149623
_cell_volume 624.236263
_symmetry_space_group_name_H-M "P -1"
_symmetry_group_IT_number 2
_symmetry_cell_setting 'triclinic'
loop_
_space_group_symop_operation_xyz
x,y,z
-x,-y,-z
loop_
_atom_site_type_symbol
_atom_site_label
_atom_site_fract_x
_atom_site_fract_y
_atom_site_fract_z
Si Si1 0.809201 0.215671 0.388692
Si Si2 0.309617 0.129462 0.703879
Si Si3 0.894682 0.641175 0.201018
Si Si4 0.731498 0.951675 0.798356
Si Si5 0.961469 0.740149 0.581196
Si Si6 0.607668 0.628827 0.656060
Si Si7 0.265948 0.488191 0.701921
O O1 0.936248 0.194065 0.482507
O O2 0.572196 0.260481 0.503226
O O3 0.828630 0.091559 0.494898
O O4 0.881425 0.345267 0.020878
O O5 0.354222 0.288181 0.388342
O O6 0.144668 0.143530 0.671439
O O7 0.514977 0.018663 0.755519
O O8 0.253105 0.096231 0.961236
O O9 0.810432 0.607541 0.468093
O O10 0.814250 0.536885 0.347704
O O11 0.801684 0.808632 0.935131
O O12 0.137530 0.627012 0.600221
O O13 0.798687 0.646220 0.923817
O O14 0.500000 0.500000 0.000000
O O15 0.500000 0.500000 0.500000
#
# Coordination Sequence:
#
# PCOD9005222 Si02
#       7
#     2   2   2   2   2   2   2
#     4  10  21  39  62  86 118 163 195 255 294 351
#     4   9  20  37  61  89 116 163 201 248 295 360
#     4  10  21  38  61  88 117 160 202 244 298 360
#     4   9  19  41  61  86 125 155 203 252 300 346
#     4  10  22  39  61  90 121 158 207 240 302 359
#     4  10  22  36  59  85 123 159 197 245 306 351
#     4  10  22  38  59  86 130 160 192 249 302 360
#
# _framework density 22.427405
#
# number of rings (size 3 to 8) (size 9 to 14) (size 15 to 20)
#    0.000    2.286    0.000    2.143    8.000    1.143 
#    2.571    4.286    0.000    0.000    0.000    0.000 
#    0.000    0.000    0.000    0.000    0.000    0.000 
#
# Total GULP energy -77947.894436 kJ/mol
# GULP energy per Si atom -5567.706745 kJ/mol
# Density = 2.237636 g / cm^3
# Si number density = 22.427405 Si / 1000 Ang^3
#
#
#
# Elastic Constant Matrix: (Units=GPa)
#
#
# Indices 1 2 3 4 5 6 
#
# 1 120.9549 40.2285 31.1851 12.1758 10.2447 -10.7339
# 2 40.2285 72.5899 -5.0426 15.7909 6.4418 1.3569
# 3 31.1851 -5.0426 48.5616 9.6013 -0.2753 -12.2451
# 4 12.1758 15.7909 9.6013 14.9774 -2.4621 -16.5519
# 5 10.2447 6.4418 -0.2753 -2.4621 44.4567 2.7652
# 6 -10.7339 1.3569 -12.2451 -16.5519 2.7652 24.4356
#
#
#
# Elastic Compliance Matrix: (Units=1/GPa)
#
#
# Indices 1 2 3 4 5 6 
#
# 1 0.005651 0.021090 0.002045 -0.102579 -0.005891 -0.066481
# 2 0.021090 -0.087224 -0.033630 0.373249 0.012776 0.248637
# 3 0.002045 -0.033630 0.014327 0.142500 0.005800 0.105814
# 4 -0.102579 0.373249 0.142500 -1.313998 -0.047656 -0.879046
# 5 -0.005891 0.012776 0.005800 -0.047656 0.021581 -0.035113
# 6 -0.066481 0.248637 0.105814 -0.879046 -0.035113 -0.540525
#
#
# Mechanical properties :
#
#
# Convention : Reuss Voigt Hill
#
# Bulk Modulus (GPa) = -11.33353 41.64983 15.15815
# Shear Modulus (GPa) = -2.61971 28.48963 12.93496
#
# Velocity S-wave (km/s) = -1.08195 3.56800 2.40416
# Velocity P-wave (km/s) = 2.57395 5.96535 3.80527
#
# Compressibility (1/GPa) = -0.08823376
#
# Stress axis : x y z
#
# Youngs Moduli (GPa) = 176.95907 -11.46471 69.79714
#
# Poissons Ratio (x) = 0.24180 -0.14276
# Poissons Ratio (y) = -3.73215 2.34726
# Poissons Ratio (z) = -0.36194 -0.38555
#
# Static dielectric constant tensor:
#      x y z
#    x 1.843300 -0.046660 -0.013790 
#    y -0.046660 1.892500 -0.009420 
#    z -0.013790 -0.009420 1.925200 
# 
# From -- ./inp_files/222828.got.cif
#   From: 2010.05.17/outbox.cif.g08.bks.cpg/sg2_112_cif.got.tgz:222828.got - 2010.06.03 11:33:40.
