data_PCOD9005560
_publ_section_title
;
Structure prediction by ZEFSAII (Michael W. Deem and Ramdas Pophale) SiO2 
 PCOD9005560
Probable space group: P -1
;
_chemical_formula_sum "Si O2"
_cell_formula_units_Z 16
_cell_length_a 21.288704
_cell_length_b 16.472937
_cell_length_c 12.345295
_cell_angle_alpha 35.230186
_cell_angle_beta 22.130699
_cell_angle_gamma 24.931751
_cell_volume 680.156715
_symmetry_space_group_name_H-M "P -1"
_symmetry_group_IT_number 2
_symmetry_cell_setting 'triclinic'
loop_
_space_group_symop_operation_xyz
x,y,z
-x,-y,-z
loop_
_atom_site_type_symbol
_atom_site_label
_atom_site_fract_x
_atom_site_fract_y
_atom_site_fract_z
Si Si1 0.072767 0.357156 0.142482
Si Si2 0.027894 0.622586 0.395400
Si Si3 0.308461 0.474873 0.730508
Si Si4 0.337847 0.578778 0.330782
Si Si5 0.671269 0.154561 0.193167
Si Si6 0.454202 0.023768 0.267211
Si Si7 0.462944 0.245072 0.205810
Si Si8 0.175274 0.758212 0.827833
O O1 0.862138 0.374150 0.472192
O O2 0.161196 0.419398 0.019241
O O3 0.000000 0.500000 0.000000
O O4 0.294016 0.130884 0.014526
O O5 0.214969 0.465191 0.354772
O O6 0.000000 0.500000 0.500000
O O7 0.764407 0.813582 0.636060
O O8 0.130875 0.688221 0.082831
O O9 0.291705 0.562805 0.545972
O O10 0.208315 0.628655 0.818456
O O11 0.584888 0.296660 0.496160
O O12 0.566574 0.368255 0.149336
O O13 0.358561 0.733165 0.127476
O O14 0.540739 0.158569 0.295630
O O15 0.597348 0.102024 0.469220
O O16 0.945882 0.983594 0.931587
O O17 0.460673 0.126399 0.247702
#
# Coordination Sequence:
#
# PCOD9005560 Si02
#       8
#     2   2   2   2   2   2   2   2
#     4  10  21  38  62  93 127 165 211 262 321 368
#     4   9  20  39  60  92 127 164 205 264 317 369
#     4  10  21  41  66  89 129 165 213 266 313 372
#     4  11  23  41  63  93 134 170 200 272 328 365
#     4  11  23  39  65  99 122 165 222 258 316 384
#     4  10  21  40  65  95 122 173 220 251 316 383
#     4  11  23  39  64  94 134 165 210 269 317 380
#     4  10  22  40  68  98 117 169 227 256 311 383
#
# _framework density 23.523987999999999
#
# number of rings (size 3 to 8) (size 9 to 14) (size 15 to 20)
#    0.000    1.750    3.750    0.750    3.500    5.000 
#    0.000    0.000    0.000    4.500    0.000    0.000 
#    0.000    0.000    0.000    0.000    0.000    0.000 
#
# Total GULP energy -89438.366737 kJ/mol
# GULP energy per Si atom -5589.897921 kJ/mol
# Density = 2.347045 g / cm^3
# Si number density = 23.523988 Si / 1000 Ang^3
#
#
#
# Elastic Constant Matrix: (Units=GPa)
#
#
# Indices 1 2 3 4 5 6 
#
# 1 85.3606 12.8065 28.6694 10.7215 -11.7248 8.1313
# 2 12.8065 83.2349 48.6137 20.3252 0.8971 1.7289
# 3 28.6694 48.6137 106.2380 23.6327 -18.1648 -4.2723
# 4 10.7215 20.3252 23.6327 39.7991 3.3546 -4.1863
# 5 -11.7248 0.8971 -18.1648 3.3546 31.5896 -0.8561
# 6 8.1313 1.7289 -4.2723 -4.1863 -0.8561 31.4133
#
#
#
# Elastic Compliance Matrix: (Units=1/GPa)
#
#
# Indices 1 2 3 4 5 6 
#
# 1 0.013899 0.000227 -0.002703 -0.003025 0.003803 -0.004277
# 2 0.000227 0.017954 -0.008280 -0.004209 -0.004817 -0.002865
# 3 -0.002703 -0.008280 0.016949 -0.005608 0.009654 0.002976
# 4 -0.003025 -0.004209 -0.005608 0.032519 -0.007563 0.004380
# 5 0.003803 -0.004817 0.009654 -0.007563 0.039577 0.000664
# 6 -0.004277 -0.002865 0.002976 0.004380 0.000664 0.034105
#
#
# Mechanical properties :
#
#
# Convention : Reuss Voigt Hill
#
# Bulk Modulus (GPa) = 36.64310 50.55697 43.60003
# Shear Modulus (GPa) = 26.93802 32.87667 29.90734
#
# Velocity S-wave (km/s) = 3.38765 3.74248 3.56947
# Velocity P-wave (km/s) = 5.55988 6.34139 5.96345
#
# Compressibility (1/GPa) = 0.02729027
#
# Stress axis : x y z
#
# Youngs Moduli (GPa) = 71.94908 55.69713 59.00070
#
# Poissons Ratio (x) = -0.01265 0.15950
# Poissons Ratio (y) = -0.01634 0.48850
# Poissons Ratio (z) = 0.19451 0.46115
#
# Static dielectric constant tensor:
#      x y z
#    x 1.936500 -0.030500 0.025580 
#    y -0.030500 1.890840 0.027880 
#    z 0.025580 0.027880 1.898450 
# 
# From -- ./inp_files/280241.got.cif
#   From: 2010.05.17/outbox.cif.g08.bks.cpg/sg2_141_cif.got.tgz:280241.got - 2010.06.03 11:33:40.
