data_PCOD9005276
_publ_section_title
;
Structure prediction by ZEFSAII (Michael W. Deem and Ramdas Pophale) SiO2 
 PCOD9005276
Probable space group: P -1
;
_chemical_formula_sum "Si O2"
_cell_formula_units_Z 16
_cell_length_a 14.141588
_cell_length_b 8.785458
_cell_length_c 8.980090
_cell_angle_alpha 132.093272
_cell_angle_beta 71.917528
_cell_angle_gamma 76.749084
_cell_volume 617.554669
_symmetry_space_group_name_H-M "P -1"
_symmetry_group_IT_number 2
_symmetry_cell_setting 'triclinic'
loop_
_space_group_symop_operation_xyz
x,y,z
-x,-y,-z
loop_
_atom_site_type_symbol
_atom_site_label
_atom_site_fract_x
_atom_site_fract_y
_atom_site_fract_z
Si Si1 0.396712 0.973607 0.599525
Si Si2 0.397695 0.196395 0.030295
Si Si3 0.890212 0.266160 0.948081
Si Si4 0.012050 0.256552 0.268542
Si Si5 0.788992 0.299846 0.720618
Si Si6 0.873972 0.828604 0.150470
Si Si7 0.744868 0.634702 0.490886
Si Si8 0.620570 0.185428 0.798885
O O1 0.241973 0.184369 0.794610
O O2 0.412577 0.776515 0.337310
O O3 0.500000 0.000000 0.500000
O O4 0.421588 0.965685 0.760475
O O5 0.270202 0.447534 0.182358
O O6 0.366091 0.231453 0.243419
O O7 0.501490 0.237328 0.972288
O O8 0.884512 0.255513 0.767808
O O9 0.975697 0.358337 0.006118
O O10 0.949045 0.978751 0.796347
O O11 0.756310 0.477065 0.236322
O O12 0.000000 0.500000 0.500000
O O13 0.872998 0.404931 0.362883
O O14 0.115256 0.127962 0.001137
O O15 0.834625 0.065178 0.433308
O O16 0.679833 0.329482 0.892371
O O17 0.730897 0.882505 0.595686
#
# Coordination Sequence:
#
# PCOD9005276 Si02
#       8
#     2   2   2   2   2   2   2   2
#     4   9  20  38  61  87 119 159 209 260 308 365
#     4  11  21  39  64  89 121 166 211 262 318 374
#     4  11  23  40  61  92 130 166 207 258 313 379
#     4  11  22  39  62  92 128 166 205 257 316 380
#     4  11  22  39  61  90 126 165 210 260 312 375
#     4  10  21  38  61  90 124 164 206 252 314 376
#     4  11  22  39  61  88 125 165 208 261 314 374
#     4  10  22  40  61  90 123 163 213 264 315 371
#
# _framework density 25.908635
#
# number of rings (size 3 to 8) (size 9 to 14) (size 15 to 20)
#    0.000    1.500    0.000    6.375    0.000    0.000 
#    0.000   21.875    0.000    0.000    0.000    0.000 
#    0.000    0.000    0.000    0.000    0.000    0.000 
#
# Total GULP energy -89124.502056 kJ/mol
# GULP energy per Si atom -5570.281379 kJ/mol
# Density = 2.584967 g / cm^3
# Si number density = 25.908635 Si / 1000 Ang^3
#
#
#
# Elastic Constant Matrix: (Units=GPa)
#
#
# Indices 1 2 3 4 5 6 
#
# 1 106.5643 7.2195 24.4455 -23.0653 1.9216 8.6439
# 2 7.2195 116.8728 42.0388 -5.5476 8.3878 -1.5913
# 3 24.4455 42.0388 122.0719 -24.0338 -6.6289 6.6962
# 4 -23.0653 -5.5476 -24.0338 45.8692 -1.1938 -5.1520
# 5 1.9216 8.3878 -6.6289 -1.1938 46.5816 -3.5776
# 6 8.6439 -1.5913 6.6962 -5.1520 -3.5776 26.8662
#
#
#
# Elastic Compliance Matrix: (Units=1/GPa)
#
#
# Indices 1 2 3 4 5 6 
#
# 1 0.010847 -0.000015 -0.001176 0.004547 -0.000681 -0.002416
# 2 -0.000015 0.010065 -0.003788 -0.000710 -0.002284 0.001105
# 3 -0.001176 -0.003788 0.010822 0.004526 0.002281 -0.001371
# 4 0.004547 -0.000710 0.004526 0.026714 0.001475 0.002686
# 5 -0.000681 -0.002284 0.002281 0.001475 0.022484 0.002792
# 6 -0.002416 0.001105 -0.001371 0.002686 0.002792 0.039293
#
#
# Mechanical properties :
#
#
# Convention : Reuss Voigt Hill
#
# Bulk Modulus (GPa) = 45.92104 54.76852 50.34478
# Shear Modulus (GPa) = 36.37914 41.98375 39.18144
#
# Velocity S-wave (km/s) = 3.75124 4.02985 3.89304
# Velocity P-wave (km/s) = 6.04360 6.54507 6.29933
#
# Compressibility (1/GPa) = 0.02177651
#
# Stress axis : x y z
#
# Youngs Moduli (GPa) = 92.18813 99.35542 92.40433
#
# Poissons Ratio (x) = 0.00151 0.10868
# Poissons Ratio (y) = 0.00140 0.34999
# Poissons Ratio (z) = 0.10843 0.37631
#
# Static dielectric constant tensor:
#      x y z
#    x 2.124290 -0.067570 -0.107570 
#    y -0.067570 2.079770 -0.005130 
#    z -0.107570 -0.005130 2.207130 
# 
# From -- ./inp_files/299627.got.cif
#   From: 2010.05.17/outbox.cif.g08.bks.cpg/sg2_150_cif.got.tgz:299627.got - 2010.06.03 11:33:40.
