data_PCOD9005884
_publ_section_title
;
Structure prediction by ZEFSAII (Michael W. Deem and Ramdas Pophale) SiO2 
 PCOD9005884
Probable space group: P -1
;
_chemical_formula_sum "Si O2"
_cell_formula_units_Z 16
_cell_length_a 18.293003
_cell_length_b 18.256647
_cell_length_c 9.069347
_cell_angle_alpha 149.033960
_cell_angle_beta 137.799881
_cell_angle_gamma 30.427098
_cell_volume 789.251788
_symmetry_space_group_name_H-M "P -1"
_symmetry_group_IT_number 2
_symmetry_cell_setting 'triclinic'
loop_
_space_group_symop_operation_xyz
x,y,z
-x,-y,-z
loop_
_atom_site_type_symbol
_atom_site_label
_atom_site_fract_x
_atom_site_fract_y
_atom_site_fract_z
Si Si1 0.302601 0.791637 0.398169
Si Si2 0.114532 0.019214 0.759914
Si Si3 0.924619 0.446146 0.195080
Si Si4 0.185067 0.287523 0.788359
Si Si5 0.541511 0.087762 0.329698
Si Si6 0.112800 0.606073 0.428795
Si Si7 0.018959 0.958054 0.782753
Si Si8 0.702108 0.515205 0.213610
O O1 0.394451 0.836265 0.538540
O O2 0.265799 0.855311 0.624583
O O3 0.363606 0.582432 0.093256
O O4 0.141841 0.928054 0.322354
O O5 0.099698 0.010068 0.898079
O O6 0.000000 0.000000 0.500000
O O7 0.050783 0.224355 0.966089
O O8 0.850804 0.586556 0.189740
O O9 0.804971 0.468940 0.152434
O O10 0.000000 0.500000 0.500000
O O11 0.053582 0.289592 0.608649
O O12 0.335712 0.078361 0.665061
O O13 0.178301 0.403966 0.115624
O O14 0.411596 0.265150 0.536733
O O15 0.500000 0.000000 0.000000
O O16 0.111452 0.733144 0.526332
O O17 0.196606 0.581972 0.657932
O O18 0.000000 0.000000 0.000000
#
# Coordination Sequence:
#
# PCOD9005884 Si02
#       8
#     2   2   2   2   2   2   2   2
#     4  11  23  42  67  92 131 174 222 272 333 388
#     4  10  21  38  64 100 126 167 208 278 333 377
#     4  12  24  39  68 104 137 162 218 282 335 389
#     4  11  24  39  66  96 132 174 215 273 332 385
#     4  12  27  45  66  93 135 185 223 266 331 406
#     4  11  21  38  66 100 127 165 225 274 322 393
#     4  11  19  35  67 101 127 155 216 276 330 386
#     4  12  24  44  67  97 134 179 220 271 334 395
#
# _framework density 20.272365000000001
#
# number of rings (size 3 to 8) (size 9 to 14) (size 15 to 20)
#    0.000    0.750    7.500    1.875    3.500    0.500 
#    0.000    0.000    2.750    1.500    0.000    0.000 
#    0.000    0.000    0.000    0.000    0.000    0.000 
#
# Total GULP energy -89369.453174 kJ/mol
# GULP energy per Si atom -5585.590823 kJ/mol
# Density = 2.022622 g / cm^3
# Si number density = 20.272365 Si / 1000 Ang^3
#
#
#
# Elastic Constant Matrix: (Units=GPa)
#
#
# Indices 1 2 3 4 5 6 
#
# 1 61.3135 7.3545 16.1715 -6.3511 -2.7949 18.0320
# 2 7.3545 81.4927 24.7739 23.7024 -4.4203 11.0417
# 3 16.1715 24.7739 116.0864 16.1552 2.8844 -0.0644
# 4 -6.3511 23.7024 16.1552 31.1846 0.5485 -2.7204
# 5 -2.7949 -4.4203 2.8844 0.5485 35.5054 4.5590
# 6 18.0320 11.0417 -0.0644 -2.7204 4.5590 29.0007
#
#
#
# Elastic Compliance Matrix: (Units=1/GPa)
#
#
# Indices 1 2 3 4 5 6 
#
# 1 0.022147 -0.000379 -0.003875 0.005547 0.003684 -0.013694
# 2 -0.000379 0.018289 -0.002036 -0.013740 0.003730 -0.008608
# 3 -0.003875 -0.002036 0.010223 -0.004239 -0.001719 0.003080
# 4 0.005547 -0.013740 -0.004239 0.046449 -0.002484 0.006521
# 5 0.003684 0.003730 -0.001719 -0.002484 0.030214 -0.008697
# 6 -0.013694 -0.008608 0.003080 0.006521 -0.008697 0.048259
#
#
# Mechanical properties :
#
#
# Convention : Reuss Voigt Hill
#
# Bulk Modulus (GPa) = 26.26086 39.49916 32.88001
# Shear Modulus (GPa) = 24.89383 33.17764 29.03574
#
# Velocity S-wave (km/s) = 3.50804 4.04987 3.78866
# Velocity P-wave (km/s) = 5.42131 6.43391 5.94919
#
# Compressibility (1/GPa) = 0.03807949
#
# Stress axis : x y z
#
# Youngs Moduli (GPa) = 45.15315 54.67787 97.81939
#
# Poissons Ratio (x) = 0.02070 0.37909
# Poissons Ratio (y) = 0.01709 0.19912
# Poissons Ratio (z) = 0.17499 0.11130
#
# Static dielectric constant tensor:
#      x y z
#    x 1.762830 0.038250 -0.029030 
#    y 0.038250 1.720070 0.031560 
#    z -0.029030 0.031560 1.791170 
# 
# From -- ./inp_files/336845.got.cif
#   From: 2010.05.17/outbox.cif.g08.bks.cpg/sg2_169_cif.got.tgz:336845.got - 2010.06.03 11:33:40.
