data_PCOD9005275
_publ_section_title
;
Structure prediction by ZEFSAII (Michael W. Deem and Ramdas Pophale) SiO2 
 PCOD9005275
Probable space group: P -1
;
_chemical_formula_sum "Si O2"
_cell_formula_units_Z 14
_cell_length_a 12.504338
_cell_length_b 4.984018
_cell_length_c 11.923273
_cell_angle_alpha 65.954202
_cell_angle_beta 85.568223
_cell_angle_gamma 77.745556
_cell_volume 663.098506
_symmetry_space_group_name_H-M "P -1"
_symmetry_group_IT_number 2
_symmetry_cell_setting 'triclinic'
loop_
_space_group_symop_operation_xyz
x,y,z
-x,-y,-z
loop_
_atom_site_type_symbol
_atom_site_label
_atom_site_fract_x
_atom_site_fract_y
_atom_site_fract_z
Si Si1 0.607750 0.371181 0.654979
Si Si2 0.710971 0.726700 0.765290
Si Si3 0.582464 0.701519 0.004641
Si Si4 0.928462 0.679808 0.643957
Si Si5 0.387623 0.226715 0.627635
Si Si6 0.078442 0.114677 0.635298
Si Si7 0.291494 0.655354 0.738885
O O1 0.641013 0.524323 0.737454
O O2 0.494866 0.251793 0.686285
O O3 0.600751 0.620019 0.517524
O O4 0.693032 0.071103 0.666137
O O5 0.836855 0.599645 0.747018
O O6 0.665475 0.750390 0.890709
O O7 0.658285 0.538294 0.126164
O O8 0.500000 0.500000 0.000000
O O9 0.500000 0.000000 0.000000
O O10 0.881350 0.770360 0.506884
O O11 0.027933 0.400777 0.664364
O O12 0.978192 0.954035 0.639700
O O13 0.292146 0.433791 0.671367
O O14 0.370346 0.892798 0.669921
O O15 0.173572 0.870037 0.724274
#
# Coordination Sequence:
#
# PCOD9005275 Si02
#       7
#     2   2   2   2   2   2   2
#     4  11  22  36  59  91 123 155 198 256 317 376
#     4  12  23  40  62  88 123 167 207 250 306 364
#     4  12  26  44  64  88 124 170 214 252 295 362
#     4  10  21  38  61  90 122 156 200 255 312 367
#     4  11  22  36  59  91 123 155 198 256 317 376
#     4  10  21  38  61  90 122 156 200 255 312 367
#     4  12  23  40  62  88 123 167 207 250 306 364
#
# _framework density 21.112998999999999
#
# number of rings (size 3 to 8) (size 9 to 14) (size 15 to 20)
#    0.000    0.857    0.000    9.429    0.000    4.571 
#    0.000    1.429    0.000    0.000    0.000    0.000 
#    0.000    0.000    0.000    0.000    0.000    0.000 
#
# Total GULP energy -78331.475482 kJ/mol
# GULP energy per Si atom -5595.105392 kJ/mol
# Density = 2.106494 g / cm^3
# Si number density = 21.112999 Si / 1000 Ang^3
#
#
#
# Elastic Constant Matrix: (Units=GPa)
#
#
# Indices 1 2 3 4 5 6 
#
# 1 68.5611 10.8975 35.2215 3.5520 -7.3526 -16.6918
# 2 10.8975 102.3243 9.5660 0.5411 3.2132 -4.9007
# 3 35.2215 9.5660 72.8086 0.6976 -5.5297 -20.9084
# 4 3.5520 0.5411 0.6976 29.1580 -10.9691 0.9513
# 5 -7.3526 3.2132 -5.5297 -10.9691 30.2349 -2.8858
# 6 -16.6918 -4.9007 -20.9084 0.9513 -2.8858 41.3672
#
#
#
# Elastic Compliance Matrix: (Units=1/GPa)
#
#
# Indices 1 2 3 4 5 6 
#
# 1 0.020505 -0.001319 -0.008245 -0.001043 0.003644 0.004228
# 2 -0.001319 0.010051 -0.000762 -0.000674 -0.001757 0.000166
# 3 -0.008245 -0.000762 0.020000 0.001407 0.002899 0.006862
# 4 -0.001043 -0.000674 0.001407 0.039873 0.014571 0.000310
# 5 0.003644 -0.001757 0.002899 0.014571 0.040461 0.005215
# 6 0.004228 0.000166 0.006862 0.000310 0.005215 0.029724
#
#
# Mechanical properties :
#
#
# Convention : Reuss Voigt Hill
#
# Bulk Modulus (GPa) = 33.43936 39.45154 36.44545
# Shear Modulus (GPa) = 26.14567 32.68596 29.41581
#
# Velocity S-wave (km/s) = 3.52286 3.93891 3.73668
# Velocity P-wave (km/s) = 5.69386 6.27799 5.99305
#
# Compressibility (1/GPa) = 0.02990488
#
# Stress axis : x y z
#
# Youngs Moduli (GPa) = 48.76800 99.49004 49.99879
#
# Poissons Ratio (x) = 0.13127 0.41225
# Poissons Ratio (y) = 0.06434 0.03808
# Poissons Ratio (z) = 0.40210 0.07576
#
# Static dielectric constant tensor:
#      x y z
#    x 1.786880 -0.096700 0.021050 
#    y -0.096700 1.370400 0.178410 
#    z 0.021050 0.178410 1.681800 
# 
# From -- ./inp_files/408934.got.cif
#   From: 2010.05.17/outbox.cif.g08.bks.cpg/sg2_205_cif.got.tgz:408934.got - 2010.06.03 11:33:40.
