data_PCOD9005934
_publ_section_title
;
Structure prediction by ZEFSAII (Michael W. Deem and Ramdas Pophale) SiO2 
 PCOD9005934
Probable space group: P -1
;
_chemical_formula_sum "Si O2"
_cell_formula_units_Z 16
_cell_length_a 12.026916
_cell_length_b 14.578665
_cell_length_c 8.120342
_cell_angle_alpha 126.864139
_cell_angle_beta 129.024946
_cell_angle_gamma 43.170436
_cell_volume 729.768962
_symmetry_space_group_name_H-M "P -1"
_symmetry_group_IT_number 2
_symmetry_cell_setting 'triclinic'
loop_
_space_group_symop_operation_xyz
x,y,z
-x,-y,-z
loop_
_atom_site_type_symbol
_atom_site_label
_atom_site_fract_x
_atom_site_fract_y
_atom_site_fract_z
Si Si1 0.958907 0.684284 0.275614
Si Si2 0.187402 0.843701 0.144540
Si Si3 0.015814 0.584221 0.856807
Si Si4 0.557611 0.933882 0.158890
Si Si5 0.352288 0.550471 0.057983
Si Si6 0.480158 0.741253 0.050521
Si Si7 0.078380 0.134469 0.315428
Si Si8 0.679480 0.796437 0.562597
O O1 0.958442 0.561172 0.232631
O O2 0.762752 0.819082 0.220586
O O3 0.042383 0.737734 0.536188
O O4 0.029077 0.638861 0.107516
O O5 0.290876 0.707848 0.210104
O O6 0.299012 0.804329 0.038720
O O7 0.147486 0.990428 0.318575
O O8 0.012070 0.866992 0.937952
O O9 0.828113 0.686349 0.708233
O O10 0.167530 0.570529 0.871245
O O11 0.476619 0.847232 0.036279
O O12 0.476416 0.066067 0.346170
O O13 0.500000 0.000000 0.000000
O O14 0.500000 0.500000 0.000000
O O15 0.441826 0.413717 0.109338
O O16 0.601757 0.733099 0.305617
O O17 0.226136 0.153171 0.409826
#
# Coordination Sequence:
#
# PCOD9005934 Si02
#       8
#     2   2   2   2   2   2   2   2
#     4  11  24  41  64  92 135 170 207 276 330 377
#     4  10  22  37  61  94 128 167 215 264 312 382
#     4  11  23  41  64  99 129 164 217 271 326 382
#     4  12  22  38  60  95 129 168 204 265 337 374
#     4  10  21  38  64  88 126 170 210 257 321 375
#     4  11  22  39  64  93 128 164 215 272 320 377
#     4  11  21  38  65  90 123 167 219 260 320 377
#     4  12  22  36  70  95 124 162 223 273 313 381
#
# _framework density 21.924748000000001
#
# number of rings (size 3 to 8) (size 9 to 14) (size 15 to 20)
#    0.000    1.000    6.250    1.125    1.750    1.000 
#    0.000    0.625    5.500    1.500    0.000    0.000 
#    0.000    0.000    0.000    0.000    0.000    0.000 
#
# Total GULP energy -89242.215497 kJ/mol
# GULP energy per Si atom -5577.638469 kJ/mol
# Density = 2.187485 g / cm^3
# Si number density = 21.924748 Si / 1000 Ang^3
#
#
#
# Elastic Constant Matrix: (Units=GPa)
#
#
# Indices 1 2 3 4 5 6 
#
# 1 61.7959 32.9539 23.3404 0.6165 3.3948 5.4290
# 2 32.9539 148.6685 33.9485 23.2832 -7.1011 18.1216
# 3 23.3404 33.9485 65.0453 20.2571 -5.7257 6.8862
# 4 0.6165 23.2832 20.2571 42.3364 -2.3597 5.1974
# 5 3.3948 -7.1011 -5.7257 -2.3597 23.7602 -6.7599
# 6 5.4290 18.1216 6.8862 5.1974 -6.7599 39.8149
#
#
#
# Elastic Compliance Matrix: (Units=1/GPa)
#
#
# Indices 1 2 3 4 5 6 
#
# 1 0.021646 -0.003981 -0.007752 0.005435 -0.006048 -0.001535
# 2 -0.003981 0.008952 -0.001688 -0.003656 0.001774 -0.002461
# 3 -0.007752 -0.001688 0.022408 -0.009402 0.005080 0.000040
# 4 0.005435 -0.003656 -0.009402 0.030165 -0.001612 -0.001662
# 5 -0.006048 0.001774 0.005080 -0.001612 0.046612 0.007263
# 6 -0.001535 -0.002461 0.000040 -0.001662 0.007263 0.027889
#
#
# Mechanical properties :
#
#
# Convention : Reuss Voigt Hill
#
# Bulk Modulus (GPa) = 38.22130 50.66614 44.44372
# Shear Modulus (GPa) = 25.87539 33.53345 29.70442
#
# Velocity S-wave (km/s) = 3.43912 3.91510 3.68480
# Velocity P-wave (km/s) = 5.76549 6.60277 6.19828
#
# Compressibility (1/GPa) = 0.02616342
#
# Stress axis : x y z
#
# Youngs Moduli (GPa) = 46.19814 111.71225 44.62738
#
# Poissons Ratio (x) = 0.44469 0.34595
# Poissons Ratio (y) = 0.18390 0.07534
# Poissons Ratio (z) = 0.35813 0.18860
#
# Static dielectric constant tensor:
#      x y z
#    x 1.807500 -0.009140 -0.026250 
#    y -0.009140 1.859000 0.010370 
#    z -0.026250 0.010370 1.938640 
# 
# From -- ./inp_files/271621.got.cif
#   From: 2010.05.17/outbox.cif.g08.bks.cpg/sg2_136_cif.got.tgz:271621.got - 2010.06.03 11:33:40.
