data_PCOD9005115
_publ_section_title
;
Structure prediction by ZEFSAII (Michael W. Deem and Ramdas Pophale) SiO2 
 PCOD9005115
Probable space group: P -1
;
_chemical_formula_sum "Si O2"
_cell_formula_units_Z 16
_cell_length_a 11.042254
_cell_length_b 7.036974
_cell_length_c 13.710819
_cell_angle_alpha 95.179458
_cell_angle_beta 121.516827
_cell_angle_gamma 113.343494
_cell_volume 771.340478
_symmetry_space_group_name_H-M "P -1"
_symmetry_group_IT_number 2
_symmetry_cell_setting 'triclinic'
loop_
_space_group_symop_operation_xyz
x,y,z
-x,-y,-z
loop_
_atom_site_type_symbol
_atom_site_label
_atom_site_fract_x
_atom_site_fract_y
_atom_site_fract_z
Si Si1 0.790091 0.213484 0.722136
Si Si2 0.204783 0.601546 0.475160
Si Si3 0.165946 0.341998 0.152219
Si Si4 0.841108 0.269118 0.328432
Si Si5 0.586174 0.362100 0.155196
Si Si6 0.372687 0.205835 0.878910
Si Si7 0.083236 0.139878 0.895710
Si Si8 0.549720 0.750663 0.700553
O O1 0.760135 0.257992 0.601225
O O2 0.826430 0.431860 0.807728
O O3 0.947894 0.184005 0.793217
O O4 0.638865 0.988858 0.695208
O O5 0.171188 0.713455 0.559760
O O6 0.366659 0.592862 0.571282
O O7 0.030710 0.366132 0.380905
O O8 0.330267 0.347133 0.259534
O O9 0.148279 0.287821 0.027673
O O10 0.009791 0.120864 0.124195
O O11 0.770979 0.414890 0.257264
O O12 0.712575 0.021736 0.226283
O O13 0.574593 0.582810 0.157619
O O14 0.476808 0.218529 0.194717
O O15 0.519000 0.248552 0.016609
O O16 0.232802 0.196702 0.890269
#
# Coordination Sequence:
#
# PCOD9005115 Si02
#       8
#     2   2   2   2   2   2   2   2
#     4  11  22  39  63  88 121 167 199 244 307 354
#     4  10  22  42  61  90 125 161 213 245 285 370
#     4  10  21  39  61  89 122 160 198 246 311 356
#     4  10  22  42  64  87 122 163 201 253 302 349
#     4  10  22  40  60  95 124 150 205 254 301 371
#     4  11  21  39  66  90 122 159 196 253 315 357
#     4  10  21  38  60  92 125 148 201 258 295 367
#     4  10  22  41  60  88 130 156 201 257 287 360
#
# _framework density 20.743110000000001
#
# number of rings (size 3 to 8) (size 9 to 14) (size 15 to 20)
#    0.000    1.750    1.250    2.625    0.000    2.500 
#    4.500   17.500    0.000    0.000    0.000    0.000 
#    0.000    0.000    0.000    0.000    0.000    0.000 
#
# Total GULP energy -89413.212005 kJ/mol
# GULP energy per Si atom -5588.325750 kJ/mol
# Density = 2.069590 g / cm^3
# Si number density = 20.743110 Si / 1000 Ang^3
#
#
#
# Elastic Constant Matrix: (Units=GPa)
#
#
# Indices 1 2 3 4 5 6 
#
# 1 46.8865 -1.8293 3.3115 -3.0637 3.6911 18.7772
# 2 -1.8293 39.6066 5.3275 -2.3395 -9.2704 8.9468
# 3 3.3115 5.3275 84.2995 -8.6435 3.0356 12.1915
# 4 -3.0637 -2.3395 -8.6435 16.3261 3.7179 -4.9884
# 5 3.6911 -9.2704 3.0356 3.7179 33.1916 -2.2557
# 6 18.7772 8.9468 12.1915 -4.9884 -2.2557 27.0854
#
#
#
# Elastic Compliance Matrix: (Units=1/GPa)
#
#
# Indices 1 2 3 4 5 6 
#
# 1 0.031894 0.006018 0.002284 0.001244 -0.003929 -0.025225
# 2 0.006018 0.030231 -0.000505 -0.000499 0.006963 -0.013443
# 3 0.002284 -0.000505 0.013484 0.006110 -0.002760 -0.006590
# 4 0.001244 -0.000499 0.006110 0.069100 -0.007991 0.008613
# 5 -0.003929 0.006963 -0.002760 -0.007991 0.033862 0.003014
# 6 -0.025225 -0.013443 -0.006590 0.008613 0.003014 0.063652
#
#
# Mechanical properties :
#
#
# Convention : Reuss Voigt Hill
#
# Bulk Modulus (GPa) = 10.96452 20.49022 15.72737
# Shear Modulus (GPa) = 19.45303 26.25281 22.85292
#
# Velocity S-wave (km/s) = 3.06569 3.56141 3.32280
# Velocity P-wave (km/s) = 4.22239 5.17794 4.72438
#
# Compressibility (1/GPa) = 0.09120324
#
# Stress axis : x y z
#
# Youngs Moduli (GPa) = 31.35361 33.07860 74.16415
#
# Poissons Ratio (x) = -0.19907 -0.16938
# Poissons Ratio (y) = -0.18869 0.03743
# Poissons Ratio (z) = -0.07161 0.01669
#
# Static dielectric constant tensor:
#      x y z
#    x 1.742800 0.013850 0.015470 
#    y 0.013850 1.730500 -0.000360 
#    z 0.015470 -0.000360 1.753750 
# 
# From -- ./inp_files/72396.got.cif
#   From: 2010.05.17/outbox.cif.g08.bks.cpg/sg2_37_cif.got.tgz:72396.got - 2010.06.03 11:33:40.
