data_PCOD9005844
_publ_section_title
;
Structure prediction by ZEFSAII (Michael W. Deem and Ramdas Pophale) SiO2 
 PCOD9005844
Probable space group: P -1
;
_chemical_formula_sum "Si O2"
_cell_formula_units_Z 16
_cell_length_a 11.814862
_cell_length_b 16.089118
_cell_length_c 9.154723
_cell_angle_alpha 118.805832
_cell_angle_beta 32.216195
_cell_angle_gamma 131.329557
_cell_volume 683.698238
_symmetry_space_group_name_H-M "P -1"
_symmetry_group_IT_number 2
_symmetry_cell_setting 'triclinic'
loop_
_space_group_symop_operation_xyz
x,y,z
-x,-y,-z
loop_
_atom_site_type_symbol
_atom_site_label
_atom_site_fract_x
_atom_site_fract_y
_atom_site_fract_z
Si Si1 0.791140 0.948618 0.311874
Si Si2 0.235040 0.267882 0.771136
Si Si3 0.982330 0.886145 0.533615
Si Si4 0.209226 0.450780 0.125430
Si Si5 0.513236 0.248185 0.204838
Si Si6 0.000620 0.534605 0.195727
Si Si7 0.767372 0.638384 0.680597
Si Si8 0.296139 0.880330 0.922647
O O1 0.703937 0.817926 0.293162
O O2 0.541734 0.955433 0.613097
O O3 0.937063 0.014459 0.356038
O O4 0.000000 0.000000 0.000000
O O5 0.286139 0.372067 0.895329
O O6 0.392519 0.302448 0.479714
O O7 0.942622 0.191985 0.981406
O O8 0.716357 0.847194 0.717793
O O9 0.914010 0.770341 0.593201
O O10 0.191267 0.918800 0.205811
O O11 0.465376 0.573252 0.978998
O O12 0.008517 0.453714 0.240229
O O13 0.116930 0.389083 0.329613
O O14 0.628873 0.196794 0.138854
O O15 0.739104 0.347877 0.956399
O O16 0.798869 0.569149 0.459647
O O17 0.000000 0.500000 0.000000
#
# Coordination Sequence:
#
# PCOD9005844 Si02
#       8
#     2   2   2   2   2   2   2   2
#     4  11  25  44  65  97 129 170 217 274 336 392
#     4  10  23  42  64  95 130 167 218 265 330 388
#     4  11  22  42  69  93 130 173 219 274 323 396
#     4  11  24  42  63  95 137 175 211 277 330 393
#     4  10  21  38  63  96 124 161 218 270 321 383
#     4  12  23  38  66  96 128 173 223 267 321 392
#     4  11  24  42  64  95 133 174 220 266 337 392
#     4  10  22  42  66  94 129 167 223 269 327 391
#
# _framework density 23.402138000000001
#
# number of rings (size 3 to 8) (size 9 to 14) (size 15 to 20)
#    0.000    1.250    2.500    3.000    1.750    8.000 
#    2.250    0.000    0.000    0.000    0.000    0.000 
#    0.000    0.000    0.000    0.000    0.000    0.000 
#
# Total GULP energy -89279.859665 kJ/mol
# GULP energy per Si atom -5579.991229 kJ/mol
# Density = 2.334887 g / cm^3
# Si number density = 23.402138 Si / 1000 Ang^3
#
#
#
# Elastic Constant Matrix: (Units=GPa)
#
#
# Indices 1 2 3 4 5 6 
#
# 1 67.5276 3.1734 12.1016 -2.3598 4.8916 -14.3192
# 2 3.1734 80.0881 23.4057 6.1284 7.4505 -9.1739
# 3 12.1016 23.4057 116.4021 -25.6518 5.3997 8.5077
# 4 -2.3598 6.1284 -25.6518 29.8891 -1.1613 5.0097
# 5 4.8916 7.4505 5.3997 -1.1613 22.7517 1.3429
# 6 -14.3192 -9.1739 8.5077 5.0097 1.3429 41.2617
#
#
#
# Elastic Compliance Matrix: (Units=1/GPa)
#
#
# Indices 1 2 3 4 5 6 
#
# 1 0.017067 0.001726 -0.003170 -0.003138 -0.004084 0.007474
# 2 0.001726 0.016048 -0.005721 -0.009379 -0.005140 0.006653
# 3 -0.003170 -0.005721 0.013580 0.013744 0.000438 -0.006855
# 4 -0.003138 -0.009379 0.013744 0.049098 0.003704 -0.012090
# 5 -0.004084 -0.005140 0.000438 0.003704 0.046872 -0.004625
# 6 0.007474 0.006653 -0.006855 -0.012090 -0.004625 0.031340
#
#
# Mechanical properties :
#
#
# Convention : Reuss Voigt Hill
#
# Bulk Modulus (GPa) = 30.89688 37.93104 34.41396
# Shear Modulus (GPa) = 25.11023 33.80298 29.45660
#
# Velocity S-wave (km/s) = 3.27920 3.80470 3.55169
# Velocity P-wave (km/s) = 5.25060 5.96193 5.61753
#
# Compressibility (1/GPa) = 0.03236572
#
# Stress axis : x y z
#
# Youngs Moduli (GPa) = 58.59354 62.31447 73.63631
#
# Poissons Ratio (x) = -0.10758 0.23342
# Poissons Ratio (y) = -0.10115 0.42127
# Poissons Ratio (z) = 0.18574 0.35649
#
# Static dielectric constant tensor:
#      x y z
#    x 1.934680 -0.020520 -0.003720 
#    y -0.020520 1.890620 -0.000210 
#    z -0.003720 -0.000210 2.060850 
# 
# From -- ./inp_files/78244.got.cif
#   From: 2010.05.17/outbox.cif.g08.bks.cpg/sg2_40_cif.got.tgz:78244.got - 2010.06.03 11:33:40.
