data_PCOD9005295
_publ_section_title
;
Structure prediction by ZEFSAII (Michael W. Deem and Ramdas Pophale) SiO2 
 PCOD9005295
Probable space group: P -1
;
_chemical_formula_sum "Si O2"
_cell_formula_units_Z 12
_cell_length_a 6.019509
_cell_length_b 8.182482
_cell_length_c 11.336543
_cell_angle_alpha 66.942632
_cell_angle_beta 60.609530
_cell_angle_gamma 88.794859
_cell_volume 437.321696
_symmetry_space_group_name_H-M "P -1"
_symmetry_group_IT_number 2
_symmetry_cell_setting 'triclinic'
loop_
_space_group_symop_operation_xyz
x,y,z
-x,-y,-z
loop_
_atom_site_type_symbol
_atom_site_label
_atom_site_fract_x
_atom_site_fract_y
_atom_site_fract_z
Si Si1 0.967591 0.956533 0.847034
Si Si2 0.815433 0.311266 0.750756
Si Si3 0.330531 0.412759 0.429830
Si Si4 0.532853 0.128190 0.570449
Si Si5 0.281279 0.169225 0.282570
Si Si6 0.865726 0.341233 0.993110
O O1 0.907759 0.836535 0.777044
O O2 0.777555 0.097476 0.850068
O O3 0.258220 0.074549 0.724276
O O4 0.969313 0.817259 0.991815
O O5 0.613583 0.386495 0.698014
O O6 0.838876 0.398129 0.849802
O O7 0.083527 0.376134 0.590982
O O8 0.555453 0.332035 0.459160
O O9 0.247217 0.284953 0.373179
O O10 0.500000 0.000000 0.500000
O O11 0.734313 0.042224 0.617244
O O12 0.574728 0.255226 0.138739
O O13 0.000000 0.500000 0.000000
#
# Coordination Sequence:
#
# PCOD9005295 Si02
#       6
#     2   2   2   2   2   2
#     4  10  21  38  63  90 123 157 196 251 300 354
#     4  10  21  38  61  91 124 157 195 245 304 354
#     4   9  19  38  60  88 123 155 196 243 292 357
#     4   8  17  34  58  89 121 155 196 238 288 351
#     4  10  21  40  65  90 117 158 204 245 300 357
#     4  11  24  42  63  86 117 160 207 250 295 356
#
# _framework density 27.439755000000002
#
# number of rings (size 3 to 8) (size 9 to 14) (size 15 to 20)
#    0.000    2.333    0.000    1.500    0.000    9.333 
#    0.000   15.000    0.000    0.000    0.000    0.000 
#    0.000    0.000    0.000    0.000    0.000    0.000 
#
# Total GULP energy -67212.039025 kJ/mol
# GULP energy per Si atom -5601.003252 kJ/mol
# Density = 2.737730 g / cm^3
# Si number density = 27.439755 Si / 1000 Ang^3
#
#
#
# Elastic Constant Matrix: (Units=GPa)
#
#
# Indices 1 2 3 4 5 6 
#
# 1 89.1128 36.0602 69.9104 -15.2778 19.0721 6.4867
# 2 36.0602 111.2605 54.3423 -12.8859 -1.7266 -5.0179
# 3 69.9104 54.3423 156.7957 4.0360 22.9658 -9.9900
# 4 -15.2778 -12.8859 4.0360 52.2480 -8.9294 23.9028
# 5 19.0721 -1.7266 22.9658 -8.9294 59.0934 -8.2756
# 6 6.4867 -5.0179 -9.9900 23.9028 -8.2756 46.7735
#
#
#
# Elastic Compliance Matrix: (Units=1/GPa)
#
#
# Indices 1 2 3 4 5 6 
#
# 1 0.024483 -0.001719 -0.010974 0.013014 -0.003570 -0.013206
# 2 -0.001719 0.011868 -0.003893 0.003486 0.002858 -0.000596
# 3 -0.010974 -0.003893 0.013720 -0.009485 -0.002147 0.008502
# 4 0.013014 0.003486 -0.009485 0.034309 0.001879 -0.020658
# 5 -0.003570 0.002858 -0.002147 0.001879 0.019677 0.002864
# 6 -0.013206 -0.000596 0.008502 -0.020658 0.002864 0.036027
#
#
# Mechanical properties :
#
#
# Convention : Reuss Voigt Hill
#
# Bulk Modulus (GPa) = 59.17410 75.31052 67.24231
# Shear Modulus (GPa) = 27.95022 44.74674 36.34848
#
# Velocity S-wave (km/s) = 3.19502 4.04261 3.64354
# Velocity P-wave (km/s) = 5.93488 7.02108 6.50071
#
# Compressibility (1/GPa) = 0.01689929
#
# Stress axis : x y z
#
# Youngs Moduli (GPa) = 40.84421 84.26281 72.88481
#
# Poissons Ratio (x) = 0.14483 0.79985
# Poissons Ratio (y) = 0.07020 0.28374
# Poissons Ratio (z) = 0.44823 0.32803
#
# Static dielectric constant tensor:
#      x y z
#    x 2.079060 -0.075600 0.051430 
#    y -0.075600 2.252370 -0.005800 
#    z 0.051430 -0.005800 2.065020 
# 
# From -- ./inp_files/58470.got.cif
#   From: 2010.05.17/outbox.cif.g08.bks.cpg/sg2_30_cif.got.tgz:58470.got - 2010.06.03 11:33:40.
