data_PCOD9005831
_publ_section_title
;
Structure prediction by ZEFSAII (Michael W. Deem and Ramdas Pophale) SiO2 
 PCOD9005831
Probable space group: P -1
;
_chemical_formula_sum "Si O2"
_cell_formula_units_Z 16
_cell_length_a 18.078988
_cell_length_b 8.521062
_cell_length_c 7.815917
_cell_angle_alpha 78.543369
_cell_angle_beta 41.591077
_cell_angle_gamma 60.627403
_cell_volume 666.422412
_symmetry_space_group_name_H-M "P -1"
_symmetry_group_IT_number 2
_symmetry_cell_setting 'triclinic'
loop_
_space_group_symop_operation_xyz
x,y,z
-x,-y,-z
loop_
_atom_site_type_symbol
_atom_site_label
_atom_site_fract_x
_atom_site_fract_y
_atom_site_fract_z
Si Si1 0.891688 0.592060 0.882889
Si Si2 0.632039 0.306521 0.370812
Si Si3 0.908693 0.398649 0.259231
Si Si4 0.401397 0.834187 0.169367
Si Si5 0.668230 0.773765 0.667232
Si Si6 0.153386 0.871754 0.450909
Si Si7 0.894352 0.264032 0.798353
Si Si8 0.354360 0.054658 0.701713
O O1 0.916338 0.438463 0.730992
O O2 0.966147 0.690234 0.813059
O O3 0.915438 0.465624 0.042749
O O4 0.751580 0.773725 0.038395
O O5 0.500000 0.500000 0.500000
O O6 0.612209 0.248292 0.608535
O O7 0.652067 0.131110 0.259903
O O8 0.762904 0.315517 0.121300
O O9 0.804058 0.584852 0.502048
O O10 0.859985 0.256482 0.357910
O O11 0.296671 0.837220 0.224279
O O12 0.363335 0.051283 0.198585
O O13 0.553168 0.729260 0.878733
O O14 0.677032 0.848148 0.450778
O O15 0.135129 0.794246 0.320718
O O16 0.034227 0.082524 0.646837
O O17 0.500000 0.000000 0.500000
#
# Coordination Sequence:
#
# PCOD9005831 Si02
#       8
#     2   2   2   2   2   2   2   2
#     4  10  21  41  66  91 124 169 222 263 317 387
#     4  11  24  41  67  98 130 168 215 267 326 387
#     4  10  21  39  65  93 120 169 215 268 318 385
#     4  10  22  43  66  94 127 175 211 267 321 391
#     4   9  21  40  65  93 127 165 220 258 322 385
#     4  11  25  41  64  94 131 172 209 272 329 381
#     4  11  25  43  60  95 133 167 219 266 325 387
#     4  10  21  38  63  95 130 170 210 265 318 382
#
# _framework density 24.008796
#
# number of rings (size 3 to 8) (size 9 to 14) (size 15 to 20)
#    0.000    1.750    0.000    3.000    3.500    6.000 
#    2.250    0.000    0.000    0.000    0.000    0.000 
#    0.000    0.000    0.000    0.000    0.000    0.000 
#
# Total GULP energy -89373.507705 kJ/mol
# GULP energy per Si atom -5585.844232 kJ/mol
# Density = 2.395415 g / cm^3
# Si number density = 24.008796 Si / 1000 Ang^3
#
#
#
# Elastic Constant Matrix: (Units=GPa)
#
#
# Indices 1 2 3 4 5 6 
#
# 1 85.4309 30.7043 11.7302 -2.5603 -14.5839 5.1606
# 2 30.7043 95.1970 17.6707 3.3168 0.0924 5.1149
# 3 11.7302 17.6707 60.9190 -14.3028 -11.6791 -5.3649
# 4 -2.5603 3.3168 -14.3028 41.9979 10.3792 -7.7146
# 5 -14.5839 0.0924 -11.6791 10.3792 33.8957 -5.1914
# 6 5.1606 5.1149 -5.3649 -7.7146 -5.1914 37.1311
#
#
#
# Elastic Compliance Matrix: (Units=1/GPa)
#
#
# Indices 1 2 3 4 5 6 
#
# 1 0.014473 -0.004522 -0.000499 -0.000579 0.006134 -0.000723
# 2 -0.004522 0.013005 -0.004332 -0.002510 -0.003126 -0.002748
# 3 -0.000499 -0.004332 0.021090 0.007168 0.005790 0.006012
# 4 -0.000579 -0.002510 0.007168 0.029040 -0.005638 0.006707
# 5 0.006134 -0.003126 0.005790 -0.005638 0.036538 0.004352
# 6 -0.000723 -0.002748 0.006012 0.006707 0.004352 0.030281
#
#
# Mechanical properties :
#
#
# Convention : Reuss Voigt Hill
#
# Bulk Modulus (GPa) = 33.48771 40.19527 36.84149
# Shear Modulus (GPa) = 28.88702 34.70106 31.79404
#
# Velocity S-wave (km/s) = 3.47246 3.80590 3.64299
# Velocity P-wave (km/s) = 5.48231 6.00761 5.75096
#
# Compressibility (1/GPa) = 0.02986170
#
# Stress axis : x y z
#
# Youngs Moduli (GPa) = 69.09590 76.89098 47.41518
#
# Poissons Ratio (x) = 0.34772 0.02365
# Poissons Ratio (y) = 0.31247 0.20542
# Poissons Ratio (z) = 0.03446 0.33312
#
# Static dielectric constant tensor:
#      x y z
#    x 1.916650 -0.000980 0.023850 
#    y -0.000980 1.899760 -0.036110 
#    z 0.023850 -0.036110 2.011130 
# 
# From -- ./inp_files/328803.got.cif
#   From: 2010.05.17/outbox.cif.g08.bks.cpg/sg2_165_cif.got.tgz:328803.got - 2010.06.03 11:33:40.
