data_PCOD9005906
_publ_section_title
;
Structure prediction by ZEFSAII (Michael W. Deem and Ramdas Pophale) SiO2 
 PCOD9005906
Probable space group: P -1
;
_chemical_formula_sum "Si O2"
_cell_formula_units_Z 12
_cell_length_a 7.283263
_cell_length_b 15.032309
_cell_length_c 8.773844
_cell_angle_alpha 138.960495
_cell_angle_beta 118.008344
_cell_angle_gamma 47.892257
_cell_volume 466.623083
_symmetry_space_group_name_H-M "P -1"
_symmetry_group_IT_number 2
_symmetry_cell_setting 'triclinic'
loop_
_space_group_symop_operation_xyz
x,y,z
-x,-y,-z
loop_
_atom_site_type_symbol
_atom_site_label
_atom_site_fract_x
_atom_site_fract_y
_atom_site_fract_z
Si Si1 0.005196 0.208207 0.307808
Si Si2 0.013951 0.626704 0.778298
Si Si3 0.225748 0.872995 0.641678
Si Si4 0.694397 0.123513 0.648312
Si Si5 0.804420 0.597443 0.179089
Si Si6 0.450507 0.053042 0.860353
O O1 0.919597 0.283904 0.205389
O O2 0.108149 0.302011 0.560510
O O3 0.792648 0.220166 0.345686
O O4 0.255655 0.027436 0.153835
O O5 0.000000 0.500000 0.500000
O O6 0.195177 0.522933 0.852128
O O7 0.755673 0.763723 0.936308
O O8 0.277781 0.798478 0.396537
O O9 0.414876 0.930972 0.798007
O O10 0.949269 0.029082 0.713276
O O11 0.457549 0.269654 0.824062
O O12 0.643533 0.989894 0.388968
O O13 0.000000 0.500000 0.000000
#
# Coordination Sequence:
#
# PCOD9005906 Si02
#       6
#     2   2   2   2   2   2
#     4  10  21  38  64  84 118 160 196 244 286 352
#     4  10  22  39  56  89 123 152 199 239 297 357
#     4   9  19  37  63  92 114 144 216 237 290 332
#     4   8  19  38  57  92 121 144 200 254 270 357
#     4  10  22  36  62  88 121 162 190 235 309 348
#     4   9  19  37  64  83 116 158 195 249 279 348
#
# _framework density 25.716688000000001
#
# number of rings (size 3 to 8) (size 9 to 14) (size 15 to 20)
#    1.000    1.667    0.000    0.500    4.667    2.000 
#    0.000    4.167    0.000    0.000    0.000    0.000 
#    0.000    0.000    0.000    0.000    0.000    0.000 
#
# Total GULP energy -67022.446744 kJ/mol
# GULP energy per Si atom -5585.203895 kJ/mol
# Density = 2.565816 g / cm^3
# Si number density = 25.716688 Si / 1000 Ang^3
#
#
#
# Elastic Constant Matrix: (Units=GPa)
#
#
# Indices 1 2 3 4 5 6 
#
# 1 85.2546 28.7809 10.1155 -2.7667 -19.6443 17.6511
# 2 28.7809 92.8682 15.5903 6.6030 -10.4553 0.1073
# 3 10.1155 15.5903 125.8130 20.4191 -23.4122 -1.0594
# 4 -2.7667 6.6030 20.4191 26.6800 -5.2274 -19.5100
# 5 -19.6443 -10.4553 -23.4122 -5.2274 49.3430 -4.1983
# 6 17.6511 0.1073 -1.0594 -19.5100 -4.1983 41.9821
#
#
#
# Elastic Compliance Matrix: (Units=1/GPa)
#
#
# Indices 1 2 3 4 5 6 
#
# 1 0.015559 -0.004224 0.000368 -0.001703 0.004711 -0.006842
# 2 -0.004224 0.012415 -0.000729 -0.002396 0.000405 0.000653
# 3 0.000368 -0.000729 0.010239 -0.010024 0.003430 -0.004210
# 4 -0.001703 -0.002396 -0.010024 0.071389 0.004523 0.034098
# 5 0.004711 0.000405 0.003430 0.004523 0.024561 0.002663
# 6 -0.006842 0.000653 -0.004210 0.034098 0.002663 0.042700
#
#
# Mechanical properties :
#
#
# Convention : Reuss Voigt Hill
#
# Bulk Modulus (GPa) = 34.43383 45.87880 40.15632
# Shear Modulus (GPa) = 25.54748 40.23097 32.88922
#
# Velocity S-wave (km/s) = 3.15528 3.95953 3.58006
# Velocity P-wave (km/s) = 5.16654 6.22757 5.72170
#
# Compressibility (1/GPa) = 0.02904120
#
# Stress axis : x y z
#
# Youngs Moduli (GPa) = 64.27246 80.55025 97.66839
#
# Poissons Ratio (x) = 0.34026 -0.03593
# Poissons Ratio (y) = 0.27150 0.07121
# Poissons Ratio (z) = -0.02365 0.05873
#
# Static dielectric constant tensor:
#      x y z
#    x 2.046860 0.083730 0.032680 
#    y 0.083730 2.083810 -0.091470 
#    z 0.032680 -0.091470 2.180250 
# 
# From -- ./inp_files/198440.got.cif
#   From: 2010.05.17/outbox.cif.g08.bks.cpg/sg2_100_cif.got.tgz:198440.got - 2010.06.03 11:33:40.
