data_PCOD9005067
_publ_section_title
;
Structure prediction by ZEFSAII (Michael W. Deem and Ramdas Pophale) SiO2 
 PCOD9005067
Probable space group: P -1
;
_chemical_formula_sum "Si O2"
_cell_formula_units_Z 16
_cell_length_a 20.452001
_cell_length_b 8.629227
_cell_length_c 24.444461
_cell_angle_alpha 138.252945
_cell_angle_beta 21.640145
_cell_angle_gamma 148.403294
_cell_volume 809.966202
_symmetry_space_group_name_H-M "P -1"
_symmetry_group_IT_number 2
_symmetry_cell_setting 'triclinic'
loop_
_space_group_symop_operation_xyz
x,y,z
-x,-y,-z
loop_
_atom_site_type_symbol
_atom_site_label
_atom_site_fract_x
_atom_site_fract_y
_atom_site_fract_z
Si Si1 0.992642 0.088075 0.371492
Si Si2 0.868374 0.307198 0.816039
Si Si3 0.424026 0.176945 0.454055
Si Si4 0.449918 0.680611 0.125964
Si Si5 0.436758 0.071379 0.150490
Si Si6 0.277501 0.734779 0.857351
Si Si7 0.369198 0.283378 0.357078
Si Si8 0.317665 0.788345 0.540509
O O1 0.232895 0.423925 0.264748
O O2 0.818268 0.004558 0.436917
O O3 0.848794 0.014066 0.519410
O O4 0.035643 0.846696 0.271838
O O5 0.711631 0.086885 0.829702
O O6 0.065875 0.628057 0.719378
O O7 0.703584 0.295250 0.983775
O O8 0.500000 0.500000 0.500000
O O9 0.600443 0.208949 0.281638
O O10 0.381248 0.979092 0.487137
O O11 0.394177 0.830248 0.163754
O O12 0.639838 0.962063 0.093281
O O13 0.500000 0.500000 0.000000
O O14 0.369278 0.236680 0.280649
O O15 0.398119 0.629849 0.773141
O O16 0.000000 0.500000 0.000000
O O17 0.335662 0.527374 0.452566
O O18 0.500000 0.000000 0.500000
#
# Coordination Sequence:
#
# PCOD9005067 Si02
#       8
#     2   2   2   2   2   2   2   2
#     4  10  21  39  63  92 122 164 216 265 314 378
#     4  10  21  38  60  89 125 163 204 260 312 383
#     4  11  24  42  68  92 125 171 215 268 324 383
#     4  11  22  38  64  96 128 170 216 268 318 378
#     4  10  21  39  59  91 125 162 203 257 330 361
#     4  10  24  43  64  95 133 169 215 266 325 384
#     4   9  22  41  63  88 126 165 207 265 316 374
#     4  11  23  42  61  89 123 167 214 252 316 389
#
# _framework density 19.753910999999999
#
# number of rings (size 3 to 8) (size 9 to 14) (size 15 to 20)
#    0.000    1.750    1.250    3.000    1.750   10.500 
#    2.250    1.250    0.000    0.000    0.000    0.000 
#    0.000    0.000    0.000    0.000    0.000    0.000 
#
# Total GULP energy -89221.638641 kJ/mol
# GULP energy per Si atom -5576.352415 kJ/mol
# Density = 1.970895 g / cm^3
# Si number density = 19.753911 Si / 1000 Ang^3
#
#
#
# Elastic Constant Matrix: (Units=GPa)
#
#
# Indices 1 2 3 4 5 6 
#
# 1 101.6611 34.9793 52.0566 -15.2069 19.7417 -4.1323
# 2 34.9793 96.2155 57.9548 -8.6413 15.2206 3.6118
# 3 52.0566 57.9548 115.6182 -16.1495 17.0323 12.5270
# 4 -15.2069 -8.6413 -16.1495 26.7673 8.8994 3.9524
# 5 19.7417 15.2206 17.0323 8.8994 31.1714 -0.4029
# 6 -4.1323 3.6118 12.5270 3.9524 -0.4029 29.6120
#
#
#
# Elastic Compliance Matrix: (Units=1/GPa)
#
#
# Indices 1 2 3 4 5 6 
#
# 1 0.015612 -0.000928 -0.004218 0.008811 -0.009610 0.002769
# 2 -0.000928 0.015426 -0.006566 0.001694 -0.003834 0.000489
# 3 -0.004218 -0.006566 0.016832 0.008821 -0.005944 -0.008167
# 4 0.008811 0.001694 0.008821 0.059264 -0.028290 -0.011004
# 5 -0.009610 -0.003834 -0.005944 -0.028290 0.051443 0.006117
# 6 0.002769 0.000489 -0.008167 -0.011004 0.006117 0.039104
#
#
# Mechanical properties :
#
#
# Convention : Reuss Voigt Hill
#
# Bulk Modulus (GPa) = 40.90475 67.05291 53.97883
# Shear Modulus (GPa) = 21.80982 28.74376 25.27679
#
# Velocity S-wave (km/s) = 3.32637 3.81871 3.58101
# Velocity P-wave (km/s) = 5.95861 7.31171 6.66957
#
# Compressibility (1/GPa) = 0.02444704
#
# Stress axis : x y z
#
# Youngs Moduli (GPa) = 64.05138 64.82519 59.40947
#
# Poissons Ratio (x) = 0.06013 0.25059
# Poissons Ratio (y) = 0.05941 0.39010
# Poissons Ratio (z) = 0.27017 0.42566
#
# Static dielectric constant tensor:
#      x y z
#    x 1.668190 0.012660 0.000300 
#    y 0.012660 1.678660 0.011840 
#    z 0.000300 0.011840 1.737240 
# 
# From -- ./inp_files/204285.got.cif
#   From: 2010.05.17/outbox.cif.g08.bks.cpg/sg2_103_cif.got.tgz:204285.got - 2010.06.03 11:33:40.
