data_PCOD9005662
_publ_section_title
;
Structure prediction by ZEFSAII (Michael W. Deem and Ramdas Pophale) SiO2 
 PCOD9005662
Probable space group: P -1
;
_chemical_formula_sum "Si O2"
_cell_formula_units_Z 10
_cell_length_a 9.274242
_cell_length_b 9.551005
_cell_length_c 13.525175
_cell_angle_alpha 42.175766
_cell_angle_beta 27.050403
_cell_angle_gamma 41.584518
_cell_volume 350.300320
_symmetry_space_group_name_H-M "P -1"
_symmetry_group_IT_number 2
_symmetry_cell_setting 'triclinic'
loop_
_space_group_symop_operation_xyz
x,y,z
-x,-y,-z
loop_
_atom_site_type_symbol
_atom_site_label
_atom_site_fract_x
_atom_site_fract_y
_atom_site_fract_z
Si Si1 0.269262 0.942832 0.776712
Si Si2 0.337424 0.571822 0.772640
Si Si3 0.924046 0.179396 0.365637
Si Si4 0.357591 0.301629 0.162166
Si Si5 0.159343 0.843187 0.230850
O O1 0.255121 0.735783 0.829320
O O2 0.607581 0.851103 0.682291
O O3 0.164131 0.128441 0.658313
O O4 0.000000 0.000000 0.000000
O O5 0.661669 0.378765 0.705126
O O6 0.389276 0.690607 0.576755
O O7 0.000000 0.500000 0.000000
O O8 0.021065 0.365348 0.273474
O O9 0.124629 0.041727 0.222438
O O10 0.000000 0.000000 0.500000
O O11 0.500000 0.500000 0.000000
O O12 0.582354 0.158108 0.014111
#
# Coordination Sequence:
#
# PCOD9005662 Si02
#       5
#     2   2   2   2   2
#     4   9  20  31  57  91 118 148 202 260 295 341
#     4  11  20  37  62  90 119 161 212 247 294 373
#     4  11  25  41  61  92 128 162 201 255 314 359
#     4  11  19  39  66  93 118 159 210 255 295 366
#     4  10  21  38  63  88 122 165 207 248 300 370
#
# _framework density 28.546934
#
# number of rings (size 3 to 8) (size 9 to 14) (size 15 to 20)
#    0.000    1.600    4.000    0.600    5.600    0.800 
#    0.000    5.000    0.000    0.000    0.000    0.000 
#    0.000    0.000    0.000    0.000    0.000    0.000 
#
# Total GULP energy -55785.377309 kJ/mol
# GULP energy per Si atom -5578.537731 kJ/mol
# Density = 2.848196 g / cm^3
# Si number density = 28.546934 Si / 1000 Ang^3
#
#
#
# Elastic Constant Matrix: (Units=GPa)
#
#
# Indices 1 2 3 4 5 6 
#
# 1 339.1978 105.3908 56.8089 -10.5628 61.1520 -18.9224
# 2 105.3908 171.2156 43.7448 12.2369 11.4151 -7.1417
# 3 56.8089 43.7448 78.7626 -12.7459 37.8066 4.6397
# 4 -10.5628 12.2369 -12.7459 51.3308 -11.2309 23.8017
# 5 61.1520 11.4151 37.8066 -11.2309 68.9190 -15.5995
# 6 -18.9224 -7.1417 4.6397 23.8017 -15.5995 81.4816
#
#
#
# Elastic Compliance Matrix: (Units=1/GPa)
#
#
# Indices 1 2 3 4 5 6 
#
# 1 0.004351 -0.002515 -0.000011 0.000802 -0.003326 -0.000080
# 2 -0.002515 0.009091 -0.005975 -0.004538 0.003856 0.002617
# 3 -0.000011 -0.005975 0.023405 0.007552 -0.012052 -0.006372
# 4 0.000802 -0.004538 0.007552 0.026220 -0.001786 -0.008643
# 5 -0.003326 0.003856 -0.012052 -0.001786 0.024374 0.005440
# 6 -0.000080 0.002617 -0.006372 -0.008643 0.005440 0.016412
#
#
# Mechanical properties :
#
#
# Convention : Reuss Voigt Hill
#
# Bulk Modulus (GPa) = 50.38643 111.22946 80.80794
# Shear Modulus (GPa) = 39.22443 65.89506 52.55974
#
# Velocity S-wave (km/s) = 3.71082 4.80970 4.29554
# Velocity P-wave (km/s) = 6.00407 8.36018 7.27810
#
# Compressibility (1/GPa) = 0.01984661
#
# Stress axis : x y z
#
# Youngs Moduli (GPa) = 229.81282 109.99302 42.72544
#
# Poissons Ratio (x) = 0.27658 0.00047
# Poissons Ratio (y) = 0.57787 0.25529
# Poissons Ratio (z) = 0.00252 0.65723
#
# Static dielectric constant tensor:
#      x y z
#    x 2.366110 -0.189360 -0.288230 
#    y -0.189360 2.314960 -0.010670 
#    z -0.288230 -0.010670 2.631140 
# 
# From -- ./inp_files/144082.got.cif
#   From: 2010.05.17/outbox.cif.g08.bks.cpg/sg2_73_cif.got.tgz:144082.got - 2010.06.03 11:33:40.
