data_PCOD9005409
_publ_section_title
;
Structure prediction by ZEFSAII (Michael W. Deem and Ramdas Pophale) SiO2 
 PCOD9005409
Probable space group: P -1
;
_chemical_formula_sum "Si O2"
_cell_formula_units_Z 16
_cell_length_a 19.618054
_cell_length_b 5.125102
_cell_length_c 16.498407
_cell_angle_alpha 132.178347
_cell_angle_beta 33.748390
_cell_angle_gamma 134.099486
_cell_volume 643.644014
_symmetry_space_group_name_H-M "P -1"
_symmetry_group_IT_number 2
_symmetry_cell_setting 'triclinic'
loop_
_space_group_symop_operation_xyz
x,y,z
-x,-y,-z
loop_
_atom_site_type_symbol
_atom_site_label
_atom_site_fract_x
_atom_site_fract_y
_atom_site_fract_z
Si Si1 0.548361 0.958770 0.136632
Si Si2 0.295203 0.506239 0.050918
Si Si3 0.974935 0.555025 0.755851
Si Si4 0.682072 0.742548 0.562207
Si Si5 0.326116 0.247371 0.241732
Si Si6 0.072830 0.448101 0.021723
Si Si7 0.902088 0.544983 0.537196
Si Si8 0.170092 0.324369 0.746209
O O1 0.445895 0.539167 0.138625
O O2 0.449891 0.170123 0.309215
O O3 0.650794 0.831599 0.061020
O O4 0.625856 0.224610 0.043404
O O5 0.140273 0.349370 0.156955
O O6 0.322757 0.820751 0.160322
O O7 0.904512 0.414924 0.880481
O O8 0.025001 0.322390 0.593070
O O9 0.110355 0.874085 0.714963
O O10 0.669672 0.599423 0.638039
O O11 0.722938 0.546387 0.403186
O O12 0.805954 0.120581 0.528029
O O13 0.202413 0.243461 0.309693
O O14 0.960901 0.600531 0.134392
O O15 0.190403 0.500658 0.852766
O O16 0.000000 0.000000 0.000000
O O17 0.000000 0.500000 0.500000
#
# Coordination Sequence:
#
# PCOD9005409 Si02
#       8
#     2   2   2   2   2   2   2   2
#     4  11  25  43  59  90 118 174 221 255 298 349
#     4  12  26  38  64  86 128 166 217 260 296 359
#     4  10  22  36  58  91 122 163 193 257 309 374
#     4  10  21  38  62  86 120 160 208 256 301 370
#     4  11  23  39  62  84 124 170 211 260 297 360
#     4   9  18  36  60  93 121 150 195 243 317 382
#     4  10  22  36  55  90 126 161 203 249 315 365
#     4   9  19  37  64  93 119 152 193 254 315 378
#
# _framework density 24.858463
#
# number of rings (size 3 to 8) (size 9 to 14) (size 15 to 20)
#    0.000    1.750    1.250    2.250    7.000    4.000 
#    0.000    0.000    0.000    1.500    0.000    0.000 
#    0.000    0.000    0.000    0.000    0.000    0.000 
#
# Total GULP energy -89194.802624 kJ/mol
# GULP energy per Si atom -5574.675164 kJ/mol
# Density = 2.480188 g / cm^3
# Si number density = 24.858463 Si / 1000 Ang^3
#
#
#
# Elastic Constant Matrix: (Units=GPa)
#
#
# Indices 1 2 3 4 5 6 
#
# 1 83.0041 22.3137 67.2323 10.7705 10.7077 -15.8743
# 2 22.3137 66.9126 11.6428 -13.9070 10.8915 -9.2712
# 3 67.2323 11.6428 168.4182 -0.6073 27.9460 -1.9229
# 4 10.7705 -13.9070 -0.6073 31.8008 -6.4726 -2.9381
# 5 10.7077 10.8915 27.9460 -6.4726 57.5034 -7.2763
# 6 -15.8743 -9.2712 -1.9229 -2.9381 -7.2763 29.3249
#
#
#
# Elastic Compliance Matrix: (Units=1/GPa)
#
#
# Indices 1 2 3 4 5 6 
#
# 1 0.025029 -0.007830 -0.009629 -0.010880 0.001508 0.009726
# 2 -0.007830 0.020282 0.002085 0.011492 -0.001719 0.003035
# 3 -0.009629 0.002085 0.010225 0.003182 -0.003783 -0.004502
# 4 -0.010880 0.011492 0.003182 0.041156 0.003302 0.002895
# 5 0.001508 -0.001719 -0.003783 0.003302 0.020328 0.005400
# 6 0.009726 0.003035 -0.004502 0.002895 0.005400 0.041660
#
#
# Mechanical properties :
#
#
# Convention : Reuss Voigt Hill
#
# Bulk Modulus (GPa) = 40.34138 57.85695 49.09916
# Shear Modulus (GPa) = 25.29201 38.20224 31.74712
#
# Velocity S-wave (km/s) = 3.19320 3.92444 3.57755
# Velocity P-wave (km/s) = 5.46434 6.62270 6.07121
#
# Compressibility (1/GPa) = 0.02478844
#
# Stress axis : x y z
#
# Youngs Moduli (GPa) = 39.95378 49.30455 97.80019
#
# Poissons Ratio (x) = 0.38607 0.94168
# Poissons Ratio (y) = 0.31285 -0.20392
# Poissons Ratio (z) = 0.38470 -0.10280
#
# Static dielectric constant tensor:
#      x y z
#    x 2.339120 0.431520 0.215150 
#    y 0.431520 2.891710 0.299580 
#    z 0.215150 0.299580 2.117870 
# 
# From -- ./inp_files/576843.got.cif
#   From: 2010.05.17/outbox.cif.g08.bks.cpg/sg2_289_cif.got.tgz:576843.got - 2010.06.03 11:33:40.
