data_PCOD9005973
_publ_section_title
;
Structure prediction by ZEFSAII (Michael W. Deem and Ramdas Pophale) SiO2 
 PCOD9005973
Probable space group: P -1
;
_chemical_formula_sum "Si O2"
_cell_formula_units_Z 16
_cell_length_a 6.702975
_cell_length_b 12.093945
_cell_length_c 14.054518
_cell_angle_alpha 42.720794
_cell_angle_beta 98.032732
_cell_angle_gamma 82.249015
_cell_volume 715.929187
_symmetry_space_group_name_H-M "P -1"
_symmetry_group_IT_number 2
_symmetry_cell_setting 'triclinic'
loop_
_space_group_symop_operation_xyz
x,y,z
-x,-y,-z
loop_
_atom_site_type_symbol
_atom_site_label
_atom_site_fract_x
_atom_site_fract_y
_atom_site_fract_z
Si Si1 0.943418 0.225746 0.465370
Si Si2 0.460032 0.431906 0.812029
Si Si3 0.303545 0.197286 0.094865
Si Si4 0.713491 0.885232 0.281570
Si Si5 0.969945 0.001884 0.883953
Si Si6 0.555807 0.630513 0.849746
Si Si7 0.280333 0.969842 0.518744
Si Si8 0.556908 0.325562 0.674734
O O1 0.766465 0.414123 0.323071
O O2 0.809984 0.093390 0.541355
O O3 0.100242 0.213164 0.570577
O O4 0.102870 0.141075 0.441422
O O5 0.602966 0.522133 0.823638
O O6 0.571631 0.357166 0.767743
O O7 0.390623 0.300550 0.956528
O O8 0.275529 0.303930 0.124272
O O9 0.505445 0.017855 0.236369
O O10 0.109812 0.146679 0.070989
O O11 0.629302 0.755847 0.299138
O O12 0.816004 0.993885 0.153373
O O13 0.775707 0.185049 0.738322
O O14 0.000000 0.000000 0.000000
O O15 0.348763 0.803344 0.700924
O O16 0.500000 0.500000 0.000000
O O17 0.500000 0.000000 0.500000
O O18 0.500000 0.500000 0.500000
#
# Coordination Sequence:
#
# PCOD9005973 Si02
#       8
#     2   2   2   2   2   2   2   2
#     4  10  22  38  61  93 123 162 210 258 312 373
#     4  10  21  40  64  91 130 169 209 266 319 374
#     4  10  21  41  65  91 130 166 210 262 329 381
#     4  11  23  40  66  91 127 166 212 266 317 377
#     4  11  24  40  65  94 123 168 218 259 319 382
#     4   9  19  38  63  91 124 166 205 258 317 381
#     4  10  21  38  64  90 128 167 210 258 316 381
#     4  11  25  43  64  92 129 169 211 267 326 375
#
# _framework density 22.348576999999999
#
# number of rings (size 3 to 8) (size 9 to 14) (size 15 to 20)
#    0.000    1.750    1.250    2.250    1.750    7.000 
#    0.000    3.750    0.000   10.500    0.000    0.000 
#    0.000    0.000    0.000    0.000    0.000    0.000 
#
# Total GULP energy -89384.957119 kJ/mol
# GULP energy per Si atom -5586.559820 kJ/mol
# Density = 2.229771 g / cm^3
# Si number density = 22.348577 Si / 1000 Ang^3
#
#
#
# Elastic Constant Matrix: (Units=GPa)
#
#
# Indices 1 2 3 4 5 6 
#
# 1 112.3222 47.0692 8.4491 -0.9706 1.5561 25.0389
# 2 47.0692 143.0857 13.5699 18.3396 -2.1059 37.9080
# 3 8.4491 13.5699 62.0067 -0.5504 2.9576 4.7923
# 4 -0.9706 18.3396 -0.5504 34.8233 2.6431 12.2177
# 5 1.5561 -2.1059 2.9576 2.6431 23.5076 0.3845
# 6 25.0389 37.9080 4.7923 12.2177 0.3845 41.4174
#
#
#
# Elastic Compliance Matrix: (Units=1/GPa)
#
#
# Indices 1 2 3 4 5 6 
#
# 1 0.011342 -0.002767 -0.000431 0.003747 -0.001278 -0.005367
# 2 -0.002767 0.010226 -0.001468 -0.003320 0.001765 -0.006554
# 3 -0.000431 -0.001468 0.016689 0.001462 -0.002355 -0.000736
# 4 0.003747 -0.003320 0.001462 0.034246 -0.004425 -0.009456
# 5 -0.001278 0.001765 -0.002355 -0.004425 0.043571 0.000331
# 6 -0.005367 -0.006554 -0.000736 -0.009456 0.000331 0.036260
#
#
# Mechanical properties :
#
#
# Convention : Reuss Voigt Hill
#
# Bulk Modulus (GPa) = 34.57167 50.62123 42.59645
# Shear Modulus (GPa) = 29.18734 36.50475 32.84605
#
# Velocity S-wave (km/s) = 3.61779 4.04595 3.83785
# Velocity P-wave (km/s) = 5.74056 6.67280 6.22416
#
# Compressibility (1/GPa) = 0.02892542
#
# Stress axis : x y z
#
# Youngs Moduli (GPa) = 88.17169 97.78832 59.91798
#
# Poissons Ratio (x) = 0.27059 0.02581
# Poissons Ratio (y) = 0.24398 0.08796
# Poissons Ratio (z) = 0.03798 0.14355
#
# Static dielectric constant tensor:
#      x y z
#    x 1.818150 0.016610 -0.011130 
#    y 0.016610 1.834820 0.015620 
#    z -0.011130 0.015620 1.842980 
# 
# From -- ./inp_files/482658.got.cif
#   From: 2010.05.17/outbox.cif.g08.bks.cpg/sg2_242_cif.got.tgz:482658.got - 2010.06.03 11:33:40.
