data_PCOD9005506
_publ_section_title
;
Structure prediction by ZEFSAII (Michael W. Deem and Ramdas Pophale) SiO2 
 PCOD9005506
Probable space group: P -1
;
_chemical_formula_sum "Si O2"
_cell_formula_units_Z 14
_cell_length_a 9.163812
_cell_length_b 18.090717
_cell_length_c 9.025502
_cell_angle_alpha 107.875756
_cell_angle_beta 31.166343
_cell_angle_gamma 121.357925
_cell_volume 628.014933
_symmetry_space_group_name_H-M "P -1"
_symmetry_group_IT_number 2
_symmetry_cell_setting 'triclinic'
loop_
_space_group_symop_operation_xyz
x,y,z
-x,-y,-z
loop_
_atom_site_type_symbol
_atom_site_label
_atom_site_fract_x
_atom_site_fract_y
_atom_site_fract_z
Si Si1 0.109591 0.357060 0.516452
Si Si2 0.936638 0.040659 0.729698
Si Si3 0.287729 0.242550 0.476624
Si Si4 0.562098 0.053069 0.324083
Si Si5 0.859917 0.464602 0.939784
Si Si6 0.952684 0.261763 0.039228
Si Si7 0.863053 0.584044 0.786098
O O1 0.169397 0.276597 0.460315
O O2 0.988109 0.359360 0.458980
O O3 0.885146 0.377277 0.829032
O O4 0.485717 0.440822 0.258729
O O5 0.008350 0.137479 0.672757
O O6 0.227595 0.051835 0.587333
O O7 0.000000 0.000000 0.500000
O O8 0.634415 0.007472 0.089479
O O9 0.634486 0.249655 0.216764
O O10 0.239022 0.292311 0.688786
O O11 0.842920 0.162084 0.142226
O O12 0.500000 0.000000 0.500000
O O13 0.020064 0.533001 0.703895
O O14 0.000000 0.500000 0.000000
O O15 0.090470 0.340357 0.090037
O O16 0.500000 0.500000 0.000000
#
# Coordination Sequence:
#
# PCOD9005506 Si02
#       7
#     2   2   2   2   2   2   2
#     4  11  22  36  55  82 110 143 190 243 287 340
#     4  10  21  38  62  91 124 157 197 252 305 361
#     4  10  21  39  60  84 115 157 200 236 294 364
#     4  10  21  39  63  92 122 162 203 244 304 368
#     4  11  22  37  57  78 107 149 190 234 290 349
#     4  10  22  40  60  83 120 159 197 242 292 360
#     4  10  23  39  57  86 118 151 197 251 297 338
#
# _framework density 22.292465
#
# number of rings (size 3 to 8) (size 9 to 14) (size 15 to 20)
#    0.000    1.714    0.000    4.286    0.000    6.857 
#    0.000    1.429    0.000    0.000    0.000    0.000 
#    0.000    0.000    0.000    0.000    0.000    0.000 
#
# Total GULP energy -77943.175689 kJ/mol
# GULP energy per Si atom -5567.369692 kJ/mol
# Density = 2.224173 g / cm^3
# Si number density = 22.292465 Si / 1000 Ang^3
#
#
#
# Elastic Constant Matrix: (Units=GPa)
#
#
# Indices 1 2 3 4 5 6 
#
# 1 133.9734 48.9120 16.0937 -7.6049 25.2608 -42.9538
# 2 48.9120 78.5979 9.7727 7.5214 21.2156 -19.9311
# 3 16.0937 9.7727 71.9919 15.4743 1.5389 -13.2285
# 4 -7.6049 7.5214 15.4743 29.4661 -2.1197 6.7590
# 5 25.2608 21.2156 1.5389 -2.1197 34.6811 -4.3323
# 6 -42.9538 -19.9311 -13.2285 6.7590 -4.3323 42.5988
#
#
#
# Elastic Compliance Matrix: (Units=1/GPa)
#
#
# Indices 1 2 3 4 5 6 
#
# 1 0.013840 -0.004449 -0.000913 0.002329 -0.005849 0.010626
# 2 -0.004449 0.020077 0.001489 -0.009050 -0.008924 0.005899
# 3 -0.000913 0.001489 0.017689 -0.011577 -0.000862 0.007018
# 4 0.002329 -0.009050 -0.011577 0.046139 0.005646 -0.012228
# 5 -0.005849 -0.008924 -0.000862 0.005646 0.038016 -0.007370
# 6 0.010626 0.005899 0.007018 -0.012228 -0.007370 0.040319
#
#
# Mechanical properties :
#
#
# Convention : Reuss Voigt Hill
#
# Bulk Modulus (GPa) = 22.79972 48.23555 35.51764
# Shear Modulus (GPa) = 25.19588 35.33485 30.26537
#
# Velocity S-wave (km/s) = 3.36555 3.98560 3.68863
# Velocity P-wave (km/s) = 5.03511 6.54710 5.84024
#
# Compressibility (1/GPa) = 0.04386018
#
# Stress axis : x y z
#
# Youngs Moduli (GPa) = 72.25547 49.80869 56.53267
#
# Poissons Ratio (x) = 0.22158 0.05161
# Poissons Ratio (y) = 0.32144 -0.08417
# Poissons Ratio (z) = 0.06597 -0.07416
#
# Static dielectric constant tensor:
#      x y z
#    x 1.850560 -0.024580 0.045010 
#    y -0.024580 1.887210 -0.043140 
#    z 0.045010 -0.043140 1.936690 
# 
# From -- ./inp_files/29980.got.cif
#   From: 2010.05.17/outbox.cif.g08.bks.cpg/sg2_15_cif.got.tgz:29980.got - 2010.06.03 11:33:40.
