data_PCOD9005648
_publ_section_title
;
Structure prediction by ZEFSAII (Michael W. Deem and Ramdas Pophale) SiO2 
 PCOD9005648
Probable space group: P -1
;
_chemical_formula_sum "Si O2"
_cell_formula_units_Z 16
_cell_length_a 11.322159
_cell_length_b 8.891305
_cell_length_c 11.213663
_cell_angle_alpha 52.553756
_cell_angle_beta 127.757284
_cell_angle_gamma 107.374818
_cell_volume 703.674510
_symmetry_space_group_name_H-M "P -1"
_symmetry_group_IT_number 2
_symmetry_cell_setting 'triclinic'
loop_
_space_group_symop_operation_xyz
x,y,z
-x,-y,-z
loop_
_atom_site_type_symbol
_atom_site_label
_atom_site_fract_x
_atom_site_fract_y
_atom_site_fract_z
Si Si1 0.933155 0.210889 0.038603
Si Si2 0.672986 0.919356 0.425182
Si Si3 0.090915 0.117762 0.619272
Si Si4 0.568304 0.379651 0.878098
Si Si5 0.790149 0.629343 0.830917
Si Si6 0.345871 0.916292 0.142176
Si Si7 0.751296 0.660259 0.216823
Si Si8 0.774260 0.278715 0.280707
O O1 0.099490 0.252111 0.082454
O O2 0.933899 0.051737 0.220595
O O3 0.868045 0.414596 0.957674
O O4 0.815786 0.155149 0.893057
O O5 0.756967 0.914737 0.350183
O O6 0.760636 0.748578 0.635174
O O7 0.496817 0.898192 0.321695
O O8 0.703673 0.125906 0.395139
O O9 0.117387 0.293556 0.637025
O O10 0.945114 0.180041 0.417987
O O11 0.629410 0.583082 0.799052
O O12 0.607758 0.221264 0.876468
O O13 0.391202 0.401070 0.771398
O O14 0.657277 0.304067 0.087760
O O15 0.309802 0.137075 0.978065
O O16 0.790958 0.488942 0.234033
#
# Coordination Sequence:
#
# PCOD9005648 Si02
#       8
#     2   2   2   2   2   2   2   2
#     4   9  20  36  58  85 119 153 189 247 297 336
#     4  12  22  37  63  93 118 156 201 249 290 351
#     4  11  23  40  64  90 120 151 206 251 291 342
#     4  11  22  40  62  91 117 161 197 247 294 355
#     4  10  22  36  58  91 123 151 196 247 299 349
#     4  10  21  38  63  87 122 150 201 248 292 340
#     4  11  22  41  62  90 121 157 195 251 300 347
#     4  12  24  37  64  90 120 156 207 239 297 353
#
# _framework density 22.737787000000001
#
# number of rings (size 3 to 8) (size 9 to 14) (size 15 to 20)
#    0.000    1.250    3.750    3.750    5.250    2.000 
#    0.000    0.625    0.000    3.000    0.000    0.000 
#    0.000    0.000    0.000    0.000    0.000    0.000 
#
# Total GULP energy -89226.443817 kJ/mol
# GULP energy per Si atom -5576.652739 kJ/mol
# Density = 2.268603 g / cm^3
# Si number density = 22.737787 Si / 1000 Ang^3
#
#
#
# Elastic Constant Matrix: (Units=GPa)
#
#
# Indices 1 2 3 4 5 6 
#
# 1 33.3882 38.9597 18.4533 -13.3741 7.2782 36.0148
# 2 38.9597 110.0565 22.3944 0.8665 10.3895 42.6129
# 3 18.4533 22.3944 53.6484 5.0862 1.1060 16.2877
# 4 -13.3741 0.8665 5.0862 29.0750 14.9184 7.2153
# 5 7.2782 10.3895 1.1060 14.9184 21.8496 2.6554
# 6 36.0148 42.6129 16.2877 7.2153 2.6554 46.4258
#
#
#
# Elastic Compliance Matrix: (Units=1/GPa)
#
#
# Indices 1 2 3 4 5 6 
#
# 1 -0.036789 -0.006946 0.008074 -0.050552 0.045124 0.037357
# 2 -0.006946 0.015449 -0.001595 0.001037 -0.004672 -0.008126
# 3 0.008074 -0.001595 0.019814 0.006320 -0.005742 -0.012405
# 4 -0.050552 0.001037 0.006320 -0.007631 0.016828 0.036270
# 5 0.045124 -0.004672 -0.005742 0.016828 0.025744 -0.032790
# 6 0.037357 -0.008126 -0.012405 0.036270 -0.032790 0.000609
#
#
# Mechanical properties :
#
#
# Convention : Reuss Voigt Hill
#
# Bulk Modulus (GPa) = -406.68952 39.63422 -183.52765
# Shear Modulus (GPa) = 288.88702 27.28912 158.08807
#
# Velocity S-wave (km/s) = 11.28394 3.46810 8.34731
# Velocity P-wave (km/s) = 3.07882 5.78842 3.46602
#
# Compressibility (1/GPa) = -0.00245888
#
# Stress axis : x y z
#
# Youngs Moduli (GPa) = -27.18209 64.72964 50.47047
#
# Poissons Ratio (x) = 0.44961 -0.40751
# Poissons Ratio (y) = -0.18881 0.08048
# Poissons Ratio (z) = 0.21948 0.10321
#
# Static dielectric constant tensor:
#      x y z
#    x 1.954040 0.015160 0.016330 
#    y 0.015160 1.899060 0.001970 
#    z 0.016330 0.001970 1.834300 
# 
# From -- ./inp_files/402153.got.cif
#   From: 2010.05.17/outbox.cif.g08.bks.cpg/sg2_202_cif.got.tgz:402153.got - 2010.06.03 11:33:40.
