data_PCOD9005579
_publ_section_title
;
Structure prediction by ZEFSAII (Michael W. Deem and Ramdas Pophale) SiO2 
 PCOD9005579
Probable space group: P -1
;
_chemical_formula_sum "Si O2"
_cell_formula_units_Z 14
_cell_length_a 5.388092
_cell_length_b 20.533032
_cell_length_c 5.485815
_cell_angle_alpha 92.590921
_cell_angle_beta 62.801590
_cell_angle_gamma 79.332556
_cell_volume 524.597498
_symmetry_space_group_name_H-M "P -1"
_symmetry_group_IT_number 2
_symmetry_cell_setting 'triclinic'
loop_
_space_group_symop_operation_xyz
x,y,z
-x,-y,-z
loop_
_atom_site_type_symbol
_atom_site_label
_atom_site_fract_x
_atom_site_fract_y
_atom_site_fract_z
Si Si1 0.062152 0.243017 0.026093
Si Si2 0.218319 0.196913 0.449837
Si Si3 0.928112 0.447690 0.712588
Si Si4 0.628785 0.577355 0.116798
Si Si5 0.541523 0.694062 0.845692
Si Si6 0.710809 0.079188 0.351632
Si Si7 0.673119 0.947985 0.102603
O O1 0.081922 0.194444 0.775684
O O2 0.358400 0.265421 0.960670
O O3 0.787397 0.300032 0.078292
O O4 0.013364 0.213696 0.309961
O O5 0.478773 0.131068 0.298947
O O6 0.340247 0.264478 0.408765
O O7 0.711057 0.407814 0.689271
O O8 0.000000 0.500000 0.500000
O O9 0.200740 0.406388 0.725204
O O10 0.742620 0.497324 0.011343
O O11 0.674421 0.619306 0.865437
O O12 0.553906 0.090123 0.686030
O O13 0.752535 0.998801 0.277935
O O14 0.027766 0.087542 0.159667
O O15 0.500000 0.000000 0.000000
#
# Coordination Sequence:
#
# PCOD9005579 Si02
#       7
#     2   2   2   2   2   2   2
#     4  10  25  44  66  99 136 180 235 279 353 412
#     4  10  26  43  69  98 136 187 225 293 347 424
#     4  10  21  38  62  94 126 172 213 273 337 404
#     4  10  21  39  62  92 130 164 224 271 337 413
#     4  10  24  42  65  99 134 181 229 285 350 413
#     4  10  23  41  65  99 135 181 237 289 361 430
#     4  10  22  41  65 100 133 180 232 294 356 425
#
# _framework density 26.68713
#
# number of rings (size 3 to 8) (size 9 to 14) (size 15 to 20)
#    0.857    1.143    0.000    1.714    6.000    2.286 
#    0.000    0.000    0.000    0.000    0.000    0.000 
#    0.000    0.000    0.000    0.000    0.000    0.000 
#
# Total GULP energy -78034.693110 kJ/mol
# GULP energy per Si atom -5573.906651 kJ/mol
# Density = 2.662639 g / cm^3
# Si number density = 26.687130 Si / 1000 Ang^3
#
#
#
# Elastic Constant Matrix: (Units=GPa)
#
#
# Indices 1 2 3 4 5 6 
#
# 1 181.4341 29.6510 57.2972 -8.0503 4.7739 -37.8593
# 2 29.6510 99.9547 22.5412 -4.1011 6.9780 -17.5136
# 3 57.2972 22.5412 131.7616 -25.8277 -0.6961 -20.2140
# 4 -8.0503 -4.1011 -25.8277 34.8237 -1.2917 7.6260
# 5 4.7739 6.9780 -0.6961 -1.2917 34.9463 -12.7799
# 6 -37.8593 -17.5136 -20.2140 7.6260 -12.7799 46.5698
#
#
#
# Elastic Compliance Matrix: (Units=1/GPa)
#
#
# Indices 1 2 3 4 5 6 
#
# 1 0.007440 -0.000856 -0.002572 -0.001368 0.000912 0.005084
# 2 -0.000856 0.011064 -0.001193 -0.000414 -0.001144 0.002701
# 3 -0.002572 -0.001193 0.010451 0.006787 0.001525 0.001303
# 4 -0.001368 -0.000414 0.006787 0.034239 0.000260 -0.003858
# 5 0.000912 -0.001144 0.001525 0.000260 0.032346 0.009807
# 6 0.005084 0.002701 0.001303 -0.003858 0.009807 0.030511
#
#
# Mechanical properties :
#
#
# Convention : Reuss Voigt Hill
#
# Bulk Modulus (GPa) = 50.73259 70.23658 60.48458
# Shear Modulus (GPa) = 35.24510 43.51202 39.37856
#
# Velocity S-wave (km/s) = 3.63806 4.04226 3.84547
# Velocity P-wave (km/s) = 6.05794 6.93990 6.51386
#
# Compressibility (1/GPa) = 0.01971119
#
# Stress axis : x y z
#
# Youngs Moduli (GPa) = 134.40663 90.38618 95.68860
#
# Poissons Ratio (x) = 0.07736 0.24614
# Poissons Ratio (y) = 0.11504 0.11419
# Poissons Ratio (z) = 0.34574 0.10786
#
# Static dielectric constant tensor:
#      x y z
#    x 2.135470 0.038050 -0.014760 
#    y 0.038050 2.141670 0.093980 
#    z -0.014760 0.093980 2.178230 
# 
# From -- ./inp_files/12301.got.cif
#   From: 2010.05.17/outbox.cif.g08.bks.cpg/sg2_7_cif.got.tgz:12301.got - 2010.06.03 11:33:40.
