data_PCOD9005679
_publ_section_title
;
Structure prediction by ZEFSAII (Michael W. Deem and Ramdas Pophale) SiO2 
 PCOD9005679
Probable space group: P -1
;
_chemical_formula_sum "Si O2"
_cell_formula_units_Z 14
_cell_length_a 15.806873
_cell_length_b 6.355768
_cell_length_c 15.965441
_cell_angle_alpha 95.865224
_cell_angle_beta 155.189153
_cell_angle_gamma 93.103375
_cell_volume 626.712449
_symmetry_space_group_name_H-M "P -1"
_symmetry_group_IT_number 2
_symmetry_cell_setting 'triclinic'
loop_
_space_group_symop_operation_xyz
x,y,z
-x,-y,-z
loop_
_atom_site_type_symbol
_atom_site_label
_atom_site_fract_x
_atom_site_fract_y
_atom_site_fract_z
Si Si1 0.108807 0.776743 0.499500
Si Si2 0.398483 0.756029 0.206083
Si Si3 0.470471 0.768233 0.083735
Si Si4 0.600959 0.516484 0.499094
Si Si5 0.973448 0.056672 0.074202
Si Si6 0.171514 0.828179 0.368393
Si Si7 0.255716 0.495844 0.738712
O O1 0.069184 0.750984 0.364026
O O2 0.148372 0.558372 0.563491
O O3 0.888845 0.732776 0.351827
O O4 0.322669 0.998800 0.716531
O O5 0.350433 0.725148 0.062792
O O6 0.430476 0.554238 0.281220
O O7 0.639075 0.936193 0.433579
O O8 0.233034 0.867725 0.098524
O O9 0.549404 0.558930 0.129189
O O10 0.318001 0.719231 0.863189
O O11 0.500000 0.500000 0.500000
O O12 0.692625 0.319959 0.550669
O O13 0.819129 0.730497 0.706949
O O14 0.000024 0.863118 0.150972
O O15 0.000000 0.000000 0.000000
#
# Coordination Sequence:
#
# PCOD9005679 Si02
#       7
#     2   2   2   2   2   2   2
#     4  10  21  40  60  89 125 164 205 264 310 369
#     4  10  23  42  62  91 128 162 207 263 308 374
#     4  10  21  40  59  91 123 164 208 260 311 371
#     4  11  23  40  65  91 124 164 205 259 318 372
#     4  11  24  42  63  93 126 162 209 254 314 383
#     4  10  23  42  62  92 125 165 207 258 317 369
#     4  10  21  38  63  89 122 166 213 251 316 380
#
# _framework density 22.338791000000001
#
# number of rings (size 3 to 8) (size 9 to 14) (size 15 to 20)
#    0.000    1.714    0.000    3.429    2.000    5.714 
#   18.000    0.000    0.000    0.000    0.000    0.000 
#    0.000    0.000    0.000    0.000    0.000    0.000 
#
# Total GULP energy -77998.232477 kJ/mol
# GULP energy per Si atom -5571.302320 kJ/mol
# Density = 2.228795 g / cm^3
# Si number density = 22.338791 Si / 1000 Ang^3
#
#
#
# Elastic Constant Matrix: (Units=GPa)
#
#
# Indices 1 2 3 4 5 6 
#
# 1 101.6526 26.4350 3.8586 -16.5552 -13.8519 18.4750
# 2 26.4350 55.9187 19.7012 -11.3897 -12.0494 14.0475
# 3 3.8586 19.7012 79.2673 1.6429 0.4801 22.2078
# 4 -16.5552 -11.3897 1.6429 49.1880 4.7668 -0.1663
# 5 -13.8519 -12.0494 0.4801 4.7668 35.4862 -6.6325
# 6 18.4750 14.0475 22.2078 -0.1663 -6.6325 30.4095
#
#
#
# Elastic Compliance Matrix: (Units=1/GPa)
#
#
# Indices 1 2 3 4 5 6 
#
# 1 0.012878 -0.004061 0.002333 0.003113 0.001847 -0.007232
# 2 -0.004061 0.024535 -0.004871 0.003928 0.005521 -0.004083
# 3 0.002333 -0.004871 0.017236 -0.000649 -0.003218 -0.012460
# 4 0.003113 0.003928 -0.000649 0.022402 -0.001077 -0.003344
# 5 0.001847 0.005521 -0.003218 -0.001077 0.032021 0.005656
# 6 -0.007232 -0.004083 -0.012460 -0.003344 0.005656 0.049479
#
#
# Mechanical properties :
#
#
# Convention : Reuss Voigt Hill
#
# Bulk Modulus (GPa) = 24.12536 37.42537 30.77536
# Shear Modulus (GPa) = 26.94454 35.47300 31.20877
#
# Velocity S-wave (km/s) = 3.47677 3.98924 3.74179
# Velocity P-wave (km/s) = 5.19042 6.16511 5.69864
#
# Compressibility (1/GPa) = 0.04145016
#
# Stress axis : x y z
#
# Youngs Moduli (GPa) = 77.65269 40.75866 58.01654
#
# Poissons Ratio (x) = 0.16553 -0.13534
# Poissons Ratio (y) = 0.31537 0.28260
# Poissons Ratio (z) = -0.18115 0.19854
#
# Static dielectric constant tensor:
#      x y z
#    x 1.808670 0.016070 0.101950 
#    y 0.016070 1.885480 -0.101640 
#    z 0.101950 -0.101640 2.192240 
# 
# From -- ./inp_files/143304.got.cif
#   From: 2010.05.17/outbox.cif.g08.bks.cpg/sg2_72_cif.got.tgz:143304.got - 2010.06.03 11:33:40.
