data_PCOD9005121
_publ_section_title
;
Structure prediction by ZEFSAII (Michael W. Deem and Ramdas Pophale) SiO2 
 PCOD9005121
Probable space group: P -1
;
_chemical_formula_sum "Si O2"
_cell_formula_units_Z 14
_cell_length_a 8.088438
_cell_length_b 22.013477
_cell_length_c 12.975762
_cell_angle_alpha 154.531516
_cell_angle_beta 54.974358
_cell_angle_gamma 140.553782
_cell_volume 563.364358
_symmetry_space_group_name_H-M "P -1"
_symmetry_group_IT_number 2
_symmetry_cell_setting 'triclinic'
loop_
_space_group_symop_operation_xyz
x,y,z
-x,-y,-z
loop_
_atom_site_type_symbol
_atom_site_label
_atom_site_fract_x
_atom_site_fract_y
_atom_site_fract_z
Si Si1 0.002086 0.822172 0.394095
Si Si2 0.468849 0.996737 0.210133
Si Si3 0.863451 0.369031 0.100475
Si Si4 0.050630 0.645125 0.288268
Si Si5 0.873550 0.019109 0.976596
Si Si6 0.846041 0.796972 0.048931
Si Si7 0.454928 0.612473 0.367849
O O1 0.661447 0.690180 0.314045
O O2 0.031301 0.778069 0.433005
O O3 0.185650 0.057865 0.678677
O O4 0.083502 0.741364 0.161890
O O5 0.629498 0.186043 0.518277
O O6 0.165017 0.903237 0.135498
O O7 0.702288 0.071173 0.155131
O O8 0.397245 0.813937 0.015089
O O9 0.842068 0.493912 0.225859
O O10 0.150832 0.525023 0.306780
O O11 0.000000 0.500000 0.000000
O O12 0.633319 0.803156 0.672235
O O13 0.120196 0.181162 0.052709
O O14 0.000000 0.000000 0.000000
O O15 0.620989 0.574276 0.836781
#
# Coordination Sequence:
#
# PCOD9005121 Si02
#       7
#     2   2   2   2   2   2   2
#     4  10  21  38  60  92 128 157 197 246 298 357
#     4  11  23  40  63  91 122 157 203 251 297 356
#     4  10  23  39  62  91 121 162 202 245 298 355
#     4  10  22  38  59  87 122 161 198 243 296 351
#     4  11  24  42  61  88 122 157 202 253 302 356
#     4  10  23  40  63  90 120 161 201 248 301 354
#     4  10  22  40  63  87 117 162 204 244 299 358
#
# _framework density 24.850705000000001
#
# number of rings (size 3 to 8) (size 9 to 14) (size 15 to 20)
#    0.000    1.714    0.000    4.286    0.000   14.286 
#    0.000    0.000    0.000    0.000    0.000    0.000 
#    0.000    0.000    0.000    0.000    0.000    0.000 
#
# Total GULP energy -78362.717458 kJ/mol
# GULP energy per Si atom -5597.336961 kJ/mol
# Density = 2.479414 g / cm^3
# Si number density = 24.850705 Si / 1000 Ang^3
#
#
#
# Elastic Constant Matrix: (Units=GPa)
#
#
# Indices 1 2 3 4 5 6 
#
# 1 88.5161 2.8607 21.5451 0.1934 -8.4818 -22.3706
# 2 2.8607 79.1794 29.9317 9.7383 -4.8071 -9.9612
# 3 21.5451 29.9317 97.8277 3.6764 -14.0110 -10.5698
# 4 0.1934 9.7383 3.6764 40.9899 -12.6893 -13.7635
# 5 -8.4818 -4.8071 -14.0110 -12.6893 34.0340 5.5632
# 6 -22.3706 -9.9612 -10.5698 -13.7635 5.5632 39.6051
#
#
#
# Elastic Compliance Matrix: (Units=1/GPa)
#
#
# Indices 1 2 3 4 5 6 
#
# 1 0.014243 0.001163 -0.002314 0.003581 0.002693 0.008586
# 2 0.001163 0.014886 -0.004576 -0.002589 -0.000849 0.002400
# 3 -0.002314 -0.004576 0.012814 0.001651 0.004521 0.000901
# 4 0.003581 -0.002589 0.001651 0.032187 0.011343 0.011404
# 5 0.002693 -0.000849 0.004521 0.011343 0.035790 0.001429
# 6 0.008586 0.002400 0.000901 0.011404 0.001429 0.034706
#
#
# Mechanical properties :
#
#
# Convention : Reuss Voigt Hill
#
# Bulk Modulus (GPa) = 32.79662 41.57757 37.18710
# Shear Modulus (GPa) = 30.07645 37.00482 33.54064
#
# Velocity S-wave (km/s) = 3.48269 3.86305 3.67779
# Velocity P-wave (km/s) = 5.42202 6.05515 5.74731
#
# Compressibility (1/GPa) = 0.03049095
#
# Stress axis : x y z
#
# Youngs Moduli (GPa) = 70.20878 67.17714 78.03698
#
# Poissons Ratio (x) = -0.07816 0.18058
# Poissons Ratio (y) = -0.08168 0.35708
# Poissons Ratio (z) = 0.16246 0.30739
#
# Static dielectric constant tensor:
#      x y z
#    x 2.040530 -0.018470 -0.014690 
#    y -0.018470 1.967290 0.010260 
#    z -0.014690 0.010260 1.939910 
# 
# From -- ./inp_files/333170.got.cif
#   From: 2010.05.17/outbox.cif.g08.bks.cpg/sg2_167_cif.got.tgz:333170.got - 2010.06.03 11:33:40.
