data_PCOD9005061
_publ_section_title
;
Structure prediction by ZEFSAII (Michael W. Deem and Ramdas Pophale) SiO2 
 PCOD9005061
Probable space group: P -1
;
_chemical_formula_sum "Si O2"
_cell_formula_units_Z 16
_cell_length_a 17.630904
_cell_length_b 7.296559
_cell_length_c 12.261375
_cell_angle_alpha 120.835076
_cell_angle_beta 46.023920
_cell_angle_gamma 86.874826
_cell_volume 728.602010
_symmetry_space_group_name_H-M "P -1"
_symmetry_group_IT_number 2
_symmetry_cell_setting 'triclinic'
loop_
_space_group_symop_operation_xyz
x,y,z
-x,-y,-z
loop_
_atom_site_type_symbol
_atom_site_label
_atom_site_fract_x
_atom_site_fract_y
_atom_site_fract_z
Si Si1 0.034616 0.952266 0.077788
Si Si2 0.510070 0.021329 0.366751
Si Si3 0.279513 0.948145 0.349579
Si Si4 0.021866 0.292088 0.563145
Si Si5 0.215122 0.121393 0.911728
Si Si6 0.862282 0.422390 0.559166
Si Si7 0.206695 0.312422 0.739770
Si Si8 0.429831 0.303569 0.003467
O O1 0.084193 0.650954 0.970612
O O2 0.151390 0.985510 0.978144
O O3 0.000000 0.000000 0.000000
O O4 0.902326 0.202497 0.358316
O O5 0.631115 0.035957 0.239870
O O6 0.500000 0.000000 0.500000
O O7 0.347431 0.270377 0.574327
O O8 0.553296 0.767725 0.165248
O O9 0.362914 0.622043 0.197481
O O10 0.159816 0.037721 0.412906
O O11 0.204310 0.171909 0.591530
O O12 0.412473 0.919797 0.173184
O O13 0.079385 0.431724 0.494686
O O14 0.954626 0.241867 0.519258
O O15 0.891139 0.546217 0.844493
O O16 0.219670 0.145710 0.783063
O O17 0.697670 0.673244 0.823732
#
# Coordination Sequence:
#
# PCOD9005061 Si02
#       8
#     2   2   2   2   2   2   2   2
#     4  11  25  40  61  94 124 161 214 254 307 371
#     4   9  19  39  65  90 123 162 204 253 313 373
#     4  10  23  39  61  92 121 160 210 251 304 376
#     4  10  21  38  60  89 121 160 203 251 313 363
#     4  10  21  39  64  91 126 161 204 262 306 366
#     4  10  22  39  62  87 125 159 201 259 305 366
#     4  10  22  40  63  91 124 168 207 252 313 369
#     4  10  21  40  63  87 125 160 201 256 307 364
#
# _framework density 21.959864
#
# number of rings (size 3 to 8) (size 9 to 14) (size 15 to 20)
#    0.000    2.000    1.250    1.500    3.500    4.500 
#    0.000    0.000    0.000    0.000    0.000    0.000 
#    0.000    0.000    0.000    0.000    0.000    0.000 
#
# Total GULP energy -89180.128797 kJ/mol
# GULP energy per Si atom -5573.758050 kJ/mol
# Density = 2.190988 g / cm^3
# Si number density = 21.959864 Si / 1000 Ang^3
#
#
#
# Elastic Constant Matrix: (Units=GPa)
#
#
# Indices 1 2 3 4 5 6 
#
# 1 88.3578 16.0222 33.0768 -11.5364 -2.9130 -2.8662
# 2 16.0222 39.1852 16.4705 2.4648 4.0381 -0.5138
# 3 33.0768 16.4705 119.5234 -16.6372 -0.5987 3.0885
# 4 -11.5364 2.4648 -16.6372 20.5618 6.9962 1.0697
# 5 -2.9130 4.0381 -0.5987 6.9962 41.3048 1.7790
# 6 -2.8662 -0.5138 3.0885 1.0697 1.7790 21.0680
#
#
#
# Elastic Compliance Matrix: (Units=1/GPa)
#
#
# Indices 1 2 3 4 5 6 
#
# 1 0.014030 -0.005173 -0.002320 0.006421 0.000298 0.001772
# 2 -0.005173 0.030122 -0.004044 -0.009217 -0.001861 0.001249
# 3 -0.002320 -0.004044 0.010783 0.008344 -0.000925 -0.002341
# 4 0.006421 -0.009217 0.008344 0.063355 -0.009126 -0.003021
# 5 0.000298 -0.001861 -0.000925 -0.009126 0.026015 -0.001603
# 6 0.001772 0.001249 -0.002341 -0.003021 -0.001603 0.048369
#
#
# Mechanical properties :
#
#
# Convention : Reuss Voigt Hill
#
# Bulk Modulus (GPa) = 31.38562 42.02284 36.70423
# Shear Modulus (GPa) = 22.08790 28.68673 25.38731
#
# Velocity S-wave (km/s) = 3.17492 3.61823 3.40380
# Velocity P-wave (km/s) = 5.26911 6.05254 5.67436
#
# Compressibility (1/GPa) = 0.03186172
#
# Stress axis : x y z
#
# Youngs Moduli (GPa) = 71.27692 33.19778 92.73575
#
# Poissons Ratio (x) = 0.17172 0.21518
# Poissons Ratio (y) = 0.36868 0.37503
# Poissons Ratio (z) = 0.16539 0.13425
#
# Static dielectric constant tensor:
#      x y z
#    x 1.907600 0.017510 -0.054780 
#    y 0.017510 1.838700 -0.039650 
#    z -0.054780 -0.039650 1.807070 
# 
# From -- ./inp_files/314088.got.cif
#   From: 2010.05.17/outbox.cif.g08.bks.cpg/sg2_158_cif.got.tgz:314088.got - 2010.06.03 11:33:40.
