data_PCOD9005586
_publ_section_title
;
Structure prediction by ZEFSAII (Michael W. Deem and Ramdas Pophale) SiO2 
 PCOD9005586
Probable space group: P -1
;
_chemical_formula_sum "Si O2"
_cell_formula_units_Z 16
_cell_length_a 9.920015
_cell_length_b 12.290235
_cell_length_c 15.899099
_cell_angle_alpha 117.273913
_cell_angle_beta 28.955770
_cell_angle_gamma 105.410207
_cell_volume 791.856724
_symmetry_space_group_name_H-M "P -1"
_symmetry_group_IT_number 2
_symmetry_cell_setting 'triclinic'
loop_
_space_group_symop_operation_xyz
x,y,z
-x,-y,-z
loop_
_atom_site_type_symbol
_atom_site_label
_atom_site_fract_x
_atom_site_fract_y
_atom_site_fract_z
Si Si1 0.529137 0.544518 0.906753
Si Si2 0.191427 0.889232 0.918324
Si Si3 0.916631 0.730302 0.295704
Si Si4 0.161965 0.106337 0.445150
Si Si5 0.900974 0.433685 0.451081
Si Si6 0.448060 0.390721 0.432903
Si Si7 0.701851 0.275799 0.624431
Si Si8 0.680740 0.866938 0.308078
O O1 0.542569 0.419873 0.798030
O O2 0.812926 0.592144 0.770488
O O3 0.500000 0.500000 0.000000
O O4 0.256579 0.663366 0.070377
O O5 0.500382 0.918478 0.777171
O O6 0.302370 0.746372 0.764461
O O7 0.975344 0.882123 0.110282
O O8 0.000000 0.000000 0.000000
O O9 0.849058 0.853123 0.436570
O O10 0.809190 0.639729 0.385454
O O11 0.759030 0.763625 0.304766
O O12 0.955775 0.213041 0.531875
O O13 0.000000 0.000000 0.500000
O O14 0.645545 0.542190 0.582081
O O15 0.830880 0.308605 0.477355
O O16 0.000000 0.500000 0.500000
O O17 0.500000 0.500000 0.500000
O O18 0.501745 0.186054 0.680494
O O19 0.500000 0.000000 0.500000
#
# Coordination Sequence:
#
# PCOD9005586 Si02
#       8
#     2   2   2   2   2   2   2   2
#     4  11  20  39  65 102 128 168 214 273 336 395
#     4  11  25  45  71  95 135 184 221 275 344 396
#     4  11  23  40  66  96 138 166 216 280 333 388
#     4  11  23  47  70  94 129 181 226 271 328 405
#     4  10  21  38  62  94 135 166 209 270 332 394
#     4  11  23  41  65  98 133 174 219 273 335 405
#     4  11  24  42  69  94 136 175 218 271 340 396
#     4  12  27  46  65  97 138 175 227 281 326 400
#
# _framework density 20.205674999999999
#
# number of rings (size 3 to 8) (size 9 to 14) (size 15 to 20)
#    0.000    1.000    2.500    6.000    7.000    0.500 
#    4.500    1.250    0.000    0.000    0.000    0.000 
#    0.000    0.000    0.000    0.000    0.000    0.000 
#
# Total GULP energy -89175.414085 kJ/mol
# GULP energy per Si atom -5573.463380 kJ/mol
# Density = 2.015969 g / cm^3
# Si number density = 20.205675 Si / 1000 Ang^3
#
#
#
# Elastic Constant Matrix: (Units=GPa)
#
#
# Indices 1 2 3 4 5 6 
#
# 1 97.3337 16.5018 18.9502 -1.2399 -7.3845 -7.1743
# 2 16.5018 75.0136 32.3172 -14.4599 -0.1290 4.7452
# 3 18.9502 32.3172 117.0853 -9.0094 -4.4974 4.7235
# 4 -1.2399 -14.4599 -9.0094 29.6714 -7.9042 -9.0046
# 5 -7.3845 -0.1290 -4.4974 -7.9042 26.5967 1.2035
# 6 -7.1743 4.7452 4.7235 -9.0046 1.2035 51.1826
#
#
#
# Elastic Compliance Matrix: (Units=1/GPa)
#
#
# Indices 1 2 3 4 5 6 
#
# 1 0.011210 -0.001968 -0.001194 0.000509 0.002967 0.001884
# 2 -0.001968 0.016759 -0.003706 0.007162 0.001048 -0.000252
# 3 -0.001194 -0.003706 0.009962 0.001490 0.001802 -0.000523
# 4 0.000509 0.007162 0.001490 0.043101 0.012941 0.006548
# 5 0.002967 0.001048 0.001802 0.012941 0.042513 0.001429
# 6 0.001884 -0.000252 -0.000523 0.006548 0.001429 0.020992
#
#
# Mechanical properties :
#
#
# Convention : Reuss Voigt Hill
#
# Bulk Modulus (GPa) = 41.32877 47.21898 44.27388
# Shear Modulus (GPa) = 30.05933 36.26771 33.16352
#
# Velocity S-wave (km/s) = 3.86121 4.24125 4.05569
# Velocity P-wave (km/s) = 6.35430 6.88507 6.62500
#
# Compressibility (1/GPa) = 0.02419622
#
# Stress axis : x y z
#
# Youngs Moduli (GPa) = 89.20242 59.67088 100.38321
#
# Poissons Ratio (x) = 0.11741 0.11988
# Poissons Ratio (y) = 0.17551 0.37198
# Poissons Ratio (z) = 0.10652 0.22112
#
# Static dielectric constant tensor:
#      x y z
#    x 1.581940 -0.129510 -0.136800 
#    y -0.129510 1.593230 -0.058930 
#    z -0.136800 -0.058930 1.576090 
# 
# From -- ./inp_files/333636.got.cif
#   From: 2010.05.17/outbox.cif.g08.bks.cpg/sg2_167_cif.got.tgz:333636.got - 2010.06.03 11:33:40.
