data_PCOD9005778
_publ_section_title
;
Structure prediction by ZEFSAII (Michael W. Deem and Ramdas Pophale) SiO2 
 PCOD9005778
Probable space group: P -1
;
_chemical_formula_sum "Si O2"
_cell_formula_units_Z 16
_cell_length_a 9.857888
_cell_length_b 10.906430
_cell_length_c 18.829823
_cell_angle_alpha 150.576091
_cell_angle_beta 136.399845
_cell_angle_gamma 61.044286
_cell_volume 618.306797
_symmetry_space_group_name_H-M "P -1"
_symmetry_group_IT_number 2
_symmetry_cell_setting 'triclinic'
loop_
_space_group_symop_operation_xyz
x,y,z
-x,-y,-z
loop_
_atom_site_type_symbol
_atom_site_label
_atom_site_fract_x
_atom_site_fract_y
_atom_site_fract_z
Si Si1 0.235162 0.740024 0.922061
Si Si2 0.586858 0.765203 0.415618
Si Si3 0.544696 0.473332 0.911025
Si Si4 0.012667 0.509528 0.863905
Si Si5 0.521095 0.202187 0.175739
Si Si6 0.149125 0.556728 0.462031
Si Si7 0.621982 0.118158 0.424532
Si Si8 0.854868 0.987194 0.749553
O O1 0.445843 0.689764 0.991016
O O2 0.108443 0.704578 0.929048
O O3 0.083668 0.499938 0.688497
O O4 0.322300 0.037481 0.070076
O O5 0.508984 0.626678 0.240404
O O6 0.516583 0.487950 0.297053
O O7 0.827493 0.934639 0.628164
O O8 0.500000 0.000000 0.500000
O O9 0.393996 0.185838 0.749059
O O10 0.793990 0.565982 0.074392
O O11 0.800976 0.263830 0.627223
O O12 0.984536 0.701392 0.010905
O O13 0.742948 0.272663 0.340170
O O14 0.500000 0.000000 0.000000
O O15 0.312093 0.694374 0.526718
O O16 0.107400 0.247760 0.313212
O O17 0.384547 0.058499 0.334891
#
# Coordination Sequence:
#
# PCOD9005778 Si02
#       8
#     2   2   2   2   2   2   2   2
#     4  11  24  42  64  97 127 169 211 264 314 386
#     4  11  21  43  65  90 127 165 214 262 315 375
#     4  11  22  42  61  91 135 166 211 266 313 373
#     4  10  22  38  65  96 125 167 217 259 318 381
#     4  11  23  42  67  89 125 173 212 257 320 378
#     4  10  24  40  63  96 129 164 213 264 319 378
#     4  10  21  38  63  93 124 169 205 267 322 368
#     4  10  21  40  63  89 132 163 211 270 314 371
#
# _framework density 25.877120999999999
#
# number of rings (size 3 to 8) (size 9 to 14) (size 15 to 20)
#    0.000    1.500    3.750    2.250    0.000    8.500 
#    0.000    2.500    0.000    0.000    0.000    0.000 
#    0.000    0.000    0.000    0.000    0.000    0.000 
#
# Total GULP energy -89445.886768 kJ/mol
# GULP energy per Si atom -5590.367923 kJ/mol
# Density = 2.581822 g / cm^3
# Si number density = 25.877121 Si / 1000 Ang^3
#
#
#
# Elastic Constant Matrix: (Units=GPa)
#
#
# Indices 1 2 3 4 5 6 
#
# 1 35.7861 27.1346 23.2875 -9.9365 -2.3335 12.3132
# 2 27.1346 113.1278 63.4642 -25.4309 -7.5122 17.8970
# 3 23.2875 63.4642 164.6292 -41.9659 -11.1907 1.6273
# 4 -9.9365 -25.4309 -41.9659 59.5369 5.2247 -7.2407
# 5 -2.3335 -7.5122 -11.1907 5.2247 32.0953 -4.6445
# 6 12.3132 17.8970 1.6273 -7.2407 -4.6445 31.2704
#
#
#
# Elastic Compliance Matrix: (Units=1/GPa)
#
#
# Indices 1 2 3 4 5 6 
#
# 1 0.038304 -0.005536 -0.003135 0.000501 -0.001399 -0.011843
# 2 -0.005536 0.013543 -0.004004 0.001396 0.000424 -0.004977
# 3 -0.003135 -0.004004 0.009356 0.004727 0.001968 0.004426
# 4 0.000501 0.001396 0.004727 0.021324 -0.000945 0.003555
# 5 -0.001399 0.000424 0.001968 -0.000945 0.032696 0.004843
# 6 -0.011843 -0.004977 0.004426 0.003555 0.004843 0.040803
#
#
# Mechanical properties :
#
#
# Convention : Reuss Voigt Hill
#
# Bulk Modulus (GPa) = 27.89017 60.14619 44.01818
# Shear Modulus (GPa) = 25.86326 37.89094 31.87710
#
# Velocity S-wave (km/s) = 3.16486 3.83072 3.51360
# Velocity P-wave (km/s) = 4.91492 6.54671 5.78860
#
# Compressibility (1/GPa) = 0.03585493
#
# Stress axis : x y z
#
# Youngs Moduli (GPa) = 26.10700 73.84031 106.88219
#
# Poissons Ratio (x) = 0.40875 0.33502
# Poissons Ratio (y) = 0.14452 0.42793
# Poissons Ratio (z) = 0.08183 0.29564
#
# Static dielectric constant tensor:
#      x y z
#    x 2.093590 0.048220 -0.010080 
#    y 0.048220 2.040790 -0.035410 
#    z -0.010080 -0.035410 2.047460 
# 
# From -- ./inp_files/437235.got.cif
#   From: 2010.05.17/outbox.cif.g08.bks.cpg/sg2_219_cif.got.tgz:437235.got - 2010.06.03 11:33:40.
