data_PCOD9005237
_publ_section_title
;
Structure prediction by ZEFSAII (Michael W. Deem and Ramdas Pophale) SiO2 
 PCOD9005237
Probable space group: P -1
;
_chemical_formula_sum "Si O2"
_cell_formula_units_Z 12
_cell_length_a 15.533715
_cell_length_b 9.386453
_cell_length_c 14.255274
_cell_angle_alpha 38.824192
_cell_angle_beta 155.542370
_cell_angle_gamma 142.141483
_cell_volume 512.995013
_symmetry_space_group_name_H-M "P -1"
_symmetry_group_IT_number 2
_symmetry_cell_setting 'triclinic'
loop_
_space_group_symop_operation_xyz
x,y,z
-x,-y,-z
loop_
_atom_site_type_symbol
_atom_site_label
_atom_site_fract_x
_atom_site_fract_y
_atom_site_fract_z
Si Si1 0.787349 0.423019 0.895035
Si Si2 0.796422 0.091491 0.246529
Si Si3 0.469739 0.682277 0.035881
Si Si4 0.366740 0.761508 0.544879
Si Si5 0.438434 0.005872 0.212558
Si Si6 0.957828 0.181307 0.940217
O O1 0.813997 0.235558 0.094141
O O2 0.582341 0.256081 0.717736
O O3 0.822009 0.658952 0.871681
O O4 0.000000 0.500000 0.000000
O O5 0.601364 0.841328 0.171128
O O6 0.757426 0.259620 0.204625
O O7 0.000000 0.000000 0.500000
O O8 0.501405 0.426927 0.211292
O O9 0.563233 0.805795 0.967248
O O10 0.500000 0.000000 0.500000
O O11 0.352741 0.867210 0.580414
O O12 0.157998 0.664325 0.319666
O O13 0.220870 0.948822 0.091408
O O14 0.000000 0.000000 0.000000
#
# Coordination Sequence:
#
# PCOD9005237 Si02
#       6
#     2   2   2   2   2   2
#     4   9  19  38  61  85 124 159 205 260 302 371
#     4  10  21  38  64  92 124 165 207 260 319 368
#     4  10  21  40  61  91 129 163 209 261 311 380
#     4  10  21  38  61  88 124 167 203 251 317 369
#     4   9  20  40  60  89 126 165 205 257 316 369
#     4  10  21  38  62  91 125 166 213 259 307 372
#
# _framework density 23.392040000000001
#
# number of rings (size 3 to 8) (size 9 to 14) (size 15 to 20)
#    0.000    2.333    0.000    1.500    4.667    0.000 
#    9.000    1.667    0.000    0.000    0.000    0.000 
#    0.000    0.000    0.000    0.000    0.000    0.000 
#
# Total GULP energy -66818.590872 kJ/mol
# GULP energy per Si atom -5568.215906 kJ/mol
# Density = 2.333880 g / cm^3
# Si number density = 23.392040 Si / 1000 Ang^3
#
#
#
# Elastic Constant Matrix: (Units=GPa)
#
#
# Indices 1 2 3 4 5 6 
#
# 1 123.3544 41.4727 44.0032 -17.2457 -11.4286 -5.0484
# 2 41.4727 127.0866 34.9563 -20.9589 -5.0629 -19.7981
# 3 44.0032 34.9563 83.8926 -26.1527 -0.0419 -5.8065
# 4 -17.2457 -20.9589 -26.1527 35.8673 -0.5681 -1.1723
# 5 -11.4286 -5.0629 -0.0419 -0.5681 21.4533 -4.7214
# 6 -5.0484 -19.7981 -5.8065 -1.1723 -4.7214 42.3221
#
#
#
# Elastic Compliance Matrix: (Units=1/GPa)
#
#
# Indices 1 2 3 4 5 6 
#
# 1 0.011081 -0.001881 -0.004717 0.000892 0.005570 0.000441
# 2 -0.001881 0.010516 -0.001761 0.004158 0.002657 0.004865
# 3 -0.004717 -0.001761 0.018349 0.010082 -0.002374 0.001145
# 4 0.000892 0.004158 0.010082 0.038307 0.003568 0.004894
# 5 0.005570 0.002657 -0.002374 0.003568 0.051942 0.007475
# 6 0.000441 0.004865 0.001145 0.004894 0.007475 0.027083
#
#
# Mechanical properties :
#
#
# Convention : Reuss Voigt Hill
#
# Bulk Modulus (GPa) = 43.05145 63.91089 53.48117
# Shear Modulus (GPa) = 27.51202 34.18864 30.85033
#
# Velocity S-wave (km/s) = 3.43319 3.82717 3.63552
# Velocity P-wave (km/s) = 5.84466 6.84913 6.36673
#
# Compressibility (1/GPa) = 0.02322802
#
# Stress axis : x y z
#
# Youngs Moduli (GPa) = 90.24841 95.09031 54.49893
#
# Poissons Ratio (x) = 0.17885 0.25706
# Poissons Ratio (y) = 0.16974 0.09598
# Poissons Ratio (z) = 0.42569 0.16747
#
# Static dielectric constant tensor:
#      x y z
#    x 1.982450 -0.027020 0.141690 
#    y -0.027020 2.037020 0.103850 
#    z 0.141690 0.103850 2.099480 
# 
# From -- ./inp_files/527187.got.cif
#   From: 2010.05.17/outbox.cif.g08.bks.cpg/sg2_264_cif.got.tgz:527187.got - 2010.06.03 11:33:40.
