data_PCOD9005384
_publ_section_title
;
Structure prediction by ZEFSAII (Michael W. Deem and Ramdas Pophale) SiO2 
 PCOD9005384
Probable space group: P -1
;
_chemical_formula_sum "Si O2"
_cell_formula_units_Z 10
_cell_length_a 10.978869
_cell_length_b 9.092980
_cell_length_c 6.865535
_cell_angle_alpha 32.306044
_cell_angle_beta 76.901210
_cell_angle_gamma 73.672334
_cell_volume 351.447607
_symmetry_space_group_name_H-M "P -1"
_symmetry_group_IT_number 2
_symmetry_cell_setting 'triclinic'
loop_
_space_group_symop_operation_xyz
x,y,z
-x,-y,-z
loop_
_atom_site_type_symbol
_atom_site_label
_atom_site_fract_x
_atom_site_fract_y
_atom_site_fract_z
Si Si1 0.273177 0.058024 0.816869
Si Si2 0.092063 0.727169 0.691798
Si Si3 0.342475 0.929068 0.392632
Si Si4 0.506640 0.612123 0.147008
Si Si5 0.128505 0.618969 0.349915
O O1 0.312267 0.999641 0.094863
O O2 0.385431 0.855687 0.892778
O O3 0.147602 0.931456 0.941749
O O4 0.233710 0.390635 0.460165
O O5 0.223484 0.797337 0.655054
O O6 0.140219 0.642199 0.550869
O O7 0.000000 0.000000 0.500000
O O8 0.000000 0.500000 0.000000
O O9 0.464135 0.683061 0.641458
O O10 0.376935 0.221527 0.121463
O O11 0.500000 0.500000 0.500000
O O12 0.000000 0.500000 0.500000
#
# Coordination Sequence:
#
# PCOD9005384 Si02
#       5
#     2   2   2   2   2
#     4  10  18  31  50  77 109 138 171 221 274 322
#     4  11  22  37  55  79 110 146 183 222 265 319
#     4  10  18  30  49  78 109 139 173 221 273 322
#     4  10  17  28  49  78 110 138 167 220 285 323
#     4  11  22  36  54  80 110 143 181 222 266 320
#
# _framework density 28.453744
#
# number of rings (size 3 to 8) (size 9 to 14) (size 15 to 20)
#    0.000    1.600    0.000   11.400    0.000    0.000 
#    0.000    0.000    0.000    0.000    0.000   28.000 
#    0.000    0.000    0.000    0.000    0.000    0.000 
#
# Total GULP energy -55793.857461 kJ/mol
# GULP energy per Si atom -5579.385746 kJ/mol
# Density = 2.838898 g / cm^3
# Si number density = 28.453744 Si / 1000 Ang^3
#
#
#
# Elastic Constant Matrix: (Units=GPa)
#
#
# Indices 1 2 3 4 5 6 
#
# 1 122.0259 27.5737 48.7284 -24.0756 -21.5688 -10.5227
# 2 27.5737 126.3055 62.7182 -34.9408 7.8305 -9.4741
# 3 48.7284 62.7182 207.2138 -59.0483 -34.7635 1.0455
# 4 -24.0756 -34.9408 -59.0483 70.5605 5.3607 15.8950
# 5 -21.5688 7.8305 -34.7635 5.3607 55.9134 -14.3498
# 6 -10.5227 -9.4741 1.0455 15.8950 -14.3498 50.6218
#
#
#
# Elastic Compliance Matrix: (Units=1/GPa)
#
#
# Indices 1 2 3 4 5 6 
#
# 1 0.010065 -0.001503 -0.000963 0.000968 0.004091 0.002687
# 2 -0.001503 0.010625 -0.002745 0.002840 -0.004131 -0.000330
# 3 -0.000963 -0.002745 0.008013 0.004982 0.004195 -0.001254
# 4 0.000968 0.002840 0.004982 0.021545 -0.000612 -0.006309
# 5 0.004091 -0.004131 0.004195 -0.000612 0.024541 0.007139
# 6 0.002687 -0.000330 -0.001254 -0.006309 0.007139 0.024282
#
#
# Mechanical properties :
#
#
# Convention : Reuss Voigt Hill
#
# Bulk Modulus (GPa) = 54.70267 81.50951 68.10609
# Shear Modulus (GPa) = 43.25737 56.52081 49.88909
#
# Velocity S-wave (km/s) = 3.90329 4.46175 4.19183
# Velocity P-wave (km/s) = 6.29135 7.43313 6.88595
#
# Compressibility (1/GPa) = 0.01828064
#
# Stress axis : x y z
#
# Youngs Moduli (GPa) = 99.35351 94.11388 124.79839
#
# Poissons Ratio (x) = 0.14149 0.12023
# Poissons Ratio (y) = 0.14936 0.34253
# Poissons Ratio (z) = 0.09571 0.25831
#
# Static dielectric constant tensor:
#      x y z
#    x 2.299710 0.001800 0.057800 
#    y 0.001800 2.231200 0.153660 
#    z 0.057800 0.153660 2.278190 
# 
# From -- ./inp_files/25842.got.cif
#   From: 2010.05.17/outbox.cif.g08.bks.cpg/sg2_13_cif.got.tgz:25842.got - 2010.06.03 11:33:40.
