data_PCOD9005515
_publ_section_title
;
Structure prediction by ZEFSAII (Michael W. Deem and Ramdas Pophale) SiO2 
 PCOD9005515
Probable space group: P -1
;
_chemical_formula_sum "Si O2"
_cell_formula_units_Z 16
_cell_length_a 24.654752
_cell_length_b 15.176628
_cell_length_c 17.822546
_cell_angle_alpha 30.267281
_cell_angle_beta 159.421395
_cell_angle_gamma 159.091297
_cell_volume 833.392883
_symmetry_space_group_name_H-M "P -1"
_symmetry_group_IT_number 2
_symmetry_cell_setting 'triclinic'
loop_
_space_group_symop_operation_xyz
x,y,z
-x,-y,-z
loop_
_atom_site_type_symbol
_atom_site_label
_atom_site_fract_x
_atom_site_fract_y
_atom_site_fract_z
Si Si1 0.513711 0.219951 0.365103
Si Si2 0.826943 0.518430 0.410739
Si Si3 0.704955 0.415541 0.631709
Si Si4 0.320567 0.338646 0.449734
Si Si5 0.120802 0.909176 0.734475
Si Si6 0.732731 0.092611 0.237242
Si Si7 0.573712 0.922397 0.868047
Si Si8 0.842300 0.932459 0.082024
O O1 0.692846 0.422138 0.386529
O O2 0.580412 0.324423 0.458059
O O3 0.500000 0.000000 0.500000
O O4 0.281107 0.112678 0.119790
O O5 0.679365 0.290420 0.328992
O O6 0.839939 0.723686 0.243677
O O7 0.073563 0.658929 0.646954
O O8 0.637481 0.503579 0.541026
O O9 0.954252 0.658920 0.752184
O O10 0.658162 0.187380 0.772468
O O11 0.500000 0.500000 0.500000
O O12 0.304057 0.127447 0.612598
O O13 0.086113 0.197303 0.213915
O O14 0.170433 0.863840 0.752171
O O15 0.000000 0.000000 0.500000
O O16 0.347649 0.093703 0.939168
O O17 0.500000 0.000000 0.000000
O O18 0.698810 0.903875 0.982868
#
# Coordination Sequence:
#
# PCOD9005515 Si02
#       8
#     2   2   2   2   2   2   2   2
#     4  11  20  34  61  99 129 157 209 267 318 377
#     4  10  21  39  61  92 131 168 204 259 325 387
#     4  12  23  38  65  98 130 163 217 262 325 374
#     4  11  26  44  62  88 129 174 214 265 327 389
#     4  12  23  40  66  97 129 162 222 269 312 389
#     4  11  25  43  67  94 124 172 216 270 326 382
#     4  11  22  36  63 100 127 164 206 268 325 376
#     4  10  21  38  62  91 129 166 209 261 325 375
#
# _framework density 19.198626999999998
#
# number of rings (size 3 to 8) (size 9 to 14) (size 15 to 20)
#    0.000    1.000    6.250    2.625    3.500    1.000 
#    0.000    1.250    0.000    0.000    0.000    0.000 
#    0.000    0.000    0.000    0.000    0.000    0.000 
#
# Total GULP energy -89348.506322 kJ/mol
# GULP energy per Si atom -5584.281645 kJ/mol
# Density = 1.915493 g / cm^3
# Si number density = 19.198627 Si / 1000 Ang^3
#
#
#
# Elastic Constant Matrix: (Units=GPa)
#
#
# Indices 1 2 3 4 5 6 
#
# 1 88.4183 35.6394 37.8218 16.6873 -20.3930 -4.2984
# 2 35.6394 91.4655 44.7594 11.6639 -7.1621 -13.0719
# 3 37.8218 44.7594 142.5290 24.8945 -26.5691 -16.4788
# 4 16.6873 11.6639 24.8945 30.1057 -5.4800 -7.9717
# 5 -20.3930 -7.1621 -26.5691 -5.4800 32.9872 7.4829
# 6 -4.2984 -13.0719 -16.4788 -7.9717 7.4829 21.3226
#
#
#
# Elastic Compliance Matrix: (Units=1/GPa)
#
#
# Indices 1 2 3 4 5 6 
#
# 1 0.016861 -0.005609 -0.000573 -0.006684 0.009029 -0.006150
# 2 -0.005609 0.015426 -0.003528 0.001257 -0.004485 0.007644
# 3 -0.000573 -0.003528 0.010568 -0.005496 0.006094 0.001696
# 4 -0.006684 0.001257 -0.005496 0.043672 -0.003955 0.012891
# 5 0.009029 -0.004485 0.006094 -0.003955 0.041995 -0.012436
# 6 -0.006150 0.007644 0.001696 0.012891 -0.012436 0.060839
#
#
# Mechanical properties :
#
#
# Convention : Reuss Voigt Hill
#
# Bulk Modulus (GPa) = 42.67192 62.09488 52.38340
# Shear Modulus (GPa) = 23.08488 30.49592 26.79040
#
# Velocity S-wave (km/s) = 3.47136 3.98985 3.73960
# Velocity P-wave (km/s) = 6.19208 7.32385 6.78162
#
# Compressibility (1/GPa) = 0.02343462
#
# Stress axis : x y z
#
# Youngs Moduli (GPa) = 59.30929 64.82653 94.62460
#
# Poissons Ratio (x) = 0.36360 0.05426
# Poissons Ratio (y) = 0.33265 0.33381
# Poissons Ratio (z) = 0.03401 0.22869
#
# Static dielectric constant tensor:
#      x y z
#    x 1.651440 -0.019440 -0.048960 
#    y -0.019440 1.708170 0.036820 
#    z -0.048960 0.036820 1.705200 
# 
# From -- ./inp_files/256957.got.cif
#   From: 2010.05.17/outbox.cif.g08.bks.cpg/sg2_129_cif.got.tgz:256957.got - 2010.06.03 11:33:40.
