data_PCOD9005246
_publ_section_title
;
Structure prediction by ZEFSAII (Michael W. Deem and Ramdas Pophale) SiO2 
 PCOD9005246
Probable space group: P -1
;
_chemical_formula_sum "Si O2"
_cell_formula_units_Z 16
_cell_length_a 11.177050
_cell_length_b 27.855582
_cell_length_c 7.621585
_cell_angle_alpha 50.913136
_cell_angle_beta 46.492000
_cell_angle_gamma 29.315468
_cell_volume 839.594540
_symmetry_space_group_name_H-M "P -1"
_symmetry_group_IT_number 2
_symmetry_cell_setting 'triclinic'
loop_
_space_group_symop_operation_xyz
x,y,z
-x,-y,-z
loop_
_atom_site_type_symbol
_atom_site_label
_atom_site_fract_x
_atom_site_fract_y
_atom_site_fract_z
Si Si1 0.894916 0.191578 0.798044
Si Si2 0.260418 0.201247 0.366366
Si Si3 0.638307 0.777978 0.140386
Si Si4 0.994375 0.520165 0.663992
Si Si5 0.589660 0.346708 0.050809
Si Si6 0.000965 0.333086 0.650755
Si Si7 0.223540 0.975382 0.922039
Si Si8 0.517187 0.309486 0.581534
O O1 0.716677 0.233186 0.710026
O O2 0.056719 0.205529 0.557805
O O3 0.742006 0.252550 0.991417
O O4 0.092016 0.076892 0.880897
O O5 0.200339 0.257444 0.468732
O O6 0.547131 0.087638 0.311278
O O7 0.228157 0.254819 0.108718
O O8 0.848071 0.734357 0.173459
O O9 0.557005 0.731203 0.353218
O O10 0.379807 0.895772 0.106042
O O11 0.716035 0.572392 0.883042
O O12 0.022453 0.585851 0.506117
O O13 0.000000 0.500000 0.500000
O O14 0.264337 0.410439 0.706072
O O15 0.606289 0.327863 0.287966
O O16 0.732302 0.371442 0.816284
O O17 0.000000 0.000000 0.000000
#
# Coordination Sequence:
#
# PCOD9005246 Si02
#       8
#     2   2   2   2   2   2   2   2
#     4  11  21  43  60  87 127 155 204 251 296 358
#     4   9  23  39  61  90 121 160 198 251 299 356
#     4  10  21  38  62  89 119 159 199 244 305 351
#     4  10  22  40  62  93 120 160 203 247 305 355
#     4  10  24  40  64  91 121 164 199 250 303 355
#     4  11  21  44  62  89 128 155 202 253 295 361
#     4  10  21  38  61  89 117 161 198 247 303 354
#     4  11  22  40  61  91 120 161 201 248 304 357
#
# _framework density 19.056818
#
# number of rings (size 3 to 8) (size 9 to 14) (size 15 to 20)
#    0.750    1.000    3.750    1.125    3.500    2.500 
#    4.500    3.750    0.000    0.000    0.000    0.000 
#    0.000    0.000    0.000    0.000    0.000    0.000 
#
# Total GULP energy -89067.569658 kJ/mol
# GULP energy per Si atom -5566.723104 kJ/mol
# Density = 1.901344 g / cm^3
# Si number density = 19.056818 Si / 1000 Ang^3
#
#
#
# Elastic Constant Matrix: (Units=GPa)
#
#
# Indices 1 2 3 4 5 6 
#
# 1 20.8052 -1.0548 45.1177 7.7655 7.0106 24.7111
# 2 -1.0548 87.4769 40.8922 10.8072 -6.2743 11.8125
# 3 45.1177 40.8922 46.4151 22.5432 -14.3262 -11.7786
# 4 7.7655 10.8072 22.5432 30.4658 1.2449 0.8280
# 5 7.0106 -6.2743 -14.3262 1.2449 37.4143 -4.1619
# 6 24.7111 11.8125 -11.7786 0.8280 -4.1619 25.8221
#
#
#
# Elastic Compliance Matrix: (Units=1/GPa)
#
#
# Indices 1 2 3 4 5 6 
#
# 1 0.000290 -0.007417 0.016083 -0.009930 0.006505 0.011818
# 2 -0.007417 0.010840 0.001578 -0.003399 0.004333 0.003666
# 3 0.016083 0.001578 0.002536 -0.005986 -0.003280 -0.015292
# 4 -0.009930 -0.003399 -0.005986 0.040872 -0.001610 0.006757
# 5 0.006505 0.004333 -0.003280 -0.001610 0.024397 -0.005719
# 6 0.011818 0.003666 -0.015292 0.006757 -0.005719 0.017626
#
#
# Mechanical properties :
#
#
# Convention : Reuss Voigt Hill
#
# Bulk Modulus (GPa) = 29.28024 36.06749 32.67387
# Shear Modulus (GPa) = 57.16965 23.38990 40.27977
#
# Velocity S-wave (km/s) = 5.48313 3.50719 4.60245
# Velocity P-wave (km/s) = 7.44878 5.94709 6.73989
#
# Compressibility (1/GPa) = 0.03415273
#
# Stress axis : x y z
#
# Youngs Moduli (GPa) = 3449.44373 92.24805 394.29613
#
# Poissons Ratio (x) = 0.68421 -6.34129
# Poissons Ratio (y) = 25.58459 -0.62205
# Poissons Ratio (z) = -55.47588 -0.14553
#
# Static dielectric constant tensor:
#      x y z
#    x 3.017090 -1.625080 0.773270 
#    y -1.625080 3.577080 -0.905220 
#    z 0.773270 -0.905220 2.131190 
# 
# From -- ./inp_files/285507.got.cif
#   From: 2010.05.17/outbox.cif.g08.bks.cpg/sg2_143_cif.got.tgz:285507.got - 2010.06.03 11:33:40.
