data_PCOD9005028
_publ_section_title
;
Structure prediction by ZEFSAII (Michael W. Deem and Ramdas Pophale) SiO2 
 PCOD9005028
Probable space group: P -1
;
_chemical_formula_sum "Si O2"
_cell_formula_units_Z 14
_cell_length_a 7.708638
_cell_length_b 11.079765
_cell_length_c 12.576235
_cell_angle_alpha 92.613896
_cell_angle_beta 48.588834
_cell_angle_gamma 63.347790
_cell_volume 619.014704
_symmetry_space_group_name_H-M "P -1"
_symmetry_group_IT_number 2
_symmetry_cell_setting 'triclinic'
loop_
_space_group_symop_operation_xyz
x,y,z
-x,-y,-z
loop_
_atom_site_type_symbol
_atom_site_label
_atom_site_fract_x
_atom_site_fract_y
_atom_site_fract_z
Si Si1 0.896935 0.303075 0.238536
Si Si2 0.554528 0.319811 0.999827
Si Si3 0.972687 0.613857 0.371187
Si Si4 0.726954 0.674723 0.079739
Si Si5 0.195017 0.193674 0.753915
Si Si6 0.968143 0.007220 0.138952
Si Si7 0.234488 0.573044 0.479582
O O1 0.590053 0.477333 0.339693
O O2 0.934004 0.308421 0.349473
O O3 0.145832 0.276729 0.060009
O O4 0.873521 0.169432 0.221391
O O5 0.700216 0.142243 0.962216
O O6 0.828220 0.315753 0.924966
O O7 0.255771 0.458053 0.187754
O O8 0.506266 0.328117 0.892957
O O9 0.096437 0.644513 0.423889
O O10 0.785353 0.752895 0.367320
O O11 0.794413 0.560450 0.490132
O O12 0.641494 0.782556 0.221475
O O13 0.000000 0.500000 0.000000
O O14 0.244476 0.033449 0.739546
O O15 0.000000 0.000000 0.000000
#
# Coordination Sequence:
#
# PCOD9005028 Si02
#       7
#     2   2   2   2   2   2   2
#     4  11  21  41  53  89 120 151 207 237 292 360
#     4  10  22  35  63  92 116 152 190 252 311 344
#     4  11  19  40  56  91 112 154 206 234 303 345
#     4  12  21  35  63  95 118 147 196 254 307 348
#     4  10  22  37  60  91 123 147 190 260 300 350
#     4  10  21  38  60  87 123 160 182 250 321 341
#     4  10  23  35  63  77 118 168 193 250 273 354
#
# _framework density 22.616589000000001
#
# number of rings (size 3 to 8) (size 9 to 14) (size 15 to 20)
#    0.857    0.571    4.286    2.143    2.000    0.571 
#    0.000    1.429    0.000    0.000    0.000    0.000 
#    0.000    0.000    0.000    0.000    0.000    0.000 
#
# Total GULP energy -78127.964228 kJ/mol
# GULP energy per Si atom -5580.568873 kJ/mol
# Density = 2.256511 g / cm^3
# Si number density = 22.616589 Si / 1000 Ang^3
#
#
#
# Elastic Constant Matrix: (Units=GPa)
#
#
# Indices 1 2 3 4 5 6 
#
# 1 91.6670 10.6212 31.2844 0.4580 49.1422 -14.4548
# 2 10.6212 90.4265 30.4833 -4.1167 30.0254 6.1346
# 3 31.2844 30.4833 75.7093 -10.4611 29.2254 -8.7597
# 4 0.4580 -4.1167 -10.4611 27.9860 -1.8075 7.5875
# 5 49.1422 30.0254 29.2254 -1.8075 52.2784 -4.0993
# 6 -14.4548 6.1346 -8.7597 7.5875 -4.0993 34.9362
#
#
#
# Elastic Compliance Matrix: (Units=1/GPa)
#
#
# Indices 1 2 3 4 5 6 
#
# 1 0.026357 0.005907 -0.002971 -0.004252 -0.026107 0.006983
# 2 0.005907 0.016299 -0.004372 0.000703 -0.012693 -0.003156
# 3 -0.002971 -0.004372 0.019207 0.005567 -0.005041 0.002554
# 4 -0.004252 0.000703 0.005567 0.040544 0.001165 -0.009156
# 5 -0.026107 -0.012693 -0.005041 0.001165 0.053518 -0.003810
# 6 0.006983 -0.003156 0.002554 -0.009156 -0.003810 0.034249
#
#
# Mechanical properties :
#
#
# Convention : Reuss Voigt Hill
#
# Bulk Modulus (GPa) = 16.95181 44.73118 30.84150
# Shear Modulus (GPa) = 23.50618 35.40102 29.45360
#
# Velocity S-wave (km/s) = 3.22737 3.96064 3.61266
# Velocity P-wave (km/s) = 4.62595 6.38252 5.57387
#
# Compressibility (1/GPa) = 0.05899074
#
# Stress axis : x y z
#
# Youngs Moduli (GPa) = 37.94100 61.35170 52.06442
#
# Poissons Ratio (x) = -0.36241 0.15470
# Poissons Ratio (y) = -0.22412 0.22762
# Poissons Ratio (z) = 0.11274 0.26822
#
# Static dielectric constant tensor:
#      x y z
#    x 1.913490 0.016010 -0.045820 
#    y 0.016010 1.850090 -0.039240 
#    z -0.045820 -0.039240 1.848590 
# 
# From -- ./inp_files/256761.got.cif
#   From: 2010.05.17/outbox.cif.g08.bks.cpg/sg2_129_cif.got.tgz:256761.got - 2010.06.03 11:33:40.
