data_PCOD9005243
_publ_section_title
;
Structure prediction by ZEFSAII (Michael W. Deem and Ramdas Pophale) SiO2 
 PCOD9005243
Probable space group: P -1
;
_chemical_formula_sum "Si O2"
_cell_formula_units_Z 16
_cell_length_a 9.400181
_cell_length_b 15.435532
_cell_length_c 9.290872
_cell_angle_alpha 66.502782
_cell_angle_beta 134.063584
_cell_angle_gamma 133.526781
_cell_volume 693.965188
_symmetry_space_group_name_H-M "P -1"
_symmetry_group_IT_number 2
_symmetry_cell_setting 'triclinic'
loop_
_space_group_symop_operation_xyz
x,y,z
-x,-y,-z
loop_
_atom_site_type_symbol
_atom_site_label
_atom_site_fract_x
_atom_site_fract_y
_atom_site_fract_z
Si Si1 0.296842 0.293430 0.449892
Si Si2 0.935494 0.172659 0.520750
Si Si3 0.074287 0.129519 0.955254
Si Si4 0.079050 0.766413 0.019948
Si Si5 0.616737 0.899386 0.408926
Si Si6 0.784272 0.546419 0.180518
Si Si7 0.408005 0.772100 0.635738
Si Si8 0.187883 0.533503 0.450525
O O1 0.274489 0.173930 0.481451
O O2 0.588058 0.410852 0.544719
O O3 0.187390 0.274612 0.543367
O O4 0.102382 0.288888 0.208675
O O5 0.752117 0.207900 0.387377
O O6 0.004575 0.155992 0.738671
O O7 0.795895 0.043799 0.425164
O O8 0.930076 0.133110 0.984774
O O9 0.373485 0.219644 0.134289
O O10 0.000000 0.000000 0.000000
O O11 0.373352 0.827792 0.178806
O O12 0.945805 0.667243 0.118971
O O13 0.521878 0.875145 0.524196
O O14 0.813877 0.546045 0.374843
O O15 0.902385 0.481734 0.244060
O O16 0.500000 0.500000 0.000000
O O17 0.279024 0.653576 0.524754
#
# Coordination Sequence:
#
# PCOD9005243 Si02
#       8
#     2   2   2   2   2   2   2   2
#     4  11  23  39  55  89 127 152 192 245 293 350
#     4  12  24  36  59  88 125 162 191 236 299 341
#     4  12  21  35  60  86 116 160 202 237 280 345
#     4  12  21  37  64  87 116 155 201 241 291 347
#     4  11  21  38  59  85 121 159 201 241 276 347
#     4  11  19  34  65  91 105 145 204 250 288 339
#     4  11  20  38  58  86 118 152 202 246 277 347
#     4  10  21  38  61  89 114 147 195 254 290 339
#
# _framework density 23.055911999999999
#
# number of rings (size 3 to 8) (size 9 to 14) (size 15 to 20)
#    0.000    0.750    8.750    1.500    0.000    1.500 
#    0.000    0.000    0.000    7.500    0.000    0.000 
#    0.000    0.000    0.000    0.000    0.000    0.000 
#
# Total GULP energy -89295.774129 kJ/mol
# GULP energy per Si atom -5580.985883 kJ/mol
# Density = 2.300344 g / cm^3
# Si number density = 23.055912 Si / 1000 Ang^3
#
#
#
# Elastic Constant Matrix: (Units=GPa)
#
#
# Indices 1 2 3 4 5 6 
#
# 1 83.7642 0.9437 12.4017 -2.7269 7.4217 25.9826
# 2 0.9437 46.0556 6.2310 -3.1739 0.4611 11.6994
# 3 12.4017 6.2310 108.3959 8.6408 35.0842 -0.5707
# 4 -2.7269 -3.1739 8.6408 24.2252 5.8862 12.5739
# 5 7.4217 0.4611 35.0842 5.8862 31.0613 1.3652
# 6 25.9826 11.6994 -0.5707 12.5739 1.3652 33.0984
#
#
#
# Elastic Compliance Matrix: (Units=1/GPa)
#
#
# Indices 1 2 3 4 5 6 
#
# 1 0.022052 0.008559 -0.003448 0.020347 -0.004129 -0.027955
# 2 0.008559 0.029678 -0.004275 0.019175 -0.000212 -0.024559
# 3 -0.003448 -0.004275 0.015526 -0.006638 -0.015728 0.007656
# 4 0.020347 0.019175 -0.006638 0.077927 -0.010128 -0.052051
# 5 -0.004129 -0.000212 -0.015728 -0.010128 0.052661 0.004720
# 6 -0.027955 -0.024559 0.007656 -0.052051 0.004720 0.080550
#
#
# Mechanical properties :
#
#
# Convention : Reuss Voigt Hill
#
# Bulk Modulus (GPa) = 14.50751 30.81874 22.66313
# Shear Modulus (GPa) = 16.68359 32.25293 24.46826
#
# Velocity S-wave (km/s) = 2.69293 3.74425 3.26123
# Velocity P-wave (km/s) = 3.99689 5.66467 4.90222
#
# Compressibility (1/GPa) = 0.06892980
#
# Stress axis : x y z
#
# Youngs Moduli (GPa) = 45.34775 33.69493 64.40954
#
# Poissons Ratio (x) = -0.28841 0.22207
# Poissons Ratio (y) = -0.38815 0.27532
# Poissons Ratio (z) = 0.15635 0.14403
#
# Static dielectric constant tensor:
#      x y z
#    x 1.918690 0.015890 0.102560 
#    y 0.015890 1.998120 0.056150 
#    z 0.102560 0.056150 1.993170 
# 
# From -- ./inp_files/206671.got.cif
#   From: 2010.05.17/outbox.cif.g08.bks.cpg/sg2_104_cif.got.tgz:206671.got - 2010.06.03 11:33:40.
