data_PCOD9005826
_publ_section_title
;
Structure prediction by ZEFSAII (Michael W. Deem and Ramdas Pophale) SiO2 
 PCOD9005826
Probable space group: P -1
;
_chemical_formula_sum "Si O2"
_cell_formula_units_Z 16
_cell_length_a 22.800597
_cell_length_b 21.096956
_cell_length_c 9.453337
_cell_angle_alpha 27.688289
_cell_angle_beta 39.596471
_cell_angle_gamma 20.499196
_cell_volume 689.827796
_symmetry_space_group_name_H-M "P -1"
_symmetry_group_IT_number 2
_symmetry_cell_setting 'triclinic'
loop_
_space_group_symop_operation_xyz
x,y,z
-x,-y,-z
loop_
_atom_site_type_symbol
_atom_site_label
_atom_site_fract_x
_atom_site_fract_y
_atom_site_fract_z
Si Si1 0.796763 0.389176 0.303017
Si Si2 0.093880 0.223023 0.581144
Si Si3 0.230160 0.471401 0.233521
Si Si4 0.471624 0.945189 0.947686
Si Si5 0.592132 0.513101 0.953239
Si Si6 0.686171 0.900333 0.784828
Si Si7 0.358405 0.696654 0.250137
Si Si8 0.920067 0.966052 0.280501
O O1 0.788515 0.235600 0.604284
O O2 0.953539 0.230880 0.432492
O O3 0.819220 0.433522 0.023397
O O4 0.597826 0.676977 0.164907
O O5 0.151374 0.282962 0.266592
O O6 0.078773 0.142119 0.634104
O O7 0.924208 0.406807 0.630242
O O8 0.257218 0.969989 0.881239
O O9 0.286575 0.543420 0.058879
O O10 0.394364 0.155992 0.567088
O O11 0.609385 0.852231 0.976102
O O12 0.313451 0.098431 0.046924
O O13 0.457196 0.795827 0.578799
O O14 0.478435 0.547364 0.182345
O O15 0.722345 0.261511 0.110327
O O16 0.500000 0.500000 0.500000
O O17 0.000000 0.000000 0.000000
#
# Coordination Sequence:
#
# PCOD9005826 Si02
#       8
#     2   2   2   2   2   2   2   2
#     4  12  25  41  66  96 132 169 212 261 320 380
#     4  11  25  42  66  98 128 167 212 264 326 374
#     4  11  23  43  64  89 133 171 211 262 316 380
#     4  10  23  44  66  90 123 173 223 260 315 364
#     4  10  21  38  63  95 127 163 207 260 323 371
#     4   9  22  42  68  90 124 166 217 270 306 378
#     4  11  23  39  66  96 130 166 207 256 323 392
#     4  12  23  39  63  99 135 162 209 264 318 389
#
# _framework density 23.194196000000002
#
# number of rings (size 3 to 8) (size 9 to 14) (size 15 to 20)
#    0.000    1.250    3.750    1.125    7.000    2.500 
#    0.000    0.625    0.000    0.000    0.000    0.000 
#    0.000    0.000    0.000    0.000    0.000    0.000 
#
# Total GULP energy -89336.270923 kJ/mol
# GULP energy per Si atom -5583.516933 kJ/mol
# Density = 2.314140 g / cm^3
# Si number density = 23.194196 Si / 1000 Ang^3
#
#
#
# Elastic Constant Matrix: (Units=GPa)
#
#
# Indices 1 2 3 4 5 6 
#
# 1 53.3096 -2.0227 27.7115 6.0836 27.2165 -0.0942
# 2 -2.0227 109.0515 24.1667 21.6173 9.2976 7.8204
# 3 27.7115 24.1667 89.5670 18.6629 28.8512 15.2402
# 4 6.0836 21.6173 18.6629 31.6713 0.0556 2.1752
# 5 27.2165 9.2976 28.8512 0.0556 39.8653 6.8736
# 6 -0.0942 7.8204 15.2402 2.1752 6.8736 25.3911
#
#
#
# Elastic Compliance Matrix: (Units=1/GPa)
#
#
# Indices 1 2 3 4 5 6 
#
# 1 0.033154 0.004303 -0.004139 -0.007369 -0.021989 0.007866
# 2 0.004303 0.011542 -0.001136 -0.007964 -0.004638 -0.000919
# 3 -0.004139 -0.001136 0.018940 -0.009042 -0.009268 -0.007750
# 4 -0.007369 -0.007964 -0.009042 0.043695 0.013282 0.000514
# 5 -0.021989 -0.004638 -0.009268 0.013282 0.049167 -0.007538
# 6 0.007866 -0.000919 -0.007750 0.000514 -0.007538 0.046345
#
#
# Mechanical properties :
#
#
# Convention : Reuss Voigt Hill
#
# Bulk Modulus (GPa) = 16.20914 39.07102 27.64008
# Shear Modulus (GPa) = 22.18787 32.85703 27.52245
#
# Velocity S-wave (km/s) = 3.09627 3.76787 3.44846
# Velocity P-wave (km/s) = 4.44816 5.98421 5.27243
#
# Compressibility (1/GPa) = 0.06169357
#
# Stress axis : x y z
#
# Youngs Moduli (GPa) = 30.16220 86.64364 52.79872
#
# Poissons Ratio (x) = -0.37287 0.21852
# Poissons Ratio (y) = -0.12980 0.05996
# Poissons Ratio (z) = 0.12483 0.09840
#
# Static dielectric constant tensor:
#      x y z
#    x 1.907990 -0.059290 -0.018400 
#    y -0.059290 1.987710 -0.001800 
#    z -0.018400 -0.001800 1.896550 
# 
# From -- ./inp_files/200856.got.cif
#   From: 2010.05.17/outbox.cif.g08.bks.cpg/sg2_101_cif.got.tgz:200856.got - 2010.06.03 11:33:40.
