data_PCOD9005424
_publ_section_title
;
Structure prediction by ZEFSAII (Michael W. Deem and Ramdas Pophale) SiO2 
 PCOD9005424
Probable space group: P -1
;
_chemical_formula_sum "Si O2"
_cell_formula_units_Z 16
_cell_length_a 8.196428
_cell_length_b 7.864294
_cell_length_c 13.805005
_cell_angle_alpha 68.825076
_cell_angle_beta 64.433546
_cell_angle_gamma 105.712983
_cell_volume 645.073379
_symmetry_space_group_name_H-M "P -1"
_symmetry_group_IT_number 2
_symmetry_cell_setting 'triclinic'
loop_
_space_group_symop_operation_xyz
x,y,z
-x,-y,-z
loop_
_atom_site_type_symbol
_atom_site_label
_atom_site_fract_x
_atom_site_fract_y
_atom_site_fract_z
Si Si1 0.788094 0.183109 0.978863
Si Si2 0.790619 0.618158 0.277630
Si Si3 0.890162 0.710738 0.548770
Si Si4 0.296165 0.872843 0.769972
Si Si5 0.025446 0.983689 0.706024
Si Si6 0.611686 0.780338 0.968181
Si Si7 0.294971 0.685309 0.470544
Si Si8 0.521465 0.440012 0.209110
O O1 0.817028 0.163190 0.089519
O O2 0.705806 0.961447 0.990216
O O3 0.605853 0.238755 0.002351
O O4 0.999630 0.346741 0.836021
O O5 0.864943 0.818236 0.287218
O O6 0.678004 0.411681 0.416683
O O7 0.637824 0.600790 0.235317
O O8 0.927255 0.906337 0.432491
O O9 0.786895 0.502641 0.548535
O O10 0.723517 0.666017 0.683716
O O11 0.108842 0.736054 0.520178
O O12 0.388385 0.716957 0.774458
O O13 0.134190 0.848976 0.732777
O O14 0.497684 0.106690 0.659708
O O15 0.781736 0.865023 0.821956
O O16 0.580807 0.570303 0.068711
#
# Coordination Sequence:
#
# PCOD9005424 Si02
#       8
#     2   2   2   2   2   2   2   2
#     4  10  21  40  65  89 113 147 196 248 292 338
#     4  10  21  38  62  88 114 150 197 246 290 336
#     4  10  21  40  65  89 113 147 196 248 292 338
#     4  12  25  38  56  86 124 160 191 230 286 352
#     4  10  21  38  62  88 114 150 197 246 290 336
#     4  10  21  40  65  89 113 147 196 248 292 338
#     4  10  21  40  65  89 113 147 196 248 292 338
#     4  12  25  38  56  86 124 160 191 230 286 352
#
# _framework density 24.803377000000001
#
# number of rings (size 3 to 8) (size 9 to 14) (size 15 to 20)
#    0.000    1.500    0.000    5.250    0.000   13.000 
#    0.000    2.500    0.000    0.000    0.000    0.000 
#    0.000    0.000    0.000    0.000    0.000    0.000 
#
# Total GULP energy -89775.855732 kJ/mol
# GULP energy per Si atom -5610.990983 kJ/mol
# Density = 2.474692 g / cm^3
# Si number density = 24.803377 Si / 1000 Ang^3
#
#
#
# Elastic Constant Matrix: (Units=GPa)
#
#
# Indices 1 2 3 4 5 6 
#
# 1 78.7768 20.4894 14.1425 2.1153 0.4472 -25.3623
# 2 20.4894 92.9239 47.8894 0.6655 -0.6098 -14.4169
# 3 14.1425 47.8894 115.2539 1.6817 13.5939 -15.5499
# 4 2.1153 0.6655 1.6817 39.8002 -1.9516 5.4238
# 5 0.4472 -0.6098 13.5939 -1.9516 48.5534 3.3063
# 6 -25.3623 -14.4169 -15.5499 5.4238 3.3063 43.5985
#
#
#
# Elastic Compliance Matrix: (Units=1/GPa)
#
#
# Indices 1 2 3 4 5 6 
#
# 1 0.016245 -0.002340 0.000361 -0.002134 -0.000989 0.009146
# 2 -0.002340 0.014444 -0.005754 0.000044 0.001732 0.001226
# 3 0.000361 -0.005754 0.011863 -0.001003 -0.003638 0.002939
# 4 -0.002134 0.000044 -0.001003 0.026038 0.001685 -0.004952
# 5 -0.000989 0.001732 -0.003638 0.001685 0.021929 -0.003172
# 6 0.009146 0.001226 0.002939 -0.004952 -0.003172 0.030567
#
#
# Mechanical properties :
#
#
# Convention : Reuss Voigt Hill
#
# Bulk Modulus (GPa) = 36.92021 50.22192 43.57107
# Shear Modulus (GPa) = 34.34475 40.01931 37.18203
#
# Velocity S-wave (km/s) = 3.72517 4.02115 3.87598
# Velocity P-wave (km/s) = 5.78100 6.46927 6.13480
#
# Compressibility (1/GPa) = 0.02708543
#
# Stress axis : x y z
#
# Youngs Moduli (GPa) = 61.55603 69.23187 84.29320
#
# Poissons Ratio (x) = 0.16202 -0.03040
# Poissons Ratio (y) = 0.14405 0.48504
# Poissons Ratio (z) = -0.02220 0.39837
#
# Static dielectric constant tensor:
#      x y z
#    x 1.922600 0.034450 -0.002920 
#    y 0.034450 2.022780 0.002990 
#    z -0.002920 0.002990 1.871310 
# 
# From -- ./inp_files/158723.got.cif
#   From: 2010.05.17/outbox.cif.g08.bks.cpg/sg2_80_cif.got.tgz:158723.got - 2010.06.03 11:33:40.
