data_PCOD9005484
_publ_section_title
;
Structure prediction by ZEFSAII (Michael W. Deem and Ramdas Pophale) SiO2 
 PCOD9005484
Probable space group: P -1
;
_chemical_formula_sum "Si O2"
_cell_formula_units_Z 12
_cell_length_a 8.241529
_cell_length_b 17.973136
_cell_length_c 5.450227
_cell_angle_alpha 66.137785
_cell_angle_beta 89.196318
_cell_angle_gamma 134.847640
_cell_volume 464.337851
_symmetry_space_group_name_H-M "P -1"
_symmetry_group_IT_number 2
_symmetry_cell_setting 'triclinic'
loop_
_space_group_symop_operation_xyz
x,y,z
-x,-y,-z
loop_
_atom_site_type_symbol
_atom_site_label
_atom_site_fract_x
_atom_site_fract_y
_atom_site_fract_z
Si Si1 0.477425 0.237769 0.519944
Si Si2 0.952366 0.387575 0.594344
Si Si3 0.944779 0.105681 0.835710
Si Si4 0.430582 0.563766 0.995055
Si Si5 0.758894 0.967498 0.530367
Si Si6 0.776456 0.650544 0.242530
O O1 0.663886 0.267121 0.666495
O O2 0.470078 0.183279 0.341217
O O3 0.191205 0.140694 0.761001
O O4 0.579418 0.368159 0.290076
O O5 0.000000 0.500000 0.500000
O O6 0.159050 0.454903 0.282150
O O7 0.037405 0.351115 0.833119
O O8 0.080129 0.246238 0.680286
O O9 0.774620 0.025927 0.701137
O O10 0.796000 0.033260 0.190659
O O11 0.678913 0.680010 0.010876
O O12 0.500000 0.500000 0.000000
O O13 0.000000 0.000000 0.500000
O O14 0.500000 0.500000 0.500000
#
# Coordination Sequence:
#
# PCOD9005484 Si02
#       6
#     2   2   2   2   2   2
#     4  11  21  38  64  94 128 170 222 282 331 387
#     4  11  23  38  60  98 134 166 216 284 343 395
#     4  11  22  41  65  94 130 177 228 272 326 412
#     4  11  22  40  64  95 132 178 221 269 338 416
#     4  10  22  39  64  95 127 176 230 274 325 399
#     4  10  21  38  62  90 127 171 210 261 336 407
#
# _framework density 25.843252
#
# number of rings (size 3 to 8) (size 9 to 14) (size 15 to 20)
#    0.000    1.333    0.000    9.500    0.000    1.333 
#    0.000    1.667    0.000    0.000    0.000    1.167 
#    0.000    0.000    0.000    0.000    0.000    0.000 
#
# Total GULP energy -67067.231510 kJ/mol
# GULP energy per Si atom -5588.935959 kJ/mol
# Density = 2.578443 g / cm^3
# Si number density = 25.843252 Si / 1000 Ang^3
#
#
#
# Elastic Constant Matrix: (Units=GPa)
#
#
# Indices 1 2 3 4 5 6 
#
# 1 112.7318 52.4681 25.6509 2.2335 -1.3790 0.6066
# 2 52.4681 169.3880 23.3150 28.5080 -0.0450 -27.7652
# 3 25.6509 23.3150 96.4791 15.5865 5.8702 -14.6469
# 4 2.2335 28.5080 15.5865 39.8796 -1.7207 3.8421
# 5 -1.3790 -0.0450 5.8702 -1.7207 32.4290 4.9257
# 6 0.6066 -27.7652 -14.6469 3.8421 4.9257 50.0064
#
#
#
# Elastic Compliance Matrix: (Units=1/GPa)
#
#
# Indices 1 2 3 4 5 6 
#
# 1 0.011785 -0.004631 -0.003520 0.004527 0.002024 -0.004293
# 2 -0.004631 0.009533 0.001278 -0.007759 -0.001814 0.006498
# 3 -0.003520 0.001278 0.013098 -0.006520 -0.003693 0.005453
# 4 0.004527 -0.007759 -0.006520 0.034014 0.004585 -0.009338
# 5 0.002024 -0.001814 -0.003693 0.004585 0.032696 -0.005686
# 6 -0.004293 0.006498 0.005453 -0.009338 -0.005686 0.026532
#
#
# Mechanical properties :
#
#
# Convention : Reuss Voigt Hill
#
# Bulk Modulus (GPa) = 48.38177 64.60744 56.49461
# Shear Modulus (GPa) = 33.71673 42.94067 38.32870
#
# Velocity S-wave (km/s) = 3.61593 4.08067 3.85531
# Velocity P-wave (km/s) = 6.01624 6.87434 6.45955
#
# Compressibility (1/GPa) = 0.02066894
#
# Stress axis : x y z
#
# Youngs Moduli (GPa) = 84.85259 104.90332 76.34696
#
# Poissons Ratio (x) = 0.48580 0.26877
# Poissons Ratio (y) = 0.39294 -0.09756
# Poissons Ratio (z) = 0.29872 -0.13405
#
# Static dielectric constant tensor:
#      x y z
#    x 2.082060 0.003300 0.141560 
#    y 0.003300 2.195650 0.120980 
#    z 0.141560 0.120980 2.287410 
# 
# From -- ./inp_files/52901.got.cif
#   From: 2010.05.17/outbox.cif.g08.bks.cpg/sg2_27_cif.got.tgz:52901.got - 2010.06.03 11:33:40.
