data_PCOD9005287
_publ_section_title
;
Structure prediction by ZEFSAII (Michael W. Deem and Ramdas Pophale) SiO2 
 PCOD9005287
Probable space group: P -1
;
_chemical_formula_sum "Si O2"
_cell_formula_units_Z 14
_cell_length_a 5.562625
_cell_length_b 16.997393
_cell_length_c 7.705914
_cell_angle_alpha 93.823137
_cell_angle_beta 135.940612
_cell_angle_gamma 90.151723
_cell_volume 504.196033
_symmetry_space_group_name_H-M "P -1"
_symmetry_group_IT_number 2
_symmetry_cell_setting 'triclinic'
loop_
_space_group_symop_operation_xyz
x,y,z
-x,-y,-z
loop_
_atom_site_type_symbol
_atom_site_label
_atom_site_fract_x
_atom_site_fract_y
_atom_site_fract_z
Si Si1 0.601768 0.825349 0.330658
Si Si2 0.642101 0.118730 0.409849
Si Si3 0.599445 0.742417 0.863746
Si Si4 0.789349 0.401380 0.268118
Si Si5 0.318340 0.684322 0.340642
Si Si6 0.550573 0.459314 0.785997
Si Si7 0.641824 0.028158 0.891684
O O1 0.513267 0.857805 0.482224
O O2 0.520800 0.732206 0.296552
O O3 0.351458 0.877608 0.097948
O O4 0.974563 0.847709 0.443618
O O5 0.416156 0.164482 0.158209
O O6 0.626712 0.024418 0.376990
O O7 0.291231 0.692344 0.795462
O O8 0.524514 0.707369 0.625909
O O9 0.944957 0.718722 0.131968
O O10 0.496475 0.447815 0.224924
O O11 0.151598 0.423181 0.553736
O O12 0.747359 0.436651 0.059486
O O13 0.278744 0.590386 0.281823
O O14 0.500000 0.000000 0.000000
O O15 0.000000 0.000000 0.000000
#
# Coordination Sequence:
#
# PCOD9005287 Si02
#       7
#     2   2   2   2   2   2   2
#     4  11  24  44  67  96 135 181 228 280 341 406
#     4  11  24  44  67  96 135 181 228 280 341 406
#     4  11  24  41  64  96 131 175 226 280 340 404
#     4  10  21  38  61  90 127 174 225 279 339 404
#     4  11  24  41  64  96 131 175 226 280 340 404
#     4  10  21  38  61  90 127 174 225 279 339 404
#     4  12  24  40  66 100 136 180 229 282 341 404
#
# _framework density 27.766977000000001
#
# number of rings (size 3 to 8) (size 9 to 14) (size 15 to 20)
#    0.000    1.143    0.000    6.000    0.000    6.857 
#    0.000    0.000    0.000    0.000    0.000    0.000 
#    0.000    0.000    0.000    0.000    0.000    0.000 
#
# Total GULP energy -78304.320789 kJ/mol
# GULP energy per Si atom -5593.165771 kJ/mol
# Density = 2.770378 g / cm^3
# Si number density = 27.766977 Si / 1000 Ang^3
#
#
#
# Elastic Constant Matrix: (Units=GPa)
#
#
# Indices 1 2 3 4 5 6 
#
# 1 145.6418 24.9311 66.9795 -2.5334 -3.4085 -1.2682
# 2 24.9311 92.7575 30.5108 -11.0581 -16.3538 3.9924
# 3 66.9795 30.5108 94.8252 1.9572 7.1441 -0.2027
# 4 -2.5334 -11.0581 1.9572 46.5247 -0.4147 0.3122
# 5 -3.4085 -16.3538 7.1441 -0.4147 65.4204 6.3512
# 6 -1.2682 3.9924 -0.2027 0.3122 6.3512 50.3907
#
#
#
# Elastic Compliance Matrix: (Units=1/GPa)
#
#
# Indices 1 2 3 4 5 6 
#
# 1 0.010321 0.000005 -0.007412 0.000887 0.001349 0.000054
# 2 0.000005 0.013543 -0.004744 0.003466 0.004084 -0.001628
# 3 -0.007412 -0.004744 0.017627 -0.002309 -0.003582 0.000726
# 4 0.000887 0.003466 -0.002309 0.022479 0.001363 -0.000573
# 5 0.001349 0.004084 -0.003582 0.001363 0.017015 -0.002457
# 6 0.000054 -0.001628 0.000726 -0.000573 -0.002457 0.020291
#
#
# Mechanical properties :
#
#
# Convention : Reuss Voigt Hill
#
# Bulk Modulus (GPa) = 58.17463 64.22970 61.20216
# Shear Modulus (GPa) = 38.07820 46.52071 42.29946
#
# Velocity S-wave (km/s) = 3.70719 4.09760 3.90728
# Velocity P-wave (km/s) = 6.27063 6.75048 6.51498
#
# Compressibility (1/GPa) = 0.01718962
#
# Stress axis : x y z
#
# Youngs Moduli (GPa) = 96.88542 73.83797 56.73232
#
# Poissons Ratio (x) = -0.00037 0.42050
# Poissons Ratio (y) = -0.00049 0.26913
# Poissons Ratio (z) = 0.71811 0.35028
#
# Static dielectric constant tensor:
#      x y z
#    x 2.227140 -0.013840 -0.025690 
#    y -0.013840 2.185760 0.005990 
#    z -0.025690 0.005990 2.205190 
# 
# From -- ./inp_files/10771.got.cif
#   From: 2010.05.17/outbox.cif.g08.bks.cpg/sg2_6_cif.got.tgz:10771.got - 2010.06.03 11:33:40.
