data_PCOD9005397
_publ_section_title
;
Structure prediction by ZEFSAII (Michael W. Deem and Ramdas Pophale) SiO2 
 PCOD9005397
Probable space group: P -1
;
_chemical_formula_sum "Si O2"
_cell_formula_units_Z 16
_cell_length_a 5.845419
_cell_length_b 18.333065
_cell_length_c 9.944376
_cell_angle_alpha 53.712188
_cell_angle_beta 85.009816
_cell_angle_gamma 56.343761
_cell_volume 667.285067
_symmetry_space_group_name_H-M "P -1"
_symmetry_group_IT_number 2
_symmetry_cell_setting 'triclinic'
loop_
_space_group_symop_operation_xyz
x,y,z
-x,-y,-z
loop_
_atom_site_type_symbol
_atom_site_label
_atom_site_fract_x
_atom_site_fract_y
_atom_site_fract_z
Si Si1 0.372331 0.361903 0.464959
Si Si2 0.685614 0.416380 0.760615
Si Si3 0.501490 0.739181 0.832139
Si Si4 0.725507 0.113952 0.050128
Si Si5 0.860098 0.476847 0.179383
Si Si6 0.929006 0.301573 0.169560
Si Si7 0.809784 0.767990 0.229112
Si Si8 0.018328 0.865370 0.262539
O O1 0.302659 0.480548 0.381252
O O2 0.260202 0.314155 0.625437
O O3 0.714645 0.254163 0.554045
O O4 0.192914 0.393061 0.302830
O O5 0.344688 0.477696 0.727661
O O6 0.859916 0.317524 0.749474
O O7 0.837074 0.357967 0.961864
O O8 0.351513 0.802768 0.913079
O O9 0.716786 0.771413 0.751217
O O10 0.231567 0.756447 0.748824
O O11 0.745286 0.598455 0.989377
O O12 0.414976 0.155796 0.961209
O O13 0.884153 0.121541 0.905296
O O14 0.913057 0.978902 0.224005
O O15 0.793836 0.405821 0.169837
O O16 0.775154 0.849886 0.258444
#
# Coordination Sequence:
#
# PCOD9005397 Si02
#       8
#     2   2   2   2   2   2   2   2
#     4  11  23  36  55  86 124 167 200 240 309 372
#     4  11  21  36  58  89 125 162 194 257 301 375
#     4  11  21  39  61  98 119 160 201 263 307 362
#     4  10  21  38  62  85 119 155 209 256 311 355
#     4  11  23  37  60  90 125 161 198 250 310 368
#     4  11  23  38  65  96 126 158 209 254 316 361
#     4  11  21  38  58  90 120 158 202 248 312 368
#     4  10  22  38  58  86 118 164 204 254 300 371
#
# _framework density 23.977755999999999
#
# number of rings (size 3 to 8) (size 9 to 14) (size 15 to 20)
#    0.000    1.250    2.500    4.875    1.750    4.000 
#    0.000    0.000    0.000    1.500    0.000    0.000 
#    0.000    0.000    0.000    0.000    0.000    0.000 
#
# Total GULP energy -89435.924092 kJ/mol
# GULP energy per Si atom -5589.745256 kJ/mol
# Density = 2.392318 g / cm^3
# Si number density = 23.977756 Si / 1000 Ang^3
#
#
#
# Elastic Constant Matrix: (Units=GPa)
#
#
# Indices 1 2 3 4 5 6 
#
# 1 122.3767 15.1751 8.1015 -5.6449 2.9666 13.9945
# 2 15.1751 94.2959 26.9163 -13.4963 4.9386 15.1316
# 3 8.1015 26.9163 44.8137 -13.6646 -1.1888 13.1872
# 4 -5.6449 -13.4963 -13.6646 22.5320 3.1106 -7.6924
# 5 2.9666 4.9386 -1.1888 3.1106 20.1129 8.5237
# 6 13.9945 15.1316 13.1872 -7.6924 8.5237 31.9443
#
#
#
# Elastic Compliance Matrix: (Units=1/GPa)
#
#
# Indices 1 2 3 4 5 6 
#
# 1 0.008673 -0.000814 0.000094 0.000543 0.000282 -0.003397
# 2 -0.000814 0.013575 -0.006440 0.004005 -0.003579 -0.001495
# 3 0.000094 -0.006440 0.032663 0.012153 0.005431 -0.008997
# 4 0.000543 0.004005 0.012153 0.060074 -0.014360 0.011146
# 5 0.000282 -0.003579 0.005431 -0.014360 0.061841 -0.020629
# 6 -0.003397 -0.001495 -0.008997 0.011146 -0.020629 0.045404
#
#
# Mechanical properties :
#
#
# Convention : Reuss Voigt Hill
#
# Bulk Modulus (GPa) = 24.63643 40.20802 32.42222
# Shear Modulus (GPa) = 19.99356 29.00406 24.49881
#
# Velocity S-wave (km/s) = 2.89076 3.48174 3.19992
# Velocity P-wave (km/s) = 4.63022 5.74183 5.21573
#
# Compressibility (1/GPa) = 0.04059030
#
# Stress axis : x y z
#
# Youngs Moduli (GPa) = 115.30102 73.66540 30.61568
#
# Poissons Ratio (x) = 0.06000 -0.00288
# Poissons Ratio (y) = 0.09391 0.19716
# Poissons Ratio (z) = -0.01084 0.47439
#
# Static dielectric constant tensor:
#      x y z
#    x 2.019100 -0.047910 -0.024080 
#    y -0.047910 1.910200 0.053720 
#    z -0.024080 0.053720 1.902200 
# 
# From -- ./inp_files/118138.got.cif
#   From: 2010.05.17/outbox.cif.g08.bks.cpg/sg2_60_cif.got.tgz:118138.got - 2010.06.03 11:33:40.
