data_PCOD9005086
_publ_section_title
;
Structure prediction by ZEFSAII (Michael W. Deem and Ramdas Pophale) SiO2 
 PCOD9005086
Probable space group: P -1
;
_chemical_formula_sum "Si O2"
_cell_formula_units_Z 16
_cell_length_a 17.706741
_cell_length_b 16.401181
_cell_length_c 5.063163
_cell_angle_alpha 89.836117
_cell_angle_beta 95.251819
_cell_angle_gamma 153.176508
_cell_volume 650.478097
_symmetry_space_group_name_H-M "P -1"
_symmetry_group_IT_number 2
_symmetry_cell_setting 'triclinic'
loop_
_space_group_symop_operation_xyz
x,y,z
-x,-y,-z
loop_
_atom_site_type_symbol
_atom_site_label
_atom_site_fract_x
_atom_site_fract_y
_atom_site_fract_z
Si Si1 0.495549 0.766570 0.750712
Si Si2 0.417697 0.972927 0.239117
Si Si3 0.088469 0.012715 0.363682
Si Si4 0.718244 0.944669 0.316214
Si Si5 0.845752 0.370635 0.153617
Si Si6 0.254114 0.391815 0.763446
Si Si7 0.341224 0.379326 0.279349
Si Si8 0.904457 0.278211 0.568763
O O1 0.565194 0.814423 0.478352
O O2 0.330839 0.555053 0.772859
O O3 0.470621 0.838866 0.772262
O O4 0.641712 0.878837 0.002326
O O5 0.240611 0.851006 0.254949
O O6 0.500000 0.000000 0.500000
O O7 0.338582 0.827618 0.024481
O O8 0.939144 0.811797 0.202149
O O9 0.202880 0.066098 0.586060
O O10 0.212005 0.179114 0.201240
O O11 0.000000 0.000000 0.500000
O O12 0.861475 0.152613 0.412184
O O13 0.861310 0.314643 0.374352
O O14 0.906329 0.517324 0.275317
O O15 0.000000 0.500000 0.000000
O O16 0.262552 0.367209 0.465916
O O17 0.367543 0.448822 0.007940
O O18 0.500000 0.500000 0.500000
#
# Coordination Sequence:
#
# PCOD9005086 Si02
#       8
#     2   2   2   2   2   2   2   2
#     4  11  23  43  64  94 127 174 218 260 319 396
#     4  10  21  38  60  90 128 169 211 267 322 377
#     4  10  24  43  66  98 130 165 211 274 329 379
#     4  11  23  43  67  91 128 175 218 265 319 390
#     4   9  17  36  60  87 121 161 215 260 311 384
#     4  11  23  40  60  92 131 155 207 267 318 377
#     4  11  22  40  67  90 120 167 209 253 318 390
#     4   9  19  37  61  87 120 165 217 257 313 384
#
# _framework density 24.597294000000002
#
# number of rings (size 3 to 8) (size 9 to 14) (size 15 to 20)
#    0.000    1.750    1.250    3.000    0.000    5.500 
#    6.750    1.250    0.000    0.000    0.000    0.000 
#    0.000    0.000    0.000    0.000    0.000    0.000 
#
# Total GULP energy -89376.779888 kJ/mol
# GULP energy per Si atom -5586.048743 kJ/mol
# Density = 2.454131 g / cm^3
# Si number density = 24.597294 Si / 1000 Ang^3
#
#
#
# Elastic Constant Matrix: (Units=GPa)
#
#
# Indices 1 2 3 4 5 6 
#
# 1 75.9726 28.4978 2.2262 2.0646 10.5357 -21.6520
# 2 28.4978 226.4601 29.4632 26.4904 8.1950 -39.0659
# 3 2.2262 29.4632 80.8727 6.4599 9.1562 -16.5130
# 4 2.0646 26.4904 6.4599 43.7301 -0.2814 4.1042
# 5 10.5357 8.1950 9.1562 -0.2814 27.4560 -3.1894
# 6 -21.6520 -39.0659 -16.5130 4.1042 -3.1894 39.8394
#
#
#
# Elastic Compliance Matrix: (Units=1/GPa)
#
#
# Indices 1 2 3 4 5 6 
#
# 1 0.016832 -0.000355 0.002448 -0.001874 -0.006083 0.009521
# 2 -0.000355 0.006061 -0.000575 -0.004126 -0.000842 0.005870
# 3 0.002448 -0.000575 0.014638 -0.002591 -0.004897 0.006709
# 4 -0.001874 -0.004126 -0.002591 0.026670 0.002075 -0.008720
# 5 -0.006083 -0.000842 -0.004897 0.002075 0.040296 -0.003149
# 6 0.009521 0.005870 0.006709 -0.008720 -0.003149 0.039458
#
#
# Mechanical properties :
#
#
# Convention : Reuss Voigt Hill
#
# Bulk Modulus (GPa) = 24.64986 55.96444 40.30715
# Shear Modulus (GPa) = 32.37481 43.74630 38.06055
#
# Velocity S-wave (km/s) = 3.63187 4.22180 3.93790
# Velocity P-wave (km/s) = 5.25647 6.82396 6.09085
#
# Compressibility (1/GPa) = 0.04056818
#
# Stress axis : x y z
#
# Youngs Moduli (GPa) = 59.41109 164.99072 68.31317
#
# Poissons Ratio (x) = 0.05856 -0.16725
# Poissons Ratio (y) = 0.02109 0.03928
# Poissons Ratio (z) = -0.14546 0.09486
#
# Static dielectric constant tensor:
#      x y z
#    x 2.040540 0.116340 -0.087030 
#    y 0.116340 2.054100 -0.009420 
#    z -0.087030 -0.009420 1.986920 
# 
# From -- ./inp_files/110823.got.cif
#   From: 2010.05.17/outbox.cif.g08.bks.cpg/sg2_56_cif.got.tgz:110823.got - 2010.06.03 11:33:40.
