data_PCOD9005529
_publ_section_title
;
Structure prediction by ZEFSAII (Michael W. Deem and Ramdas Pophale) SiO2 
 PCOD9005529
Probable space group: P -1
;
_chemical_formula_sum "Si O2"
_cell_formula_units_Z 14
_cell_length_a 8.842386
_cell_length_b 9.278168
_cell_length_c 11.194884
_cell_angle_alpha 124.676400
_cell_angle_beta 117.587696
_cell_angle_gamma 68.884001
_cell_volume 663.503032
_symmetry_space_group_name_H-M "P -1"
_symmetry_group_IT_number 2
_symmetry_cell_setting 'triclinic'
loop_
_space_group_symop_operation_xyz
x,y,z
-x,-y,-z
loop_
_atom_site_type_symbol
_atom_site_label
_atom_site_fract_x
_atom_site_fract_y
_atom_site_fract_z
Si Si1 0.541344 0.300664 0.687349
Si Si2 0.960066 0.144859 0.156817
Si Si3 0.688145 0.929133 0.616114
Si Si4 0.688807 0.946711 0.098958
Si Si5 0.772771 0.521456 0.188329
Si Si6 0.833301 0.901410 0.392277
Si Si7 0.205502 0.458372 0.064890
O O1 0.615828 0.131319 0.717616
O O2 0.390022 0.425081 0.759682
O O3 0.696418 0.408283 0.759799
O O4 0.448019 0.210219 0.502410
O O5 0.882219 0.337587 0.174763
O O6 0.819717 0.073382 0.156967
O O7 0.141149 0.145414 0.288462
O O8 0.000000 0.000000 0.000000
O O9 0.739025 0.945816 0.503452
O O10 0.714995 0.943826 0.251195
O O11 0.749102 0.746132 0.982941
O O12 0.500000 0.000000 0.000000
O O13 0.879634 0.688525 0.310626
O O14 0.720469 0.514157 0.027736
O O15 0.000000 0.000000 0.500000
O O16 0.000000 0.500000 0.000000
#
# Coordination Sequence:
#
# PCOD9005529 Si02
#       7
#     2   2   2   2   2   2   2
#     4  10  21  38  62  92 126 164 218 266 314 394
#     4  12  24  42  66  96 134 168 219 274 324 390
#     4  10  22  40  66  96 126 177 218 268 327 388
#     4  11  24  41  66  97 130 167 218 274 325 375
#     4  10  23  39  65  95 126 174 216 261 330 390
#     4  10  21  42  67  94 131 175 216 266 326 394
#     4  11  22  40  64  92 126 174 219 261 325 394
#
# _framework density 21.100128999999999
#
# number of rings (size 3 to 8) (size 9 to 14) (size 15 to 20)
#    0.000    1.429    1.429    3.857    2.000    9.143 
#    2.571    0.000    0.000    5.143    0.000    0.000 
#    0.000    0.000    0.000    0.000    0.000    0.000 
#
# Total GULP energy -78192.961740 kJ/mol
# GULP energy per Si atom -5585.211553 kJ/mol
# Density = 2.105210 g / cm^3
# Si number density = 21.100129 Si / 1000 Ang^3
#
#
#
# Elastic Constant Matrix: (Units=GPa)
#
#
# Indices 1 2 3 4 5 6 
#
# 1 55.8575 38.9357 42.9535 11.4869 22.4545 -12.7100
# 2 38.9357 164.6448 49.9147 12.7733 21.4389 -24.9889
# 3 42.9535 49.9147 109.1598 11.8086 34.3011 -2.7599
# 4 11.4869 12.7733 11.8086 28.2390 5.4015 1.4402
# 5 22.4545 21.4389 34.3011 5.4015 55.3141 1.3598
# 6 -12.7100 -24.9889 -2.7599 1.4402 1.3598 40.2113
#
#
#
# Elastic Compliance Matrix: (Units=1/GPa)
#
#
# Indices 1 2 3 4 5 6 
#
# 1 0.032187 -0.002273 -0.008587 -0.007707 -0.006321 0.008662
# 2 -0.002273 0.008212 -0.002311 -0.001901 -0.000748 0.004320
# 3 -0.008587 -0.002311 0.015126 -0.000708 -0.004857 -0.002923
# 4 -0.007707 -0.001901 -0.000708 0.039861 0.000538 -0.005112
# 5 -0.006321 -0.000748 -0.004857 0.000538 0.023983 -0.003626
# 6 0.008662 0.004320 -0.002923 -0.005112 -0.003626 0.030396
#
#
# Mechanical properties :
#
#
# Convention : Reuss Voigt Hill
#
# Bulk Modulus (GPa) = 34.26692 65.91887 50.09290
# Shear Modulus (GPa) = 26.90574 37.94345 32.42459
#
# Velocity S-wave (km/s) = 3.57479 4.24519 3.92433
# Velocity P-wave (km/s) = 5.77185 7.43893 6.65777
#
# Compressibility (1/GPa) = 0.02918266
#
# Stress axis : x y z
#
# Youngs Moduli (GPa) = 31.06845 121.76915 66.11328
#
# Poissons Ratio (x) = 0.27675 0.56774
# Poissons Ratio (y) = 0.07061 0.15279
# Poissons Ratio (z) = 0.26679 0.28141
#
# Static dielectric constant tensor:
#      x y z
#    x 1.806050 -0.005050 -0.003950 
#    y -0.005050 1.752760 0.039450 
#    z -0.003950 0.039450 1.836500 
# 
# From -- ./inp_files/174814.got.cif
#   From: 2010.05.17/outbox.cif.g08.bks.cpg/sg2_88_cif.got.tgz:174814.got - 2010.06.03 11:33:40.
