data_PCOD9005395
_publ_section_title
;
Structure prediction by ZEFSAII (Michael W. Deem and Ramdas Pophale) SiO2 
 PCOD9005395
Probable space group: P -1
;
_chemical_formula_sum "Si O2"
_cell_formula_units_Z 16
_cell_length_a 13.427888
_cell_length_b 15.810573
_cell_length_c 10.667021
_cell_angle_alpha 59.243029
_cell_angle_beta 34.567562
_cell_angle_gamma 35.047852
_cell_volume 639.231258
_symmetry_space_group_name_H-M "P -1"
_symmetry_group_IT_number 2
_symmetry_cell_setting 'triclinic'
loop_
_space_group_symop_operation_xyz
x,y,z
-x,-y,-z
loop_
_atom_site_type_symbol
_atom_site_label
_atom_site_fract_x
_atom_site_fract_y
_atom_site_fract_z
Si Si1 0.077477 0.811915 0.055719
Si Si2 0.904625 0.580436 0.901358
Si Si3 0.012660 0.109176 0.190412
Si Si4 0.328702 0.145726 0.209242
Si Si5 0.651302 0.670267 0.596046
Si Si6 0.753467 0.203292 0.626369
Si Si7 0.853739 0.959948 0.436344
Si Si8 0.064101 0.623973 0.320369
O O1 0.846988 0.933691 0.317635
O O2 0.226819 0.639257 0.071260
O O3 0.305409 0.799192 0.840904
O O4 0.976932 0.847706 0.989937
O O5 0.810771 0.736829 0.855493
O O6 0.167568 0.438624 0.635501
O O7 0.594828 0.665953 0.120220
O O8 0.000000 0.500000 0.000000
O O9 0.834795 0.234931 0.398912
O O10 0.838181 0.084847 0.365425
O O11 0.361063 0.944764 0.999520
O O12 0.077707 0.278415 0.475343
O O13 0.369252 0.009391 0.278021
O O14 0.774295 0.720807 0.466485
O O15 0.741522 0.559722 0.705258
O O16 0.839853 0.199462 0.678366
O O17 0.000000 0.000000 0.500000
#
# Coordination Sequence:
#
# PCOD9005395 Si02
#       8
#     2   2   2   2   2   2   2   2
#     4  11  22  37  62  95 122 158 212 254 300 372
#     4  11  22  42  64  91 124 162 209 257 302 367
#     4  11  22  40  62  88 128 162 206 258 302 365
#     4  10  21  40  63  88 123 163 201 253 312 366
#     4  10  21  38  62  84 124 162 199 252 317 358
#     4  10  21  42  64  86 126 165 204 250 310 365
#     4  10  22  38  63  92 121 166 203 249 313 369
#     4   9  21  37  60  90 119 162 200 256 308 368
#
# _framework density 25.030066999999999
#
# number of rings (size 3 to 8) (size 9 to 14) (size 15 to 20)
#    0.000    1.750    2.500    2.250    3.500    3.500 
#    2.250    0.625    0.000    0.000    0.000    0.000 
#    0.000    0.000    0.000    0.000    0.000    0.000 
#
# Total GULP energy -89242.973850 kJ/mol
# GULP energy per Si atom -5577.685866 kJ/mol
# Density = 2.497310 g / cm^3
# Si number density = 25.030067 Si / 1000 Ang^3
#
#
#
# Elastic Constant Matrix: (Units=GPa)
#
#
# Indices 1 2 3 4 5 6 
#
# 1 73.9768 43.3521 33.1681 -19.5688 5.6077 -22.5466
# 2 43.3521 79.2510 39.0902 -31.7505 9.0154 -30.3974
# 3 33.1681 39.0902 79.9592 -12.8469 13.3411 -9.0318
# 4 -19.5688 -31.7505 -12.8469 41.4380 -5.1805 5.5619
# 5 5.6077 9.0154 13.3411 -5.1805 48.2613 -7.4661
# 6 -22.5466 -30.3974 -9.0318 5.5619 -7.4661 43.1615
#
#
#
# Elastic Compliance Matrix: (Units=1/GPa)
#
#
# Indices 1 2 3 4 5 6 
#
# 1 0.021976 -0.005805 -0.005224 0.003661 0.001304 0.006052
# 2 -0.005805 0.034351 -0.009759 0.018467 0.001569 0.017010
# 3 -0.005224 -0.009759 0.018850 -0.003825 -0.004100 -0.005874
# 4 0.003661 0.018467 -0.003825 0.037865 0.002750 0.009714
# 5 0.001304 0.001569 -0.004100 0.002750 0.022392 0.004447
# 6 0.006052 0.017010 -0.005874 0.009714 0.004447 0.036598
#
#
# Mechanical properties :
#
#
# Convention : Reuss Voigt Hill
#
# Bulk Modulus (GPa) = 29.75987 51.60085 40.68036
# Shear Modulus (GPa) = 22.24103 34.41060 28.32581
#
# Velocity S-wave (km/s) = 2.98413 3.71181 3.36768
# Velocity P-wave (km/s) = 4.87738 6.24743 5.60443
#
# Compressibility (1/GPa) = 0.03360230
#
# Stress axis : x y z
#
# Youngs Moduli (GPa) = 45.50440 29.11097 53.04930
#
# Poissons Ratio (x) = 0.16898 0.27712
# Poissons Ratio (y) = 0.26415 0.51771
# Poissons Ratio (z) = 0.23770 0.28410
#
# Static dielectric constant tensor:
#      x y z
#    x 2.039570 0.028730 -0.005120 
#    y 0.028730 2.127460 -0.027670 
#    z -0.005120 -0.027670 1.971270 
# 
# From -- ./inp_files/456932.got.cif
#   From: 2010.05.17/outbox.cif.g08.bks.cpg/sg2_229_cif.got.tgz:456932.got - 2010.06.03 11:33:40.
