data_PCOD9005845
_publ_section_title
;
Structure prediction by ZEFSAII (Michael W. Deem and Ramdas Pophale) SiO2 
 PCOD9005845
Probable space group: P -1
;
_chemical_formula_sum "Si O2"
_cell_formula_units_Z 16
_cell_length_a 14.401733
_cell_length_b 28.589312
_cell_length_c 9.063408
_cell_angle_alpha 40.772277
_cell_angle_beta 49.267963
_cell_angle_gamma 19.592640
_cell_volume 784.927062
_symmetry_space_group_name_H-M "P -1"
_symmetry_group_IT_number 2
_symmetry_cell_setting 'triclinic'
loop_
_space_group_symop_operation_xyz
x,y,z
-x,-y,-z
loop_
_atom_site_type_symbol
_atom_site_label
_atom_site_fract_x
_atom_site_fract_y
_atom_site_fract_z
Si Si1 0.384432 0.866280 0.105396
Si Si2 0.287471 0.312467 0.084464
Si Si3 0.830690 0.301287 0.310864
Si Si4 0.758736 0.900805 0.384450
Si Si5 0.919182 0.988960 0.325626
Si Si6 0.727170 0.810963 0.390547
Si Si7 0.151512 0.662398 0.118063
Si Si8 0.766408 0.998835 0.745943
O O1 0.388495 0.885499 0.227617
O O2 0.156594 0.922093 0.197459
O O3 0.671831 0.702361 0.099619
O O4 0.263589 0.002392 0.831283
O O5 0.261583 0.247860 0.340806
O O6 0.600616 0.174135 0.148959
O O7 0.000000 0.500000 0.000000
O O8 0.487920 0.478959 0.240308
O O9 0.958213 0.265484 0.415314
O O10 0.966814 0.150179 0.507700
O O11 0.907137 0.305666 0.073524
O O12 0.717368 0.892956 0.282420
O O13 0.500000 0.000000 0.500000
O O14 0.874289 0.003849 0.512056
O O15 0.461656 0.927237 0.288874
O O16 0.996473 0.678203 0.320622
O O17 0.031808 0.803228 0.961351
#
# Coordination Sequence:
#
# PCOD9005845 Si02
#       8
#     2   2   2   2   2   2   2   2
#     4  12  23  39  70  92 123 179 215 259 327 381
#     4  11  25  43  63  95 130 168 218 267 322 383
#     4  10  23  40  64  93 132 164 220 258 321 389
#     4  12  22  39  62  96 121 163 214 258 323 383
#     4  10  22  44  64  90 129 176 212 267 317 384
#     4  11  23  40  66  91 131 169 205 274 319 373
#     4  10  21  38  63  96 125 171 204 270 319 376
#     4  10  22  42  66  94 129 168 221 260 323 382
#
# _framework density 20.384058
#
# number of rings (size 3 to 8) (size 9 to 14) (size 15 to 20)
#    0.000    1.250    3.750    2.625    3.500    0.500 
#    2.250    2.500    5.500    0.000    0.000    0.000 
#    0.000    0.000    0.000    0.000    0.000    0.000 
#
# Total GULP energy -89156.955999 kJ/mol
# GULP energy per Si atom -5572.309750 kJ/mol
# Density = 2.033766 g / cm^3
# Si number density = 20.384058 Si / 1000 Ang^3
#
#
#
# Elastic Constant Matrix: (Units=GPa)
#
#
# Indices 1 2 3 4 5 6 
#
# 1 86.1171 44.3388 31.1493 3.3380 11.7845 5.2462
# 2 44.3388 148.5339 51.4583 18.8035 5.1702 9.4087
# 3 31.1493 51.4583 64.8750 21.0372 1.8268 -2.1156
# 4 3.3380 18.8035 21.0372 46.8805 -4.5478 -5.4200
# 5 11.7845 5.1702 1.8268 -4.5478 16.3925 7.9031
# 6 5.2462 9.4087 -2.1156 -5.4200 7.9031 29.9133
#
#
#
# Elastic Compliance Matrix: (Units=1/GPa)
#
#
# Indices 1 2 3 4 5 6 
#
# 1 0.016470 -0.002740 -0.005982 0.001692 -0.010092 0.000523
# 2 -0.002740 0.010153 -0.006454 -0.001317 0.000876 -0.003639
# 3 -0.005982 -0.006454 0.026273 -0.008424 -0.000657 0.003585
# 4 0.001692 -0.001317 -0.008424 0.026428 0.006179 0.002678
# 5 -0.010092 0.000876 -0.000657 0.006179 0.078536 -0.018182
# 6 0.000523 -0.003639 0.003585 0.002678 -0.018182 0.040025
#
#
# Mechanical properties :
#
#
# Convention : Reuss Voigt Hill
#
# Bulk Modulus (GPa) = 44.35807 61.49098 52.92453
# Shear Modulus (GPa) = 21.20869 30.14255 25.67562
#
# Velocity S-wave (km/s) = 3.22911 3.84960 3.55293
# Velocity P-wave (km/s) = 5.97589 7.07043 6.54607
#
# Compressibility (1/GPa) = 0.02254381
#
# Stress axis : x y z
#
# Youngs Moduli (GPa) = 60.71547 98.49174 38.06181
#
# Poissons Ratio (x) = 0.26988 0.22769
# Poissons Ratio (y) = 0.16637 0.24565
# Poissons Ratio (z) = 0.36321 0.63567
#
# Static dielectric constant tensor:
#      x y z
#    x 1.789390 0.079000 0.023970 
#    y 0.079000 1.766950 0.035110 
#    z 0.023970 0.035110 1.766120 
# 
# From -- ./inp_files/321029.got.cif
#   From: 2010.05.17/outbox.cif.g08.bks.cpg/sg2_161_cif.got.tgz:321029.got - 2010.06.03 11:33:40.
