data_PCOD9005455
_publ_section_title
;
Structure prediction by ZEFSAII (Michael W. Deem and Ramdas Pophale) SiO2 
 PCOD9005455
Probable space group: P -1
;
_chemical_formula_sum "Si O2"
_cell_formula_units_Z 16
_cell_length_a 30.280715
_cell_length_b 5.102583
_cell_length_c 20.368627
_cell_angle_alpha 117.493505
_cell_angle_beta 166.828666
_cell_angle_gamma 62.113691
_cell_volume 633.544469
_symmetry_space_group_name_H-M "P -1"
_symmetry_group_IT_number 2
_symmetry_cell_setting 'triclinic'
loop_
_space_group_symop_operation_xyz
x,y,z
-x,-y,-z
loop_
_atom_site_type_symbol
_atom_site_label
_atom_site_fract_x
_atom_site_fract_y
_atom_site_fract_z
Si Si1 0.567919 0.420161 0.459222
Si Si2 0.065673 0.229000 0.391297
Si Si3 0.586123 0.759094 0.021892
Si Si4 0.168904 0.968499 0.294325
Si Si5 0.334740 0.334232 0.673998
Si Si6 0.068776 0.656444 0.553835
Si Si7 0.913836 0.809036 0.020993
Si Si8 0.482446 0.963646 0.549163
O O1 0.637522 0.181428 0.477797
O O2 0.459234 0.718803 0.305405
O O3 0.447293 0.304647 0.332721
O O4 0.775051 0.544643 0.795117
O O5 0.230515 0.096447 0.665020
O O6 0.181751 0.360168 0.514235
O O7 0.979654 0.506154 0.342690
O O8 0.960501 0.965617 0.175121
O O9 0.699228 0.453061 0.122665
O O10 0.453058 0.615905 0.866905
O O11 0.465499 0.019901 0.838295
O O12 0.087454 0.786857 0.216992
O O13 0.214493 0.279136 0.427774
O O14 0.000000 0.000000 0.000000
O O15 0.000000 0.500000 0.500000
O O16 0.000000 0.000000 0.500000
O O17 0.749152 0.039719 0.775703
O O18 0.500000 0.000000 0.500000
#
# Coordination Sequence:
#
# PCOD9005455 Si02
#       8
#     2   2   2   2   2   2   2   2
#     4  10  21  38  62  89 127 163 210 263 320 367
#     4   9  22  40  68  94 134 168 216 266 329 392
#     4  10  23  41  66  92 137 162 219 271 328 385
#     4  11  21  41  65  97 135 168 213 271 330 398
#     4  11  23  41  64 103 127 173 213 267 340 395
#     4  10  22  41  65  90 127 174 217 266 317 379
#     4   9  21  38  62  99 124 168 213 258 327 392
#     4  10  21  39  61  86 128 164 218 261 311 368
#
# _framework density 25.254739000000001
#
# number of rings (size 3 to 8) (size 9 to 14) (size 15 to 20)
#    1.500    0.500    1.250    2.250    0.000    5.000 
#    4.500    3.750    0.000    0.000    0.000    0.000 
#    0.000    0.000    0.000    0.000    0.000    0.000 
#
# Total GULP energy -89135.343008 kJ/mol
# GULP energy per Si atom -5570.958938 kJ/mol
# Density = 2.519726 g / cm^3
# Si number density = 25.254739 Si / 1000 Ang^3
#
#
#
# Elastic Constant Matrix: (Units=GPa)
#
#
# Indices 1 2 3 4 5 6 
#
# 1 116.1754 68.9344 0.1462 5.2499 -0.3077 -10.6686
# 2 68.9344 121.3627 15.1362 -6.1347 -9.1551 7.5206
# 3 0.1462 15.1362 50.9600 9.0382 -17.7361 2.9168
# 4 5.2499 -6.1347 9.0382 29.5780 -7.6603 -4.6078
# 5 -0.3077 -9.1551 -17.7361 -7.6603 36.3154 4.3816
# 6 -10.6686 7.5206 2.9168 -4.6078 4.3816 58.3350
#
#
#
# Elastic Compliance Matrix: (Units=1/GPa)
#
#
# Indices 1 2 3 4 5 6 
#
# 1 0.014739 -0.009387 0.002632 -0.005474 -0.002537 0.003532
# 2 -0.009387 0.014866 -0.004172 0.006401 0.003364 -0.003172
# 3 0.002632 -0.004172 0.025731 -0.006773 0.010299 -0.001576
# 4 -0.005474 0.006401 -0.006773 0.040063 0.006567 0.001184
# 5 -0.002537 0.003364 0.010299 0.006567 0.035205 -0.003538
# 6 0.003532 -0.003172 -0.001576 0.001184 -0.003538 0.018635
#
#
# Mechanical properties :
#
#
# Convention : Reuss Voigt Hill
#
# Bulk Modulus (GPa) = 29.86748 50.77019 40.31883
# Shear Modulus (GPa) = 27.43413 38.46442 32.94928
#
# Velocity S-wave (km/s) = 3.29948 3.90687 3.61595
# Velocity P-wave (km/s) = 5.13493 6.36384 5.78213
#
# Compressibility (1/GPa) = 0.03348123
#
# Stress axis : x y z
#
# Youngs Moduli (GPa) = 67.84495 67.26797 38.86426
#
# Poissons Ratio (x) = 0.63146 -0.10227
# Poissons Ratio (y) = 0.63688 0.16213
# Poissons Ratio (z) = -0.17854 0.28062
#
# Static dielectric constant tensor:
#      x y z
#    x 2.044960 -0.070720 -0.013830 
#    y -0.070720 2.105680 -0.099810 
#    z -0.013830 -0.099810 2.124980 
# 
# From -- ./inp_files/579512.got.cif
#   From: 2010.05.17/outbox.cif.g08.bks.cpg/sg2_290_cif.got.tgz:579512.got - 2010.06.03 11:33:40.
