data_PCOD9005303
_publ_section_title
;
Structure prediction by ZEFSAII (Michael W. Deem and Ramdas Pophale) SiO2 
 PCOD9005303
Probable space group: P -1
;
_chemical_formula_sum "Si O2"
_cell_formula_units_Z 16
_cell_length_a 7.977132
_cell_length_b 10.288685
_cell_length_c 19.645255
_cell_angle_alpha 53.750493
_cell_angle_beta 83.990856
_cell_angle_gamma 42.614943
_cell_volume 700.837661
_symmetry_space_group_name_H-M "P -1"
_symmetry_group_IT_number 2
_symmetry_cell_setting 'triclinic'
loop_
_space_group_symop_operation_xyz
x,y,z
-x,-y,-z
loop_
_atom_site_type_symbol
_atom_site_label
_atom_site_fract_x
_atom_site_fract_y
_atom_site_fract_z
Si Si1 0.252165 0.379313 0.577267
Si Si2 0.762562 0.365344 0.331936
Si Si3 0.303018 0.920157 0.978966
Si Si4 0.405947 0.181768 0.874159
Si Si5 0.273353 0.287436 0.239610
Si Si6 0.782815 0.660757 0.612807
Si Si7 0.462966 0.669471 0.531577
Si Si8 0.424924 0.509826 0.167538
O O1 0.368266 0.445962 0.512914
O O2 0.000000 0.500000 0.500000
O O3 0.071914 0.521140 0.611355
O O4 0.532542 0.028542 0.681071
O O5 0.641527 0.640175 0.233195
O O6 0.624772 0.413841 0.394038
O O7 0.635017 0.367837 0.269802
O O8 0.134441 0.031194 0.424277
O O9 0.430454 0.974377 0.915484
O O10 0.327159 0.971814 0.039130
O O11 0.474332 0.611020 0.077712
O O12 0.944460 0.178744 0.894537
O O13 0.081967 0.450723 0.848312
O O14 0.228134 0.353027 0.302372
O O15 0.445716 0.310479 0.200509
O O16 0.706312 0.560814 0.606220
O O17 0.500000 0.000000 0.500000
#
# Coordination Sequence:
#
# PCOD9005303 Si02
#       8
#     2   2   2   2   2   2   2   2
#     4  10  20  33  51  78 114 148 193 222 259 318
#     4  10  17  28  49  76 116 152 179 221 271 321
#     4   8  16  29  47  83 111 131 185 237 278 325
#     4   9  16  29  51  78 111 142 181 231 279 325
#     4  11  18  32  53  81 106 149 186 221 273 321
#     4  11  19  33  54  76 110 154 187 220 262 315
#     4  10  19  30  46  77 112 156 178 222 263 311
#     4   9  17  28  50  80 109 139 186 231 269 334
#
# _framework density 22.829823999999999
#
# number of rings (size 3 to 8) (size 9 to 14) (size 15 to 20)
#    0.000    2.250    5.000    0.000    0.000    0.000 
#    0.000    0.000    0.000   18.750    0.000   28.000 
#    0.000    0.000    0.000    0.000    0.000    0.375 
#
# Total GULP energy -89118.538963 kJ/mol
# GULP energy per Si atom -5569.908685 kJ/mol
# Density = 2.277786 g / cm^3
# Si number density = 22.829824 Si / 1000 Ang^3
#
#
#
# Elastic Constant Matrix: (Units=GPa)
#
#
# Indices 1 2 3 4 5 6 
#
# 1 128.4674 14.8681 30.6536 10.3117 -24.3528 -27.4033
# 2 14.8681 56.9815 23.1028 4.8137 -4.8292 -22.1298
# 3 30.6536 23.1028 117.4221 12.5735 -19.2080 -14.1959
# 4 10.3117 4.8137 12.5735 11.7025 -5.4274 -1.1331
# 5 -24.3528 -4.8292 -19.2080 -5.4274 63.8032 15.2596
# 6 -27.4033 -22.1298 -14.1959 -1.1331 15.2596 22.7383
#
#
#
# Elastic Compliance Matrix: (Units=1/GPa)
#
#
# Indices 1 2 3 4 5 6 
#
# 1 0.012251 0.005651 -0.000925 -0.010582 -0.000783 0.019684
# 2 0.005651 0.034612 -0.002628 -0.015776 -0.007697 0.043234
# 3 -0.000925 -0.002628 0.010638 -0.008667 0.001556 0.001493
# 4 -0.010582 -0.015776 -0.008667 0.111841 0.009952 -0.034624
# 5 -0.000783 -0.007697 0.001556 0.009952 0.021171 -0.021174
# 6 0.019684 0.043234 0.001493 -0.034624 -0.021174 0.123194
#
#
# Mechanical properties :
#
#
# Convention : Reuss Voigt Hill
#
# Bulk Modulus (GPa) = 16.20859 48.90221 32.55540
# Shear Modulus (GPa) = 15.14802 35.26525 25.20664
#
# Velocity S-wave (km/s) = 2.57868 3.93453 3.32642
# Velocity P-wave (km/s) = 3.99766 6.48903 5.38929
#
# Compressibility (1/GPa) = 0.06169569
#
# Stress axis : x y z
#
# Youngs Moduli (GPa) = 81.62863 28.89205 94.00311
#
# Poissons Ratio (x) = -0.16326 0.08696
# Poissons Ratio (y) = -0.46126 0.24703
# Poissons Ratio (z) = 0.07551 0.07593
#
# Static dielectric constant tensor:
#      x y z
#    x 1.993380 -0.022800 -0.013740 
#    y -0.022800 1.699800 0.041630 
#    z -0.013740 0.041630 1.922710 
# 
# From -- ./inp_files/607561.got.cif
#   From: 2010.05.17/outbox.cif.g08.bks.cpg/sg2_304_cif.got.tgz:607561.got - 2010.06.03 11:33:40.
