data_PCOD9005881
_publ_section_title
;
Structure prediction by ZEFSAII (Michael W. Deem and Ramdas Pophale) SiO2 
 PCOD9005881
Probable space group: P -1
;
_chemical_formula_sum "Si O2"
_cell_formula_units_Z 15
_cell_length_a 17.467475
_cell_length_b 5.097607
_cell_length_c 12.423598
_cell_angle_alpha 92.152730
_cell_angle_beta 39.686523
_cell_angle_gamma 71.725106
_cell_volume 595.641771
_symmetry_space_group_name_H-M "P -1"
_symmetry_group_IT_number 2
_symmetry_cell_setting 'triclinic'
loop_
_space_group_symop_operation_xyz
x,y,z
-x,-y,-z
loop_
_atom_site_type_symbol
_atom_site_label
_atom_site_fract_x
_atom_site_fract_y
_atom_site_fract_z
Si Si1 0.346276 0.860895 0.941828
Si Si2 0.000000 0.000000 0.000000
Si Si3 0.301547 0.448556 0.124885
Si Si4 0.572299 0.766192 0.517641
Si Si5 0.268095 0.900079 0.605916
Si Si6 0.957192 0.759720 0.820141
Si Si7 0.000228 0.692067 0.401131
Si Si8 0.232211 0.709613 0.418038
O O1 0.455252 0.831113 0.733257
O O2 0.386119 0.559942 0.964242
O O3 0.322639 0.134298 0.051044
O O4 0.199895 0.962753 0.039618
O O5 0.979142 0.808152 0.920032
O O6 0.104146 0.053143 0.810947
O O7 0.133502 0.715792 0.290613
O O8 0.325318 0.445859 0.226752
O O9 0.654388 0.395968 0.399902
O O10 0.500000 0.000000 0.500000
O O11 0.682793 0.858245 0.439933
O O12 0.300850 0.736796 0.451942
O O13 0.957380 0.466997 0.765609
O O14 0.090777 0.719566 0.608473
O O15 0.000000 0.500000 0.500000
O O16 0.839145 0.967846 0.563538
#
# Coordination Sequence:
#
# PCOD9005881 Si02
#       8
#     2   1   2   2   2   2   2   2
#     4  11  24  42  70 101 135 185 251 284 338 417
#     4  10  24  46  68 110 140 176 230 292 384 428
#     4  11  22  38  67 108 142 184 232 291 347 428
#     4  12  27  53  74  97 136 193 251 293 347 425
#     4  11  28  47  76 103 141 185 230 303 369 427
#     4  10  21  38  63  99 141 183 227 298 350 426
#     4  11  20  35  65 101 148 187 229 279 363 434
#     4  11  22  40  65 105 149 180 226 293 381 420
#
# _framework density 25.182918000000001
#
# number of rings (size 3 to 8) (size 9 to 14) (size 15 to 20)
#    0.000    1.067    2.667    4.000    3.733    1.600 
#    4.800    4.000    0.000    0.000    0.000    0.000 
#    0.000    0.000    0.000    0.000    0.000    0.000 
#
# Total GULP energy -83624.274781 kJ/mol
# GULP energy per Si atom -5574.951652 kJ/mol
# Density = 2.512560 g / cm^3
# Si number density = 25.182918 Si / 1000 Ang^3
#
#
#
# Elastic Constant Matrix: (Units=GPa)
#
#
# Indices 1 2 3 4 5 6 
#
# 1 101.1973 20.8672 45.4096 -3.6005 33.5058 14.6460
# 2 20.8672 83.7037 17.5928 -19.0786 1.3932 -0.0899
# 3 45.4096 17.5928 110.4118 -38.1063 15.0285 11.2155
# 4 -3.6005 -19.0786 -38.1063 37.9412 11.3889 -2.7419
# 5 33.5058 1.3932 15.0285 11.3889 53.3806 -1.3466
# 6 14.6460 -0.0899 11.2155 -2.7419 -1.3466 37.5118
#
#
#
# Elastic Compliance Matrix: (Units=1/GPa)
#
#
# Indices 1 2 3 4 5 6 
#
# 1 0.016611 -0.003768 -0.006267 -0.004681 -0.007697 -0.005239
# 2 -0.003768 0.014630 0.002654 0.010027 -0.000867 0.001415
# 3 -0.006267 0.002654 0.020309 0.023027 -0.006821 -0.002181
# 4 -0.004681 0.010027 0.023027 0.058911 -0.016409 -0.001316
# 5 -0.007697 -0.000867 -0.006821 -0.016409 0.029132 0.004889
# 6 -0.005239 0.001415 -0.002181 -0.001316 0.004889 0.029439
#
#
# Mechanical properties :
#
#
# Convention : Reuss Voigt Hill
#
# Bulk Modulus (GPa) = 27.18409 51.45023 39.31716
# Shear Modulus (GPa) = 25.50279 39.86293 32.68286
#
# Velocity S-wave (km/s) = 3.18575 3.98293 3.60643
# Velocity P-wave (km/s) = 4.93458 6.45187 5.74355
#
# Compressibility (1/GPa) = 0.03678623
#
# Stress axis : x y z
#
# Youngs Moduli (GPa) = 60.20099 68.35291 49.23999
#
# Poissons Ratio (x) = 0.25758 0.30858
# Poissons Ratio (y) = 0.22686 -0.13066
# Poissons Ratio (z) = 0.37727 -0.18138
#
# Static dielectric constant tensor:
#      x y z
#    x 2.018630 -0.039290 -0.026190 
#    y -0.039290 2.120950 0.064750 
#    z -0.026190 0.064750 1.978610 
# 
# From -- ./inp_files/459210.got.cif
#   From: 2010.05.17/outbox.cif.g08.bks.cpg/sg2_230_cif.got.tgz:459210.got - 2010.06.03 11:33:40.
