data_PCOD9005817
_publ_section_title
;
Structure prediction by ZEFSAII (Michael W. Deem and Ramdas Pophale) SiO2 
 PCOD9005817
Probable space group: P -1
;
_chemical_formula_sum "Si O2"
_cell_formula_units_Z 14
_cell_length_a 15.446543
_cell_length_b 15.027744
_cell_length_c 7.209258
_cell_angle_alpha 78.875875
_cell_angle_beta 92.817247
_cell_angle_gamma 155.761494
_cell_volume 639.852845
_symmetry_space_group_name_H-M "P -1"
_symmetry_group_IT_number 2
_symmetry_cell_setting 'triclinic'
loop_
_space_group_symop_operation_xyz
x,y,z
-x,-y,-z
loop_
_atom_site_type_symbol
_atom_site_label
_atom_site_fract_x
_atom_site_fract_y
_atom_site_fract_z
Si Si1 0.697698 0.438342 0.680187
Si Si2 0.297683 0.944228 0.956856
Si Si3 0.363306 0.471744 0.656276
Si Si4 0.084953 0.291097 0.030359
Si Si5 0.615614 0.146762 0.187003
Si Si6 0.794470 0.365142 0.492976
Si Si7 0.830540 0.889417 0.392847
O O1 0.447903 0.157259 0.763805
O O2 0.711178 0.543915 0.526723
O O3 0.831850 0.492774 0.557381
O O4 0.784864 0.535305 0.857313
O O5 0.087454 0.803248 0.040868
O O6 0.234013 0.785879 0.921930
O O7 0.477410 0.082239 0.070541
O O8 0.630394 0.731855 0.566850
O O9 0.280620 0.289736 0.688955
O O10 0.251762 0.409515 0.848975
O O11 0.948823 0.080096 0.205818
O O12 0.744104 0.323991 0.287354
O O13 0.421610 0.895456 0.349065
O O14 0.000000 0.500000 0.500000
O O15 0.000000 0.000000 0.500000
#
# Coordination Sequence:
#
# PCOD9005817 Si02
#       7
#     2   2   2   2   2   2   2
#     4  11  24  42  63 105 135 169 236 280 324 414
#     4  10  22  42  64  96 139 177 231 281 328 398
#     4  11  26  45  71 101 134 174 227 275 339 415
#     4  12  25  44  72 102 136 183 219 282 346 396
#     4   9  21  40  62  91 135 187 222 274 336 390
#     4  10  21  38  63  94 133 179 228 278 332 395
#     4  11  24  50  71  98 139 174 220 281 340 417
#
# _framework density 21.880033000000001
#
# number of rings (size 3 to 8) (size 9 to 14) (size 15 to 20)
#    0.000    1.429    2.857    1.286    4.000    1.714 
#    0.000    4.286    0.000    0.000    0.000    0.000 
#    0.000    0.000    0.000    0.000    0.000    0.000 
#
# Total GULP energy -78197.305842 kJ/mol
# GULP energy per Si atom -5585.521846 kJ/mol
# Density = 2.183023 g / cm^3
# Si number density = 21.880033 Si / 1000 Ang^3
#
#
#
# Elastic Constant Matrix: (Units=GPa)
#
#
# Indices 1 2 3 4 5 6 
#
# 1 151.7610 55.7979 60.9011 -4.5613 -20.6465 21.1078
# 2 55.7979 69.1195 39.0317 -12.5989 -14.6318 -1.9502
# 3 60.9011 39.0317 99.6680 -0.2324 -12.2084 2.4729
# 4 -4.5613 -12.5989 -0.2324 32.5656 -6.5106 0.4416
# 5 -20.6465 -14.6318 -12.2084 -6.5106 43.2858 -6.2955
# 6 21.1078 -1.9502 2.4729 0.4416 -6.2955 45.0782
#
#
#
# Elastic Compliance Matrix: (Units=1/GPa)
#
#
# Indices 1 2 3 4 5 6 
#
# 1 0.011790 -0.007309 -0.004077 -0.000917 0.001071 -0.005454
# 2 -0.007309 0.026860 -0.005374 0.010550 0.006491 0.005683
# 3 -0.004077 -0.005374 0.014614 -0.002536 0.000112 0.000915
# 4 -0.000917 0.010550 -0.002536 0.036243 0.008127 0.001805
# 5 0.001071 0.006491 0.000112 0.008127 0.027577 0.003545
# 6 -0.005454 0.005683 0.000915 0.001805 0.003545 0.025411
#
#
# Mechanical properties :
#
#
# Convention : Reuss Voigt Hill
#
# Bulk Modulus (GPa) = 50.64975 70.22333 60.43654
# Shear Modulus (GPa) = 27.38273 35.17377 31.27825
#
# Velocity S-wave (km/s) = 3.54148 4.01381 3.78502
# Velocity P-wave (km/s) = 6.31838 7.32429 6.83985
#
# Compressibility (1/GPa) = 0.01974343
#
# Stress axis : x y z
#
# Youngs Moduli (GPa) = 84.81981 37.22939 68.42643
#
# Poissons Ratio (x) = 0.27213 0.27898
# Poissons Ratio (y) = 0.61999 0.36772
# Poissons Ratio (z) = 0.34581 0.20007
#
# Static dielectric constant tensor:
#      x y z
#    x 1.831050 -0.001600 -0.009250 
#    y -0.001600 1.795830 -0.031110 
#    z -0.009250 -0.031110 1.847390 
# 
# From -- ./inp_files/336247.got.cif
#   From: 2010.05.17/outbox.cif.g08.bks.cpg/sg2_169_cif.got.tgz:336247.got - 2010.06.03 11:33:40.
