data_PCOD9005399
_publ_section_title
;
Structure prediction by ZEFSAII (Michael W. Deem and Ramdas Pophale) SiO2 
 PCOD9005399
Probable space group: P -1
;
_chemical_formula_sum "Si O2"
_cell_formula_units_Z 16
_cell_length_a 19.373184
_cell_length_b 6.844777
_cell_length_c 8.474457
_cell_angle_alpha 89.165802
_cell_angle_beta 131.100831
_cell_angle_gamma 89.736559
_cell_volume 846.571518
_symmetry_space_group_name_H-M "P -1"
_symmetry_group_IT_number 2
_symmetry_cell_setting 'triclinic'
loop_
_space_group_symop_operation_xyz
x,y,z
-x,-y,-z
loop_
_atom_site_type_symbol
_atom_site_label
_atom_site_fract_x
_atom_site_fract_y
_atom_site_fract_z
Si Si1 0.835852 0.062535 0.365842
Si Si2 0.652115 0.006085 0.268808
Si Si3 0.077341 0.605831 0.724093
Si Si4 0.648721 0.967126 0.633756
Si Si5 0.988664 0.044004 0.166231
Si Si6 0.517802 0.710774 0.950674
Si Si7 0.172988 0.208842 0.930581
Si Si8 0.488031 0.720628 0.530264
O O1 0.866110 0.243072 0.300230
O O2 0.739620 0.083289 0.308430
O O3 0.829259 0.870286 0.249869
O O4 0.918068 0.026304 0.610210
O O5 0.671891 0.984488 0.484569
O O6 0.566985 0.155388 0.118007
O O7 0.613136 0.801654 0.149324
O O8 0.034258 0.738721 0.799944
O O9 0.145277 0.435822 0.891574
O O10 0.000000 0.500000 0.500000
O O11 0.558199 0.840934 0.527382
O O12 0.613218 0.180214 0.638823
O O13 0.731093 0.862247 0.850594
O O14 0.906439 0.909605 0.101599
O O15 0.000000 0.000000 0.000000
O O16 0.513559 0.726836 0.754153
O O17 0.500000 0.500000 0.000000
O O18 0.500000 0.500000 0.500000
#
# Coordination Sequence:
#
# PCOD9005399 Si02
#       8
#     2   2   2   2   2   2   2   2
#     4  11  22  39  63  88 120 162 205 254 314 373
#     4  10  22  39  59  87 123 155 201 256 303 364
#     4  11  21  43  64  88 123 165 209 256 311 378
#     4  10  22  39  59  89 121 159 202 254 307 360
#     4  11  23  40  64  91 123 160 202 262 317 364
#     4  10  21  39  60  87 120 160 200 250 307 362
#     4  11  22  40  63  88 123 162 207 253 311 377
#     4  10  21  38  62  85 121 162 202 249 305 368
#
# _framework density 18.899761000000002
#
# number of rings (size 3 to 8) (size 9 to 14) (size 15 to 20)
#    0.000    1.500    2.500    3.000    0.000    7.500 
#    0.000    1.250    0.000    0.000    0.000    0.000 
#    0.000    0.000    0.000    0.000    0.000    0.000 
#
# Total GULP energy -89294.538403 kJ/mol
# GULP energy per Si atom -5580.908650 kJ/mol
# Density = 1.885674 g / cm^3
# Si number density = 18.899761 Si / 1000 Ang^3
#
#
#
# Elastic Constant Matrix: (Units=GPa)
#
#
# Indices 1 2 3 4 5 6 
#
# 1 130.9527 38.3957 37.1015 6.1750 -1.8794 -9.3722
# 2 38.3957 130.0180 36.9074 -6.6221 0.5635 -17.2885
# 3 37.1015 36.9074 93.2705 -15.3753 8.6381 -19.2908
# 4 6.1750 -6.6221 -15.3753 25.0361 -1.5983 1.3436
# 5 -1.8794 0.5635 8.6381 -1.5983 29.4254 0.0508
# 6 -9.3722 -17.2885 -19.2908 1.3436 0.0508 25.1994
#
#
#
# Elastic Compliance Matrix: (Units=1/GPa)
#
#
# Indices 1 2 3 4 5 6 
#
# 1 0.009651 -0.002032 -0.004225 -0.005370 0.001605 -0.000756
# 2 -0.002032 0.009454 -0.001802 0.001686 0.000302 0.004261
# 3 -0.004225 -0.001802 0.017314 0.010362 -0.004772 0.009904
# 4 -0.005370 0.001686 0.010362 0.047779 -0.000830 0.004546
# 5 0.001605 0.000302 -0.004772 -0.000830 0.035442 -0.002876
# 6 -0.000756 0.004261 0.009904 0.004546 -0.002876 0.049670
#
#
# Mechanical properties :
#
#
# Convention : Reuss Voigt Hill
#
# Bulk Modulus (GPa) = 49.25760 64.33895 56.79827
# Shear Modulus (GPa) = 26.01528 32.05461 29.03495
#
# Velocity S-wave (km/s) = 3.71413 4.12276 3.92377
# Velocity P-wave (km/s) = 6.67174 7.53518 7.11657
#
# Compressibility (1/GPa) = 0.02030144
#
# Stress axis : x y z
#
# Youngs Moduli (GPa) = 103.61269 105.77868 57.75771
#
# Poissons Ratio (x) = 0.21491 0.24405
# Poissons Ratio (y) = 0.21051 0.10405
# Poissons Ratio (z) = 0.43781 0.19057
#
# Static dielectric constant tensor:
#      x y z
#    x 1.659500 -0.021280 -0.008850 
#    y -0.021280 1.668420 -0.009280 
#    z -0.008850 -0.009280 1.641340 
# 
# From -- ./inp_files/315110.got.cif
#   From: 2010.05.17/outbox.cif.g08.bks.cpg/sg2_158_cif.got.tgz:315110.got - 2010.06.03 11:33:40.
