data_PCOD9005774
_publ_section_title
;
Structure prediction by ZEFSAII (Michael W. Deem and Ramdas Pophale) SiO2 
 PCOD9005774
Probable space group: P -1
;
_chemical_formula_sum "Si O2"
_cell_formula_units_Z 14
_cell_length_a 11.461748
_cell_length_b 14.929388
_cell_length_c 24.009284
_cell_angle_alpha 162.150102
_cell_angle_beta 151.125413
_cell_angle_gamma 31.790846
_cell_volume 604.352067
_symmetry_space_group_name_H-M "P -1"
_symmetry_group_IT_number 2
_symmetry_cell_setting 'triclinic'
loop_
_space_group_symop_operation_xyz
x,y,z
-x,-y,-z
loop_
_atom_site_type_symbol
_atom_site_label
_atom_site_fract_x
_atom_site_fract_y
_atom_site_fract_z
Si Si1 0.368744 0.414632 0.234773
Si Si2 0.516495 0.621964 0.017109
Si Si3 0.471573 0.275379 0.404756
Si Si4 0.798483 0.106579 0.631131
Si Si5 0.798888 0.211750 0.209366
Si Si6 0.261757 0.898210 0.270479
Si Si7 0.075185 0.541303 0.705838
O O1 0.424219 0.599199 0.421158
O O2 0.186005 0.619732 0.240385
O O3 0.607909 0.329657 0.246498
O O4 0.274907 0.106170 0.028700
O O5 0.586860 0.950057 0.245039
O O6 0.500000 0.500000 0.000000
O O7 0.693866 0.389233 0.919006
O O8 0.258222 0.626948 0.880229
O O9 0.500000 0.500000 0.500000
O O10 0.183124 0.267416 0.288433
O O11 0.823660 0.177399 0.748342
O O12 0.523639 0.019235 0.455837
O O13 0.962241 0.802085 0.506535
O O14 0.801655 0.417438 0.278407
O O15 0.064599 0.139067 0.303765
#
# Coordination Sequence:
#
# PCOD9005774 Si02
#       7
#     2   2   2   2   2   2   2
#     4  11  24  41  62  96 127 159 206 259 310 358
#     4  11  23  40  63  90 126 167 205 246 304 378
#     4  12  26  42  63  92 128 165 208 253 300 370
#     4  10  21  39  66  93 121 155 208 265 307 358
#     4  11  23  41  68  93 124 160 205 263 313 360
#     4  10  21  38  63  93 123 162 206 253 311 365
#     4  11  23  43  67  91 121 165 209 253 311 364
#
# _framework density 23.165305
#
# number of rings (size 3 to 8) (size 9 to 14) (size 15 to 20)
#    0.000    1.143    0.000    8.143    0.000    5.714 
#    0.000    2.143    0.000    0.000    0.000    0.000 
#    0.000    0.000    0.000    0.000    0.000    0.000 
#
# Total GULP energy -78467.916521 kJ/mol
# GULP energy per Si atom -5604.851180 kJ/mol
# Density = 2.311258 g / cm^3
# Si number density = 23.165305 Si / 1000 Ang^3
#
#
#
# Elastic Constant Matrix: (Units=GPa)
#
#
# Indices 1 2 3 4 5 6 
#
# 1 73.9292 23.8989 48.9223 -5.8527 -15.2879 26.8117
# 2 23.8989 87.9153 30.2126 8.0309 -10.6432 22.0086
# 3 48.9223 30.2126 121.2468 21.8862 -27.7212 14.8334
# 4 -5.8527 8.0309 21.8862 49.8245 1.7883 -2.1964
# 5 -15.2879 -10.6432 -27.7212 1.7883 43.4873 -4.6490
# 6 26.8117 22.0086 14.8334 -2.1964 -4.6490 40.8721
#
#
#
# Elastic Compliance Matrix: (Units=1/GPa)
#
#
# Indices 1 2 3 4 5 6 
#
# 1 0.025221 -0.001091 -0.009399 0.006698 0.001042 -0.012068
# 2 -0.001091 0.014158 -0.001622 -0.002026 0.001462 -0.006262
# 3 -0.009399 -0.001622 0.015049 -0.007599 0.006407 0.001898
# 4 0.006698 -0.002026 -0.007599 0.024679 -0.003965 0.000331
# 5 0.001042 0.001462 0.006407 -0.003965 0.027877 -0.000838
# 6 -0.012068 -0.006262 0.001898 0.000331 -0.000838 0.034989
#
#
# Mechanical properties :
#
#
# Convention : Reuss Voigt Hill
#
# Bulk Modulus (GPa) = 33.10698 54.35100 43.72899
# Shear Modulus (GPa) = 28.36647 38.84061 33.60354
#
# Velocity S-wave (km/s) = 3.50312 4.09916 3.81280
# Velocity P-wave (km/s) = 5.53941 6.77623 6.18880
#
# Compressibility (1/GPa) = 0.03020511
#
# Stress axis : x y z
#
# Youngs Moduli (GPa) = 39.64898 70.63048 66.45101
#
# Poissons Ratio (x) = 0.07703 0.62458
# Poissons Ratio (y) = 0.04324 0.10777
# Poissons Ratio (z) = 0.37267 0.11455
#
# Static dielectric constant tensor:
#      x y z
#    x 1.829000 -0.026790 0.016770 
#    y -0.026790 1.845460 0.006270 
#    z 0.016770 0.006270 1.881480 
# 
# From -- ./inp_files/610575.got.cif
#   From: 2010.05.17/outbox.cif.g08.bks.cpg/sg2_306_cif.got.tgz:610575.got - 2010.06.03 11:33:40.
