data_PCOD9005106
_publ_section_title
;
Structure prediction by ZEFSAII (Michael W. Deem and Ramdas Pophale) SiO2 
 PCOD9005106
Probable space group: P -1
;
_chemical_formula_sum "Si O2"
_cell_formula_units_Z 16
_cell_length_a 14.119320
_cell_length_b 13.087821
_cell_length_c 8.831257
_cell_angle_alpha 105.111312
_cell_angle_beta 82.842663
_cell_angle_gamma 31.058888
_cell_volume 581.660110
_symmetry_space_group_name_H-M "P -1"
_symmetry_group_IT_number 2
_symmetry_cell_setting 'triclinic'
loop_
_space_group_symop_operation_xyz
x,y,z
-x,-y,-z
loop_
_atom_site_type_symbol
_atom_site_label
_atom_site_fract_x
_atom_site_fract_y
_atom_site_fract_z
Si Si1 0.592788 0.329866 0.745182
Si Si2 0.521286 0.754378 0.098594
Si Si3 0.025876 0.702464 0.732757
Si Si4 0.897426 0.060903 0.866419
Si Si5 0.249403 0.361638 0.260602
Si Si6 0.314361 0.792529 0.652826
Si Si7 0.746574 0.912178 0.121406
Si Si8 0.725885 0.847840 0.436231
O O1 0.432743 0.405830 0.897437
O O2 0.826540 0.122263 0.726433
O O3 0.698340 0.171488 0.510421
O O4 0.386830 0.636427 0.887079
O O5 0.414728 0.935605 0.325888
O O6 0.271130 0.995150 0.138008
O O7 0.723384 0.594033 0.878498
O O8 0.169669 0.501850 0.487293
O O9 0.073975 0.777897 0.760718
O O10 0.013309 0.655583 0.877456
O O11 0.054686 0.004673 0.842221
O O12 0.549363 0.033548 0.121953
O O13 0.005954 0.537069 0.338015
O O14 0.500000 0.500000 0.500000
O O15 0.360820 0.856165 0.749848
O O16 0.785835 0.833384 0.253185
O O17 0.500000 0.000000 0.500000
#
# Coordination Sequence:
#
# PCOD9005106 Si02
#       8
#     2   2   2   2   2   2   2   2
#     4  10  21  38  60  91 128 178 224 269 323 381
#     4   9  20  41  66  93 129 169 219 263 331 396
#     4   9  20  40  62  94 133 176 216 261 322 384
#     4  10  22  36  59  90 134 176 226 268 311 385
#     4  10  23  44  69  93 135 175 206 279 332 390
#     4  12  24  37  58  95 136 176 225 271 319 389
#     4  11  24  42  66  99 131 173 221 265 335 392
#     4  11  25  46  72 101 127 164 222 277 335 407
#
# _framework density 27.507470999999999
#
# number of rings (size 3 to 8) (size 9 to 14) (size 15 to 20)
#    0.000    1.750    1.250    1.875    1.750    9.000 
#    0.000    5.625    0.000    0.000    0.000    0.000 
#    0.000    0.000    0.000    0.000    0.000    0.000 
#
# Total GULP energy -89441.772455 kJ/mol
# GULP energy per Si atom -5590.110778 kJ/mol
# Density = 2.744486 g / cm^3
# Si number density = 27.507471 Si / 1000 Ang^3
#
#
#
# Elastic Constant Matrix: (Units=GPa)
#
#
# Indices 1 2 3 4 5 6 
#
# 1 116.8346 34.0853 35.1335 -8.3597 -5.8076 -31.8129
# 2 34.0853 98.0499 34.3408 -6.0509 -1.0592 -22.8585
# 3 35.1335 34.3408 149.2739 -32.5031 -1.6773 5.1449
# 4 -8.3597 -6.0509 -32.5031 60.2939 -3.7788 -2.5182
# 5 -5.8076 -1.0592 -1.6773 -3.7788 45.9417 -6.8371
# 6 -31.8129 -22.8585 5.1449 -2.5182 -6.8371 42.9482
#
#
#
# Elastic Compliance Matrix: (Units=1/GPa)
#
#
# Indices 1 2 3 4 5 6 
#
# 1 0.012523 -0.001050 -0.002856 0.000675 0.002934 0.009566
# 2 -0.001050 0.013214 -0.003038 -0.000107 0.001062 0.006782
# 3 -0.002856 -0.003038 0.009091 0.003976 -0.000466 -0.004662
# 4 0.000675 -0.000107 0.003976 0.018995 0.001999 0.001398
# 5 0.002934 0.001062 -0.000466 0.001999 0.023295 0.006619
# 6 0.009566 0.006782 -0.004662 0.001398 0.006619 0.035674
#
#
# Mechanical properties :
#
#
# Convention : Reuss Voigt Hill
#
# Bulk Modulus (GPa) = 47.75270 63.47527 55.61399
# Shear Modulus (GPa) = 37.40868 47.21000 42.30934
#
# Velocity S-wave (km/s) = 3.69175 4.14727 3.92612
# Velocity P-wave (km/s) = 5.96402 6.78667 6.38860
#
# Compressibility (1/GPa) = 0.02094123
#
# Stress axis : x y z
#
# Youngs Moduli (GPa) = 79.85323 75.67887 109.99447
#
# Poissons Ratio (x) = 0.07944 0.31412
# Poissons Ratio (y) = 0.08382 0.33416
# Poissons Ratio (z) = 0.22804 0.22991
#
# Static dielectric constant tensor:
#      x y z
#    x 2.170540 0.075700 -0.066870 
#    y 0.075700 2.226560 -0.077580 
#    z -0.066870 -0.077580 2.206000 
# 
# From -- ./inp_files/124648.got.cif
#   From: 2010.05.17/outbox.cif.g08.bks.cpg/sg2_63_cif.got.tgz:124648.got - 2010.06.03 11:33:40.
