data_PCOD9005378
_publ_section_title
;
Structure prediction by ZEFSAII (Michael W. Deem and Ramdas Pophale) SiO2 
 PCOD9005378
Probable space group: P -1
;
_chemical_formula_sum "Si O2"
_cell_formula_units_Z 14
_cell_length_a 19.053843
_cell_length_b 17.852942
_cell_length_c 12.221307
_cell_angle_alpha 36.515823
_cell_angle_beta 161.141280
_cell_angle_gamma 151.885494
_cell_volume 620.013193
_symmetry_space_group_name_H-M "P -1"
_symmetry_group_IT_number 2
_symmetry_cell_setting 'triclinic'
loop_
_space_group_symop_operation_xyz
x,y,z
-x,-y,-z
loop_
_atom_site_type_symbol
_atom_site_label
_atom_site_fract_x
_atom_site_fract_y
_atom_site_fract_z
Si Si1 0.174841 0.939834 0.301593
Si Si2 0.179938 0.893139 0.617634
Si Si3 0.869012 0.969561 0.220402
Si Si4 0.236852 0.786144 0.200834
Si Si5 0.684228 0.438685 0.843138
Si Si6 0.762857 0.317186 0.325415
Si Si7 0.183159 0.674796 0.012055
O O1 0.202954 0.903407 0.511156
O O2 0.107900 0.775542 0.350134
O O3 0.433172 0.087748 0.436536
O O4 0.000000 0.000000 0.000000
O O5 0.039170 0.958323 0.393025
O O6 0.033981 0.715299 0.660993
O O7 0.500000 0.000000 0.000000
O O8 0.546687 0.805227 0.934575
O O9 0.000000 0.000000 0.500000
O O10 0.877553 0.121775 0.039118
O O11 0.258554 0.782930 0.103462
O O12 0.011679 0.601793 0.123735
O O13 0.500000 0.500000 0.500000
O O14 0.605493 0.327035 0.750374
O O15 0.677854 0.342422 0.049966
O O16 0.000000 0.500000 0.500000
O O17 0.000000 0.500000 0.000000
#
# Coordination Sequence:
#
# PCOD9005378 Si02
#       7
#     2   2   2   2   2   2   2
#     4  11  25  46  66  92 132 185 229 272 335 411
#     4  12  22  40  70  98 127 172 225 283 335 395
#     4  11  22  40  70 100 129 173 226 277 334 404
#     4  10  22  40  64  96 134 163 223 283 331 399
#     4  11  24  39  69 100 133 177 223 280 344 399
#     4  11  26  47  66  99 141 179 227 284 342 405
#     4  10  21  38  61  99 134 158 218 281 336 381
#
# _framework density 22.580165000000001
#
# number of rings (size 3 to 8) (size 9 to 14) (size 15 to 20)
#    0.000    1.143    4.286    1.714    4.000    3.429 
#    2.571    4.286    0.000    0.000    0.000    0.000 
#    0.000    0.000    0.000    0.000    0.000    0.000 
#
# Total GULP energy -77934.071273 kJ/mol
# GULP energy per Si atom -5566.719377 kJ/mol
# Density = 2.252877 g / cm^3
# Si number density = 22.580165 Si / 1000 Ang^3
#
#
#
# Elastic Constant Matrix: (Units=GPa)
#
#
# Indices 1 2 3 4 5 6 
#
# 1 62.9298 26.3089 -1.7110 1.0097 19.4519 -6.2591
# 2 26.3089 151.9062 48.7262 3.2851 28.3169 6.0198
# 3 -1.7110 48.7262 60.4177 -13.0771 21.5812 -13.9528
# 4 1.0097 3.2851 -13.0771 39.6060 -5.4898 5.1688
# 5 19.4519 28.3169 21.5812 -5.4898 39.2797 -15.8863
# 6 -6.2591 6.0198 -13.9528 5.1688 -15.8863 46.0820
#
#
#
# Elastic Compliance Matrix: (Units=1/GPa)
#
#
# Indices 1 2 3 4 5 6 
#
# 1 0.021882 -0.004761 0.009304 0.001018 -0.011419 0.002360
# 2 -0.004761 0.011809 -0.010785 -0.004074 -0.003278 -0.006128
# 3 0.009304 -0.010785 0.033082 0.009076 -0.010481 0.008058
# 4 0.001018 -0.004074 0.009076 0.028699 0.001787 0.000815
# 5 -0.011419 -0.003278 -0.010481 0.001787 0.043768 0.010592
# 6 0.002360 -0.006128 0.008058 0.000815 0.010592 0.028821
#
#
# Mechanical properties :
#
#
# Convention : Reuss Voigt Hill
#
# Bulk Modulus (GPa) = 18.41999 46.87798 32.64899
# Shear Modulus (GPa) = 25.17106 38.45549 31.81327
#
# Velocity S-wave (km/s) = 3.34240 4.13130 3.75761
# Velocity P-wave (km/s) = 4.80321 6.60020 5.77206
#
# Compressibility (1/GPa) = 0.05428885
#
# Stress axis : x y z
#
# Youngs Moduli (GPa) = 45.69924 84.68261 30.22821
#
# Poissons Ratio (x) = 0.40318 -0.28124
# Poissons Ratio (y) = 0.21758 0.32600
# Poissons Ratio (z) = -0.42517 0.91326
#
# Static dielectric constant tensor:
#      x y z
#    x 2.389020 -0.054430 -0.175250 
#    y -0.054430 1.917810 0.036780 
#    z -0.175250 0.036780 1.929640 
# 
# From -- ./inp_files/466594.got.cif
#   From: 2010.05.17/outbox.cif.g08.bks.cpg/sg2_234_cif.got.tgz:466594.got - 2010.06.03 11:33:40.
