data_PCOD9005995
_publ_section_title
;
Structure prediction by ZEFSAII (Michael W. Deem and Ramdas Pophale) SiO2 
 PCOD9005995
Probable space group: P -1
;
_chemical_formula_sum "Si O2"
_cell_formula_units_Z 16
_cell_length_a 11.171296
_cell_length_b 9.720054
_cell_length_c 12.342207
_cell_angle_alpha 43.749527
_cell_angle_beta 85.570496
_cell_angle_gamma 62.013459
_cell_volume 739.376132
_symmetry_space_group_name_H-M "P -1"
_symmetry_group_IT_number 2
_symmetry_cell_setting 'triclinic'
loop_
_space_group_symop_operation_xyz
x,y,z
-x,-y,-z
loop_
_atom_site_type_symbol
_atom_site_label
_atom_site_fract_x
_atom_site_fract_y
_atom_site_fract_z
Si Si1 0.501258 0.891600 0.727598
Si Si2 0.357655 0.165596 0.779307
Si Si3 0.934371 0.722731 0.034351
Si Si4 0.543689 0.270633 0.395597
Si Si5 0.385245 0.824089 0.167592
Si Si6 0.976062 0.473447 0.390941
Si Si7 0.146326 0.944922 0.576955
Si Si8 0.816043 0.468957 0.049712
O O1 0.483032 0.743704 0.721670
O O2 0.368157 0.034418 0.741985
O O3 0.504805 0.103243 0.550819
O O4 0.656578 0.703951 0.886064
O O5 0.491040 0.194004 0.754670
O O6 0.197375 0.425643 0.660839
O O7 0.380883 0.979762 0.977268
O O8 0.980399 0.643244 0.202014
O O9 0.884909 0.558299 0.080104
O O10 0.070151 0.660063 0.985793
O O11 0.784904 0.005030 0.875084
O O12 0.445616 0.549846 0.286120
O O13 0.720787 0.138632 0.468265
O O14 0.000000 0.500000 0.500000
O O15 0.092839 0.194728 0.500202
O O16 0.203530 0.720243 0.782469
O O17 0.000000 0.000000 0.500000
#
# Coordination Sequence:
#
# PCOD9005995 Si02
#       8
#     2   2   2   2   2   2   2   2
#     4  11  24  44  63  93 132 176 211 266 329 378
#     4  10  21  38  64  91 127 167 209 262 325 378
#     4  10  22  42  65  95 130 167 213 267 326 383
#     4  11  26  41  64  96 135 168 217 268 320 393
#     4  10  21  40  65  93 124 163 214 269 316 382
#     4  11  23  40  63  95 134 169 208 268 328 385
#     4  12  24  41  67  99 127 174 223 264 321 395
#     4  11  23  41  69  93 127 173 217 268 318 389
#
# _framework density 21.639866999999999
#
# number of rings (size 3 to 8) (size 9 to 14) (size 15 to 20)
#    0.000    1.250    2.500    3.000    3.500    6.500 
#    0.000    1.250    0.000    0.000    0.000    0.000 
#    0.000    0.000    0.000    0.000    0.000    0.000 
#
# Total GULP energy -89478.891149 kJ/mol
# GULP energy per Si atom -5592.430697 kJ/mol
# Density = 2.159061 g / cm^3
# Si number density = 21.639867 Si / 1000 Ang^3
#
#
#
# Elastic Constant Matrix: (Units=GPa)
#
#
# Indices 1 2 3 4 5 6 
#
# 1 40.7336 10.5427 2.0520 -7.3786 5.8322 -4.9127
# 2 10.5427 112.9264 26.2441 -20.2107 6.6130 -13.1671
# 3 2.0520 26.2441 49.9175 -14.4000 9.4686 12.5571
# 4 -7.3786 -20.2107 -14.4000 51.3483 4.2033 5.0551
# 5 5.8322 6.6130 9.4686 4.2033 10.0404 -0.8560
# 6 -4.9127 -13.1671 12.5571 5.0551 -0.8560 32.3968
#
#
#
# Elastic Compliance Matrix: (Units=1/GPa)
#
#
# Indices 1 2 3 4 5 6 
#
# 1 0.029674 -0.001555 0.007017 0.007838 -0.026177 -0.000766
# 2 -0.001555 0.011892 -0.007604 0.001590 0.000199 0.007302
# 3 0.007017 -0.007604 0.043485 0.016452 -0.048902 -0.022741
# 4 0.007838 0.001590 0.016452 0.029647 -0.034385 -0.010077
# 5 -0.026177 0.000199 -0.048902 -0.034385 0.177325 0.025117
# 6 -0.000766 0.007302 -0.022741 -0.010077 0.025117 0.044769
#
#
# Mechanical properties :
#
#
# Convention : Reuss Voigt Hill
#
# Bulk Modulus (GPa) = 12.38138 31.25057 21.81598
# Shear Modulus (GPa) = 13.58695 29.73967 21.66331
#
# Velocity S-wave (km/s) = 2.50844 3.71118 3.16742
# Velocity P-wave (km/s) = 3.75815 5.73030 4.84562
#
# Compressibility (1/GPa) = 0.08076643
#
# Stress axis : x y z
#
# Youngs Moduli (GPa) = 33.69954 84.09010 22.99629
#
# Poissons Ratio (x) = 0.13073 -0.16136
# Poissons Ratio (y) = 0.05239 0.17487
# Poissons Ratio (z) = -0.23646 0.63946
#
# Static dielectric constant tensor:
#      x y z
#    x 1.785030 0.013110 0.030610 
#    y 0.013110 1.782390 0.030580 
#    z 0.030610 0.030580 1.773400 
# 
# From -- ./inp_files/262135.got.cif
#   From: 2010.05.17/outbox.cif.g08.bks.cpg/sg2_132_cif.got.tgz:262135.got - 2010.06.03 11:33:40.
