data_PCOD9005480
_publ_section_title
;
Structure prediction by ZEFSAII (Michael W. Deem and Ramdas Pophale) SiO2 
 PCOD9005480
Probable space group: P -1
;
_chemical_formula_sum "Si O2"
_cell_formula_units_Z 16
_cell_length_a 19.870296
_cell_length_b 17.172618
_cell_length_c 8.554758
_cell_angle_alpha 45.942918
_cell_angle_beta 133.042472
_cell_angle_gamma 159.872828
_cell_volume 716.663118
_symmetry_space_group_name_H-M "P -1"
_symmetry_group_IT_number 2
_symmetry_cell_setting 'triclinic'
loop_
_space_group_symop_operation_xyz
x,y,z
-x,-y,-z
loop_
_atom_site_type_symbol
_atom_site_label
_atom_site_fract_x
_atom_site_fract_y
_atom_site_fract_z
Si Si1 0.745835 0.944194 0.967809
Si Si2 0.443857 0.897414 0.806359
Si Si3 0.569100 0.225758 0.340767
Si Si4 0.695571 0.454667 0.516290
Si Si5 0.779344 0.296847 0.986299
Si Si6 0.644382 0.731366 0.808965
Si Si7 0.387862 0.451648 0.258248
Si Si8 0.072601 0.199577 0.335107
O O1 0.656248 0.966599 0.753545
O O2 0.791724 0.930307 0.897082
O O3 0.553728 0.686937 0.096978
O O4 0.908344 0.105522 0.132223
O O5 0.368148 0.730736 0.796781
O O6 0.552004 0.098232 0.589522
O O7 0.621639 0.054467 0.987902
O O8 0.269043 0.761893 0.824848
O O9 0.702558 0.442850 0.356624
O O10 0.721231 0.361651 0.761880
O O11 0.489894 0.307471 0.411317
O O12 0.853649 0.690067 0.531369
O O13 0.000000 0.500000 0.000000
O O14 0.717147 0.738650 0.765738
O O15 0.500000 0.500000 0.000000
O O16 0.500000 0.500000 0.500000
O O17 0.247204 0.381429 0.232294
O O18 0.000000 0.000000 0.500000
#
# Coordination Sequence:
#
# PCOD9005480 Si02
#       8
#     2   2   2   2   2   2   2   2
#     4  10  22  37  60  88 119 158 209 256 305 376
#     4   9  20  42  66  88 127 162 205 256 323 377
#     4   9  20  41  64  91 124 168 203 260 318 375
#     4  10  21  38  62  90 126 164 211 254 314 370
#     4  10  22  40  66  98 126 160 207 268 313 378
#     4   9  18  38  58  81 121 159 201 254 304 358
#     4  11  20  37  61  83 118 169 202 257 316 351
#     4  12  23  38  60  92 125 162 214 258 298 373
#
# _framework density 22.325690000000002
#
# number of rings (size 3 to 8) (size 9 to 14) (size 15 to 20)
#    0.000    2.000    2.500    0.750    3.500    0.500 
#    0.000   13.125    0.000    0.000    0.000    0.000 
#    0.000    0.000    0.000    0.000    0.000    0.000 
#
# Total GULP energy -89186.168585 kJ/mol
# GULP energy per Si atom -5574.135537 kJ/mol
# Density = 2.227488 g / cm^3
# Si number density = 22.325690 Si / 1000 Ang^3
#
#
#
# Elastic Constant Matrix: (Units=GPa)
#
#
# Indices 1 2 3 4 5 6 
#
# 1 128.8088 52.7140 23.9920 16.7537 -42.0960 -21.7300
# 2 52.7140 76.9507 18.0664 21.2349 -22.3119 -9.9420
# 3 23.9920 18.0664 61.3829 12.7842 -4.2193 -12.2192
# 4 16.7537 21.2349 12.7842 32.6933 -7.3799 -8.9613
# 5 -42.0960 -22.3119 -4.2193 -7.3799 39.6707 11.4190
# 6 -21.7300 -9.9420 -12.2192 -8.9613 11.4190 39.3499
#
#
#
# Elastic Compliance Matrix: (Units=1/GPa)
#
#
# Indices 1 2 3 4 5 6 
#
# 1 0.014863 -0.006055 -0.002871 0.000744 0.011440 0.002636
# 2 -0.006055 0.021150 -0.001995 -0.009474 0.004058 -0.001955
# 3 -0.002871 -0.001995 0.019506 -0.004670 -0.004145 0.004107
# 4 0.000744 -0.009474 -0.004670 0.039853 0.000823 0.005404
# 5 0.011440 0.004058 -0.004145 0.000823 0.040967 -0.005645
# 6 0.002636 -0.001955 0.004107 0.005404 -0.005645 0.030519
#
#
# Mechanical properties :
#
#
# Convention : Reuss Voigt Hill
#
# Bulk Modulus (GPa) = 29.69468 50.74302 40.21885
# Shear Modulus (GPa) = 25.00923 33.83411 29.42167
#
# Velocity S-wave (km/s) = 3.35057 3.89714 3.63414
# Velocity P-wave (km/s) = 5.31958 6.55958 5.97185
#
# Compressibility (1/GPa) = 0.03367606
#
# Stress axis : x y z
#
# Youngs Moduli (GPa) = 67.28126 47.28050 51.26664
#
# Poissons Ratio (x) = 0.28630 0.14719
# Poissons Ratio (y) = 0.40741 0.10229
# Poissons Ratio (z) = 0.19316 0.09434
#
# Static dielectric constant tensor:
#      x y z
#    x 1.819120 -0.021270 -0.256080 
#    y -0.021270 1.888240 -0.038040 
#    z -0.256080 -0.038040 1.130200 
# 
# From -- ./inp_files/117134.got.cif
#   From: 2010.05.17/outbox.cif.g08.bks.cpg/sg2_59_cif.got.tgz:117134.got - 2010.06.03 11:33:40.
