data_PCOD9005437
_publ_section_title
;
Structure prediction by ZEFSAII (Michael W. Deem and Ramdas Pophale) SiO2 
 PCOD9005437
Probable space group: P -1
;
_chemical_formula_sum "Si O2"
_cell_formula_units_Z 16
_cell_length_a 6.581041
_cell_length_b 7.609724
_cell_length_c 19.442066
_cell_angle_alpha 70.524953
_cell_angle_beta 134.687761
_cell_angle_gamma 99.831542
_cell_volume 649.662396
_symmetry_space_group_name_H-M "P -1"
_symmetry_group_IT_number 2
_symmetry_cell_setting 'triclinic'
loop_
_space_group_symop_operation_xyz
x,y,z
-x,-y,-z
loop_
_atom_site_type_symbol
_atom_site_label
_atom_site_fract_x
_atom_site_fract_y
_atom_site_fract_z
Si Si1 0.783346 0.091866 0.036128
Si Si2 0.784133 0.865100 0.703298
Si Si3 0.399111 0.000253 0.214847
Si Si4 0.130880 0.695971 0.345505
Si Si5 0.421284 0.621784 0.568804
Si Si6 0.615547 0.260591 0.111421
Si Si7 0.407585 0.403781 0.720240
Si Si8 0.965028 0.378665 0.938979
O O1 0.773422 0.230743 0.079516
O O2 0.825301 0.197996 0.961970
O O3 0.069105 0.955507 0.130988
O O4 0.500000 0.000000 0.000000
O O5 0.578386 0.803979 0.602576
O O6 0.075588 0.723947 0.779830
O O7 0.615216 0.875469 0.735626
O O8 0.866106 0.080937 0.693056
O O9 0.571737 0.799665 0.284914
O O10 0.495380 0.113226 0.156683
O O11 0.219963 0.660902 0.450787
O O12 0.355389 0.558107 0.374191
O O13 0.816931 0.626700 0.268807
O O14 0.290537 0.558943 0.617669
O O15 0.297672 0.349303 0.999028
O O16 0.717547 0.448687 0.817300
O O17 0.000000 0.500000 0.000000
#
# Coordination Sequence:
#
# PCOD9005437 Si02
#       8
#     2   2   2   2   2   2   2   2
#     4  10  21  38  62  88 126 177 231 267 322 400
#     4  11  23  44  74  99 139 182 226 282 347 405
#     4  10  21  39  66  98 132 178 225 275 334 410
#     4  11  25  49  71 104 134 180 232 285 354 405
#     4  11  27  45  73 103 137 175 236 291 338 416
#     4  10  22  41  63  94 134 180 226 270 329 411
#     4  12  24  44  70  96 144 182 222 288 351 400
#     4  11  27  40  61 101 143 177 229 283 336 407
#
# _framework density 24.628177999999998
#
# number of rings (size 3 to 8) (size 9 to 14) (size 15 to 20)
#    0.000    1.250    2.500    2.250    8.750    3.500 
#    0.000    0.625    0.000    0.000    0.000    0.000 
#    0.000    0.000    0.000    0.000    0.000    0.000 
#
# Total GULP energy -89093.961963 kJ/mol
# GULP energy per Si atom -5568.372623 kJ/mol
# Density = 2.457212 g / cm^3
# Si number density = 24.628178 Si / 1000 Ang^3
#
#
#
# Elastic Constant Matrix: (Units=GPa)
#
#
# Indices 1 2 3 4 5 6 
#
# 1 109.2370 24.6891 16.2775 1.6894 8.7027 1.3782
# 2 24.6891 78.4502 17.4617 10.2359 -1.1744 1.1270
# 3 16.2775 17.4617 61.2238 11.3446 -4.9936 1.5385
# 4 1.6894 10.2359 11.3446 30.8222 0.6899 -3.0055
# 5 8.7027 -1.1744 -4.9936 0.6899 39.6451 -4.7784
# 6 1.3782 1.1270 1.5385 -3.0055 -4.7784 35.8070
#
#
#
# Elastic Compliance Matrix: (Units=1/GPa)
#
#
# Indices 1 2 3 4 5 6 
#
# 1 0.010377 -0.002941 -0.002372 0.001298 -0.002742 -0.000462
# 2 -0.002941 0.014781 -0.002650 -0.003834 0.000761 -0.000458
# 3 -0.002372 -0.002650 0.019116 -0.006166 0.002863 -0.000782
# 4 0.001298 -0.003834 -0.006166 0.036259 -0.001422 0.003189
# 5 -0.002742 0.000761 0.002863 -0.001422 0.026643 0.003395
# 6 -0.000462 -0.000458 -0.000782 0.003189 0.003395 0.028714
#
#
# Mechanical properties :
#
#
# Convention : Reuss Voigt Hill
#
# Bulk Modulus (GPa) = 35.27780 40.64085 37.95933
# Shear Modulus (GPa) = 31.00500 33.95372 32.47936
#
# Velocity S-wave (km/s) = 3.55198 3.71705 3.63545
# Velocity P-wave (km/s) = 5.58367 5.91266 5.75052
#
# Compressibility (1/GPa) = 0.02834643
#
# Stress axis : x y z
#
# Youngs Moduli (GPa) = 96.36748 67.65631 52.31297
#
# Poissons Ratio (x) = 0.19900 0.12411
# Poissons Ratio (y) = 0.28345 0.13861
# Poissons Ratio (z) = 0.22863 0.17926
#
# Static dielectric constant tensor:
#      x y z
#    x 2.006530 -0.100120 0.016220 
#    y -0.100120 2.500620 -0.000460 
#    z 0.016220 -0.000460 2.023380 
# 
# From -- ./inp_files/346532.got.cif
#   From: 2010.05.17/outbox.cif.g08.bks.cpg/sg2_174_cif.got.tgz:346532.got - 2010.06.03 11:33:40.
