data_PCOD9005725
_publ_section_title
;
Structure prediction by ZEFSAII (Michael W. Deem and Ramdas Pophale) SiO2 
 PCOD9005725
Probable space group: P -1
;
_chemical_formula_sum "Si O2"
_cell_formula_units_Z 16
_cell_length_a 22.573484
_cell_length_b 5.334425
_cell_length_c 27.401570
_cell_angle_alpha 109.713739
_cell_angle_beta 168.422294
_cell_angle_gamma 71.001642
_cell_volume 623.195527
_symmetry_space_group_name_H-M "P -1"
_symmetry_group_IT_number 2
_symmetry_cell_setting 'triclinic'
loop_
_space_group_symop_operation_xyz
x,y,z
-x,-y,-z
loop_
_atom_site_type_symbol
_atom_site_label
_atom_site_fract_x
_atom_site_fract_y
_atom_site_fract_z
Si Si1 0.666234 0.283851 0.152734
Si Si2 0.304006 0.259905 0.618791
Si Si3 0.256583 0.023369 0.990621
Si Si4 0.769549 0.350009 0.744236
Si Si5 0.316690 0.779063 0.433099
Si Si6 0.571947 0.697020 0.936219
Si Si7 0.839266 0.547298 0.592106
Si Si8 0.714225 0.275052 0.802140
O O1 0.645126 0.354035 0.197478
O O2 0.986075 0.241183 0.385944
O O3 0.500000 0.500000 0.000000
O O4 0.500000 0.000000 0.000000
O O5 0.470655 0.495276 0.798586
O O6 0.264789 0.340329 0.536553
O O7 0.506049 0.006584 0.777075
O O8 0.010866 0.249068 0.810886
O O9 0.422729 0.031272 0.072905
O O10 0.032195 0.773648 0.790355
O O11 0.476297 0.507251 0.531730
O O12 0.743794 0.134129 0.666730
O O13 0.844253 0.235020 0.850006
O O14 0.012050 0.580295 0.940531
O O15 0.536456 0.996416 0.649973
O O16 0.909666 0.670626 0.226153
O O17 0.545576 0.509442 0.384612
#
# Coordination Sequence:
#
# PCOD9005725 Si02
#       8
#     2   2   2   2   2   2   2   2
#     4  12  27  48  77 106 147 192 235 293 362 424
#     4  11  25  44  70 103 136 182 233 280 357 423
#     4  10  24  42  66 101 133 183 226 292 348 424
#     4  10  21  38  63  91 125 177 229 276 359 418
#     4  10  21  41  60  92 134 169 227 291 351 409
#     4  11  24  43  73  99 141 176 236 284 348 417
#     4  10  22  44  64  97 138 176 227 289 348 415
#     4  10  21  39  61  92 128 174 226 284 345 423
#
# _framework density 25.674126000000001
#
# number of rings (size 3 to 8) (size 9 to 14) (size 15 to 20)
#    0.000    1.500    1.250    2.625    5.250    1.500 
#   15.750    0.000    0.000    0.000    0.000    0.000 
#    0.000    0.000    0.000    0.000    0.000    0.000 
#
# Total GULP energy -89339.660541 kJ/mol
# GULP energy per Si atom -5583.728784 kJ/mol
# Density = 2.561569 g / cm^3
# Si number density = 25.674126 Si / 1000 Ang^3
#
#
#
# Elastic Constant Matrix: (Units=GPa)
#
#
# Indices 1 2 3 4 5 6 
#
# 1 126.0863 10.8228 45.9696 8.0535 8.4727 3.7487
# 2 10.8228 75.3981 40.3403 7.5611 0.6442 4.1101
# 3 45.9696 40.3403 170.8825 0.2798 3.2771 4.1803
# 4 8.0535 7.5611 0.2798 32.3827 3.8296 0.4659
# 5 8.4727 0.6442 3.2771 3.8296 40.5602 1.5026
# 6 3.7487 4.1101 4.1803 0.4659 1.5026 34.4350
#
#
#
# Elastic Compliance Matrix: (Units=1/GPa)
#
#
# Indices 1 2 3 4 5 6 
#
# 1 0.009055 0.000271 -0.002453 -0.002110 -0.001475 -0.000627
# 2 0.000271 0.015672 -0.003740 -0.003721 0.000400 -0.001413
# 3 -0.002453 -0.003740 0.007400 0.001440 -0.000155 -0.000198
# 4 -0.002110 -0.003721 0.001440 0.032579 -0.002699 0.000176
# 5 -0.001475 0.000400 -0.000155 -0.002699 0.025258 -0.000934
# 6 -0.000627 -0.001413 -0.000198 0.000176 -0.000934 0.029340
#
#
# Mechanical properties :
#
#
# Convention : Reuss Voigt Hill
#
# Bulk Modulus (GPa) = 49.30043 62.95912 56.12978
# Shear Modulus (GPa) = 36.25643 39.82452 38.04048
#
# Velocity S-wave (km/s) = 3.76197 3.94274 3.85342
# Velocity P-wave (km/s) = 6.17365 6.73072 6.45820
#
# Compressibility (1/GPa) = 0.02028380
#
# Stress axis : x y z
#
# Youngs Moduli (GPa) = 110.44099 63.80977 135.13493
#
# Poissons Ratio (x) = -0.01729 0.33144
# Poissons Ratio (y) = -0.02993 0.50534
# Poissons Ratio (z) = 0.27088 0.23862
#
# Static dielectric constant tensor:
#      x y z
#    x 2.207050 0.114720 -0.024850 
#    y 0.114720 2.248810 -0.096760 
#    z -0.024850 -0.096760 2.035560 
# 
# From -- ./inp_files/624113.got.cif
#   From: 2010.05.17/outbox.cif.g08.bks.cpg/sg2_313_cif.got.tgz:624113.got - 2010.06.03 11:33:40.
