data_PCOD9005946
_publ_section_title
;
Structure prediction by ZEFSAII (Michael W. Deem and Ramdas Pophale) SiO2 
 PCOD9005946
Probable space group: P -1
;
_chemical_formula_sum "Si O2"
_cell_formula_units_Z 16
_cell_length_a 20.945219
_cell_length_b 9.343204
_cell_length_c 18.055874
_cell_angle_alpha 150.071799
_cell_angle_beta 30.198374
_cell_angle_gamma 150.447056
_cell_volume 777.109322
_symmetry_space_group_name_H-M "P -1"
_symmetry_group_IT_number 2
_symmetry_cell_setting 'triclinic'
loop_
_space_group_symop_operation_xyz
x,y,z
-x,-y,-z
loop_
_atom_site_type_symbol
_atom_site_label
_atom_site_fract_x
_atom_site_fract_y
_atom_site_fract_z
Si Si1 0.508454 0.774326 0.217176
Si Si2 0.811272 0.891247 0.553996
Si Si3 0.272044 0.168820 0.092967
Si Si4 0.589976 0.396812 0.093816
Si Si5 0.908220 0.546226 0.677603
Si Si6 0.937209 0.693490 0.873267
Si Si7 0.526700 0.271885 0.533397
Si Si8 0.895324 0.087504 0.716515
O O1 0.374507 0.502071 0.183999
O O2 0.549627 0.575385 0.148002
O O3 0.481755 0.052974 0.406480
O O4 0.637569 0.925583 0.095963
O O5 0.696012 0.543643 0.482267
O O6 0.981000 0.000358 0.423747
O O7 0.797954 0.183516 0.658012
O O8 0.794726 0.879003 0.654980
O O9 0.167357 0.256415 0.190316
O O10 0.191234 0.915952 0.126123
O O11 0.550872 0.526483 0.266971
O O12 0.761880 0.526860 0.975751
O O13 0.500000 0.000000 0.000000
O O14 0.990013 0.738406 0.756035
O O15 0.000000 0.500000 0.500000
O O16 0.980191 0.441971 0.754608
O O17 0.000000 0.000000 0.000000
O O18 0.500000 0.000000 0.500000
#
# Coordination Sequence:
#
# PCOD9005946 Si02
#       8
#     2   2   2   2   2   2   2   2
#     4  10  23  39  64  91 129 170 217 270 315 391
#     4  10  21  39  63  93 123 166 217 266 317 402
#     4  11  21  41  66  91 128 175 221 258 330 393
#     4  11  21  41  69  92 129 170 218 266 328 395
#     4  11  22  42  65  95 131 172 210 271 332 392
#     4  11  25  41  64  98 130 167 219 273 324 389
#     4  10  22  38  63  92 123 164 218 267 325 373
#     4  10  21  38  64  89 125 168 215 256 326 398
#
# _framework density 20.589124000000002
#
# number of rings (size 3 to 8) (size 9 to 14) (size 15 to 20)
#    0.000    1.500    2.500    3.750    3.500    1.000 
#    2.250    1.875    0.000    0.000    0.000    0.000 
#    0.000    0.000    0.000    0.000    0.000    0.000 
#
# Total GULP energy -89258.956373 kJ/mol
# GULP energy per Si atom -5578.684773 kJ/mol
# Density = 2.054226 g / cm^3
# Si number density = 20.589124 Si / 1000 Ang^3
#
#
#
# Elastic Constant Matrix: (Units=GPa)
#
#
# Indices 1 2 3 4 5 6 
#
# 1 63.6873 20.2120 24.2514 -0.5323 25.9315 -17.3681
# 2 20.2120 47.9779 18.1881 0.0336 16.9136 1.1209
# 3 24.2514 18.1881 116.1450 2.6440 44.7095 1.2905
# 4 -0.5323 0.0336 2.6440 34.8591 -4.6996 10.4028
# 5 25.9315 16.9136 44.7095 -4.6996 36.9135 -0.2356
# 6 -17.3681 1.1209 1.2905 10.4028 -0.2356 25.8173
#
#
#
# Elastic Compliance Matrix: (Units=1/GPa)
#
#
# Indices 1 2 3 4 5 6 
#
# 1 0.035742 -0.007340 0.004777 -0.012308 -0.028914 0.028820
# 2 -0.007340 0.026543 0.000191 0.000819 -0.007175 -0.006495
# 3 0.004777 0.000191 0.017381 -0.005996 -0.025229 0.004522
# 4 -0.012308 0.000819 -0.005996 0.038679 0.020309 -0.023416
# 5 -0.028914 -0.007175 -0.025229 0.020309 0.083671 -0.025298
# 6 0.028820 -0.006495 0.004522 -0.023416 -0.025298 0.067382
#
#
# Mechanical properties :
#
#
# Convention : Reuss Voigt Hill
#
# Bulk Modulus (GPa) = 13.34727 39.23481 26.29104
# Shear Modulus (GPa) = 16.71600 30.52854 23.62227
#
# Velocity S-wave (km/s) = 2.85245 3.85483 3.39088
# Velocity P-wave (km/s) = 4.16478 6.23782 5.30357
#
# Compressibility (1/GPa) = 0.07492171
#
# Stress axis : x y z
#
# Youngs Moduli (GPa) = 27.97866 37.67486 57.53501
#
# Poissons Ratio (x) = 0.27652 -0.27482
# Poissons Ratio (y) = 0.20535 -0.01101
# Poissons Ratio (z) = -0.13364 -0.00721
#
# Static dielectric constant tensor:
#      x y z
#    x 1.391990 -0.248960 -0.607640 
#    y -0.248960 1.576460 -0.444010 
#    z -0.607640 -0.444010 0.737630 
# 
# From -- ./inp_files/577659.got.cif
#   From: 2010.05.17/outbox.cif.g08.bks.cpg/sg2_289_cif.got.tgz:577659.got - 2010.06.03 11:33:40.
