data_PCOD9005822
_publ_section_title
;
Structure prediction by ZEFSAII (Michael W. Deem and Ramdas Pophale) SiO2 
 PCOD9005822
Probable space group: P -1
;
_chemical_formula_sum "Si O2"
_cell_formula_units_Z 12
_cell_length_a 10.947807
_cell_length_b 13.890490
_cell_length_c 8.979469
_cell_angle_alpha 43.091565
_cell_angle_beta 127.425959
_cell_angle_gamma 150.277386
_cell_volume 461.106558
_symmetry_space_group_name_H-M "P -1"
_symmetry_group_IT_number 2
_symmetry_cell_setting 'triclinic'
loop_
_space_group_symop_operation_xyz
x,y,z
-x,-y,-z
loop_
_atom_site_type_symbol
_atom_site_label
_atom_site_fract_x
_atom_site_fract_y
_atom_site_fract_z
Si Si1 0.244163 0.751529 0.967707
Si Si2 0.202355 0.599707 0.416024
Si Si3 0.699139 0.523236 0.141792
Si Si4 0.084502 0.215774 0.725078
Si Si5 0.034894 0.886986 0.552167
Si Si6 0.580080 0.386441 0.883663
O O1 0.261148 0.750490 0.160545
O O2 0.445527 0.787674 0.007340
O O3 0.000000 0.500000 0.000000
O O4 0.214024 0.892224 0.740052
O O5 0.393409 0.658193 0.601140
O O6 0.104046 0.393034 0.488449
O O7 0.000000 0.500000 0.500000
O O8 0.931506 0.760600 0.135360
O O9 0.500000 0.500000 0.000000
O O10 0.715528 0.469516 0.051636
O O11 0.912934 0.037168 0.667766
O O12 0.322315 0.284603 0.819871
O O13 0.760678 0.619308 0.663654
O O14 0.000000 0.000000 0.500000
#
# Coordination Sequence:
#
# PCOD9005822 Si02
#       6
#     2   2   2   2   2   2
#     4  10  18  31  52  77 100 134 175 211 251 295
#     4  10  17  28  50  82 104 123 173 221 250 293
#     4   8  16  28  51  84  99 124 168 219 254 291
#     4   9  19  32  54  78 103 134 170 212 257 297
#     4  11  22  34  49  77 110 137 169 210 260 303
#     4  10  17  34  59  77 100 132 178 213 248 308
#
# _framework density 26.024353000000001
#
# number of rings (size 3 to 8) (size 9 to 14) (size 15 to 20)
#    1.000    1.333    3.333    2.500    0.000    0.000 
#    0.000    1.667    0.000    0.000    0.000    7.000 
#    0.000    0.000    0.000    0.000    0.000    0.000 
#
# Total GULP energy -66806.622968 kJ/mol
# GULP energy per Si atom -5567.218581 kJ/mol
# Density = 2.596512 g / cm^3
# Si number density = 26.024353 Si / 1000 Ang^3
#
#
#
# Elastic Constant Matrix: (Units=GPa)
#
#
# Indices 1 2 3 4 5 6 
#
# 1 125.4516 69.0191 56.9226 2.3941 26.4393 -54.5859
# 2 69.0191 112.4894 67.9458 15.6063 -5.7921 -36.2066
# 3 56.9226 67.9458 204.0389 19.8398 6.5726 -29.3841
# 4 2.3941 15.6063 19.8398 59.4007 -15.3971 -3.8419
# 5 26.4393 -5.7921 6.5726 -15.3971 54.6187 6.2245
# 6 -54.5859 -36.2066 -29.3841 -3.8419 6.2245 54.7827
#
#
#
# Elastic Compliance Matrix: (Units=1/GPa)
#
#
# Indices 1 2 3 4 5 6 
#
# 1 0.026252 -0.009686 -0.000369 -0.001282 -0.016484 0.021341
# 2 -0.009686 0.016956 -0.003167 -0.001361 0.006597 -0.000989
# 3 -0.000369 -0.003167 0.006414 -0.001618 -0.001503 0.001037
# 4 -0.001282 -0.001361 -0.001618 0.019282 0.006382 -0.002418
# 5 -0.016484 0.006597 -0.001503 0.006382 0.030782 -0.015921
# 6 0.021341 -0.000989 0.001037 -0.002418 -0.015921 0.041061
#
#
# Mechanical properties :
#
#
# Convention : Reuss Voigt Hill
#
# Bulk Modulus (GPa) = 43.14532 92.19499 67.67016
# Shear Modulus (GPa) = 28.58500 50.29990 39.44245
#
# Velocity S-wave (km/s) = 3.31780 4.40113 3.89729
# Velocity P-wave (km/s) = 5.59391 7.83134 6.80521
#
# Compressibility (1/GPa) = 0.02317748
#
# Stress axis : x y z
#
# Youngs Moduli (GPa) = 38.09200 58.97696 155.91974
#
# Poissons Ratio (x) = 0.57126 0.05756
# Poissons Ratio (y) = 0.36897 0.49375
# Poissons Ratio (z) = 0.01406 0.18676
#
# Static dielectric constant tensor:
#      x y z
#    x 2.124060 0.070670 -0.042420 
#    y 0.070670 2.109700 -0.018530 
#    z -0.042420 -0.018530 2.082830 
# 
# From -- ./inp_files/247388.got.cif
#   From: 2010.05.17/outbox.cif.g08.bks.cpg/sg2_124_cif.got.tgz:247388.got - 2010.06.03 11:33:40.
