data_PCOD9005459
_publ_section_title
;
Structure prediction by ZEFSAII (Michael W. Deem and Ramdas Pophale) SiO2 
 PCOD9005459
Probable space group: P -1
;
_chemical_formula_sum "Si O2"
_cell_formula_units_Z 16
_cell_length_a 9.655313
_cell_length_b 9.968109
_cell_length_c 7.883861
_cell_angle_alpha 105.658853
_cell_angle_beta 58.678402
_cell_angle_gamma 86.145717
_cell_volume 603.952324
_symmetry_space_group_name_H-M "P -1"
_symmetry_group_IT_number 2
_symmetry_cell_setting 'triclinic'
loop_
_space_group_symop_operation_xyz
x,y,z
-x,-y,-z
loop_
_atom_site_type_symbol
_atom_site_label
_atom_site_fract_x
_atom_site_fract_y
_atom_site_fract_z
Si Si1 0.112053 0.310736 0.943144
Si Si2 0.614771 0.212579 0.317035
Si Si3 0.165141 0.965965 0.141873
Si Si4 0.996059 0.428871 0.697329
Si Si5 0.710102 0.816316 0.670199
Si Si6 0.202631 0.014660 0.652462
Si Si7 0.690908 0.320636 0.859488
Si Si8 0.447368 0.417136 0.747474
O O1 0.156499 0.140541 0.866627
O O2 0.282731 0.358369 0.810280
O O3 0.003305 0.359542 0.859364
O O4 0.025400 0.404292 0.189396
O O5 0.472194 0.196715 0.270262
O O6 0.567632 0.364940 0.493167
O O7 0.637254 0.104650 0.427987
O O8 0.785888 0.137700 0.087937
O O9 0.221856 0.843471 0.209590
O O10 0.966969 0.034467 0.291284
O O11 0.266305 0.086800 0.152328
O O12 0.828643 0.396396 0.719917
O O13 0.159573 0.340368 0.466851
O O14 0.762669 0.901698 0.507186
O O15 0.541303 0.343087 0.830446
O O16 0.616047 0.415282 0.105524
#
# Coordination Sequence:
#
# PCOD9005459 Si02
#       8
#     2   2   2   2   2   2   2   2
#     4   9  17  34  61  87 109 142 200 245 278 333
#     4  12  25  39  57  88 125 155 188 242 299 345
#     4  12  25  39  57  88 125 155 188 242 299 345
#     4   9  17  34  61  87 109 142 200 245 278 333
#     4  11  22  39  62  86 111 160 201 240 280 343
#     4  11  22  39  62  86 111 160 201 240 280 343
#     4  10  21  38  62  90 116 150 197 245 286 342
#     4  10  21  38  62  90 116 150 197 245 286 342
#
# _framework density 26.492158
#
# number of rings (size 3 to 8) (size 9 to 14) (size 15 to 20)
#    0.000    1.500    5.000    2.250    3.500    0.500 
#    0.000    0.000    0.000    0.750    0.000    0.000 
#    0.000    0.000    0.000    0.000    0.000    0.000 
#
# Total GULP energy -89570.660277 kJ/mol
# GULP energy per Si atom -5598.166267 kJ/mol
# Density = 2.643186 g / cm^3
# Si number density = 26.492158 Si / 1000 Ang^3
#
#
#
# Elastic Constant Matrix: (Units=GPa)
#
#
# Indices 1 2 3 4 5 6 
#
# 1 88.4942 19.0230 21.9903 2.2352 -2.4302 4.1333
# 2 19.0230 73.6689 30.4105 40.7394 3.5438 -7.8228
# 3 21.9903 30.4105 131.4019 35.7677 4.3489 0.0571
# 4 2.2352 40.7394 35.7677 53.4146 2.4055 -1.0619
# 5 -2.4302 3.5438 4.3489 2.4055 32.8344 0.4288
# 6 4.1333 -7.8228 0.0571 -1.0619 0.4288 29.0760
#
#
#
# Elastic Compliance Matrix: (Units=1/GPa)
#
#
# Indices 1 2 3 4 5 6 
#
# 1 0.013193 -0.005789 -0.002364 0.005311 0.001568 -0.003258
# 2 -0.005789 0.027105 0.000312 -0.020403 -0.001997 0.007399
# 3 -0.002364 0.000312 0.009773 -0.006634 -0.001019 0.000174
# 4 0.005311 -0.020403 -0.006634 0.038374 0.000726 -0.004841
# 5 0.001568 -0.001997 -0.001019 0.000726 0.030885 -0.001187
# 6 -0.003258 0.007399 0.000174 -0.004841 -0.001187 0.036687
#
#
# Mechanical properties :
#
#
# Convention : Reuss Voigt Hill
#
# Bulk Modulus (GPa) = 29.07900 48.49030 38.78465
# Shear Modulus (GPa) = 27.29824 37.87443 32.58633
#
# Velocity S-wave (km/s) = 3.21351 3.78517 3.51099
# Velocity P-wave (km/s) = 4.97686 6.11937 5.57745
#
# Compressibility (1/GPa) = 0.03438908
#
# Stress axis : x y z
#
# Youngs Moduli (GPa) = 75.79651 36.89376 102.32143
#
# Poissons Ratio (x) = 0.21359 0.24192
# Poissons Ratio (y) = 0.43881 -0.03197
# Poissons Ratio (z) = 0.17920 -0.01153
#
# Static dielectric constant tensor:
#      x y z
#    x 1.995030 -0.022070 0.037170 
#    y -0.022070 2.080480 -0.016470 
#    z 0.037170 -0.016470 2.132230 
# 
# From -- ./inp_files/181807.got.cif
#   From: 2010.05.17/outbox.cif.g08.bks.cpg/sg2_91_cif.got.tgz:181807.got - 2010.06.03 11:33:40.
