data_PCOD9005092
_publ_section_title
;
Structure prediction by ZEFSAII (Michael W. Deem and Ramdas Pophale) SiO2 
 PCOD9005092
Probable space group: P -1
;
_chemical_formula_sum "Si O2"
_cell_formula_units_Z 16
_cell_length_a 9.167332
_cell_length_b 17.467356
_cell_length_c 14.239138
_cell_angle_alpha 149.664880
_cell_angle_beta 123.416681
_cell_angle_gamma 76.903271
_cell_volume 776.078098
_symmetry_space_group_name_H-M "P -1"
_symmetry_group_IT_number 2
_symmetry_cell_setting 'triclinic'
loop_
_space_group_symop_operation_xyz
x,y,z
-x,-y,-z
loop_
_atom_site_type_symbol
_atom_site_label
_atom_site_fract_x
_atom_site_fract_y
_atom_site_fract_z
Si Si1 0.894061 0.257148 0.122565
Si Si2 0.429010 0.713832 0.308761
Si Si3 0.255166 0.098910 0.209836
Si Si4 0.484407 0.715450 0.982979
Si Si5 0.607605 0.559261 0.498179
Si Si6 0.251824 0.307974 0.791904
Si Si7 0.216787 0.989370 0.358795
Si Si8 0.170118 0.854630 0.408645
O O1 0.757971 0.341348 0.154826
O O2 0.150599 0.389774 0.368955
O O3 0.763486 0.091231 0.979235
O O4 0.882703 0.155663 0.914394
O O5 0.616312 0.778436 0.521204
O O6 0.530879 0.875994 0.438195
O O7 0.247476 0.721260 0.302680
O O8 0.338501 0.517822 0.021199
O O9 0.369352 0.254750 0.333277
O O10 0.000000 0.000000 0.000000
O O11 0.516601 0.609045 0.799555
O O12 0.560814 0.677616 0.066475
O O13 0.646110 0.940673 0.267806
O O14 0.500000 0.500000 0.500000
O O15 0.172843 0.148443 0.516929
O O16 0.052417 0.229618 0.708123
O O17 0.151421 0.890420 0.330660
#
# Coordination Sequence:
#
# PCOD9005092 Si02
#       8
#     2   2   2   2   2   2   2   2
#     4  10  22  40  67  85 122 166 196 247 297 366
#     4  11  20  40  62  89 120 160 200 249 296 360
#     4   9  19  40  62  86 116 159 199 242 305 353
#     4  11  21  40  61  87 123 160 203 239 307 356
#     4  11  24  39  67  92 116 151 208 260 298 354
#     4  11  24  36  61  89 128 159 197 252 299 356
#     4  10  21  38  60  91 120 158 206 231 302 357
#     4  11  23  38  62  89 128 160 195 251 301 360
#
# _framework density 20.616481
#
# number of rings (size 3 to 8) (size 9 to 14) (size 15 to 20)
#    0.000    1.500    3.750    3.000    5.250    0.000 
#    0.000    0.625    0.000    0.000    0.000    0.000 
#    0.000    0.000    0.000    0.000    0.000    0.000 
#
# Total GULP energy -89143.733973 kJ/mol
# GULP energy per Si atom -5571.483373 kJ/mol
# Density = 2.056956 g / cm^3
# Si number density = 20.616481 Si / 1000 Ang^3
#
#
#
# Elastic Constant Matrix: (Units=GPa)
#
#
# Indices 1 2 3 4 5 6 
#
# 1 76.1464 43.4834 25.1386 -1.1376 -2.0425 1.3648
# 2 43.4834 81.1173 23.7597 5.9571 7.8339 10.8558
# 3 25.1386 23.7597 75.3812 0.6831 -15.8795 5.6656
# 4 -1.1376 5.9571 0.6831 16.2534 2.3203 1.1699
# 5 -2.0425 7.8339 -15.8795 2.3203 33.7157 0.7166
# 6 1.3648 10.8558 5.6656 1.1699 0.7166 36.2866
#
#
#
# Elastic Compliance Matrix: (Units=1/GPa)
#
#
# Indices 1 2 3 4 5 6 
#
# 1 0.020570 -0.011007 -0.003259 0.005143 0.001855 0.002826
# 2 -0.011007 0.021265 -0.004055 -0.007049 -0.006928 -0.004951
# 3 -0.003259 -0.004055 0.017684 -0.000678 0.009154 -0.001584
# 4 0.005143 -0.007049 -0.000678 0.064904 -0.002836 -0.000015
# 5 0.001855 -0.006928 0.009154 -0.002836 0.035889 -0.000044
# 6 0.002826 -0.004951 -0.001584 -0.000015 -0.000044 0.029182
#
#
# Mechanical properties :
#
#
# Convention : Reuss Voigt Hill
#
# Bulk Modulus (GPa) = 43.71107 46.37868 45.04487
# Shear Modulus (GPa) = 21.38923 26.60202 23.99562
#
# Velocity S-wave (km/s) = 3.22449 3.59601 3.41531
# Velocity P-wave (km/s) = 5.92547 6.30765 6.11954
#
# Compressibility (1/GPa) = 0.02287750
#
# Stress axis : x y z
#
# Youngs Moduli (GPa) = 48.61460 47.02495 56.54693
#
# Poissons Ratio (x) = 0.51761 0.18427
# Poissons Ratio (y) = 0.53511 0.22932
# Poissons Ratio (z) = 0.15842 0.19070
#
# Static dielectric constant tensor:
#      x y z
#    x 1.754610 -0.019580 -0.004130 
#    y -0.019580 1.770620 0.012410 
#    z -0.004130 0.012410 1.761260 
# 
# From -- ./inp_files/217460.got.cif
#   From: 2010.05.17/outbox.cif.g08.bks.cpg/sg2_109_cif.got.tgz:217460.got - 2010.06.03 11:33:40.
