data_PCOD9005024
_publ_section_title
;
Structure prediction by ZEFSAII (Michael W. Deem and Ramdas Pophale) SiO2 
 PCOD9005024
Probable space group: P -1
;
_chemical_formula_sum "Si O2"
_cell_formula_units_Z 14
_cell_length_a 8.650510
_cell_length_b 8.461402
_cell_length_c 12.920218
_cell_angle_alpha 80.386036
_cell_angle_beta 115.470233
_cell_angle_gamma 126.007008
_cell_volume 685.883483
_symmetry_space_group_name_H-M "P -1"
_symmetry_group_IT_number 2
_symmetry_cell_setting 'triclinic'
loop_
_space_group_symop_operation_xyz
x,y,z
-x,-y,-z
loop_
_atom_site_type_symbol
_atom_site_label
_atom_site_fract_x
_atom_site_fract_y
_atom_site_fract_z
Si Si1 0.195137 0.164013 0.607555
Si Si2 0.347884 0.721488 0.332214
Si Si3 0.483678 0.103623 0.237893
Si Si4 0.532557 0.331044 0.044443
Si Si5 0.032932 0.581766 0.884825
Si Si6 0.271758 0.005610 0.835147
Si Si7 0.766245 0.435256 0.451161
O O1 0.414275 0.205580 0.628490
O O2 0.227816 0.371403 0.586577
O O3 0.162905 0.079457 0.723728
O O4 0.000000 0.000000 0.500000
O O5 0.303799 0.651489 0.444722
O O6 0.179645 0.545624 0.228279
O O7 0.332265 0.901587 0.278618
O O8 0.412549 0.200934 0.126090
O O9 0.612682 0.054191 0.203870
O O10 0.625601 0.269071 0.344589
O O11 0.780840 0.424734 0.111568
O O12 0.500000 0.500000 0.000000
O O13 0.441054 0.182016 0.937648
O O14 0.117552 0.809762 0.878373
O O15 0.000000 0.500000 0.000000
O O16 0.000000 0.500000 0.500000
#
# Coordination Sequence:
#
# PCOD9005024 Si02
#       7
#     2   2   2   2   2   2   2
#     4  11  23  42  64  90 123 165 209 257 312 369
#     4  11  23  41  62  91 125 166 210 256 309 369
#     4  10  21  38  60  87 121 162 203 251 305 363
#     4  11  22  41  64  92 124 162 206 255 308 370
#     4  11  21  39  65  92 123 164 206 254 309 368
#     4  10  21  40  63  88 122 163 203 251 309 367
#     4  12  23  39  62  92 125 162 206 258 311 370
#
# _framework density 20.411629000000001
#
# number of rings (size 3 to 8) (size 9 to 14) (size 15 to 20)
#    0.000    1.143    0.000   10.286    0.000    0.000 
#    0.000    5.714    0.000    0.000    0.000    0.000 
#    0.000    0.000    0.000    0.000    0.000    0.000 
#
# Total GULP energy -78211.449439 kJ/mol
# GULP energy per Si atom -5586.532103 kJ/mol
# Density = 2.036517 g / cm^3
# Si number density = 20.411629 Si / 1000 Ang^3
#
#
#
# Elastic Constant Matrix: (Units=GPa)
#
#
# Indices 1 2 3 4 5 6 
#
# 1 50.6251 37.8112 27.9117 -5.2196 6.8567 3.1702
# 2 37.8112 168.2722 66.6101 -23.7031 -6.8693 -14.0066
# 3 27.9117 66.6101 148.5591 -4.4696 -10.4920 -1.6826
# 4 -5.2196 -23.7031 -4.4696 67.6377 1.3730 5.0508
# 5 6.8567 -6.8693 -10.4920 1.3730 31.3397 4.5455
# 6 3.1702 -14.0066 -1.6826 5.0508 4.5455 26.0885
#
#
#
# Elastic Compliance Matrix: (Units=1/GPa)
#
#
# Indices 1 2 3 4 5 6 
#
# 1 0.026979 -0.005469 -0.003186 0.000496 -0.007432 -0.005221
# 2 -0.005469 0.009036 -0.002802 0.002182 0.001468 0.004657
# 3 -0.003186 -0.002802 0.008781 -0.000639 0.003193 -0.000983
# 4 0.000496 0.002182 -0.000639 0.015694 -0.000252 -0.001925
# 5 -0.007432 0.001468 0.003193 -0.000252 0.035553 -0.004248
# 6 -0.005221 0.004657 -0.000983 -0.001925 -0.004248 0.042515
#
#
# Mechanical properties :
#
#
# Convention : Reuss Voigt Hill
#
# Bulk Modulus (GPa) = 45.69873 70.23583 57.96728
# Shear Modulus (GPa) = 29.62686 40.68808 35.15747
#
# Velocity S-wave (km/s) = 3.81395 4.46957 4.15471
# Velocity P-wave (km/s) = 6.46778 7.81796 7.17470
#
# Compressibility (1/GPa) = 0.02188245
#
# Stress axis : x y z
#
# Youngs Moduli (GPa) = 37.06550 110.67239 113.87916
#
# Poissons Ratio (x) = 0.60532 0.36279
# Poissons Ratio (y) = 0.20273 0.31905
# Poissons Ratio (z) = 0.11808 0.31007
#
# Static dielectric constant tensor:
#      x y z
#    x 1.717820 0.012090 0.007290 
#    y 0.012090 1.754430 -0.063110 
#    z 0.007290 -0.063110 1.738590 
# 
# From -- ./inp_files/186350.got.cif
#   From: 2010.05.17/outbox.cif.g08.bks.cpg/sg2_94_cif.got.tgz:186350.got - 2010.06.03 11:33:40.
