data_PCOD9005712
_publ_section_title
;
Structure prediction by ZEFSAII (Michael W. Deem and Ramdas Pophale) SiO2 
 PCOD9005712
Probable space group: P -1
;
_chemical_formula_sum "Si O2"
_cell_formula_units_Z 14
_cell_length_a 20.039541
_cell_length_b 8.950768
_cell_length_c 8.182583
_cell_angle_alpha 34.375015
_cell_angle_beta 121.716335
_cell_angle_gamma 129.752730
_cell_volume 637.088329
_symmetry_space_group_name_H-M "P -1"
_symmetry_group_IT_number 2
_symmetry_cell_setting 'triclinic'
loop_
_space_group_symop_operation_xyz
x,y,z
-x,-y,-z
loop_
_atom_site_type_symbol
_atom_site_label
_atom_site_fract_x
_atom_site_fract_y
_atom_site_fract_z
Si Si1 0.245996 0.631216 0.620573
Si Si2 0.574513 0.639197 0.605661
Si Si3 0.119634 0.206310 0.581471
Si Si4 0.233942 0.174435 0.271350
Si Si5 0.567418 0.179680 0.286056
Si Si6 0.095374 0.619401 0.938096
Si Si7 0.951362 0.894494 0.860275
O O1 0.174264 0.384702 0.643809
O O2 0.339955 0.688991 0.622088
O O3 0.235328 0.928646 0.367401
O O4 0.244655 0.476676 0.930206
O O5 0.500000 0.500000 0.500000
O O6 0.675502 0.732556 0.597727
O O7 0.571586 0.938407 0.386594
O O8 0.557246 0.425854 0.936432
O O9 0.139367 0.446413 0.251017
O O10 0.020738 0.063187 0.654573
O O11 0.139397 0.950769 0.758713
O O12 0.134743 0.051063 0.315707
O O13 0.500000 0.000000 0.500000
O O14 0.077528 0.452720 0.891458
O O15 0.000000 0.500000 0.000000
O O16 0.000000 0.000000 0.000000
#
# Coordination Sequence:
#
# PCOD9005712 Si02
#       7
#     2   2   2   2   2   2   2
#     4  10  21  38  63  91 121 163 201 257 312 366
#     4  10  21  41  68  92 130 166 198 269 329 369
#     4  11  22  41  61  82 127 164 200 250 314 354
#     4  10  22  38  60  96 121 155 213 254 304 376
#     4  10  21  40  68  94 126 160 218 258 310 390
#     4  10  23  40  56  84 119 164 201 253 305 355
#     4  11  22  39  64  89 121 165 212 250 296 372
#
# _framework density 21.974972999999999
#
# number of rings (size 3 to 8) (size 9 to 14) (size 15 to 20)
#    0.000    1.714    1.429    3.429    2.000    4.000 
#    2.571    0.000    3.143    0.000    0.000    0.000 
#    0.000    0.000    0.000    0.000    0.000    0.000 
#
# Total GULP energy -78013.099269 kJ/mol
# GULP energy per Si atom -5572.364233 kJ/mol
# Density = 2.192496 g / cm^3
# Si number density = 21.974973 Si / 1000 Ang^3
#
#
#
# Elastic Constant Matrix: (Units=GPa)
#
#
# Indices 1 2 3 4 5 6 
#
# 1 98.8243 49.2441 14.3597 5.9194 3.3911 24.4840
# 2 49.2441 133.9140 27.3647 0.1532 22.9045 15.5769
# 3 14.3597 27.3647 96.5564 -27.0300 5.0747 -3.1881
# 4 5.9194 0.1532 -27.0300 34.5508 -0.7203 2.3990
# 5 3.3911 22.9045 5.0747 -0.7203 26.5523 -3.3583
# 6 24.4840 15.5769 -3.1881 2.3990 -3.3583 37.9735
#
#
#
# Elastic Compliance Matrix: (Units=1/GPa)
#
#
# Indices 1 2 3 4 5 6 
#
# 1 0.014615 -0.004210 -0.002347 -0.003773 0.001156 -0.007553
# 2 -0.004210 0.011482 -0.002621 -0.001369 -0.009277 -0.002950
# 3 -0.002347 -0.002621 0.014835 0.011812 0.000441 0.003127
# 4 -0.003773 -0.001369 0.011812 0.038739 0.000658 0.001597
# 5 0.001156 -0.009277 0.000441 0.000658 0.046355 0.007155
# 6 -0.007553 -0.002950 0.003127 0.001597 0.007155 0.033209
#
#
# Mechanical properties :
#
#
# Convention : Reuss Voigt Hill
#
# Bulk Modulus (GPa) = 44.29173 56.80353 50.54763
# Shear Modulus (GPa) = 27.01010 35.70374 31.35692
#
# Velocity S-wave (km/s) = 3.50970 4.03519 3.78158
# Velocity P-wave (km/s) = 6.05172 6.90041 6.48995
#
# Compressibility (1/GPa) = 0.02257758
#
# Stress axis : x y z
#
# Youngs Moduli (GPa) = 68.42168 87.08914 67.40763
#
# Poissons Ratio (x) = 0.36662 0.15819
# Poissons Ratio (y) = 0.28803 0.17669
# Poissons Ratio (z) = 0.16057 0.22828
#
# Static dielectric constant tensor:
#      x y z
#    x 1.927390 0.067110 -0.063050 
#    y 0.067110 1.879030 -0.005310 
#    z -0.063050 -0.005310 1.877570 
# 
# From -- ./inp_files/343240.got.cif
#   From: 2010.05.17/outbox.cif.g08.bks.cpg/sg2_172_cif.got.tgz:343240.got - 2010.06.03 11:33:40.
