data_PCOD9005850
_publ_section_title
;
Structure prediction by ZEFSAII (Michael W. Deem and Ramdas Pophale) SiO2 
 PCOD9005850
Probable space group: P -1
;
_chemical_formula_sum "Si O2"
_cell_formula_units_Z 16
_cell_length_a 13.844179
_cell_length_b 22.108456
_cell_length_c 5.625078
_cell_angle_alpha 95.530046
_cell_angle_beta 87.796248
_cell_angle_gamma 157.967753
_cell_volume 636.851903
_symmetry_space_group_name_H-M "P -1"
_symmetry_group_IT_number 2
_symmetry_cell_setting 'triclinic'
loop_
_space_group_symop_operation_xyz
x,y,z
-x,-y,-z
loop_
_atom_site_type_symbol
_atom_site_label
_atom_site_fract_x
_atom_site_fract_y
_atom_site_fract_z
Si Si1 0.352435 0.755640 0.091878
Si Si2 0.357289 0.510065 0.938193
Si Si3 0.878504 0.476640 0.318698
Si Si4 0.642029 0.776258 0.783589
Si Si5 0.241243 0.339140 0.238517
Si Si6 0.895275 0.034628 0.121292
Si Si7 0.588372 0.101760 0.218964
Si Si8 0.091977 0.785842 0.433554
O O1 0.141901 0.658952 0.256893
O O2 0.634765 0.905023 0.227526
O O3 0.244928 0.631525 0.934522
O O4 0.380892 0.818558 0.895252
O O5 0.511320 0.663122 0.978024
O O6 0.515168 0.563305 0.744538
O O7 0.066412 0.340566 0.804423
O O8 0.343281 0.459671 0.150059
O O9 0.624968 0.366091 0.391894
O O10 0.000000 0.500000 0.500000
O O11 0.880161 0.870821 0.719534
O O12 0.786161 0.922496 0.898166
O O13 0.033431 0.175393 0.052730
O O14 0.081252 0.262228 0.456037
O O15 0.842232 0.223200 0.367445
O O16 0.359233 0.969154 0.382880
O O17 0.500000 0.000000 0.000000
#
# Coordination Sequence:
#
# PCOD9005850 Si02
#       8
#     2   2   2   2   2   2   2   2
#     4  10  22  40  61  86 123 163 207 256 324 379
#     4  10  21  38  63  96 131 170 211 272 325 385
#     4  10  23  39  62  90 121 161 205 264 319 385
#     4   9  20  37  65  92 124 167 218 260 320 385
#     4  10  21  39  64  92 133 172 213 265 329 384
#     4   9  18  40  63  89 124 170 215 259 314 389
#     4  11  25  40  61  92 126 170 212 270 324 384
#     4  11  23  37  61  98 127 166 221 265 319 396
#
# _framework density 25.123578999999999
#
# number of rings (size 3 to 8) (size 9 to 14) (size 15 to 20)
#    0.000    2.000    0.000    2.625    5.250    2.000 
#    0.000    0.625    0.000    6.000    0.000    0.000 
#    0.000    0.000    0.000    0.000    0.000    0.000 
#
# Total GULP energy -89285.323187 kJ/mol
# GULP energy per Si atom -5580.332699 kJ/mol
# Density = 2.506640 g / cm^3
# Si number density = 25.123579 Si / 1000 Ang^3
#
#
#
# Elastic Constant Matrix: (Units=GPa)
#
#
# Indices 1 2 3 4 5 6 
#
# 1 97.9175 50.4175 19.7988 -15.5977 8.9136 18.3072
# 2 50.4175 146.1924 13.2886 -0.6601 11.4753 16.7129
# 3 19.7988 13.2886 34.6271 -3.9180 4.3135 9.3969
# 4 -15.5977 -0.6601 -3.9180 31.7415 5.1221 2.2980
# 5 8.9136 11.4753 4.3135 5.1221 29.5274 7.8707
# 6 18.3072 16.7129 9.3969 2.2980 7.8707 68.1612
#
#
#
# Elastic Compliance Matrix: (Units=1/GPa)
#
#
# Indices 1 2 3 4 5 6 
#
# 1 0.015372 -0.004300 -0.005327 0.007435 -0.002879 -0.002258
# 2 -0.004300 0.008563 -0.000672 -0.001736 -0.001464 -0.000624
# 3 -0.005327 -0.000672 0.033512 0.002135 -0.002653 -0.002790
# 4 0.007435 -0.001736 0.002135 0.036784 -0.007671 -0.002220
# 5 -0.002879 -0.001464 -0.002653 -0.007671 0.037716 -0.002598
# 6 -0.002258 -0.000624 -0.002790 -0.002220 -0.002598 0.016190
#
#
# Mechanical properties :
#
#
# Convention : Reuss Voigt Hill
#
# Bulk Modulus (GPa) = 27.13702 49.52743 38.33222
# Shear Modulus (GPa) = 27.62164 38.90148 33.26156
#
# Velocity S-wave (km/s) = 3.31936 3.93925 3.64252
# Velocity P-wave (km/s) = 5.05131 6.35976 5.74292
#
# Compressibility (1/GPa) = 0.03685003
#
# Stress axis : x y z
#
# Youngs Moduli (GPa) = 65.05226 116.78623 29.84005
#
# Poissons Ratio (x) = 0.50212 0.15895
# Poissons Ratio (y) = 0.27969 0.02006
# Poissons Ratio (z) = 0.34651 0.07852
#
# Static dielectric constant tensor:
#      x y z
#    x 2.051340 0.013790 -0.001990 
#    y 0.013790 2.037280 0.016560 
#    z -0.001990 0.016560 1.963850 
# 
# From -- ./inp_files/101167.got.cif
#   From: 2010.05.17/outbox.cif.g08.bks.cpg/sg2_51_cif.got.tgz:101167.got - 2010.06.03 11:33:40.
