data_PCOD9005760
_publ_section_title
;
Structure prediction by ZEFSAII (Michael W. Deem and Ramdas Pophale) SiO2 
 PCOD9005760
Probable space group: P -1
;
_chemical_formula_sum "Si O2"
_cell_formula_units_Z 16
_cell_length_a 8.272969
_cell_length_b 10.822466
_cell_length_c 13.619024
_cell_angle_alpha 104.707094
_cell_angle_beta 63.581826
_cell_angle_gamma 55.070185
_cell_volume 645.692031
_symmetry_space_group_name_H-M "P -1"
_symmetry_group_IT_number 2
_symmetry_cell_setting 'triclinic'
loop_
_space_group_symop_operation_xyz
x,y,z
-x,-y,-z
loop_
_atom_site_type_symbol
_atom_site_label
_atom_site_fract_x
_atom_site_fract_y
_atom_site_fract_z
Si Si1 0.617997 0.272511 0.393789
Si Si2 0.163801 0.115038 0.728226
Si Si3 0.928291 0.447073 0.282740
Si Si4 0.060489 0.125526 0.097166
Si Si5 0.930465 0.939561 0.594117
Si Si6 0.279329 0.324345 0.819449
Si Si7 0.076324 0.649463 0.350881
Si Si8 0.273585 0.727585 0.973461
O O1 0.302319 0.484148 0.564079
O O2 0.745878 0.260795 0.258648
O O3 0.861843 0.154835 0.388646
O O4 0.616451 0.120748 0.351808
O O5 0.270026 0.184531 0.760296
O O6 0.134114 0.159312 0.630631
O O7 0.843892 0.258329 0.888681
O O8 0.144502 0.211612 0.143026
O O9 0.759582 0.575064 0.251410
O O10 0.040360 0.517407 0.313395
O O11 0.980256 0.177233 0.014865
O O12 0.262682 0.888470 0.011421
O O13 0.994914 0.761328 0.498037
O O14 0.591850 0.162576 0.755407
O O15 0.000000 0.000000 0.500000
O O16 0.000000 0.500000 0.000000
O O17 0.411331 0.492087 0.195327
#
# Coordination Sequence:
#
# PCOD9005760 Si02
#       8
#     2   2   2   2   2   2   2   2
#     4  11  22  40  65  89 123 167 211 255 306 368
#     4  10  21  38  63  92 128 154 202 258 322 372
#     4  11  22  40  61  90 128 166 203 261 307 374
#     4  10  23  41  61  86 122 173 216 249 306 364
#     4  12  23  40  65  95 126 160 208 259 311 378
#     4  11  24  38  62  98 127 162 198 259 325 369
#     4  11  23  38  64  94 124 159 207 260 322 361
#     4  10  22  41  64  90 123 168 210 258 302 376
#
# _framework density 24.779613999999999
#
# number of rings (size 3 to 8) (size 9 to 14) (size 15 to 20)
#    0.000    1.250    2.500    3.000    1.750    6.500 
#    0.000    6.250    0.000    0.000    0.000    0.000 
#    0.000    0.000    0.000    0.000    0.000    0.000 
#
# Total GULP energy -89544.057749 kJ/mol
# GULP energy per Si atom -5596.503609 kJ/mol
# Density = 2.472321 g / cm^3
# Si number density = 24.779614 Si / 1000 Ang^3
#
#
#
# Elastic Constant Matrix: (Units=GPa)
#
#
# Indices 1 2 3 4 5 6 
#
# 1 69.5040 16.5922 14.0149 1.4598 19.9781 9.0819
# 2 16.5922 67.5731 12.2889 -7.5467 7.2892 12.0798
# 3 14.0149 12.2889 115.3483 11.0706 -0.0285 -6.7137
# 4 1.4598 -7.5467 11.0706 36.7656 -0.2246 16.4491
# 5 19.9781 7.2892 -0.0285 -0.2246 43.0589 13.0463
# 6 9.0819 12.0798 -6.7137 16.4491 13.0463 31.5651
#
#
#
# Elastic Compliance Matrix: (Units=1/GPa)
#
#
# Indices 1 2 3 4 5 6 
#
# 1 0.017773 -0.003061 -0.001870 -0.000315 -0.007391 -0.001121
# 2 -0.003061 0.019972 -0.003782 0.012058 0.002625 -0.014935
# 3 -0.001870 -0.003782 0.010563 -0.007830 -0.001194 0.008806
# 4 -0.000315 0.012058 -0.007830 0.047602 0.008847 -0.034652
# 5 -0.007391 0.002625 -0.001194 0.008847 0.031309 -0.016683
# 6 -0.001121 -0.014935 0.008806 -0.034652 -0.016683 0.064544
#
#
# Mechanical properties :
#
#
# Convention : Reuss Voigt Hill
#
# Bulk Modulus (GPa) = 32.38184 37.57970 34.98077
# Shear Modulus (GPa) = 22.78078 36.24656 29.51367
#
# Velocity S-wave (km/s) = 3.03534 3.82875 3.45490
# Velocity P-wave (km/s) = 5.03793 5.89443 5.48293
#
# Compressibility (1/GPa) = 0.03088150
#
# Stress axis : x y z
#
# Youngs Moduli (GPa) = 56.26445 50.07126 94.66837
#
# Poissons Ratio (x) = 0.15329 0.17705
# Poissons Ratio (y) = 0.17225 0.35800
# Poissons Ratio (z) = 0.10522 0.18935
#
# Static dielectric constant tensor:
#      x y z
#    x 1.990570 0.028010 -0.024940 
#    y 0.028010 1.952790 0.047480 
#    z -0.024940 0.047480 2.007430 
# 
# From -- ./inp_files/298334.got.cif
#   From: 2010.05.17/outbox.cif.g08.bks.cpg/sg2_150_cif.got.tgz:298334.got - 2010.06.03 11:33:40.
