data_PCOD9005959
_publ_section_title
;
Structure prediction by ZEFSAII (Michael W. Deem and Ramdas Pophale) SiO2 
 PCOD9005959
Probable space group: P -1
;
_chemical_formula_sum "Si O2"
_cell_formula_units_Z 12
_cell_length_a 17.095760
_cell_length_b 9.159973
_cell_length_c 9.447585
_cell_angle_alpha 51.163063
_cell_angle_beta 27.910218
_cell_angle_gamma 40.368005
_cell_volume 443.307473
_symmetry_space_group_name_H-M "P -1"
_symmetry_group_IT_number 2
_symmetry_cell_setting 'triclinic'
loop_
_space_group_symop_operation_xyz
x,y,z
-x,-y,-z
loop_
_atom_site_type_symbol
_atom_site_label
_atom_site_fract_x
_atom_site_fract_y
_atom_site_fract_z
Si Si1 0.836281 0.399452 0.773867
Si Si2 0.094392 0.145312 0.781698
Si Si3 0.240907 0.508552 0.730422
Si Si4 0.214717 0.147384 0.144559
Si Si5 0.567015 0.291368 0.128611
Si Si6 0.421322 0.809938 0.284996
O O1 0.984681 0.319332 0.719139
O O2 0.973801 0.316608 0.463043
O O3 0.715354 0.281741 0.017678
O O4 0.649590 0.655488 0.952875
O O5 0.329735 0.973339 0.470662
O O6 0.999011 0.290561 0.989259
O O7 0.000000 0.000000 0.000000
O O8 0.352006 0.374844 0.491414
O O9 0.347896 0.639378 0.518089
O O10 0.276755 0.315620 0.896993
O O11 0.303962 0.987962 0.237115
O O12 0.301001 0.953330 0.005625
O O13 0.500000 0.500000 0.000000
#
# Coordination Sequence:
#
# PCOD9005959 Si02
#       6
#     2   2   2   2   2   2
#     4  10  21  38  67  91 117 167 201 246 307 362
#     4   9  20  39  64  90 125 156 203 249 306 356
#     4  10  21  38  64  90 120 165 198 251 304 357
#     4  11  21  40  63  90 124 161 201 250 304 355
#     4  11  21  41  67  82 127 165 200 250 306 354
#     4   9  20  40  62  87 127 158 196 250 300 357
#
# _framework density 27.06925
#
# number of rings (size 3 to 8) (size 9 to 14) (size 15 to 20)
#    0.000    2.000    3.333    1.000    0.000    8.667 
#    0.000   14.167    0.000    0.000    0.000    0.000 
#    0.000    0.000    0.000    0.000    0.000    0.000 
#
# Total GULP energy -67008.309218 kJ/mol
# GULP energy per Si atom -5584.025768 kJ/mol
# Density = 2.700764 g / cm^3
# Si number density = 27.069250 Si / 1000 Ang^3
#
#
#
# Elastic Constant Matrix: (Units=GPa)
#
#
# Indices 1 2 3 4 5 6 
#
# 1 44.2655 27.0334 41.7683 24.3920 9.7430 16.4030
# 2 27.0334 154.8802 116.3765 21.1876 3.9282 21.2957
# 3 41.7683 116.3765 246.0523 65.5125 39.7966 12.9992
# 4 24.3920 21.1876 65.5125 86.1942 16.6893 13.2878
# 5 9.7430 3.9282 39.7966 16.6893 46.6482 15.5917
# 6 16.4030 21.2957 12.9992 13.2878 15.5917 44.9238
#
#
#
# Elastic Compliance Matrix: (Units=1/GPa)
#
#
# Indices 1 2 3 4 5 6 
#
# 1 0.032421 -0.001368 -0.003131 -0.005241 0.000915 -0.009051
# 2 -0.001368 0.012236 -0.006877 0.002331 0.006364 -0.006209
# 3 -0.003131 -0.006877 0.009935 -0.004359 -0.007494 0.005419
# 4 -0.005241 0.002331 -0.004359 0.016295 -0.000332 -0.002635
# 5 0.000915 0.006364 -0.007494 -0.000332 0.031205 -0.011914
# 6 -0.009051 -0.006209 0.005419 -0.002635 -0.011914 0.031854
#
#
# Mechanical properties :
#
#
# Convention : Reuss Voigt Hill
#
# Bulk Modulus (GPa) = 31.40741 90.61715 61.01228
# Shear Modulus (GPa) = 29.88420 52.88789 41.38604
#
# Velocity S-wave (km/s) = 3.32624 4.42498 3.91435
# Velocity P-wave (km/s) = 5.13611 7.72373 6.55879
#
# Compressibility (1/GPa) = 0.03183962
#
# Stress axis : x y z
#
# Youngs Moduli (GPa) = 30.84411 81.72373 100.65597
#
# Poissons Ratio (x) = 0.11181 0.31515
# Poissons Ratio (y) = 0.04220 0.69223
# Poissons Ratio (z) = 0.09657 0.56203
#
# Static dielectric constant tensor:
#      x y z
#    x 2.233970 -0.021050 -0.009640 
#    y -0.021050 2.136290 -0.045780 
#    z -0.009640 -0.045780 2.181450 
# 
# From -- ./inp_files/175699.got.cif
#   From: 2010.05.17/outbox.cif.g08.bks.cpg/sg2_88_cif.got.tgz:175699.got - 2010.06.03 11:33:40.
