data_PCOD9005136
_publ_section_title
;
Structure prediction by ZEFSAII (Michael W. Deem and Ramdas Pophale) SiO2 
 PCOD9005136
Probable space group: P -1
;
_chemical_formula_sum "Si O2"
_cell_formula_units_Z 14
_cell_length_a 13.090783
_cell_length_b 18.933709
_cell_length_c 11.602737
_cell_angle_alpha 143.108183
_cell_angle_beta 145.651416
_cell_angle_gamma 20.296106
_cell_volume 558.074867
_symmetry_space_group_name_H-M "P -1"
_symmetry_group_IT_number 2
_symmetry_cell_setting 'triclinic'
loop_
_space_group_symop_operation_xyz
x,y,z
-x,-y,-z
loop_
_atom_site_type_symbol
_atom_site_label
_atom_site_fract_x
_atom_site_fract_y
_atom_site_fract_z
Si Si1 0.456182 0.410627 0.761185
Si Si2 0.611158 0.031876 0.049389
Si Si3 0.103325 0.271070 0.699784
Si Si4 0.000866 0.618255 0.787419
Si Si5 0.445969 0.320664 0.406811
Si Si6 0.954325 0.956831 0.723355
Si Si7 0.459768 0.809651 0.140127
O O1 0.106340 0.558074 0.673200
O O2 0.494192 0.401508 0.647202
O O3 0.714549 0.175981 0.729383
O O4 0.500000 0.500000 0.000000
O O5 0.695701 0.108405 0.292333
O O6 0.297880 0.208486 0.909904
O O7 0.500000 0.000000 0.000000
O O8 0.881712 0.815181 0.953523
O O9 0.335444 0.188595 0.705473
O O10 0.783265 0.508176 0.681787
O O11 0.040261 0.165944 0.502787
O O12 0.309031 0.409711 0.872601
O O13 0.732030 0.677355 0.669815
O O14 0.801371 0.012017 0.778302
O O15 0.283444 0.844331 0.912601
#
# Coordination Sequence:
#
# PCOD9005136 Si02
#       7
#     2   2   2   2   2   2   2
#     4  11  24  39  63  93 129 164 208 261 318 372
#     4  10  21  40  67  90 126 166 213 260 317 377
#     4  11  22  37  68  90 124 171 214 255 321 375
#     4   9  20  39  63  92 124 163 211 258 311 380
#     4  10  22  40  64  93 124 166 213 258 316 375
#     4  10  21  38  60  93 136 161 210 260 320 366
#     4   9  21  37  60  97 130 167 207 264 310 381
#
# _framework density 25.086241000000001
#
# number of rings (size 3 to 8) (size 9 to 14) (size 15 to 20)
#    0.000    2.000    0.000    3.000    8.000    2.286 
#    0.000    0.714    6.286    6.000    0.000    0.000 
#    0.000    0.000    0.000    0.000    0.000    0.000 
#
# Total GULP energy -78226.536108 kJ/mol
# GULP energy per Si atom -5587.609722 kJ/mol
# Density = 2.502914 g / cm^3
# Si number density = 25.086241 Si / 1000 Ang^3
#
#
#
# Elastic Constant Matrix: (Units=GPa)
#
#
# Indices 1 2 3 4 5 6 
#
# 1 35.3705 5.3422 3.3958 8.4742 -7.9716 15.0184
# 2 5.3422 74.6867 47.6660 13.9260 -19.9578 12.2755
# 3 3.3958 47.6660 153.8964 23.9470 -10.9256 9.0473
# 4 8.4742 13.9260 23.9470 40.9131 0.1891 -6.8362
# 5 -7.9716 -19.9578 -10.9256 0.1891 46.8667 -3.6001
# 6 15.0184 12.2755 9.0473 -6.8362 -3.6001 27.4810
#
#
#
# Elastic Compliance Matrix: (Units=1/GPa)
#
#
# Indices 1 2 3 4 5 6 
#
# 1 0.047931 0.006449 0.002552 -0.019260 0.008996 -0.033528
# 2 0.006449 0.021452 -0.004143 -0.008379 0.008321 -0.012737
# 3 0.002552 -0.004143 0.008715 -0.004815 0.000448 -0.003552
# 4 -0.019260 -0.008379 -0.004815 0.038232 -0.006235 0.024547
# 5 0.008996 0.008321 0.000448 -0.006235 0.026009 -0.006925
# 6 -0.033528 -0.012737 -0.003552 0.024547 -0.006925 0.066770
#
#
# Mechanical properties :
#
#
# Convention : Reuss Voigt Hill
#
# Bulk Modulus (GPa) = 11.38794 41.86240 26.62517
# Shear Modulus (GPa) = 21.86618 36.88879 29.37748
#
# Velocity S-wave (km/s) = 2.95556 3.83884 3.42579
# Velocity P-wave (km/s) = 4.02448 6.03097 5.12684
#
# Compressibility (1/GPa) = 0.08781223
#
# Stress axis : x y z
#
# Youngs Moduli (GPa) = 20.86323 46.61662 114.75027
#
# Poissons Ratio (x) = -0.30062 -0.29280
# Poissons Ratio (y) = -0.13454 0.47542
# Poissons Ratio (z) = -0.05324 0.19314
#
# Static dielectric constant tensor:
#      x y z
#    x 2.052610 -0.007430 0.058790 
#    y -0.007430 1.947210 -0.022070 
#    z 0.058790 -0.022070 2.123320 
# 
# From -- ./inp_files/244194.got.cif
#   From: 2010.05.17/outbox.cif.g08.bks.cpg/sg2_123_cif.got.tgz:244194.got - 2010.06.03 11:33:40.
