data_PCOD9005771
_publ_section_title
;
Structure prediction by ZEFSAII (Michael W. Deem and Ramdas Pophale) SiO2 
 PCOD9005771
Probable space group: P -1
;
_chemical_formula_sum "Si O2"
_cell_formula_units_Z 14
_cell_length_a 16.009863
_cell_length_b 16.392949
_cell_length_c 5.002051
_cell_angle_alpha 81.934581
_cell_angle_beta 63.909728
_cell_angle_gamma 32.957049
_cell_volume 566.778776
_symmetry_space_group_name_H-M "P -1"
_symmetry_group_IT_number 2
_symmetry_cell_setting 'triclinic'
loop_
_space_group_symop_operation_xyz
x,y,z
-x,-y,-z
loop_
_atom_site_type_symbol
_atom_site_label
_atom_site_fract_x
_atom_site_fract_y
_atom_site_fract_z
Si Si1 0.417928 0.132600 0.252772
Si Si2 0.251178 0.959503 0.390728
Si Si3 0.425545 0.727961 0.752439
Si Si4 0.248431 0.109458 0.690959
Si Si5 0.856246 0.540526 0.784139
Si Si6 0.141861 0.568738 0.660935
Si Si7 0.912976 0.115342 0.818572
O O1 0.250777 0.206413 0.592449
O O2 0.341457 0.267660 0.130431
O O3 0.568027 0.042312 0.307497
O O4 0.500000 0.000000 0.000000
O O5 0.363179 0.817885 0.520198
O O6 0.268268 0.039447 0.431449
O O7 0.336548 0.858662 0.041059
O O8 0.022266 0.117088 0.654394
O O9 0.653794 0.545205 0.546010
O O10 0.312924 0.728007 0.935070
O O11 0.051160 0.238265 0.054621
O O12 0.158442 0.476370 0.881368
O O13 0.000000 0.500000 0.500000
O O14 0.890413 0.435609 0.594261
O O15 0.000000 0.000000 0.500000
O O16 0.000000 0.000000 0.000000
#
# Coordination Sequence:
#
# PCOD9005771 Si02
#       7
#     2   2   2   2   2   2   2
#     4  11  26  42  63  85 125 167 215 259 309 366
#     4  10  21  39  64  91 122 162 205 254 306 368
#     4  10  21  38  63  93 121 161 206 251 307 374
#     4  11  26  41  60  94 126 164 210 262 313 366
#     4  12  25  44  63  86 122 170 211 255 312 365
#     4  12  26  41  63  92 127 164 207 259 312 370
#     4   8  16  34  60  89 120 154 201 249 300 368
#
# _framework density 24.700994999999999
#
# number of rings (size 3 to 8) (size 9 to 14) (size 15 to 20)
#    0.000    1.429    1.429    3.000   10.000    0.000 
#    0.000    0.714    0.000    0.000    0.000   14.000 
#    0.000    0.000    0.000    0.429    0.000    0.000 
#
# Total GULP energy -78322.894499 kJ/mol
# GULP energy per Si atom -5594.492464 kJ/mol
# Density = 2.464477 g / cm^3
# Si number density = 24.700995 Si / 1000 Ang^3
#
#
#
# Elastic Constant Matrix: (Units=GPa)
#
#
# Indices 1 2 3 4 5 6 
#
# 1 127.3674 13.3146 36.8461 12.5889 -29.4935 -31.4078
# 2 13.3146 50.8887 12.8522 -1.4141 -2.1039 -8.4300
# 3 36.8461 12.8522 113.0480 13.3925 -19.6369 -20.4265
# 4 12.5889 -1.4141 13.3925 55.1213 -21.2085 -6.8083
# 5 -29.4935 -2.1039 -19.6369 -21.2085 55.6919 11.5892
# 6 -31.4078 -8.4300 -20.4265 -6.8083 11.5892 29.3440
#
#
#
# Elastic Compliance Matrix: (Units=1/GPa)
#
#
# Indices 1 2 3 4 5 6 
#
# 1 0.011572 -0.000914 -0.001281 0.000285 0.003704 0.009835
# 2 -0.000914 0.021054 -0.001550 0.001446 -0.000637 0.004578
# 3 -0.001281 -0.001550 0.010712 -0.001142 0.001620 0.004735
# 4 0.000285 0.001446 -0.001142 0.021558 0.007613 0.001921
# 5 0.003704 -0.000637 0.001620 0.007613 0.023942 -0.002781
# 6 0.009835 0.004578 0.004735 0.001921 -0.002781 0.050761
#
#
# Mechanical properties :
#
#
# Convention : Reuss Voigt Hill
#
# Bulk Modulus (GPa) = 27.89658 46.36999 37.13328
# Shear Modulus (GPa) = 31.43901 43.25084 37.34492
#
# Velocity S-wave (km/s) = 3.57148 4.18901 3.89251
# Velocity P-wave (km/s) = 5.32217 6.49695 5.93868
#
# Compressibility (1/GPa) = 0.03584669
#
# Stress axis : x y z
#
# Youngs Moduli (GPa) = 86.41351 47.49771 93.35439
#
# Poissons Ratio (x) = 0.04341 0.11960
# Poissons Ratio (y) = 0.07898 0.14474
# Poissons Ratio (z) = 0.11071 0.07364
#
# Static dielectric constant tensor:
#      x y z
#    x 2.003100 -0.015420 -0.120080 
#    y -0.015420 2.019860 0.017150 
#    z -0.120080 0.017150 2.032770 
# 
# From -- ./inp_files/100117.got.cif
#   From: 2010.05.17/outbox.cif.g08.bks.cpg/sg2_51_cif.got.tgz:100117.got - 2010.06.03 11:33:40.
