data_PCOD9005358
_publ_section_title
;
Structure prediction by ZEFSAII (Michael W. Deem and Ramdas Pophale) SiO2 
 PCOD9005358
Probable space group: P -1
;
_chemical_formula_sum "Si O2"
_cell_formula_units_Z 14
_cell_length_a 8.969296
_cell_length_b 27.864491
_cell_length_c 8.886234
_cell_angle_alpha 38.745522
_cell_angle_beta 131.647575
_cell_angle_gamma 151.044666
_cell_volume 671.749702
_symmetry_space_group_name_H-M "P -1"
_symmetry_group_IT_number 2
_symmetry_cell_setting 'triclinic'
loop_
_space_group_symop_operation_xyz
x,y,z
-x,-y,-z
loop_
_atom_site_type_symbol
_atom_site_label
_atom_site_fract_x
_atom_site_fract_y
_atom_site_fract_z
Si Si1 0.748137 0.862851 0.217610
Si Si2 0.171117 0.617778 0.915828
Si Si3 0.837209 0.156438 0.326968
Si Si4 0.330511 0.624567 0.344859
Si Si5 0.381966 0.137126 0.553819
Si Si6 0.255964 0.385145 0.215544
Si Si7 0.302453 0.000093 0.590617
O O1 0.497134 0.751069 0.210572
O O2 0.557179 0.842370 0.278748
O O3 0.958546 0.853078 0.440965
O O4 0.000000 0.000000 0.000000
O O5 0.441281 0.740480 0.706061
O O6 0.927080 0.612399 0.804791
O O7 0.287712 0.621220 0.146368
O O8 0.000000 0.500000 0.000000
O O9 0.774820 0.111475 0.224226
O O10 0.034858 0.287401 0.176698
O O11 0.533680 0.080948 0.408686
O O12 0.575040 0.630824 0.537609
O O13 0.000000 0.500000 0.500000
O O14 0.015139 0.046859 0.524193
O O15 0.444182 0.076925 0.650077
O O16 0.500000 0.500000 0.000000
#
# Coordination Sequence:
#
# PCOD9005358 Si02
#       7
#     2   2   2   2   2   2   2
#     4  10  23  40  64  93 138 177 223 279 336 405
#     4  12  26  43  72  96 135 179 225 290 343 391
#     4   9  19  37  60  94 128 172 224 263 330 409
#     4  11  24  44  69 100 130 181 236 271 338 415
#     4  10  21  38  61  95 133 170 220 274 338 390
#     4  11  23  43  67  96 136 177 226 279 331 407
#     4   9  18  33  62  87 126 164 222 253 327 399
#
# _framework density 20.841097999999999
#
# number of rings (size 3 to 8) (size 9 to 14) (size 15 to 20)
#    0.000    1.714    2.857    0.857   10.000    0.571 
#    0.000    2.143    0.000    0.000    0.000    0.000 
#    0.000    0.000    0.000    0.000    0.000    0.000 
#
# Total GULP energy -78017.670523 kJ/mol
# GULP energy per Si atom -5572.690752 kJ/mol
# Density = 2.079366 g / cm^3
# Si number density = 20.841098 Si / 1000 Ang^3
#
#
#
# Elastic Constant Matrix: (Units=GPa)
#
#
# Indices 1 2 3 4 5 6 
#
# 1 133.3001 62.7289 40.2513 -8.9412 2.6190 -41.0175
# 2 62.7289 147.0578 51.0412 -18.8933 0.8633 -45.7274
# 3 40.2513 51.0412 87.6828 0.8829 -6.0075 -15.8897
# 4 -8.9412 -18.8933 0.8829 37.0097 0.9413 5.7101
# 5 2.6190 0.8633 -6.0075 0.9413 30.5418 3.0355
# 6 -41.0175 -45.7274 -15.8897 5.7101 3.0355 54.2533
#
#
#
# Elastic Compliance Matrix: (Units=1/GPa)
#
#
# Indices 1 2 3 4 5 6 
#
# 1 0.011274 -0.001571 -0.003293 0.001093 -0.002224 0.006244
# 2 -0.001571 0.012148 -0.005255 0.004903 -0.002100 0.007114
# 3 -0.003293 -0.005255 0.015897 -0.003632 0.003878 -0.002097
# 4 0.001093 0.004903 -0.003632 0.029789 -0.001951 0.000869
# 5 -0.002224 -0.002100 0.003878 -0.001951 0.034215 -0.004025
# 6 0.006244 0.007114 -0.002097 0.000869 -0.004025 0.028669
#
#
# Mechanical properties :
#
#
# Convention : Reuss Voigt Hill
#
# Bulk Modulus (GPa) = 52.40250 75.12038 63.76144
# Shear Modulus (GPa) = 31.52779 38.62890 35.07835
#
# Velocity S-wave (km/s) = 3.89365 4.30990 4.10705
# Velocity P-wave (km/s) = 6.73888 7.80317 7.29047
#
# Compressibility (1/GPa) = 0.01908306
#
# Stress axis : x y z
#
# Youngs Moduli (GPa) = 88.70052 82.31601 62.90358
#
# Poissons Ratio (x) = 0.12931 0.20712
# Poissons Ratio (y) = 0.13934 0.33054
# Poissons Ratio (z) = 0.29206 0.43254
#
# Static dielectric constant tensor:
#      x y z
#    x 1.736570 -0.044630 0.003920 
#    y -0.044630 1.848320 -0.021530 
#    z 0.003920 -0.021530 1.744380 
# 
# From -- ./inp_files/177322.got.cif
#   From: 2010.05.17/outbox.cif.g08.bks.cpg/sg2_89_cif.got.tgz:177322.got - 2010.06.03 11:33:40.
