data_PCOD9005576
_publ_section_title
;
Structure prediction by ZEFSAII (Michael W. Deem and Ramdas Pophale) SiO2 
 PCOD9005576
Probable space group: P -1
;
_chemical_formula_sum "Si O2"
_cell_formula_units_Z 16
_cell_length_a 22.074094
_cell_length_b 7.946048
_cell_length_c 13.307998
_cell_angle_alpha 46.624438
_cell_angle_beta 26.633607
_cell_angle_gamma 34.145767
_cell_volume 574.160895
_symmetry_space_group_name_H-M "P -1"
_symmetry_group_IT_number 2
_symmetry_cell_setting 'triclinic'
loop_
_space_group_symop_operation_xyz
x,y,z
-x,-y,-z
loop_
_atom_site_type_symbol
_atom_site_label
_atom_site_fract_x
_atom_site_fract_y
_atom_site_fract_z
Si Si1 0.438307 0.857697 0.030546
Si Si2 0.796727 0.399587 0.231088
Si Si3 0.788026 0.229034 0.101024
Si Si4 0.817735 0.585223 0.521464
Si Si5 0.786474 0.005618 0.526176
Si Si6 0.895749 0.160298 0.758346
Si Si7 0.694590 0.811996 0.397951
Si Si8 0.370136 0.855490 0.921121
O O1 0.517555 0.512187 0.082199
O O2 0.327311 0.038880 0.218681
O O3 0.603181 0.825026 0.762473
O O4 0.317223 0.975598 0.063747
O O5 0.749763 0.436327 0.167989
O O6 0.769342 0.637740 0.252429
O O7 0.689683 0.305156 0.480049
O O8 0.006584 0.093353 0.056096
O O9 0.681184 0.104770 0.307560
O O10 0.781482 0.355360 0.948964
O O11 0.893861 0.729968 0.400323
O O12 0.880443 0.309563 0.613731
O O13 0.820523 0.587999 0.396486
O O14 0.906950 0.009992 0.424734
O O15 0.809396 0.009832 0.925208
O O16 0.506044 0.890274 0.660820
#
# Coordination Sequence:
#
# PCOD9005576 Si02
#       8
#     2   2   2   2   2   2   2   2
#     4   9  18  34  59  86 121 157 203 245 293 361
#     4  10  21  38  63  89 117 156 211 244 289 362
#     4  10  22  41  59  88 124 160 198 250 296 360
#     4  10  21  38  62  94 120 155 199 256 302 356
#     4  11  19  36  61  92 117 162 202 246 298 362
#     4  10  23  38  57  88 134 156 184 261 316 339
#     4  11  20  39  69  86 113 165 212 237 295 364
#     4   9  19  36  55  88 123 157 195 251 301 355
#
# _framework density 27.866752999999999
#
# number of rings (size 3 to 8) (size 9 to 14) (size 15 to 20)
#    0.000    2.000    2.500    1.875    0.000    1.000 
#    2.250    1.875    0.000    0.000    0.000    0.000 
#    0.000    0.000    0.000    0.000    0.000    0.000 
#
# Total GULP energy -89459.755471 kJ/mol
# GULP energy per Si atom -5591.234717 kJ/mol
# Density = 2.780333 g / cm^3
# Si number density = 27.866753 Si / 1000 Ang^3
#
#
#
# Elastic Constant Matrix: (Units=GPa)
#
#
# Indices 1 2 3 4 5 6 
#
# 1 177.5240 75.0779 49.4287 14.3808 33.9105 15.9937
# 2 75.0779 86.9490 46.8837 -18.1882 13.3459 4.8472
# 3 49.4287 46.8837 111.3337 -13.1956 3.5557 -0.9802
# 4 14.3808 -18.1882 -13.1956 40.7934 0.8838 5.7475
# 5 33.9105 13.3459 3.5557 0.8838 54.9859 -2.3265
# 6 15.9937 4.8472 -0.9802 5.7475 -2.3265 37.5711
#
#
#
# Elastic Compliance Matrix: (Units=1/GPa)
#
#
# Indices 1 2 3 4 5 6 
#
# 1 0.012946 -0.011136 -0.002067 -0.009669 -0.005118 -0.002966
# 2 -0.011136 0.026584 -0.004563 0.014432 0.000436 -0.000989
# 3 -0.002067 -0.004563 0.012061 0.002345 0.001629 0.001525
# 4 -0.009669 0.014432 0.002345 0.035506 0.001610 -0.003017
# 5 -0.005118 0.000436 0.001629 0.001610 0.021242 0.003234
# 6 -0.002966 -0.000989 0.001525 -0.003017 0.003234 0.028708
#
#
# Mechanical properties :
#
#
# Convention : Reuss Voigt Hill
#
# Bulk Modulus (GPa) = 62.26903 79.84303 71.05603
# Shear Modulus (GPa) = 28.10096 40.29786 34.19941
#
# Velocity S-wave (km/s) = 3.17898 3.80688 3.50701
# Velocity P-wave (km/s) = 5.98902 6.93087 6.47709
#
# Compressibility (1/GPa) = 0.01605935
#
# Stress axis : x y z
#
# Youngs Moduli (GPa) = 77.24413 37.61711 82.91525
#
# Poissons Ratio (x) = 0.41889 0.17138
# Poissons Ratio (y) = 0.86016 0.37833
# Poissons Ratio (z) = 0.15966 0.17164
#
# Static dielectric constant tensor:
#      x y z
#    x 2.132300 0.001920 0.006350 
#    y 0.001920 2.219950 0.051460 
#    z 0.006350 0.051460 2.229830 
# 
# From -- ./inp_files/469896.got.cif
#   From: 2010.05.17/outbox.cif.g08.bks.cpg/sg2_235_cif.got.tgz:469896.got - 2010.06.03 11:33:40.
