data_PCOD9005178
_publ_section_title
;
Structure prediction by ZEFSAII (Michael W. Deem and Ramdas Pophale) SiO2 
 PCOD9005178
Probable space group: P -1
;
_chemical_formula_sum "Si O2"
_cell_formula_units_Z 14
_cell_length_a 19.029621
_cell_length_b 6.955546
_cell_length_c 6.056501
_cell_angle_alpha 92.436468
_cell_angle_beta 120.697109
_cell_angle_gamma 100.398361
_cell_volume 669.349740
_symmetry_space_group_name_H-M "P -1"
_symmetry_group_IT_number 2
_symmetry_cell_setting 'triclinic'
loop_
_space_group_symop_operation_xyz
x,y,z
-x,-y,-z
loop_
_atom_site_type_symbol
_atom_site_label
_atom_site_fract_x
_atom_site_fract_y
_atom_site_fract_z
Si Si1 0.927955 0.963635 0.569752
Si Si2 0.297403 0.050596 0.486985
Si Si3 0.572797 0.905030 0.696793
Si Si4 0.407959 0.411740 0.962291
Si Si5 0.822762 0.107392 0.071622
Si Si6 0.018325 0.715049 0.942207
Si Si7 0.311883 0.762432 0.852383
O O1 0.844888 0.979038 0.306075
O O2 0.952084 0.133507 0.800871
O O3 0.000000 0.000000 0.500000
O O4 0.936729 0.765976 0.698751
O O5 0.366477 0.065423 0.410893
O O6 0.339238 0.239959 0.713388
O O7 0.280681 0.838673 0.576277
O O8 0.215470 0.035981 0.200976
O O9 0.500000 0.000000 0.500000
O O10 0.566175 0.688866 0.777880
O O11 0.612732 0.050523 0.963438
O O12 0.355264 0.579189 0.917060
O O13 0.500000 0.500000 0.000000
O O14 0.759141 0.230941 0.076672
O O15 0.907424 0.247350 0.118261
O O16 0.000000 0.500000 0.000000
#
# Coordination Sequence:
#
# PCOD9005178 Si02
#       7
#     2   2   2   2   2   2   2
#     4   9  20  40  64  90 122 158 199 247 303 367
#     4  10  22  40  59  85 124 163 203 253 312 362
#     4  10  21  38  61  85 116 157 203 256 310 368
#     4  11  23  39  63  92 122 162 213 259 305 365
#     4  10  21  41  62  86 129 166 199 254 310 367
#     4  10  21  41  67  94 121 159 207 251 303 368
#     4  10  22  40  58  86 123 161 204 254 312 364
#
# _framework density 20.915821000000001
#
# number of rings (size 3 to 8) (size 9 to 14) (size 15 to 20)
#    0.000    2.000    0.000    2.571    0.000    9.143 
#    0.000   34.286    0.000    0.000    0.000    0.000 
#    0.000    0.000    0.000    0.000    0.000    0.000 
#
# Total GULP energy -77951.223262 kJ/mol
# GULP energy per Si atom -5567.944519 kJ/mol
# Density = 2.086822 g / cm^3
# Si number density = 20.915821 Si / 1000 Ang^3
#
#
#
# Elastic Constant Matrix: (Units=GPa)
#
#
# Indices 1 2 3 4 5 6 
#
# 1 96.1142 57.5515 26.4864 -18.5015 3.8710 -7.7613
# 2 57.5515 150.3813 50.7034 -29.0178 -0.8141 -21.5645
# 3 26.4864 50.7034 104.4568 -26.5554 6.6473 -15.6806
# 4 -18.5015 -29.0178 -26.5554 26.3768 2.6449 1.3965
# 5 3.8710 -0.8141 6.6473 2.6449 30.9040 -8.3240
# 6 -7.7613 -21.5645 -15.6806 1.3965 -8.3240 29.2843
#
#
#
# Elastic Compliance Matrix: (Units=1/GPa)
#
#
# Indices 1 2 3 4 5 6 
#
# 1 0.014167 -0.004493 0.000015 0.005285 -0.002484 -0.000504
# 2 -0.004493 0.011225 -0.001743 0.006858 0.002396 0.006496
# 3 0.000015 -0.001743 0.014636 0.012849 -0.002918 0.005115
# 4 0.005285 0.006858 0.012849 0.062274 -0.006264 0.008581
# 5 -0.002484 0.002396 -0.002918 -0.006264 0.036660 0.010263
# 6 -0.000504 0.006496 0.005115 0.008581 0.010263 0.044044
#
#
# Mechanical properties :
#
#
# Convention : Reuss Voigt Hill
#
# Bulk Modulus (GPa) = 36.25134 68.93722 52.59428
# Shear Modulus (GPa) = 24.43263 31.72709 28.07986
#
# Velocity S-wave (km/s) = 3.42152 3.89896 3.66801
# Velocity P-wave (km/s) = 5.74271 7.30069 6.56806
#
# Compressibility (1/GPa) = 0.02758519
#
# Stress axis : x y z
#
# Youngs Moduli (GPa) = 70.58618 89.09004 68.32508
#
# Poissons Ratio (x) = 0.40024 -0.00099
# Poissons Ratio (y) = 0.31711 0.11910
# Poissons Ratio (z) = -0.00102 0.15530
#
# Static dielectric constant tensor:
#      x y z
#    x 1.752040 -0.011220 0.047020 
#    y -0.011220 1.783260 -0.042750 
#    z 0.047020 -0.042750 1.887120 
# 
# From -- ./inp_files/7496.got.cif
#   From: 2010.05.17/outbox.cif.g08.bks.cpg/sg2_4_cif.got.tgz:7496.got - 2010.06.03 11:33:40.
