data_PCOD9005124
_publ_section_title
;
Structure prediction by ZEFSAII (Michael W. Deem and Ramdas Pophale) SiO2 
 PCOD9005124
Probable space group: P -1
;
_chemical_formula_sum "Si O2"
_cell_formula_units_Z 16
_cell_length_a 8.923330
_cell_length_b 15.541680
_cell_length_c 13.530648
_cell_angle_alpha 45.811864
_cell_angle_beta 112.341705
_cell_angle_gamma 72.492349
_cell_volume 649.362634
_symmetry_space_group_name_H-M "P -1"
_symmetry_group_IT_number 2
_symmetry_cell_setting 'triclinic'
loop_
_space_group_symop_operation_xyz
x,y,z
-x,-y,-z
loop_
_atom_site_type_symbol
_atom_site_label
_atom_site_fract_x
_atom_site_fract_y
_atom_site_fract_z
Si Si1 0.055124 0.805037 0.594335
Si Si2 0.755614 0.807022 0.799944
Si Si3 0.339429 0.913395 0.303483
Si Si4 0.050315 0.357916 0.554654
Si Si5 0.279992 0.620198 0.996347
Si Si6 0.037257 0.539385 0.764391
Si Si7 0.172939 0.901422 0.872584
Si Si8 0.259326 0.007033 0.991678
O O1 0.071231 0.825309 0.698208
O O2 0.996637 0.698920 0.666150
O O3 0.837627 0.002618 0.300058
O O4 0.399097 0.608442 0.793578
O O5 0.084058 0.629693 0.973018
O O6 0.500000 0.000000 0.500000
O O7 0.725484 0.918560 0.794072
O O8 0.736334 0.685062 0.934280
O O9 0.710470 0.674072 0.577018
O O10 0.176246 0.916209 0.327158
O O11 0.183418 0.007108 0.081057
O O12 0.870688 0.497533 0.296845
O O13 0.014824 0.255340 0.685167
O O14 0.000000 0.500000 0.500000
O O15 0.415337 0.129025 0.799037
O O16 0.320756 0.683580 0.047846
O O17 0.313325 0.874690 0.026053
#
# Coordination Sequence:
#
# PCOD9005124 Si02
#       8
#     2   2   2   2   2   2   2   2
#     4  11  23  41  63  91 126 164 210 258 314 367
#     4  11  24  43  65  92 123 166 212 257 312 371
#     4  10  23  41  63  93 131 164 206 257 306 372
#     4  10  21  38  60  92 129 161 202 257 307 366
#     4  10  25  41  60  90 125 164 209 260 312 369
#     4  11  23  40  64  92 122 167 206 256 313 368
#     4  11  22  40  64  91 127 165 208 254 312 367
#     4  10  21  38  63  94 124 164 209 251 306 371
#
# _framework density 24.639544999999998
#
# number of rings (size 3 to 8) (size 9 to 14) (size 15 to 20)
#    0.000    1.500    1.250    3.000    1.750    8.000 
#    0.000    0.000    0.000    8.250    0.000    0.000 
#    0.000    0.000    0.000    0.000    0.000    0.000 
#
# Total GULP energy -89514.977683 kJ/mol
# GULP energy per Si atom -5594.686105 kJ/mol
# Density = 2.458346 g / cm^3
# Si number density = 24.639545 Si / 1000 Ang^3
#
#
#
# Elastic Constant Matrix: (Units=GPa)
#
#
# Indices 1 2 3 4 5 6 
#
# 1 103.4660 7.2239 50.6658 12.9425 -15.0796 -6.1781
# 2 7.2239 115.3513 14.3540 36.0151 -16.9778 2.2474
# 3 50.6658 14.3540 107.8188 16.1160 -20.3129 -9.4526
# 4 12.9425 36.0151 16.1160 25.5147 -5.6668 -0.1183
# 5 -15.0796 -16.9778 -20.3129 -5.6668 50.7449 0.5920
# 6 -6.1781 2.2474 -9.4526 -0.1183 0.5920 35.6035
#
#
#
# Elastic Compliance Matrix: (Units=1/GPa)
#
#
# Indices 1 2 3 4 5 6 
#
# 1 0.013054 0.001787 -0.005149 -0.005490 0.001794 0.000737
# 2 0.001787 0.016529 0.001254 -0.024172 0.003870 -0.000545
# 3 -0.005149 0.001254 0.013426 -0.006857 0.003469 0.002511
# 4 -0.005490 -0.024172 -0.006857 0.079635 -0.003560 -0.000924
# 5 0.001794 0.003870 0.003469 -0.003560 0.022518 0.000602
# 6 0.000737 -0.000545 0.002511 -0.000924 0.000602 0.028903
#
#
# Mechanical properties :
#
#
# Convention : Reuss Voigt Hill
#
# Bulk Modulus (GPa) = 25.77766 52.34704 39.06235
# Shear Modulus (GPa) = 26.14916 39.33213 32.74065
#
# Velocity S-wave (km/s) = 3.26125 3.99971 3.64920
# Velocity P-wave (km/s) = 4.96645 6.52851 5.80030
#
# Compressibility (1/GPa) = 0.03879328
#
# Stress axis : x y z
#
# Youngs Moduli (GPa) = 76.60589 60.50131 74.48238
#
# Poissons Ratio (x) = -0.10812 0.38350
# Poissons Ratio (y) = -0.13690 -0.09342
# Poissons Ratio (z) = 0.39443 -0.07588
#
# Static dielectric constant tensor:
#      x y z
#    x 1.956550 -0.013370 0.028890 
#    y -0.013370 1.914110 0.006190 
#    z 0.028890 0.006190 2.040260 
# 
# From -- ./inp_files/364767.got.cif
#   From: 2010.05.17/outbox.cif.g08.bks.cpg/sg2_183_cif.got.tgz:364767.got - 2010.06.03 11:33:40.
