data_PCOD9005083
_publ_section_title
;
Structure prediction by ZEFSAII (Michael W. Deem and Ramdas Pophale) SiO2 
 PCOD9005083
Probable space group: P -1
;
_chemical_formula_sum "Si O2"
_cell_formula_units_Z 16
_cell_length_a 9.242845
_cell_length_b 22.839589
_cell_length_c 8.668943
_cell_angle_alpha 132.454148
_cell_angle_beta 79.088196
_cell_angle_gamma 62.044944
_cell_volume 752.300299
_symmetry_space_group_name_H-M "P -1"
_symmetry_group_IT_number 2
_symmetry_cell_setting 'triclinic'
loop_
_space_group_symop_operation_xyz
x,y,z
-x,-y,-z
loop_
_atom_site_type_symbol
_atom_site_label
_atom_site_fract_x
_atom_site_fract_y
_atom_site_fract_z
Si Si1 0.723515 0.580023 0.657954
Si Si2 0.229515 0.085893 0.277391
Si Si3 0.983868 0.668382 0.374342
Si Si4 0.706427 0.107774 0.716947
Si Si5 0.568613 0.162878 0.196012
Si Si6 0.229664 0.090320 0.655159
Si Si7 0.809598 0.374682 0.421574
Si Si8 0.439616 0.391486 0.604885
O O1 0.695196 0.505871 0.607199
O O2 0.689666 0.578320 0.478331
O O3 0.000000 0.500000 0.500000
O O4 0.485020 0.742334 0.049158
O O5 0.020019 0.242235 0.541532
O O6 0.225677 0.089881 0.470325
O O7 0.500000 0.000000 0.000000
O O8 0.226317 0.994425 0.067989
O O9 0.715770 0.741202 0.525113
O O10 0.019334 0.670612 0.550623
O O11 0.217984 0.512842 0.985631
O O12 0.760475 0.001251 0.434082
O O13 0.575832 0.151252 0.987664
O O14 0.000000 0.000000 0.500000
O O15 0.597634 0.243319 0.364898
O O16 0.500000 0.000000 0.500000
O O17 0.996862 0.248069 0.038260
O O18 0.609328 0.395203 0.549991
#
# Coordination Sequence:
#
# PCOD9005083 Si02
#       8
#     2   2   2   2   2   2   2   2
#     4  11  23  42  66  95 125 163 214 265 315 389
#     4   9  19  36  59  86 116 155 204 256 308 369
#     4  11  22  40  61  85 124 170 213 258 312 380
#     4  10  21  38  60  90 126 160 197 257 324 374
#     4   9  19  37  60  85 115 159 211 255 303 376
#     4  11  20  36  63  91 121 162 209 263 317 377
#     4  12  24  39  59  94 128 162 212 267 317 378
#     4  11  23  40  61  88 123 163 205 265 324 369
#
# _framework density 21.268103
#
# number of rings (size 3 to 8) (size 9 to 14) (size 15 to 20)
#    0.000    1.500    0.000    7.875    0.000    2.000 
#    0.000    3.125    0.000    0.000    0.000    0.000 
#    0.000    0.000    0.000    0.000    0.000    0.000 
#
# Total GULP energy -89220.957972 kJ/mol
# GULP energy per Si atom -5576.309873 kJ/mol
# Density = 2.121970 g / cm^3
# Si number density = 21.268103 Si / 1000 Ang^3
#
#
#
# Elastic Constant Matrix: (Units=GPa)
#
#
# Indices 1 2 3 4 5 6 
#
# 1 40.4672 99.1183 -173.9530 -32.8929 3.0249 -23.7467
# 2 99.1183 -65.8371 329.8959 112.2346 22.1480 89.5077
# 3 -173.9530 329.8959 -488.9919 -147.0591 7.7243 -112.4198
# 4 -32.8929 112.2346 -147.0591 -5.3485 10.8795 -23.4484
# 5 3.0249 22.1480 7.7243 10.8795 33.9708 10.0511
# 6 -23.7467 89.5077 -112.4198 -23.4484 10.0511 5.4576
#
#
#
# Elastic Compliance Matrix: (Units=1/GPa)
#
#
# Indices 1 2 3 4 5 6 
#
# 1 0.012096 0.002202 0.000142 -0.005465 0.000881 -0.005663
# 2 0.002202 0.007943 0.005660 -0.001909 -0.005287 -0.002580
# 3 0.000142 0.005660 0.005693 -0.007686 -0.000393 -0.007241
# 4 -0.005465 -0.001909 -0.007686 0.031660 -0.005040 -0.005477
# 5 0.000881 -0.005287 -0.000393 -0.005040 0.036308 -0.006080
# 6 -0.005663 -0.002580 -0.007241 -0.005477 -0.006080 0.039431
#
#
# Mechanical properties :
#
#
# Convention : Reuss Voigt Hill
#
# Bulk Modulus (GPa) = 23.95913 -0.47103 11.74405
# Shear Modulus (GPa) = 38.15694 -44.47889 -3.16097
#
# Velocity S-wave (km/s) = 4.24027 -4.57808 -1.22044
# Velocity P-wave (km/s) = 5.93826 5.30726 1.88359
#
# Compressibility (1/GPa) = 0.04173775
#
# Stress axis : x y z
#
# Youngs Moduli (GPa) = 82.67001 125.89236 175.66501
#
# Poissons Ratio (x) = -0.27717 -0.02486
# Poissons Ratio (y) = -0.18201 -0.99419
# Poissons Ratio (z) = -0.01170 -0.71250
#
# Static dielectric constant tensor:
#      x y z
#    x 1.860590 -0.088520 -0.021170 
#    y -0.088520 1.927850 0.107300 
#    z -0.021170 0.107300 1.757620 
# 
# From -- ./inp_files/225654.got.cif
#   From: 2010.05.17/outbox.cif.g08.bks.cpg/sg2_113_cif.got.tgz:225654.got - 2010.06.03 11:33:40.
