data_PCOD9005686
_publ_section_title
;
Structure prediction by ZEFSAII (Michael W. Deem and Ramdas Pophale) SiO2 
 PCOD9005686
Probable space group: P -1
;
_chemical_formula_sum "Si O2"
_cell_formula_units_Z 16
_cell_length_a 10.695632
_cell_length_b 20.515599
_cell_length_c 14.330504
_cell_angle_alpha 146.756744
_cell_angle_beta 27.665914
_cell_angle_gamma 133.272819
_cell_volume 781.298456
_symmetry_space_group_name_H-M "P -1"
_symmetry_group_IT_number 2
_symmetry_cell_setting 'triclinic'
loop_
_space_group_symop_operation_xyz
x,y,z
-x,-y,-z
loop_
_atom_site_type_symbol
_atom_site_label
_atom_site_fract_x
_atom_site_fract_y
_atom_site_fract_z
Si Si1 0.254280 0.368458 0.265097
Si Si2 0.721294 0.010768 0.635787
Si Si3 0.793221 0.736468 0.209947
Si Si4 0.568081 0.361133 0.317782
Si Si5 0.209774 0.205322 0.255745
Si Si6 0.786287 0.626250 0.266898
Si Si7 0.153336 0.773572 0.303690
Si Si8 0.261685 0.431858 0.116147
O O1 0.157379 0.253538 0.241694
O O2 0.256393 0.394489 0.183900
O O3 0.040830 0.478524 0.587194
O O4 0.582895 0.334197 0.022348
O O5 0.690169 0.878835 0.465263
O O6 0.769866 0.102038 0.630872
O O7 0.000000 0.000000 0.500000
O O8 0.435656 0.078403 0.954812
O O9 0.704912 0.648522 0.240654
O O10 0.723759 0.687465 0.098322
O O11 0.120072 0.707321 0.978621
O O12 0.500000 0.500000 0.500000
O O13 0.373903 0.296696 0.307130
O O14 0.486235 0.362516 0.480601
O O15 0.948394 0.214215 0.507202
O O16 0.917674 0.736838 0.351417
O O17 0.000000 0.500000 0.000000
O O18 0.500000 0.500000 0.000000
#
# Coordination Sequence:
#
# PCOD9005686 Si02
#       8
#     2   2   2   2   2   2   2   2
#     4  10  22  42  64  88 119 161 212 256 314 359
#     4  11  21  40  61  91 132 168 202 242 305 376
#     4  12  24  40  59  91 129 162 204 252 307 370
#     4  11  21  33  56  91 125 161 194 245 312 370
#     4  10  21  38  63  89 125 167 204 251 304 368
#     4  11  23  32  58  95 126 156 197 242 307 382
#     4  10  22  40  64  91 125 166 202 251 307 371
#     4  11  26  41  64  89 124 164 209 264 312 359
#
# _framework density 20.478729999999999
#
# number of rings (size 3 to 8) (size 9 to 14) (size 15 to 20)
#    0.000    1.250    3.750    2.250    5.250    2.500 
#    0.000    2.500    0.000    4.500    0.000    0.000 
#    0.000    0.000    0.000    0.000    0.000    0.000 
#
# Total GULP energy -89207.191093 kJ/mol
# GULP energy per Si atom -5575.449443 kJ/mol
# Density = 2.043212 g / cm^3
# Si number density = 20.478730 Si / 1000 Ang^3
#
#
#
# Elastic Constant Matrix: (Units=GPa)
#
#
# Indices 1 2 3 4 5 6 
#
# 1 36.5011 25.3334 12.4954 -1.3549 10.5329 -9.4354
# 2 25.3334 81.6571 47.2908 -12.0350 14.1121 -10.5056
# 3 12.4954 47.2908 136.0502 0.4725 10.5901 1.5125
# 4 -1.3549 -12.0350 0.4725 48.3934 0.2098 15.4834
# 5 10.5329 14.1121 10.5901 0.2098 29.4878 -3.4603
# 6 -9.4354 -10.5056 1.5125 15.4834 -3.4603 23.7788
#
#
#
# Elastic Compliance Matrix: (Units=1/GPa)
#
#
# Indices 1 2 3 4 5 6 
#
# 1 0.040140 -0.010404 0.000403 -0.005920 -0.007816 0.014023
# 2 -0.010404 0.020402 -0.005882 0.004228 -0.003735 0.001963
# 3 0.000403 -0.005882 0.009473 -0.000654 -0.001051 -0.002769
# 4 -0.005920 0.004228 -0.000654 0.027539 -0.002061 -0.018671
# 5 -0.007816 -0.003735 -0.001051 -0.002061 0.039160 0.002356
# 6 0.014023 0.001963 -0.002769 -0.018671 0.002356 0.061163
#
#
# Mechanical properties :
#
#
# Convention : Reuss Voigt Hill
#
# Bulk Modulus (GPa) = 26.14517 47.16085 36.65301
# Shear Modulus (GPa) = 20.62783 31.60458 26.11620
#
# Velocity S-wave (km/s) = 3.17721 3.93273 3.57499
# Velocity P-wave (km/s) = 5.12389 6.61068 5.91419
#
# Compressibility (1/GPa) = 0.03824799
#
# Stress axis : x y z
#
# Youngs Moduli (GPa) = 24.91290 49.01574 105.56767
#
# Poissons Ratio (x) = 0.50997 -0.04253
# Poissons Ratio (y) = 0.25920 0.62093
# Poissons Ratio (z) = -0.01004 0.28830
#
# Static dielectric constant tensor:
#      x y z
#    x 1.767060 -0.034630 -0.005780 
#    y -0.034630 1.758760 -0.006370 
#    z -0.005780 -0.006370 1.730250 
# 
# From -- ./inp_files/524083.got.cif
#   From: 2010.05.17/outbox.cif.g08.bks.cpg/sg2_263_cif.got.tgz:524083.got - 2010.06.03 11:33:40.
