data_PCOD9005491
_publ_section_title
;
Structure prediction by ZEFSAII (Michael W. Deem and Ramdas Pophale) SiO2 
 PCOD9005491
Probable space group: P -1
;
_chemical_formula_sum "Si O2"
_cell_formula_units_Z 16
_cell_length_a 8.722072
_cell_length_b 12.869244
_cell_length_c 14.889255
_cell_angle_alpha 151.564658
_cell_angle_beta 108.416469
_cell_angle_gamma 77.892397
_cell_volume 746.427833
_symmetry_space_group_name_H-M "P -1"
_symmetry_group_IT_number 2
_symmetry_cell_setting 'triclinic'
loop_
_space_group_symop_operation_xyz
x,y,z
-x,-y,-z
loop_
_atom_site_type_symbol
_atom_site_label
_atom_site_fract_x
_atom_site_fract_y
_atom_site_fract_z
Si Si1 0.120586 0.142792 0.700775
Si Si2 0.748512 0.426251 0.047554
Si Si3 0.690005 0.437098 0.388747
Si Si4 0.038205 0.946516 0.203738
Si Si5 0.520529 0.965548 0.307192
Si Si6 0.129387 0.912718 0.890545
Si Si7 0.666373 0.680150 0.401301
Si Si8 0.581365 0.853589 0.766255
O O1 0.164565 0.397162 0.872468
O O2 0.290465 0.046863 0.661089
O O3 0.042037 0.120776 0.767245
O O4 0.000000 0.000000 0.500000
O O5 0.706789 0.567686 0.232154
O O6 0.867022 0.249858 0.960961
O O7 0.585200 0.269111 0.866064
O O8 0.607984 0.493731 0.322706
O O9 0.692956 0.667924 0.616965
O O10 0.576994 0.266117 0.301716
O O11 0.853893 0.342492 0.319756
O O12 0.908277 0.989532 0.138176
O O13 0.171740 0.164454 0.412051
O O14 0.465398 0.154161 0.503229
O O15 0.470196 0.029374 0.244729
O O16 0.305131 0.992252 0.028016
O O17 0.000000 0.000000 0.000000
#
# Coordination Sequence:
#
# PCOD9005491 Si02
#       8
#     2   2   2   2   2   2   2   2
#     4  12  25  48  69  98 131 171 220 286 336 378
#     4  11  23  46  69  93 132 176 222 268 335 390
#     4  10  21  38  62  90 131 173 217 260 314 389
#     4  11  25  43  65  98 138 172 218 275 325 393
#     4  10  23  44  70  96 132 172 226 269 324 400
#     4  12  23  38  65  98 134 172 211 265 327 389
#     4  10  21  42  66  95 132 177 219 264 324 399
#     4  10  22  42  63  95 133 172 220 264 318 394
#
# _framework density 21.435426
#
# number of rings (size 3 to 8) (size 9 to 14) (size 15 to 20)
#    0.000    1.250    1.250    5.625    0.000    4.500 
#   11.250    0.000    0.000    0.000    0.000    0.000 
#    0.000    0.000    0.000    0.000    0.000    0.000 
#
# Total GULP energy -89424.407243 kJ/mol
# GULP energy per Si atom -5589.025453 kJ/mol
# Density = 2.138664 g / cm^3
# Si number density = 21.435426 Si / 1000 Ang^3
#
#
#
# Elastic Constant Matrix: (Units=GPa)
#
#
# Indices 1 2 3 4 5 6 
#
# 1 69.8353 21.4272 48.9632 10.3920 -3.8905 -11.3240
# 2 21.4272 80.6504 37.4612 7.3496 1.8694 -5.8842
# 3 48.9632 37.4612 101.6659 8.9639 -19.8071 -13.8342
# 4 10.3920 7.3496 8.9639 27.4748 1.5239 1.3601
# 5 -3.8905 1.8694 -19.8071 1.5239 43.0851 3.1170
# 6 -11.3240 -5.8842 -13.8342 1.3601 3.1170 46.4463
#
#
#
# Elastic Compliance Matrix: (Units=1/GPa)
#
#
# Indices 1 2 3 4 5 6 
#
# 1 0.022934 -0.000438 -0.010614 -0.005073 -0.002807 0.002711
# 2 -0.000438 0.015569 -0.005977 -0.001878 -0.003423 0.000370
# 3 -0.010614 -0.005977 0.019052 -0.001134 0.007967 0.001828
# 4 -0.005073 -0.001878 -0.001134 0.039444 -0.002089 -0.002827
# 5 -0.002807 -0.003423 0.007967 -0.002089 0.026877 -0.000487
# 6 0.002711 0.000370 0.001828 -0.002827 -0.000487 0.022898
#
#
# Mechanical properties :
#
#
# Convention : Reuss Voigt Hill
#
# Bulk Modulus (GPa) = 42.55989 51.98385 47.27187
# Shear Modulus (GPa) = 26.50214 33.02124 29.76169
#
# Velocity S-wave (km/s) = 3.52002 3.92918 3.73021
# Velocity P-wave (km/s) = 6.03480 6.69990 6.37602
#
# Compressibility (1/GPa) = 0.02349630
#
# Stress axis : x y z
#
# Youngs Moduli (GPa) = 43.60355 64.22936 52.48923
#
# Poissons Ratio (x) = 0.02811 0.55715
# Poissons Ratio (y) = 0.01908 0.31373
# Poissons Ratio (z) = 0.46283 0.38390
#
# Static dielectric constant tensor:
#      x y z
#    x 1.789540 0.020030 -0.011980 
#    y 0.020030 1.783280 0.010520 
#    z -0.011980 0.010520 1.773540 
# 
# From -- ./inp_files/501257.got.cif
#   From: 2010.05.17/outbox.cif.g08.bks.cpg/sg2_251_cif.got.tgz:501257.got - 2010.06.03 11:33:40.
