data_PCOD9005044
_publ_section_title
;
Structure prediction by ZEFSAII (Michael W. Deem and Ramdas Pophale) SiO2 
 PCOD9005044
Probable space group: P -1
;
_chemical_formula_sum "Si O2"
_cell_formula_units_Z 10
_cell_length_a 5.461164
_cell_length_b 16.251212
_cell_length_c 14.745768
_cell_angle_alpha 18.171034
_cell_angle_beta 65.723597
_cell_angle_gamma 64.776360
_cell_volume 369.118277
_symmetry_space_group_name_H-M "P -1"
_symmetry_group_IT_number 2
_symmetry_cell_setting 'triclinic'
loop_
_space_group_symop_operation_xyz
x,y,z
-x,-y,-z
loop_
_atom_site_type_symbol
_atom_site_label
_atom_site_fract_x
_atom_site_fract_y
_atom_site_fract_z
Si Si1 0.756031 0.834988 0.187149
Si Si2 0.349065 0.801666 0.811575
Si Si3 0.941694 0.710076 0.108299
Si Si4 0.688436 0.269476 0.297943
Si Si5 0.685676 0.275797 0.500879
O O1 0.879200 0.631836 0.302262
O O2 0.615815 0.752447 0.387325
O O3 0.500000 0.000000 0.000000
O O4 0.000000 0.000000 0.000000
O O5 0.168587 0.805920 0.742246
O O6 0.445348 0.082942 0.523580
O O7 0.604159 0.586474 0.973468
O O8 0.226508 0.674147 0.051404
O O9 0.752797 0.554435 0.237205
O O10 0.868609 0.028055 0.779268
O O11 0.767341 0.238021 0.423507
#
# Coordination Sequence:
#
# PCOD9005044 Si02
#       5
#     2   2   2   2   2
#     4  10  23  44  68  98 134 174 220 272 330 392
#     4  10  21  38  60  88 124 169 219 271 328 390
#     4  11  23  40  62  93 128 169 219 270 328 391
#     4  10  21  38  60  88 124 169 219 271 328 390
#     4  11  23  40  62  93 128 169 219 270 328 391
#
# _framework density 27.091587000000001
#
# number of rings (size 3 to 8) (size 9 to 14) (size 15 to 20)
#    0.000    1.600    0.000    4.200    0.000    4.800 
#    0.000    9.000    0.000    0.000    0.000    0.000 
#    0.000    0.000    0.000    0.000    0.000    0.000 
#
# Total GULP energy -55868.394852 kJ/mol
# GULP energy per Si atom -5586.839485 kJ/mol
# Density = 2.702993 g / cm^3
# Si number density = 27.091587 Si / 1000 Ang^3
#
#
#
# Elastic Constant Matrix: (Units=GPa)
#
#
# Indices 1 2 3 4 5 6 
#
# 1 74.4231 39.8055 27.0934 0.1659 -26.1178 14.4990
# 2 39.8055 212.3131 30.0195 12.0721 4.5464 23.2749
# 3 27.0934 30.0195 76.7728 30.6263 -18.3969 -1.4851
# 4 0.1659 12.0721 30.6263 45.7850 11.5386 9.0706
# 5 -26.1178 4.5464 -18.3969 11.5386 41.7119 6.3238
# 6 14.4990 23.2749 -1.4851 9.0706 6.3238 46.5205
#
#
#
# Elastic Compliance Matrix: (Units=1/GPa)
#
#
# Indices 1 2 3 4 5 6 
#
# 1 0.023095 -0.003198 -0.004694 0.002112 0.013365 -0.007976
# 2 -0.003198 0.005916 -0.002965 0.001857 -0.004188 -0.001850
# 3 -0.004694 -0.002965 0.029531 -0.024301 0.016156 0.006431
# 4 0.002112 0.001857 -0.024301 0.044429 -0.020642 -0.008220
# 5 0.013365 -0.004188 0.016156 -0.020642 0.046212 -0.003811
# 6 -0.007976 -0.001850 0.006431 -0.008220 -0.003811 0.027234
#
#
# Mechanical properties :
#
#
# Convention : Reuss Voigt Hill
#
# Bulk Modulus (GPa) = 27.15296 61.92731 44.54013
# Shear Modulus (GPa) = 23.76345 44.57618 34.16981
#
# Velocity S-wave (km/s) = 2.96489 4.06074 3.55529
# Velocity P-wave (km/s) = 4.66532 6.70032 5.77319
#
# Compressibility (1/GPa) = 0.03682839
#
# Stress axis : x y z
#
# Youngs Moduli (GPa) = 43.29862 169.04010 33.86279
#
# Poissons Ratio (x) = 0.54062 0.15895
# Poissons Ratio (y) = 0.13848 0.10039
# Poissons Ratio (z) = 0.20325 0.50114
#
# Static dielectric constant tensor:
#      x y z
#    x 2.287200 -0.002280 0.181430 
#    y -0.002280 2.251140 0.075900 
#    z 0.181430 0.075900 2.094600 
# 
# From -- ./inp_files/1590.got.cif
#   From: 2010.05.17/outbox.cif.g08.bks.cpg/sg2_1_cif.got.tgz:1590.got - 2010.06.03 11:33:40.
