data_PCOD9005682
_publ_section_title
;
Structure prediction by ZEFSAII (Michael W. Deem and Ramdas Pophale) SiO2 
 PCOD9005682
Probable space group: P -1
;
_chemical_formula_sum "Si O2"
_cell_formula_units_Z 14
_cell_length_a 20.952400
_cell_length_b 8.519223
_cell_length_c 17.580233
_cell_angle_alpha 43.802757
_cell_angle_beta 159.134082
_cell_angle_gamma 124.959164
_cell_volume 705.190242
_symmetry_space_group_name_H-M "P -1"
_symmetry_group_IT_number 2
_symmetry_cell_setting 'triclinic'
loop_
_space_group_symop_operation_xyz
x,y,z
-x,-y,-z
loop_
_atom_site_type_symbol
_atom_site_label
_atom_site_fract_x
_atom_site_fract_y
_atom_site_fract_z
Si Si1 0.706530 0.535321 0.724394
Si Si2 0.685125 0.732809 0.803375
Si Si3 0.946586 0.166032 0.808667
Si Si4 0.142922 0.126426 0.321455
Si Si5 0.740905 0.675113 0.355114
Si Si6 0.672110 0.143103 0.224405
Si Si7 0.887639 0.295380 0.293446
O O1 0.500000 0.500000 0.500000
O O2 0.715011 0.636754 0.783219
O O3 0.736760 0.717796 0.630858
O O4 0.914063 0.295417 0.028604
O O5 0.500000 0.000000 0.500000
O O6 0.852275 0.812065 0.993757
O O7 0.725299 0.485264 0.987004
O O8 0.789908 0.446754 0.547314
O O9 0.866672 0.045436 0.697486
O O10 0.000000 0.000000 0.000000
O O11 0.246408 0.968239 0.565079
O O12 0.930337 0.627233 0.531358
O O13 0.705071 0.913299 0.283898
O O14 0.559951 0.703437 0.091445
O O15 0.782181 0.296381 0.254597
O O16 0.000000 0.000000 0.500000
#
# Coordination Sequence:
#
# PCOD9005682 Si02
#       7
#     2   2   2   2   2   2   2
#     4  11  24  41  62  94 131 169 216 266 323 381
#     4  11  23  41  65  96 127 170 218 265 322 383
#     4  11  22  40  63  87 130 164 209 265 320 382
#     4  11  24  40  63  96 128 171 212 270 323 378
#     4   9  21  38  59  91 119 170 211 255 313 380
#     4  10  21  38  63  89 123 167 215 256 314 381
#     4   9  19  37  61  87 122 165 210 257 305 381
#
# _framework density 19.852798
#
# number of rings (size 3 to 8) (size 9 to 14) (size 15 to 20)
#    0.000    1.714    1.429    3.429    4.000    5.143 
#    0.000    2.857    0.000    0.000    0.000    0.000 
#    0.000    0.000    0.000    0.000    0.000    0.000 
#
# Total GULP energy -77941.172177 kJ/mol
# GULP energy per Si atom -5567.226584 kJ/mol
# Density = 1.980761 g / cm^3
# Si number density = 19.852798 Si / 1000 Ang^3
#
#
#
# Elastic Constant Matrix: (Units=GPa)
#
#
# Indices 1 2 3 4 5 6 
#
# 1 101.4530 28.9649 52.6470 7.9411 -25.8772 34.2770
# 2 28.9649 64.9121 45.9349 8.0684 -1.0587 26.3660
# 3 52.6470 45.9349 143.2147 4.5770 -19.5113 38.8799
# 4 7.9411 8.0684 4.5770 40.1332 3.8411 -3.9479
# 5 -25.8772 -1.0587 -19.5113 3.8411 39.4296 -8.7581
# 6 34.2770 26.3660 38.8799 -3.9479 -8.7581 27.2583
#
#
#
# Elastic Compliance Matrix: (Units=1/GPa)
#
#
# Indices 1 2 3 4 5 6 
#
# 1 0.021483 0.003136 0.000492 -0.008649 0.008788 -0.029179
# 2 0.003136 0.029786 -0.002267 -0.009092 -0.004553 -0.032300
# 3 0.000492 -0.002267 0.012173 -0.002828 0.003191 -0.015173
# 4 -0.008649 -0.009092 -0.002828 0.031849 -0.004450 0.026886
# 5 0.008788 -0.004553 0.003191 -0.004450 0.032724 -0.001329
# 6 -0.029179 -0.032300 -0.015173 0.026886 -0.001329 0.129729
#
#
# Mechanical properties :
#
#
# Convention : Reuss Voigt Hill
#
# Bulk Modulus (GPa) = 15.11419 62.74150 38.92784
# Shear Modulus (GPa) = 18.04543 33.49976 25.77260
#
# Velocity S-wave (km/s) = 3.01817 4.11226 3.60694
# Velocity P-wave (km/s) = 4.44696 7.36339 6.08256
#
# Compressibility (1/GPa) = 0.06616298
#
# Stress axis : x y z
#
# Youngs Moduli (GPa) = 46.54844 33.57286 82.14786
#
# Poissons Ratio (x) = -0.10528 -0.04041
# Poissons Ratio (y) = -0.14597 0.18626
# Poissons Ratio (z) = -0.02290 0.07612
#
# Static dielectric constant tensor:
#      x y z
#    x 1.687610 0.035760 0.027460 
#    y 0.035760 1.745590 -0.051590 
#    z 0.027460 -0.051590 1.734690 
# 
# From -- ./inp_files/257757.got.cif
#   From: 2010.05.17/outbox.cif.g08.bks.cpg/sg2_129_cif.got.tgz:257757.got - 2010.06.03 11:33:40.
