data_PCOD9005481
_publ_section_title
;
Structure prediction by ZEFSAII (Michael W. Deem and Ramdas Pophale) SiO2 
 PCOD9005481
Probable space group: P -1
;
_chemical_formula_sum "Si O2"
_cell_formula_units_Z 15
_cell_length_a 13.741027
_cell_length_b 7.116828
_cell_length_c 8.318001
_cell_angle_alpha 60.994046
_cell_angle_beta 110.057917
_cell_angle_gamma 122.795302
_cell_volume 594.437035
_symmetry_space_group_name_H-M "P -1"
_symmetry_group_IT_number 2
_symmetry_cell_setting 'triclinic'
loop_
_space_group_symop_operation_xyz
x,y,z
-x,-y,-z
loop_
_atom_site_type_symbol
_atom_site_label
_atom_site_fract_x
_atom_site_fract_y
_atom_site_fract_z
Si Si1 0.410031 0.836101 0.151007
Si Si2 0.744952 0.349626 0.129511
Si Si3 0.375182 0.986390 0.381012
Si Si4 0.722037 0.533016 0.345795
Si Si5 0.011539 0.634931 0.279352
Si Si6 0.378040 0.205700 0.596341
Si Si7 0.000000 0.500000 0.000000
Si Si8 0.973852 0.984470 0.301457
O O1 0.382212 0.002390 0.188112
O O2 0.487539 0.730131 0.325565
O O3 0.296039 0.648626 0.073906
O O4 0.500000 0.000000 0.000000
O O5 0.681975 0.452059 0.174194
O O6 0.883262 0.500604 0.170331
O O7 0.702125 0.069573 0.268851
O O8 0.282286 0.711897 0.484254
O O9 0.500000 0.000000 0.500000
O O10 0.355622 0.170804 0.407063
O O11 0.652259 0.623154 0.382905
O O12 0.848116 0.754975 0.312640
O O13 0.077986 0.601477 0.179163
O O14 0.000000 0.500000 0.500000
O O15 0.047147 0.904169 0.252085
O O16 0.974615 0.226233 0.142601
O O17 0.000000 0.000000 0.500000
#
# Coordination Sequence:
#
# PCOD9005481 Si02
#       8
#     2   2   2   2   2   2   1   2
#     4   9  18  35  57  86 125 168 208 271 332 396
#     4   9  20  38  59  87 129 162 212 274 338 400
#     4   9  19  36  59  90 125 168 217 273 333 405
#     4  10  21  38  62  90 126 173 222 273 336 411
#     4  11  23  43  69 101 137 183 230 295 355 419
#     4   9  18  35  60  85 119 166 216 261 328 404
#     4  12  24  44  74 100 134 190 238 284 360 424
#     4  11  24  44  69 101 143 183 233 297 353 414
#
# _framework density 25.233961000000001
#
# number of rings (size 3 to 8) (size 9 to 14) (size 15 to 20)
#    0.000    2.133    1.333    2.000    0.000    3.733 
#    2.400    2.667    0.000    1.600    0.000    0.000 
#    0.000    0.000    0.000    0.000    0.000    0.000 
#
# Total GULP energy -83550.464496 kJ/mol
# GULP energy per Si atom -5570.030966 kJ/mol
# Density = 2.517653 g / cm^3
# Si number density = 25.233961 Si / 1000 Ang^3
#
#
#
# Elastic Constant Matrix: (Units=GPa)
#
#
# Indices 1 2 3 4 5 6 
#
# 1 54.2408 26.0287 17.8381 17.4503 -8.7730 -0.6887
# 2 26.0287 145.5932 45.4317 10.0575 -1.8608 -13.3226
# 3 17.8381 45.4317 122.4329 35.3165 1.2121 -1.4081
# 4 17.4503 10.0575 35.3165 63.5915 -1.7744 -14.7552
# 5 -8.7730 -1.8608 1.2121 -1.7744 29.5486 12.1020
# 6 -0.6887 -13.3226 -1.4081 -14.7552 12.1020 46.5317
#
#
#
# Elastic Compliance Matrix: (Units=1/GPa)
#
#
# Indices 1 2 3 4 5 6 
#
# 1 0.023991 -0.004145 -0.000133 -0.006830 0.008603 -0.005239
# 2 -0.004145 0.008771 -0.003267 0.002343 -0.001870 0.003580
# 3 -0.000133 -0.003267 0.011173 -0.006250 -0.000024 -0.002575
# 4 -0.006830 0.002343 -0.006250 0.022571 -0.003756 0.008515
# 5 0.008603 -0.001870 -0.000024 -0.003756 0.041086 -0.012286
# 6 -0.005239 0.003580 -0.002575 0.008515 -0.012286 0.028256
#
#
# Mechanical properties :
#
#
# Convention : Reuss Voigt Hill
#
# Bulk Modulus (GPa) = 34.66762 55.65153 45.15957
# Shear Modulus (GPa) = 31.14246 43.46558 37.30402
#
# Velocity S-wave (km/s) = 3.51686 4.15481 3.84907
# Velocity P-wave (km/s) = 5.50085 6.71704 6.13914
#
# Compressibility (1/GPa) = 0.02884536
#
# Stress axis : x y z
#
# Youngs Moduli (GPa) = 41.68165 114.01431 89.50303
#
# Poissons Ratio (x) = 0.47263 0.01186
# Poissons Ratio (y) = 0.17279 0.29240
# Poissons Ratio (z) = 0.00552 0.37247
#
# Static dielectric constant tensor:
#      x y z
#    x 0.701450 0.189490 0.783700 
#    y 0.189490 1.961550 -0.080550 
#    z 0.783700 -0.080550 1.665190 
# 
# From -- ./inp_files/287929.got.cif
#   From: 2010.05.17/outbox.cif.g08.bks.cpg/sg2_144_cif.got.tgz:287929.got - 2010.06.03 11:33:40.
