data_PCOD9005567
_publ_section_title
;
Structure prediction by ZEFSAII (Michael W. Deem and Ramdas Pophale) SiO2 
 PCOD9005567
Probable space group: P -1
;
_chemical_formula_sum "Si O2"
_cell_formula_units_Z 16
_cell_length_a 15.512431
_cell_length_b 10.121001
_cell_length_c 5.703845
_cell_angle_alpha 75.979337
_cell_angle_beta 121.850542
_cell_angle_gamma 104.097477
_cell_volume 730.697967
_symmetry_space_group_name_H-M "P -1"
_symmetry_group_IT_number 2
_symmetry_cell_setting 'triclinic'
loop_
_space_group_symop_operation_xyz
x,y,z
-x,-y,-z
loop_
_atom_site_type_symbol
_atom_site_label
_atom_site_fract_x
_atom_site_fract_y
_atom_site_fract_z
Si Si1 0.278326 0.560087 0.693457
Si Si2 0.835487 0.617482 0.062549
Si Si3 0.159440 0.122760 0.708313
Si Si4 0.952007 0.398933 0.774131
Si Si5 0.962473 0.098463 0.102155
Si Si6 0.570583 0.161675 0.269879
Si Si7 0.549893 0.848151 0.402373
Si Si8 0.295668 0.302573 0.537798
O O1 0.253832 0.506101 0.946611
O O2 0.160760 0.566734 0.449486
O O3 0.342496 0.706971 0.679505
O O4 0.326340 0.437244 0.683066
O O5 0.829605 0.747536 0.161101
O O6 0.951240 0.589673 0.267912
O O7 0.808442 0.665181 0.747067
O O8 0.261825 0.159285 0.688358
O O9 0.056012 0.123003 0.409264
O O10 0.137532 0.982405 0.880330
O O11 0.939999 0.240264 0.903291
O O12 0.000000 0.500000 0.000000
O O13 0.000000 0.000000 0.000000
O O14 0.507242 0.176117 0.416686
O O15 0.601333 0.008398 0.407348
O O16 0.513943 0.163982 0.932025
O O17 0.625422 0.734681 0.525472
#
# Coordination Sequence:
#
# PCOD9005567 Si02
#       8
#     2   2   2   2   2   2   2   2
#     4  11  26  40  68 101 131 184 232 276 338 421
#     4  11  22  43  63  93 142 177 226 273 336 406
#     4  10  21  38  62  93 129 169 234 273 332 405
#     4  12  22  43  62  94 144 186 216 281 334 394
#     4  11  21  39  61  89 127 180 226 281 322 399
#     4  10  25  51  71 107 135 175 236 285 364 413
#     4  10  25  49  78  97 142 179 219 307 354 413
#     4  11  23  43  67  99 130 181 219 284 346 409
#
# _framework density 21.896874
#
# number of rings (size 3 to 8) (size 9 to 14) (size 15 to 20)
#    0.000    1.250    3.750    1.125    5.250    3.000 
#    6.750    0.000    0.000    0.000    0.000    0.000 
#    0.000    0.000    0.000    0.000    0.000    0.000 
#
# Total GULP energy -89181.326295 kJ/mol
# GULP energy per Si atom -5573.832893 kJ/mol
# Density = 2.184704 g / cm^3
# Si number density = 21.896874 Si / 1000 Ang^3
#
#
#
# Elastic Constant Matrix: (Units=GPa)
#
#
# Indices 1 2 3 4 5 6 
#
# 1 100.4205 76.1419 12.3899 -6.1563 -19.7761 10.5242
# 2 76.1419 128.3366 20.4305 -7.9375 -15.3611 23.8986
# 3 12.3899 20.4305 48.9537 1.1279 -10.4614 5.6431
# 4 -6.1563 -7.9375 1.1279 30.3453 0.5324 0.6547
# 5 -19.7761 -15.3611 -10.4614 0.5324 28.3314 -9.0141
# 6 10.5242 23.8986 5.6431 0.6547 -9.0141 47.3163
#
#
#
# Elastic Compliance Matrix: (Units=1/GPa)
#
#
# Indices 1 2 3 4 5 6 
#
# 1 0.020081 -0.011525 0.001333 0.000785 0.009179 0.002934
# 2 -0.011525 0.016108 -0.003747 0.002181 -0.002529 -0.005638
# 3 0.001333 -0.003747 0.023289 -0.001715 0.007624 0.000295
# 4 0.000785 0.002181 -0.001715 0.033781 -0.000029 -0.001544
# 5 0.009179 -0.002529 0.007624 -0.000029 0.045366 0.006969
# 6 0.002934 -0.005638 0.000295 -0.001544 0.006969 0.024643
#
#
# Mechanical properties :
#
#
# Convention : Reuss Voigt Hill
#
# Bulk Modulus (GPa) = 31.64563 55.07060 43.35811
# Shear Modulus (GPa) = 24.79191 32.44849 28.62020
#
# Velocity S-wave (km/s) = 3.36849 3.85369 3.61923
# Velocity P-wave (km/s) = 5.44173 6.70864 6.10812
#
# Compressibility (1/GPa) = 0.03159994
#
# Stress axis : x y z
#
# Youngs Moduli (GPa) = 49.79917 62.08009 42.93946
#
# Poissons Ratio (x) = 0.71548 -0.05723
# Poissons Ratio (y) = 0.57394 0.16088
# Poissons Ratio (z) = -0.06638 0.23259
#
# Static dielectric constant tensor:
#      x y z
#    x 1.865240 0.011870 -0.047000 
#    y 0.011870 1.771430 -0.027290 
#    z -0.047000 -0.027290 1.880910 
# 
# From -- ./inp_files/90208.got.cif
#   From: 2010.05.17/outbox.cif.g08.bks.cpg/sg2_46_cif.got.tgz:90208.got - 2010.06.03 11:33:40.
