data_PCOD9005023
_publ_section_title
;
Structure prediction by ZEFSAII (Michael W. Deem and Ramdas Pophale) SiO2 
 PCOD9005023
Probable space group: P -1
;
_chemical_formula_sum "Si O2"
_cell_formula_units_Z 16
_cell_length_a 8.580992
_cell_length_b 19.315522
_cell_length_c 16.367910
_cell_angle_alpha 159.111754
_cell_angle_beta 54.798523
_cell_angle_gamma 114.318424
_cell_volume 711.663028
_symmetry_space_group_name_H-M "P -1"
_symmetry_group_IT_number 2
_symmetry_cell_setting 'triclinic'
loop_
_space_group_symop_operation_xyz
x,y,z
-x,-y,-z
loop_
_atom_site_type_symbol
_atom_site_label
_atom_site_fract_x
_atom_site_fract_y
_atom_site_fract_z
Si Si1 0.046815 0.252849 0.714466
Si Si2 0.250249 0.155699 0.258876
Si Si3 0.253268 0.364648 0.196764
Si Si4 0.508561 0.767119 0.258771
Si Si5 0.945602 0.066978 0.373281
Si Si6 0.932803 0.812470 0.826518
Si Si7 0.053200 0.391475 0.107357
Si Si8 0.674112 0.188961 0.811644
O O1 0.013349 0.167011 0.541411
O O2 0.877743 0.231066 0.802844
O O3 0.265043 0.064911 0.475514
O O4 0.000000 0.500000 0.000000
O O5 0.101351 0.060993 0.245695
O O6 0.178390 0.204393 0.240972
O O7 0.164647 0.389891 0.588011
O O8 0.500000 0.000000 0.000000
O O9 0.215109 0.172478 0.036539
O O10 0.162128 0.392262 0.163205
O O11 0.134819 0.584498 0.524249
O O12 0.496510 0.309906 0.063237
O O13 0.422028 0.719968 0.147434
O O14 0.313362 0.799777 0.414568
O O15 0.500000 0.000000 0.500000
O O16 0.762433 0.619812 0.024897
O O17 0.976026 0.827042 0.123123
O O18 0.000000 0.000000 0.000000
#
# Coordination Sequence:
#
# PCOD9005023 Si02
#       8
#     2   2   2   2   2   2   2   2
#     4  10  22  37  56  85 123 153 194 239 300 372
#     4  11  25  39  56  91 130 163 207 246 299 368
#     4   9  19  37  63  83 111 154 201 253 295 340
#     4   8  16  34  62  87 108 145 195 250 302 355
#     4  10  21  38  60  87 121 161 195 245 313 357
#     4  10  21  39  60  86 117 155 211 256 292 347
#     4   9  19  40  63  88 120 153 203 253 304 364
#     4   9  19  36  55  82 111 150 193 235 297 356
#
# _framework density 22.482551000000001
#
# number of rings (size 3 to 8) (size 9 to 14) (size 15 to 20)
#    0.000    2.500    0.000    0.750    1.750    6.000 
#    2.250    8.750    0.000    0.000    0.000    0.000 
#    0.000    0.000    0.000    0.000    0.000    0.000 
#
# Total GULP energy -89150.615174 kJ/mol
# GULP energy per Si atom -5571.913448 kJ/mol
# Density = 2.243138 g / cm^3
# Si number density = 22.482551 Si / 1000 Ang^3
#
#
#
# Elastic Constant Matrix: (Units=GPa)
#
#
# Indices 1 2 3 4 5 6 
#
# 1 25.6146 8.6400 28.6426 -9.2170 -14.7795 2.9690
# 2 8.6400 113.1533 50.1131 -11.7673 -29.6098 25.9785
# 3 28.6426 50.1131 133.5843 0.2526 -22.9617 26.3340
# 4 -9.2170 -11.7673 0.2526 46.8991 16.9970 -1.7111
# 5 -14.7795 -29.6098 -22.9617 16.9970 33.3268 -2.8405
# 6 2.9690 25.9785 26.3340 -1.7111 -2.8405 27.4088
#
#
#
# Elastic Compliance Matrix: (Units=1/GPa)
#
#
# Indices 1 2 3 4 5 6 
#
# 1 0.067707 0.007468 -0.013459 0.006544 0.024173 0.001432
# 2 0.007468 0.016057 -0.002731 -0.000299 0.014836 -0.011885
# 3 -0.013459 -0.002731 0.013647 -0.004686 0.002623 -0.009086
# 4 0.006544 -0.000299 -0.004686 0.027967 -0.014487 0.004321
# 5 0.024173 0.014836 0.002623 -0.014487 0.061936 -0.013686
# 6 0.001432 -0.011885 -0.009086 0.004321 -0.013686 0.055175
#
#
# Mechanical properties :
#
#
# Convention : Reuss Voigt Hill
#
# Bulk Modulus (GPa) = 12.50509 49.68264 31.09386
# Shear Modulus (GPa) = 17.44657 33.85735 25.65196
#
# Velocity S-wave (km/s) = 2.78871 3.88485 3.38149
# Velocity P-wave (km/s) = 3.99292 6.50147 5.39502
#
# Compressibility (1/GPa) = 0.07996742
#
# Stress axis : x y z
#
# Youngs Moduli (GPa) = 14.76943 62.27984 73.27527
#
# Poissons Ratio (x) = -0.46511 0.98619
# Poissons Ratio (y) = -0.11030 0.20013
# Poissons Ratio (z) = 0.19878 0.17010
#
# Static dielectric constant tensor:
#      x y z
#    x 1.875270 0.001600 -0.026060 
#    y 0.001600 1.830620 -0.031850 
#    z -0.026060 -0.031850 1.942820 
# 
# From -- ./inp_files/562724.got.cif
#   From: 2010.05.17/outbox.cif.g08.bks.cpg/sg2_282_cif.got.tgz:562724.got - 2010.06.03 11:33:40.
