data_PCOD9005296
_publ_section_title
;
Structure prediction by ZEFSAII (Michael W. Deem and Ramdas Pophale) SiO2 
 PCOD9005296
Probable space group: P -1
;
_chemical_formula_sum "Si O2"
_cell_formula_units_Z 14
_cell_length_a 14.670933
_cell_length_b 6.961857
_cell_length_c 28.057819
_cell_angle_alpha 40.479986
_cell_angle_beta 17.597277
_cell_angle_gamma 44.889062
_cell_volume 560.434210
_symmetry_space_group_name_H-M "P -1"
_symmetry_group_IT_number 2
_symmetry_cell_setting 'triclinic'
loop_
_space_group_symop_operation_xyz
x,y,z
-x,-y,-z
loop_
_atom_site_type_symbol
_atom_site_label
_atom_site_fract_x
_atom_site_fract_y
_atom_site_fract_z
Si Si1 0.712208 0.774711 0.040912
Si Si2 0.771267 0.140771 0.423722
Si Si3 0.798065 0.873796 0.167425
Si Si4 0.745164 0.413286 0.937059
Si Si5 0.346217 0.426882 0.509972
Si Si6 0.671685 0.310284 0.841122
Si Si7 0.629827 0.343209 0.241577
O O1 0.470283 0.633364 0.150521
O O2 0.622432 0.663239 0.160337
O O3 0.059212 0.688174 0.877574
O O4 0.722283 0.132244 0.966331
O O5 0.549175 0.200135 0.478900
O O6 0.702453 0.349885 0.463565
O O7 0.104854 0.276236 0.217294
O O8 0.666801 0.812597 0.556349
O O9 0.514922 0.633678 0.346205
O O10 0.008311 0.685590 0.130475
O O11 0.690560 0.138271 0.203537
O O12 0.000000 0.000000 0.000000
O O13 0.555796 0.548649 0.890814
O O14 0.027109 0.297496 0.672931
O O15 0.500000 0.000000 0.000000
#
# Coordination Sequence:
#
# PCOD9005296 Si02
#       7
#     2   2   2   2   2   2   2
#     4  10  21  38  61  91 124 160 204 252 308 363
#     4   9  17  38  64  88 115 159 214 249 296 365
#     4   9  17  36  64  91 118 159 210 254 301 363
#     4  10  22  39  64  89 120 165 206 249 303 364
#     4   9  19  35  62  90 121 162 201 253 309 358
#     4  12  24  39  61  94 129 161 200 253 311 364
#     4   9  18  36  64  89 120 163 203 257 305 354
#
# _framework density 24.980629
#
# number of rings (size 3 to 8) (size 9 to 14) (size 15 to 20)
#    0.000    2.286    0.000    5.143    0.000    2.286 
#    0.000   17.143    0.000   19.714    0.000    0.000 
#    0.000    0.000    0.000    0.000    0.000    0.000 
#
# Total GULP energy -78296.346102 kJ/mol
# GULP energy per Si atom -5592.596150 kJ/mol
# Density = 2.492377 g / cm^3
# Si number density = 24.980629 Si / 1000 Ang^3
#
#
#
# Elastic Constant Matrix: (Units=GPa)
#
#
# Indices 1 2 3 4 5 6 
#
# 1 124.7630 23.9567 64.4636 -4.2094 -22.7427 -4.3986
# 2 23.9567 50.7453 32.0045 0.2356 -5.2676 3.3468
# 3 64.4636 32.0045 176.9880 -18.4787 1.7454 -12.8770
# 4 -4.2094 0.2356 -18.4787 35.8436 -2.1217 2.2204
# 5 -22.7427 -5.2676 1.7454 -2.1217 47.5708 4.7717
# 6 -4.3986 3.3468 -12.8770 2.2204 4.7717 36.9200
#
#
#
# Elastic Compliance Matrix: (Units=1/GPa)
#
#
# Indices 1 2 3 4 5 6 
#
# 1 0.011408 -0.002377 -0.003839 -0.000279 0.005363 -0.000441
# 2 -0.002377 0.023802 -0.003966 -0.002120 0.001946 -0.003948
# 3 -0.003839 -0.003966 0.008379 0.003550 -0.002721 0.002963
# 4 -0.000279 -0.002120 0.003550 0.029794 0.000881 -0.000509
# 5 0.005363 0.001946 -0.002721 0.000881 0.024309 -0.003681
# 6 -0.000441 -0.003948 0.002963 -0.000509 -0.003681 0.028931
#
#
# Mechanical properties :
#
#
# Convention : Reuss Voigt Hill
#
# Bulk Modulus (GPa) = 43.05954 65.92733 54.49343
# Shear Modulus (GPa) = 32.31443 39.53833 35.92638
#
# Velocity S-wave (km/s) = 3.60054 3.98271 3.79643
# Velocity P-wave (km/s) = 5.87876 6.89913 6.40928
#
# Compressibility (1/GPa) = 0.02322366
#
# Stress axis : x y z
#
# Youngs Moduli (GPa) = 87.65662 42.01302 119.34972
#
# Poissons Ratio (x) = 0.09987 0.45823
# Poissons Ratio (y) = 0.20837 0.47336
# Poissons Ratio (z) = 0.33655 0.16663
#
# Static dielectric constant tensor:
#      x y z
#    x 2.024580 0.054010 0.013040 
#    y 0.054010 2.000140 -0.003000 
#    z 0.013040 -0.003000 1.999350 
# 
# From -- ./inp_files/437636.got.cif
#   From: 2010.05.17/outbox.cif.g08.bks.cpg/sg2_219_cif.got.tgz:437636.got - 2010.06.03 11:33:40.
