data_PCOD9005172
_publ_section_title
;
Structure prediction by ZEFSAII (Michael W. Deem and Ramdas Pophale) SiO2 
 PCOD9005172
Probable space group: P -1
;
_chemical_formula_sum "Si O2"
_cell_formula_units_Z 12
_cell_length_a 11.181999
_cell_length_b 9.044953
_cell_length_c 11.910081
_cell_angle_alpha 127.422798
_cell_angle_beta 128.356520
_cell_angle_gamma 94.555609
_cell_volume 510.229920
_symmetry_space_group_name_H-M "P -1"
_symmetry_group_IT_number 2
_symmetry_cell_setting 'triclinic'
loop_
_space_group_symop_operation_xyz
x,y,z
-x,-y,-z
loop_
_atom_site_type_symbol
_atom_site_label
_atom_site_fract_x
_atom_site_fract_y
_atom_site_fract_z
Si Si1 0.845309 0.826174 0.526832
Si Si2 0.630747 0.367702 0.360762
Si Si3 0.860848 0.556041 0.040886
Si Si4 0.505858 0.742426 0.146096
Si Si5 0.743070 0.065088 0.211332
Si Si6 0.720110 0.313870 0.622715
O O1 0.719713 0.628085 0.469166
O O2 0.666980 0.729517 0.285111
O O3 0.025265 0.834381 0.595952
O O4 0.986895 0.139699 0.775360
O O5 0.672271 0.409568 0.536827
O O6 0.760158 0.299592 0.355630
O O7 0.375205 0.091242 0.047650
O O8 0.738442 0.504998 0.059519
O O9 0.685056 0.356510 0.747149
O O10 0.021631 0.526397 0.148996
O O11 0.565664 0.830438 0.092374
O O12 0.580166 0.005623 0.367551
#
# Coordination Sequence:
#
# PCOD9005172 Si02
#       6
#     2   2   2   2   2   2
#     4  11  22  36  56  87 118 147 185 231 283 333
#     4  10  22  38  58  84 113 150 187 231 284 333
#     4  10  21  39  61  85 111 147 192 233 278 331
#     4  10  21  38  61  84 112 150 190 232 275 332
#     4  10  22  39  58  83 115 151 189 228 279 337
#     4   9  21  40  61  83 111 149 191 232 277 333
#
# _framework density 23.518809999999998
#
# number of rings (size 3 to 8) (size 9 to 14) (size 15 to 20)
#    0.000    2.000    0.000    2.500    0.000   11.333 
#    0.000    3.333    0.000    0.000    0.000    0.000 
#    0.000    0.000    0.000    0.000    0.000    0.000 
#
# Total GULP energy -67118.961126 kJ/mol
# GULP energy per Si atom -5593.246760 kJ/mol
# Density = 2.346528 g / cm^3
# Si number density = 23.518810 Si / 1000 Ang^3
#
#
#
# Elastic Constant Matrix: (Units=GPa)
#
#
# Indices 1 2 3 4 5 6 
#
# 1 42.5863 11.5853 2.0228 -13.4598 7.3524 7.5688
# 2 11.5853 132.8180 24.3306 -19.7993 -2.0423 13.1885
# 3 2.0228 24.3306 56.3932 -24.1253 -13.2628 12.2041
# 4 -13.4598 -19.7993 -24.1253 42.9644 -1.4039 -5.2985
# 5 7.3524 -2.0423 -13.2628 -1.4039 31.9255 -10.0348
# 6 7.5688 13.1885 12.2041 -5.2985 -10.0348 35.3569
#
#
#
# Elastic Compliance Matrix: (Units=1/GPa)
#
#
# Indices 1 2 3 4 5 6 
#
# 1 0.029226 -0.001121 0.003346 0.009325 -0.007423 -0.007702
# 2 -0.001121 0.008571 -0.002629 0.001847 -0.000836 -0.002010
# 3 0.003346 -0.002629 0.028939 0.015885 0.010402 -0.004392
# 4 0.009325 0.001847 0.015885 0.036018 0.005800 -0.001124
# 5 -0.007423 -0.000836 0.010402 0.005800 0.040951 0.010802
# 6 -0.007702 -0.002010 -0.004392 -0.001124 0.010802 0.035095
#
#
# Mechanical properties :
#
#
# Convention : Reuss Voigt Hill
#
# Bulk Modulus (GPa) = 15.16842 34.18610 24.67726
# Shear Modulus (GPa) = 24.80356 34.97328 29.88842
#
# Velocity S-wave (km/s) = 3.25102 3.86039 3.56874
# Velocity P-wave (km/s) = 4.53384 5.86834 5.24371
#
# Compressibility (1/GPa) = 0.06592643
#
# Stress axis : x y z
#
# Youngs Moduli (GPa) = 34.21637 116.67843 34.55505
#
# Poissons Ratio (x) = 0.13084 -0.11562
# Poissons Ratio (y) = 0.03837 0.09085
# Poissons Ratio (z) = -0.11449 0.30677
#
# Static dielectric constant tensor:
#      x y z
#    x 1.892170 -0.024440 -0.044030 
#    y -0.024440 1.873160 0.029560 
#    z -0.044030 0.029560 1.948890 
# 
# From -- ./inp_files/18882.got.cif
#   From: 2010.05.17/outbox.cif.g08.bks.cpg/sg2_10_cif.got.tgz:18882.got - 2010.06.03 11:33:40.
