data_PCOD9005703
_publ_section_title
;
Structure prediction by ZEFSAII (Michael W. Deem and Ramdas Pophale) SiO2 
 PCOD9005703
Probable space group: P -1
;
_chemical_formula_sum "Si O2"
_cell_formula_units_Z 14
_cell_length_a 15.929794
_cell_length_b 18.316918
_cell_length_c 7.753700
_cell_angle_alpha 136.221446
_cell_angle_beta 42.263814
_cell_angle_gamma 155.624138
_cell_volume 618.550627
_symmetry_space_group_name_H-M "P -1"
_symmetry_group_IT_number 2
_symmetry_cell_setting 'triclinic'
loop_
_space_group_symop_operation_xyz
x,y,z
-x,-y,-z
loop_
_atom_site_type_symbol
_atom_site_label
_atom_site_fract_x
_atom_site_fract_y
_atom_site_fract_z
Si Si1 0.682316 0.371676 0.880460
Si Si2 0.230579 0.959664 0.503940
Si Si3 0.497915 0.540849 0.772103
Si Si4 0.519775 0.062883 0.763914
Si Si5 0.816767 0.672591 0.801230
Si Si6 0.300621 0.652382 0.571022
Si Si7 0.099819 0.732479 0.035720
O O1 0.612154 0.241617 0.908557
O O2 0.732366 0.348730 0.585309
O O3 0.887307 0.570396 0.977295
O O4 0.504867 0.335118 0.039629
O O5 0.335573 0.920036 0.326883
O O6 0.062344 0.877955 0.765930
O O7 0.441620 0.170017 0.491311
O O8 0.075684 0.813277 0.340014
O O9 0.500000 0.500000 0.500000
O O10 0.681860 0.631523 0.779864
O O11 0.290995 0.377412 0.933018
O O12 0.500000 0.000000 0.500000
O O13 0.292001 0.905834 0.925293
O O14 0.794037 0.528837 0.565076
O O15 0.181316 0.670913 0.868830
#
# Coordination Sequence:
#
# PCOD9005703 Si02
#       7
#     2   2   2   2   2   2   2
#     4  11  22  38  65  90 124 167 209 252 314 369
#     4  11  23  39  61  95 128 162 204 256 312 376
#     4  10  23  42  64  91 121 164 220 265 307 368
#     4  11  22  37  63  94 129 160 199 249 310 378
#     4  10  23  43  65  87 124 168 212 263 314 363
#     4  10  21  38  63  90 129 164 203 250 312 377
#     4  11  23  36  60  98 130 159 205 251 309 386
#
# _framework density 22.633557
#
# number of rings (size 3 to 8) (size 9 to 14) (size 15 to 20)
#    0.000    1.429    2.857    3.857    4.000    5.714 
#    0.000    7.857    0.000   10.286    0.000    0.000 
#    0.000    0.000    0.000    0.000    0.000    0.000 
#
# Total GULP energy -78085.357533 kJ/mol
# GULP energy per Si atom -5577.525538 kJ/mol
# Density = 2.258204 g / cm^3
# Si number density = 22.633557 Si / 1000 Ang^3
#
#
#
# Elastic Constant Matrix: (Units=GPa)
#
#
# Indices 1 2 3 4 5 6 
#
# 1 59.7354 3.5161 -11.8013 -15.6230 1.6239 1.7096
# 2 3.5161 -380.5396 -80.9305 -784.8726 35.5648 599.1877
# 3 -11.8013 -80.9305 42.2167 -128.9240 31.3486 100.7107
# 4 -15.6230 -784.8726 -128.9240-1187.2179 48.0520 941.3846
# 5 1.6239 35.5648 31.3486 48.0520 28.4751 -31.6706
# 6 1.7096 599.1877 100.7107 941.3846 -31.6706 -691.9281
#
#
#
# Elastic Compliance Matrix: (Units=1/GPa)
#
#
# Indices 1 2 3 4 5 6 
#
# 1 0.019050 -0.001202 0.007115 0.002879 -0.007492 0.004302
# 2 -0.001202 0.007954 0.000063 -0.002664 -0.001716 0.003348
# 3 0.007115 0.000063 0.033143 -0.000288 -0.029951 0.005875
# 4 0.002879 -0.002664 -0.000288 0.012048 -0.001165 0.014103
# 5 -0.007492 -0.001716 -0.029951 -0.001165 0.061227 -0.010251
# 6 0.004302 0.003348 0.005875 0.014103 -0.010251 0.021977
#
#
# Mechanical properties :
#
#
# Convention : Reuss Voigt Hill
#
# Bulk Modulus (GPa) = 13.86963 -50.77989 -18.45513
# Shear Modulus (GPa) = 29.85428 -382.75899 -176.45235
#
# Velocity S-wave (km/s) = 3.63578 -13.01839 -8.83910
# Velocity P-wave (km/s) = 4.87508 15.76247 10.59927
#
# Compressibility (1/GPa) = 0.07210000
#
# Stress axis : x y z
#
# Youngs Moduli (GPa) = 52.49256 125.71526 30.17272
#
# Poissons Ratio (x) = 0.15107 -0.21467
# Poissons Ratio (y) = 0.06308 -0.00191
# Poissons Ratio (z) = -0.37346 -0.00798
#
# Static dielectric constant tensor:
#      x y z
#    x 1.922620 -0.023070 0.109900 
#    y -0.023070 1.828840 -0.019580 
#    z 0.109900 -0.019580 1.998130 
# 
# From -- ./inp_files/338168.got.cif
#   From: 2010.05.17/outbox.cif.g08.bks.cpg/sg2_170_cif.got.tgz:338168.got - 2010.06.03 11:33:40.
