data_PCOD9005379
_publ_section_title
;
Structure prediction by ZEFSAII (Michael W. Deem and Ramdas Pophale) SiO2 
 PCOD9005379
Probable space group: P -1
;
_chemical_formula_sum "Si O2"
_cell_formula_units_Z 12
_cell_length_a 11.050303
_cell_length_b 7.718976
_cell_length_c 8.381558
_cell_angle_alpha 64.176093
_cell_angle_beta 77.627679
_cell_angle_gamma 107.799193
_cell_volume 560.124407
_symmetry_space_group_name_H-M "P -1"
_symmetry_group_IT_number 2
_symmetry_cell_setting 'triclinic'
loop_
_space_group_symop_operation_xyz
x,y,z
-x,-y,-z
loop_
_atom_site_type_symbol
_atom_site_label
_atom_site_fract_x
_atom_site_fract_y
_atom_site_fract_z
Si Si1 0.968942 0.249066 0.583524
Si Si2 0.530297 0.815496 0.637954
Si Si3 0.436361 0.396159 0.726646
Si Si4 0.155568 0.007133 0.607792
Si Si5 0.428519 0.777794 0.016271
Si Si6 0.198069 0.905420 0.978064
O O1 0.000000 0.500000 0.500000
O O2 0.885703 0.139813 0.814492
O O3 0.893396 0.146839 0.475207
O O4 0.093193 0.179068 0.565833
O O5 0.403464 0.580657 0.733567
O O6 0.531691 0.818749 0.824726
O O7 0.500000 0.000000 0.500000
O O8 0.678669 0.864280 0.507322
O O9 0.500000 0.500000 0.500000
O O10 0.312707 0.158082 0.848904
O O11 0.558372 0.393455 0.803667
O O12 0.280588 0.759134 0.013917
O O13 0.122651 0.881731 0.838150
O O14 0.500000 0.000000 0.000000
#
# Coordination Sequence:
#
# PCOD9005379 Si02
#       6
#     2   2   2   2   2   2
#     4  11  28  48  73  99 137 194 243 297 343 412
#     4  12  22  41  68 104 141 179 224 286 359 428
#     4  11  22  39  66 102 141 179 218 287 357 422
#     4  11  24  48  71 101 143 183 244 289 350 421
#     4  10  21  38  61  99 137 175 221 277 351 420
#     4  11  23  46  70 101 141 180 235 289 351 430
#
# _framework density 21.423811000000001
#
# number of rings (size 3 to 8) (size 9 to 14) (size 15 to 20)
#    0.000    1.000    3.333    4.000    2.333    2.000 
#    3.000    0.000    0.000    0.000    0.000    0.000 
#    0.000    0.000    0.000    0.000    0.000    0.000 
#
# Total GULP energy -66869.141453 kJ/mol
# GULP energy per Si atom -5572.428454 kJ/mol
# Density = 2.137505 g / cm^3
# Si number density = 21.423811 Si / 1000 Ang^3
#
#
#
# Elastic Constant Matrix: (Units=GPa)
#
#
# Indices 1 2 3 4 5 6 
#
# 1 96.1754 38.1569 54.4534 -1.1486 12.5343 -17.7503
# 2 38.1569 135.8425 74.1370 4.0342 4.6470 -5.2375
# 3 54.4534 74.1370 185.6947 12.5756 15.9793 -3.1067
# 4 -1.1486 4.0342 12.5756 44.3909 -5.2540 8.1336
# 5 12.5343 4.6470 15.9793 -5.2540 40.8776 4.0320
# 6 -17.7503 -5.2375 -3.1067 8.1336 4.0320 28.8840
#
#
#
# Elastic Compliance Matrix: (Units=1/GPa)
#
#
# Indices 1 2 3 4 5 6 
#
# 1 0.015257 -0.002078 -0.003063 -0.000795 -0.004283 0.009491
# 2 -0.002078 0.009748 -0.003365 0.000120 0.000862 -0.000026
# 3 -0.003063 -0.003365 0.007927 -0.002111 -0.001972 -0.000770
# 4 -0.000795 0.000120 -0.002111 0.025265 0.005144 -0.008526
# 5 -0.004283 0.000862 -0.001972 0.005144 0.027903 -0.008031
# 6 0.009491 -0.000026 -0.000770 -0.008526 -0.008031 0.043889
#
#
# Mechanical properties :
#
#
# Convention : Reuss Voigt Hill
#
# Bulk Modulus (GPa) = 62.81836 83.46748 73.14292
# Shear Modulus (GPa) = 32.82875 39.56152 36.19513
#
# Velocity S-wave (km/s) = 3.91877 4.30189 4.11479
# Velocity P-wave (km/s) = 7.06124 7.98246 7.53594
#
# Compressibility (1/GPa) = 0.01591891
#
# Stress axis : x y z
#
# Youngs Moduli (GPa) = 65.54471 102.58977 126.15439
#
# Poissons Ratio (x) = 0.21314 0.38645
# Poissons Ratio (y) = 0.13618 0.42453
# Poissons Ratio (z) = 0.20078 0.34523
#
# Static dielectric constant tensor:
#      x y z
#    x 1.825080 0.002350 0.046980 
#    y 0.002350 2.055570 0.113190 
#    z 0.046980 0.113190 1.821610 
# 
# From -- ./inp_files/233203.got.cif
#   From: 2010.05.17/outbox.cif.g08.bks.cpg/sg2_117_cif.got.tgz:233203.got - 2010.06.03 11:33:40.
