data_PCOD9005212
_publ_section_title
;
Structure prediction by ZEFSAII (Michael W. Deem and Ramdas Pophale) SiO2 
 PCOD9005212
Probable space group: P -1
;
_chemical_formula_sum "Si O2"
_cell_formula_units_Z 16
_cell_length_a 9.257512
_cell_length_b 9.736964
_cell_length_c 11.048586
_cell_angle_alpha 92.300637
_cell_angle_beta 142.035654
_cell_angle_gamma 97.686402
_cell_volume 589.588602
_symmetry_space_group_name_H-M "P -1"
_symmetry_group_IT_number 2
_symmetry_cell_setting 'triclinic'
loop_
_space_group_symop_operation_xyz
x,y,z
-x,-y,-z
loop_
_atom_site_type_symbol
_atom_site_label
_atom_site_fract_x
_atom_site_fract_y
_atom_site_fract_z
Si Si1 0.886124 0.601400 0.268889
Si Si2 0.356297 0.662474 0.740805
Si Si3 0.122892 0.234150 0.032669
Si Si4 0.687971 0.811829 0.265750
Si Si5 0.452092 0.297893 0.588769
Si Si6 0.139973 0.035001 0.257703
Si Si7 0.120808 0.458277 0.236682
Si Si8 0.808465 0.096584 0.243074
O O1 0.730266 0.488907 0.257048
O O2 0.755581 0.726445 0.194715
O O3 0.159481 0.657872 0.503844
O O4 0.916508 0.520429 0.164443
O O5 0.619699 0.697475 0.857178
O O6 0.308904 0.774346 0.811557
O O7 0.170887 0.117999 0.154711
O O8 0.052819 0.351304 0.074931
O O9 0.918160 0.134634 0.807134
O O10 0.511803 0.716029 0.244551
O O11 0.941296 0.858084 0.511190
O O12 0.641010 0.957340 0.194197
O O13 0.370589 0.132011 0.486408
O O14 0.230232 0.369096 0.407548
O O15 0.668589 0.404905 0.664000
O O16 0.905409 0.058251 0.176935
#
# Coordination Sequence:
#
# PCOD9005212 Si02
#       8
#     2   2   2   2   2   2   2   2
#     4  10  17  28  49  75  99 125 164 207 245 287
#     4  10  18  29  49  76  99 125 164 208 247 289
#     4  10  19  30  48  74 102 130 162 202 247 290
#     4   9  17  30  49  72  98 129 162 202 248 292
#     4   9  16  29  50  73  98 126 161 203 247 290
#     4   9  18  32  48  69 101 133 161 199 247 293
#     4  10  17  28  49  75 101 127 162 206 244 286
#     4   9  18  32  48  69 100 131 162 201 247 294
#
# _framework density 27.137564999999999
#
# number of rings (size 3 to 8) (size 9 to 14) (size 15 to 20)
#    0.000    2.500    0.000    6.750    0.000    0.500 
#    0.000    1.250    0.000   12.000    0.000    0.000 
#    0.000    3.000    0.000    0.000    0.000    0.000 
#
# Total GULP energy -89653.377741 kJ/mol
# GULP energy per Si atom -5603.336109 kJ/mol
# Density = 2.707580 g / cm^3
# Si number density = 27.137565 Si / 1000 Ang^3
#
#
#
# Elastic Constant Matrix: (Units=GPa)
#
#
# Indices 1 2 3 4 5 6 
#
# 1 163.3604 51.4111 53.6115 13.5598 -3.6957 13.6778
# 2 51.4111 105.8317 33.7027 15.9462 7.3868 3.3918
# 3 53.6115 33.7027 104.7050 31.5618 0.2539 -6.5671
# 4 13.5598 15.9462 31.5618 53.9126 -4.4263 -11.2839
# 5 -3.6957 7.3868 0.2539 -4.4263 40.1522 1.2832
# 6 13.6778 3.3918 -6.5671 -11.2839 1.2832 46.6314
#
#
#
# Elastic Compliance Matrix: (Units=1/GPa)
#
#
# Indices 1 2 3 4 5 6 
#
# 1 0.008517 -0.003050 -0.003698 0.000479 0.001508 -0.002723
# 2 -0.003050 0.012002 -0.001687 -0.002155 -0.002694 -0.000663
# 3 -0.003698 -0.001687 0.014061 -0.006535 -0.000891 0.001631
# 4 0.000479 -0.002155 -0.006535 0.024153 0.002989 0.004858
# 5 0.001508 -0.002694 -0.000891 0.002989 0.025886 -0.000361
# 6 -0.002723 -0.000663 0.001631 0.004858 -0.000361 0.023707
#
#
# Mechanical properties :
#
#
# Convention : Reuss Voigt Hill
#
# Bulk Modulus (GPa) = 56.46354 72.37196 64.41775
# Shear Modulus (GPa) = 38.13854 43.81734 40.97794
#
# Velocity S-wave (km/s) = 3.75290 4.02262 3.89010
# Velocity P-wave (km/s) = 6.29529 6.94994 6.63070
#
# Compressibility (1/GPa) = 0.01771054
#
# Stress axis : x y z
#
# Youngs Moduli (GPa) = 117.40814 83.32028 71.11687
#
# Poissons Ratio (x) = 0.25413 0.26300
# Poissons Ratio (y) = 0.35810 0.11997
# Poissons Ratio (z) = 0.43418 0.14055
#
# Static dielectric constant tensor:
#      x y z
#    x 2.061780 -0.000870 -0.016560 
#    y -0.000870 2.072130 -0.003280 
#    z -0.016560 -0.003280 2.266740 
# 
# From -- ./inp_files/388091.got.cif
#   From: 2010.05.17/outbox.cif.g08.bks.cpg/sg2_195_cif.got.tgz:388091.got - 2010.06.03 11:33:40.
