data_PCOD9005046
_publ_section_title
;
Structure prediction by ZEFSAII (Michael W. Deem and Ramdas Pophale) SiO2 
 PCOD9005046
Probable space group: P -1
;
_chemical_formula_sum "Si O2"
_cell_formula_units_Z 14
_cell_length_a 13.920596
_cell_length_b 19.098699
_cell_length_c 6.220180
_cell_angle_alpha 78.720911
_cell_angle_beta 104.966651
_cell_angle_gamma 160.634422
_cell_volume 523.769879
_symmetry_space_group_name_H-M "P -1"
_symmetry_group_IT_number 2
_symmetry_cell_setting 'triclinic'
loop_
_space_group_symop_operation_xyz
x,y,z
-x,-y,-z
loop_
_atom_site_type_symbol
_atom_site_label
_atom_site_fract_x
_atom_site_fract_y
_atom_site_fract_z
Si Si1 0.125668 0.728513 0.018826
Si Si2 0.696499 0.096263 0.374154
Si Si3 0.273885 0.654903 0.925162
Si Si4 0.310965 0.157193 0.652110
Si Si5 0.778120 0.750820 0.854513
Si Si6 0.242140 0.006325 0.319429
Si Si7 0.652711 0.511435 0.875775
O O1 0.892884 0.528116 0.148767
O O2 0.442491 0.911043 0.157317
O O3 0.103041 0.711287 0.755118
O O4 0.997826 0.721668 0.980491
O O5 0.500000 0.000000 0.500000
O O6 0.842857 0.122158 0.518474
O O7 0.458164 0.813540 0.744255
O O8 0.517427 0.788830 0.147297
O O9 0.000000 0.500000 0.000000
O O10 0.303974 0.116216 0.440248
O O11 0.491003 0.350451 0.706697
O O12 0.980581 0.933901 0.701735
O O13 0.523298 0.617016 0.924009
O O14 0.647539 0.591137 0.766764
O O15 0.993352 0.864819 0.096738
#
# Coordination Sequence:
#
# PCOD9005046 Si02
#       7
#     2   2   2   2   2   2   2
#     4  10  22  38  57  86 120 161 205 249 306 372
#     4  11  22  37  59  87 125 164 202 255 314 372
#     4  10  21  38  60  88 126 166 206 255 312 376
#     4  10  22  40  62  92 130 166 209 265 321 376
#     4  10  22  43  64  90 127 168 212 263 319 379
#     4  11  23  39  65  96 126 165 212 264 320 375
#     4  10  21  41  66  88 124 172 212 258 319 381
#
# _framework density 26.729298
#
# number of rings (size 3 to 8) (size 9 to 14) (size 15 to 20)
#    0.000    1.714    0.000    3.857    0.000    9.714 
#    0.000   15.000    0.000    0.000    0.000    0.000 
#    0.000    0.000    0.000    0.000    0.000    0.000 
#
# Total GULP energy -78200.586688 kJ/mol
# GULP energy per Si atom -5585.756192 kJ/mol
# Density = 2.666846 g / cm^3
# Si number density = 26.729298 Si / 1000 Ang^3
#
#
#
# Elastic Constant Matrix: (Units=GPa)
#
#
# Indices 1 2 3 4 5 6 
#
# 1 126.2283 38.0106 38.1906 3.9267 -24.0186 9.4142
# 2 38.0106 115.9241 40.6710 -19.5773 -8.6205 7.0995
# 3 38.1906 40.6710 94.1071 0.9983 -3.5040 -8.8161
# 4 3.9267 -19.5773 0.9983 36.4109 -3.6547 -6.7268
# 5 -24.0186 -8.6205 -3.5040 -3.6547 40.9441 -7.7868
# 6 9.4142 7.0995 -8.8161 -6.7268 -7.7868 62.8501
#
#
#
# Elastic Compliance Matrix: (Units=1/GPa)
#
#
# Indices 1 2 3 4 5 6 
#
# 1 0.010733 -0.002233 -0.003311 -0.002015 0.005096 -0.001404
# 2 -0.002233 0.012253 -0.004484 0.006947 0.001360 -0.000767
# 3 -0.003311 -0.004484 0.014122 -0.002101 -0.001373 0.002588
# 4 -0.002015 0.006947 -0.002101 0.032414 0.003590 0.003137
# 5 0.005096 0.001360 -0.001373 0.003590 0.028434 0.002798
# 6 -0.001404 -0.000767 0.002588 0.003137 0.002798 0.017253
#
#
# Mechanical properties :
#
#
# Convention : Reuss Voigt Hill
#
# Bulk Modulus (GPa) = 58.64687 63.33375 60.99031
# Shear Modulus (GPa) = 35.47346 42.66684 39.07015
#
# Velocity S-wave (km/s) = 3.64694 3.99965 3.82736
# Velocity P-wave (km/s) = 6.30256 6.71384 6.51145
#
# Compressibility (1/GPa) = 0.01705121
#
# Stress axis : x y z
#
# Youngs Moduli (GPa) = 93.16632 81.61229 70.81393
#
# Poissons Ratio (x) = 0.18225 0.23448
# Poissons Ratio (y) = 0.20805 0.31754
# Poissons Ratio (z) = 0.30849 0.36596
#
# Static dielectric constant tensor:
#      x y z
#    x 2.199700 -0.041240 -0.006670 
#    y -0.041240 2.283820 0.060850 
#    z -0.006670 0.060850 2.176280 
# 
# From -- ./inp_files/100611.got.cif
#   From: 2010.05.17/outbox.cif.g08.bks.cpg/sg2_51_cif.got.tgz:100611.got - 2010.06.03 11:33:40.
