data_PCOD9005795
_publ_section_title
;
Structure prediction by ZEFSAII (Michael W. Deem and Ramdas Pophale) SiO2 
 PCOD9005795
Probable space group: P -1
;
_chemical_formula_sum "Si O2"
_cell_formula_units_Z 14
_cell_length_a 11.782108
_cell_length_b 12.909309
_cell_length_c 9.003272
_cell_angle_alpha 70.212760
_cell_angle_beta 120.819119
_cell_angle_gamma 147.370717
_cell_volume 621.204273
_symmetry_space_group_name_H-M "P -1"
_symmetry_group_IT_number 2
_symmetry_cell_setting 'triclinic'
loop_
_space_group_symop_operation_xyz
x,y,z
-x,-y,-z
loop_
_atom_site_type_symbol
_atom_site_label
_atom_site_fract_x
_atom_site_fract_y
_atom_site_fract_z
Si Si1 0.681364 0.863418 0.793344
Si Si2 0.982657 0.310489 0.515999
Si Si3 0.749692 0.270461 0.917370
Si Si4 0.313090 0.738329 0.453749
Si Si5 0.101077 0.204163 0.126389
Si Si6 0.665077 0.507784 0.081620
Si Si7 0.762782 0.051683 0.213365
O O1 0.571450 0.879450 0.607328
O O2 0.492846 0.705218 0.874317
O O3 0.729778 0.785331 0.770614
O O4 0.915905 0.057331 0.940637
O O5 0.791724 0.257134 0.491329
O O6 0.870133 0.153151 0.396488
O O7 0.161569 0.520457 0.454850
O O8 0.131202 0.355111 0.724091
O O9 0.715677 0.225322 0.741518
O O10 0.510906 0.171918 0.849491
O O11 0.753795 0.160380 0.064316
O O12 0.000000 0.500000 0.000000
O O13 0.948801 0.107793 0.219095
O O14 0.236439 0.406630 0.060089
O O15 0.500000 0.500000 0.000000
#
# Coordination Sequence:
#
# PCOD9005795 Si02
#       7
#     2   2   2   2   2   2   2
#     4   9  21  39  64  88 118 164 210 248 302 366
#     4  10  21  38  63  94 119 156 209 252 304 370
#     4  11  24  42  60  90 128 161 196 255 320 362
#     4  10  21  39  64  85 123 162 203 251 308 366
#     4  10  21  40  63  87 124 160 206 254 303 362
#     4   9  19  39  64  88 119 163 205 246 301 367
#     4  11  25  38  62  94 123 157 208 255 306 368
#
# _framework density 22.53687
#
# number of rings (size 3 to 8) (size 9 to 14) (size 15 to 20)
#    0.000    2.000    1.429    0.857    6.000    2.857 
#    0.000    7.143    0.000    0.000    0.000    0.000 
#    0.000    0.000    0.000    0.000    0.000    0.000 
#
# Total GULP energy -78249.545047 kJ/mol
# GULP energy per Si atom -5589.253218 kJ/mol
# Density = 2.248558 g / cm^3
# Si number density = 22.536870 Si / 1000 Ang^3
#
#
#
# Elastic Constant Matrix: (Units=GPa)
#
#
# Indices 1 2 3 4 5 6 
#
# 1 77.6969 14.4070 24.9821 13.8170 -0.6180 26.8805
# 2 14.4070 95.9306 0.9915 4.9059 -3.8403 10.2275
# 3 24.9821 0.9915 68.6578 4.0630 22.9718 4.3551
# 4 13.8170 4.9059 4.0630 24.9496 11.6138 -0.2682
# 5 -0.6180 -3.8403 22.9718 11.6138 32.6248 -2.3093
# 6 26.8805 10.2275 4.3551 -0.2682 -2.3093 30.9676
#
#
#
# Elastic Compliance Matrix: (Units=1/GPa)
#
#
# Indices 1 2 3 4 5 6 
#
# 1 0.028547 -0.000103 -0.012980 -0.021202 0.015663 -0.021936
# 2 -0.000103 0.011075 -0.000611 -0.003301 0.002673 -0.003311
# 3 -0.012980 -0.000611 0.025757 0.013862 -0.022946 0.006256
# 4 -0.021202 -0.003301 0.013862 0.065657 -0.032815 0.015666
# 5 0.015663 0.002673 -0.022946 -0.032815 0.058594 -0.007166
# 6 -0.021936 -0.003311 0.006256 0.015666 -0.007166 0.051147
#
#
# Mechanical properties :
#
#
# Convention : Reuss Voigt Hill
#
# Bulk Modulus (GPa) = 26.32300 35.89403 31.10852
# Shear Modulus (GPa) = 17.80435 31.16871 24.48653
#
# Velocity S-wave (km/s) = 2.81376 3.72292 3.29980
# Velocity P-wave (km/s) = 4.71823 5.86869 5.32462
#
# Compressibility (1/GPa) = 0.03798959
#
# Stress axis : x y z
#
# Youngs Moduli (GPa) = 35.02973 90.29474 38.82427
#
# Poissons Ratio (x) = 0.00932 0.50395
# Poissons Ratio (y) = 0.00361 0.02373
# Poissons Ratio (z) = 0.45470 0.05519
#
# Static dielectric constant tensor:
#      x y z
#    x 1.834040 0.022560 -0.006670 
#    y 0.022560 1.944940 -0.013010 
#    z -0.006670 -0.013010 1.778510 
# 
# From -- ./inp_files/251337.got.cif
#   From: 2010.05.17/outbox.cif.g08.bks.cpg/sg2_126_cif.got.tgz:251337.got - 2010.06.03 11:33:40.
