data_PCOD9005393
_publ_section_title
;
Structure prediction by ZEFSAII (Michael W. Deem and Ramdas Pophale) SiO2 
 PCOD9005393
Probable space group: P -1
;
_chemical_formula_sum "Si O2"
_cell_formula_units_Z 16
_cell_length_a 8.764199
_cell_length_b 19.107616
_cell_length_c 7.662667
_cell_angle_alpha 58.824998
_cell_angle_beta 135.510904
_cell_angle_gamma 92.798472
_cell_volume 650.265832
_symmetry_space_group_name_H-M "P -1"
_symmetry_group_IT_number 2
_symmetry_cell_setting 'triclinic'
loop_
_space_group_symop_operation_xyz
x,y,z
-x,-y,-z
loop_
_atom_site_type_symbol
_atom_site_label
_atom_site_fract_x
_atom_site_fract_y
_atom_site_fract_z
Si Si1 0.347461 0.991606 0.105748
Si Si2 0.223075 0.836217 0.271641
Si Si3 0.537297 0.546567 0.798674
Si Si4 0.921622 0.344169 0.246450
Si Si5 0.697063 0.690247 0.699100
Si Si6 0.013420 0.275519 0.814157
Si Si7 0.305818 0.941974 0.769465
Si Si8 0.799480 0.191523 0.339998
O O1 0.242173 0.929923 0.192490
O O2 0.575873 0.009113 0.317917
O O3 0.441158 0.933400 0.073802
O O4 0.089608 0.097711 0.729461
O O5 0.399445 0.775376 0.332491
O O6 0.978247 0.825454 0.057052
O O7 0.323779 0.776693 0.610541
O O8 0.709296 0.593554 0.894213
O O9 0.250546 0.638475 0.422143
O O10 0.500000 0.500000 0.000000
O O11 0.688066 0.455699 0.910942
O O12 0.011066 0.309331 0.567238
O O13 0.824861 0.276802 0.179448
O O14 0.146559 0.329376 0.323874
O O15 0.784295 0.731096 0.875596
O O16 0.349632 0.847943 0.833642
O O17 0.000000 0.000000 0.500000
#
# Coordination Sequence:
#
# PCOD9005393 Si02
#       8
#     2   2   2   2   2   2   2   2
#     4  10  21  38  62  84 121 165 205 254 308 366
#     4  10  23  39  58  92 126 157 212 261 300 373
#     4   9  20  43  63  91 130 158 205 263 304 373
#     4  10  22  39  65  91 126 159 210 258 304 374
#     4  11  23  39  65  93 123 167 208 250 318 371
#     4   9  22  43  62  92 127 164 204 259 312 366
#     4   9  21  36  57  86 116 152 206 250 306 361
#     4  10  22  40  58  88 123 162 205 256 311 365
#
# _framework density 24.605319999999999
#
# number of rings (size 3 to 8) (size 9 to 14) (size 15 to 20)
#    0.000    2.250    0.000    1.500    7.000    6.000 
#    0.000    7.500    0.000    0.000    0.000    0.000 
#    0.000    0.000    0.000    0.000    0.000    0.000 
#
# Total GULP energy -89172.798945 kJ/mol
# GULP energy per Si atom -5573.299934 kJ/mol
# Density = 2.454932 g / cm^3
# Si number density = 24.605320 Si / 1000 Ang^3
#
#
#
# Elastic Constant Matrix: (Units=GPa)
#
#
# Indices 1 2 3 4 5 6 
#
# 1 160.5661 51.9327 25.2602 -5.0183 14.2851 17.4005
# 2 51.9327 159.2244 24.6749 -11.2990 -4.9367 40.1354
# 3 25.2602 24.6749 40.6252 2.2593 2.0242 2.7529
# 4 -5.0183 -11.2990 2.2593 21.3363 -7.5575 5.0627
# 5 14.2851 -4.9367 2.0242 -7.5575 25.1289 -6.8207
# 6 17.4005 40.1354 2.7529 5.0627 -6.8207 53.7925
#
#
#
# Elastic Compliance Matrix: (Units=1/GPa)
#
#
# Indices 1 2 3 4 5 6 
#
# 1 0.007998 -0.001804 -0.003501 -0.000112 -0.005114 -0.001700
# 2 -0.001804 0.010214 -0.005294 0.008692 0.004157 -0.007057
# 3 -0.003501 -0.005294 0.030387 -0.008882 -0.003091 0.003972
# 4 -0.000112 0.008692 -0.008882 0.061106 0.018306 -0.009425
# 5 -0.005114 0.004157 -0.003091 0.018306 0.050183 0.003351
# 6 -0.001700 -0.007057 0.003972 -0.009425 0.003351 0.025514
#
#
# Mechanical properties :
#
#
# Convention : Reuss Voigt Hill
#
# Bulk Modulus (GPa) = 36.49684 62.68349 49.59016
# Shear Modulus (GPa) = 23.17671 37.28806 30.23239
#
# Velocity S-wave (km/s) = 3.07243 3.89710 3.50907
# Velocity P-wave (km/s) = 5.23942 6.76614 6.05113
#
# Compressibility (1/GPa) = 0.02739964
#
# Stress axis : x y z
#
# Youngs Moduli (GPa) = 125.03205 97.90543 32.90916
#
# Poissons Ratio (x) = 0.17663 0.11522
# Poissons Ratio (y) = 0.22556 0.17423
# Poissons Ratio (z) = 0.43775 0.51834
#
# Static dielectric constant tensor:
#      x y z
#    x 2.087280 0.054410 0.010780 
#    y 0.054410 1.974850 0.027280 
#    z 0.010780 0.027280 2.031620 
# 
# From -- ./inp_files/124757.got.cif
#   From: 2010.05.17/outbox.cif.g08.bks.cpg/sg2_63_cif.got.tgz:124757.got - 2010.06.03 11:33:40.
