data_PCOD9005308
_publ_section_title
;
Structure prediction by ZEFSAII (Michael W. Deem and Ramdas Pophale) SiO2 
 PCOD9005308
Probable space group: P -1
;
_chemical_formula_sum "Si O2"
_cell_formula_units_Z 16
_cell_length_a 11.998619
_cell_length_b 8.649835
_cell_length_c 11.325911
_cell_angle_alpha 91.629644
_cell_angle_beta 128.258879
_cell_angle_gamma 56.537453
_cell_volume 676.432818
_symmetry_space_group_name_H-M "P -1"
_symmetry_group_IT_number 2
_symmetry_cell_setting 'triclinic'
loop_
_space_group_symop_operation_xyz
x,y,z
-x,-y,-z
loop_
_atom_site_type_symbol
_atom_site_label
_atom_site_fract_x
_atom_site_fract_y
_atom_site_fract_z
Si Si1 0.723146 0.723888 0.953752
Si Si2 0.451855 0.362356 0.826105
Si Si3 0.883003 0.833625 0.238082
Si Si4 0.207676 0.366303 0.521913
Si Si5 0.604177 0.252952 0.189604
Si Si6 0.401666 0.967069 0.336762
Si Si7 0.889810 0.064874 0.054397
Si Si8 0.965661 0.743329 0.762575
O O1 0.546647 0.734305 0.833175
O O2 0.689526 0.857365 0.821779
O O3 0.726970 0.837611 0.070652
O O4 0.921849 0.476983 0.096675
O O5 0.300771 0.332877 0.709157
O O6 0.365397 0.595232 0.743377
O O7 0.503446 0.330443 0.996556
O O8 0.661111 0.195920 0.893969
O O9 0.042768 0.610094 0.395960
O O10 0.793295 0.013306 0.280117
O O11 0.968405 0.870418 0.185430
O O12 0.121789 0.269767 0.413282
O O13 0.404242 0.266040 0.578650
O O14 0.214941 0.043903 0.283630
O O15 0.500000 0.000000 0.500000
O O16 0.889114 0.220716 0.138154
O O17 0.000000 0.000000 0.000000
#
# Coordination Sequence:
#
# PCOD9005308 Si02
#       8
#     2   2   2   2   2   2   2   2
#     4  11  20  40  66  94 118 165 218 252 312 377
#     4  10  21  41  65  91 126 161 210 265 314 359
#     4  10  23  39  64  89 130 165 208 255 314 371
#     4  10  22  42  59  89 127 168 202 257 315 364
#     4  10  21  40  67  90 122 165 216 259 304 377
#     4  10  21  38  61  91 130 160 201 262 307 365
#     4  11  21  39  65  96 123 166 211 260 312 378
#     4  10  21  39  64  92 126 163 209 254 319 376
#
# _framework density 23.653494999999999
#
# number of rings (size 3 to 8) (size 9 to 14) (size 15 to 20)
#    0.000    1.750    1.250    3.750    0.000    2.500 
#    4.500    8.125    0.000    0.000    0.000    0.000 
#    0.000    0.000    0.000    0.000    0.000    0.000 
#
# Total GULP energy -89207.798134 kJ/mol
# GULP energy per Si atom -5575.487383 kJ/mol
# Density = 2.359966 g / cm^3
# Si number density = 23.653495 Si / 1000 Ang^3
#
#
#
# Elastic Constant Matrix: (Units=GPa)
#
#
# Indices 1 2 3 4 5 6 
#
# 1 63.1025 20.0618 15.0519 5.1598 8.7699 -7.6043
# 2 20.0618 92.2817 25.0716 0.9862 13.7603 3.2867
# 3 15.0519 25.0716 111.6921 22.8716 17.7880 7.6159
# 4 5.1598 0.9862 22.8716 36.3636 5.2581 16.4490
# 5 8.7699 13.7603 17.7880 5.2581 20.4776 3.8383
# 6 -7.6043 3.2867 7.6159 16.4490 3.8383 34.3124
#
#
#
# Elastic Compliance Matrix: (Units=1/GPa)
#
#
# Indices 1 2 3 4 5 6 
#
# 1 0.019169 -0.003429 -0.000398 -0.005044 -0.005712 0.007722
# 2 -0.003429 0.013080 -0.002058 0.003433 -0.005939 -0.002537
# 3 -0.000398 -0.002058 0.011982 -0.007125 -0.007342 0.001687
# 4 -0.005044 0.003433 -0.007125 0.041669 -0.000958 -0.019734
# 5 -0.005712 -0.005939 -0.007342 -0.000958 0.062954 -0.005651
# 6 0.007722 -0.002537 0.001687 -0.019734 -0.005651 0.040816
#
#
# Mechanical properties :
#
#
# Convention : Reuss Voigt Hill
#
# Bulk Modulus (GPa) = 30.80460 43.04964 36.92712
# Shear Modulus (GPa) = 23.55604 32.02346 27.78975
#
# Velocity S-wave (km/s) = 3.15918 3.68347 3.43135
# Velocity P-wave (km/s) = 5.13408 6.02746 5.59862
#
# Compressibility (1/GPa) = 0.03246268
#
# Stress axis : x y z
#
# Youngs Moduli (GPa) = 52.16768 76.45142 83.45800
#
# Poissons Ratio (x) = 0.26212 0.03318
# Poissons Ratio (y) = 0.17886 0.17177
# Poissons Ratio (z) = 0.02074 0.15735
#
# Static dielectric constant tensor:
#      x y z
#    x 2.162200 -0.183200 -0.055170 
#    y -0.183200 2.079070 0.100790 
#    z -0.055170 0.100790 1.974390 
# 
# From -- ./inp_files/218928.got.cif
#   From: 2010.05.17/outbox.cif.g08.bks.cpg/sg2_110_cif.got.tgz:218928.got - 2010.06.03 11:33:40.
