data_PCOD9005090
_publ_section_title
;
Structure prediction by ZEFSAII (Michael W. Deem and Ramdas Pophale) SiO2 
 PCOD9005090
Probable space group: P -1
;
_chemical_formula_sum "Si O2"
_cell_formula_units_Z 14
_cell_length_a 11.711620
_cell_length_b 14.538805
_cell_length_c 12.424364
_cell_angle_alpha 137.753200
_cell_angle_beta 48.590092
_cell_angle_gamma 150.426485
_cell_volume 700.984194
_symmetry_space_group_name_H-M "P -1"
_symmetry_group_IT_number 2
_symmetry_cell_setting 'triclinic'
loop_
_space_group_symop_operation_xyz
x,y,z
-x,-y,-z
loop_
_atom_site_type_symbol
_atom_site_label
_atom_site_fract_x
_atom_site_fract_y
_atom_site_fract_z
Si Si1 0.249872 0.237451 0.525150
Si Si2 0.477814 0.064373 0.681506
Si Si3 0.861994 0.616280 0.115254
Si Si4 0.316800 0.495328 0.098740
Si Si5 0.842304 0.289340 0.816547
Si Si6 0.762486 0.531805 0.431634
Si Si7 0.969098 0.641855 0.633778
O O1 0.285718 0.372681 0.716712
O O2 0.488270 0.313697 0.428343
O O3 0.226114 0.311655 0.496136
O O4 0.000000 0.000000 0.500000
O O5 0.566479 0.278523 0.799544
O O6 0.636945 0.101498 0.704952
O O7 0.500000 0.000000 0.500000
O O8 0.210529 0.877392 0.712632
O O9 0.100584 0.766091 0.164492
O O10 0.851922 0.643443 0.019049
O O11 0.783354 0.403939 0.988737
O O12 0.198921 0.426586 0.227304
O O13 0.500000 0.500000 0.000000
O O14 0.074508 0.447587 0.732604
O O15 0.879690 0.611706 0.544060
O O16 0.000000 0.500000 0.500000
#
# Coordination Sequence:
#
# PCOD9005090 Si02
#       7
#     2   2   2   2   2   2   2
#     4  10  22  40  63  88 119 162 205 256 315 374
#     4  11  21  41  65  93 122 165 220 262 310 376
#     4   9  19  39  58  84 122 159 196 251 315 363
#     4  11  24  41  61  92 132 168 204 267 323 376
#     4   9  18  38  65  84 118 161 204 259 306 356
#     4  10  21  38  60  91 119 156 208 257 307 368
#     4  12  23  38  65  94 125 169 215 259 315 378
#
# _framework density 19.971919
#
# number of rings (size 3 to 8) (size 9 to 14) (size 15 to 20)
#    0.000    1.714    2.857    1.714    0.000    5.143 
#    0.000   11.429    0.000    0.000    0.000    0.000 
#    0.000    0.000    0.000    0.000    0.000    0.000 
#
# Total GULP energy -78042.369550 kJ/mol
# GULP energy per Si atom -5574.454968 kJ/mol
# Density = 1.992646 g / cm^3
# Si number density = 19.971919 Si / 1000 Ang^3
#
#
#
# Elastic Constant Matrix: (Units=GPa)
#
#
# Indices 1 2 3 4 5 6 
#
# 1 115.9560 26.8903 53.0593 -1.6244 35.5530 6.9229
# 2 26.8903 118.2571 35.0206 -5.1652 3.0729 13.9769
# 3 53.0593 35.0206 111.5265 -20.3300 15.7875 6.4638
# 4 -1.6244 -5.1652 -20.3300 27.4569 6.0433 3.7449
# 5 35.5530 3.0729 15.7875 6.0433 39.4765 -4.3198
# 6 6.9229 13.9769 6.4638 3.7449 -4.3198 24.5475
#
#
#
# Elastic Compliance Matrix: (Units=1/GPa)
#
#
# Indices 1 2 3 4 5 6 
#
# 1 0.015061 -0.001148 -0.004737 0.000464 -0.012150 -0.004556
# 2 -0.001148 0.009965 -0.002263 0.000661 0.000541 -0.004760
# 3 -0.004737 -0.002263 0.014754 0.011513 -0.003621 -0.003654
# 4 0.000464 0.000661 0.011513 0.050099 -0.014241 -0.013688
# 5 -0.012150 0.000541 -0.003621 -0.014241 0.041340 0.013519
# 6 -0.004556 -0.004760 -0.003654 -0.013688 0.013519 0.050162
#
#
# Mechanical properties :
#
#
# Convention : Reuss Voigt Hill
#
# Bulk Modulus (GPa) = 42.58069 63.96445 53.27257
# Shear Modulus (GPa) = 24.33051 33.68078 29.00565
#
# Velocity S-wave (km/s) = 3.49411 4.11104 3.81507
# Velocity P-wave (km/s) = 6.13555 7.39128 6.79249
#
# Compressibility (1/GPa) = 0.02348482
#
# Stress axis : x y z
#
# Youngs Moduli (GPa) = 66.39502 100.35389 67.77949
#
# Poissons Ratio (x) = 0.11517 0.32104
# Poissons Ratio (y) = 0.07620 0.15340
# Poissons Ratio (z) = 0.31449 0.22713
#
# Static dielectric constant tensor:
#      x y z
#    x 1.732590 0.018020 -0.000270 
#    y 0.018020 1.698060 0.011680 
#    z -0.000270 0.011680 1.734400 
# 
# From -- ./inp_files/433308.got.cif
#   From: 2010.05.17/outbox.cif.g08.bks.cpg/sg2_217_cif.got.tgz:433308.got - 2010.06.03 11:33:40.
