data_PCOD9005731
_publ_section_title
;
Structure prediction by ZEFSAII (Michael W. Deem and Ramdas Pophale) SiO2 
 PCOD9005731
Probable space group: P -1
;
_chemical_formula_sum "Si O2"
_cell_formula_units_Z 14
_cell_length_a 14.770817
_cell_length_b 13.524076
_cell_length_c 9.370219
_cell_angle_alpha 69.682296
_cell_angle_beta 48.373353
_cell_angle_gamma 30.654140
_cell_volume 576.837608
_symmetry_space_group_name_H-M "P -1"
_symmetry_group_IT_number 2
_symmetry_cell_setting 'triclinic'
loop_
_space_group_symop_operation_xyz
x,y,z
-x,-y,-z
loop_
_atom_site_type_symbol
_atom_site_label
_atom_site_fract_x
_atom_site_fract_y
_atom_site_fract_z
Si Si1 0.175629 0.820903 0.082323
Si Si2 0.062551 0.602562 0.674289
Si Si3 0.728538 0.331000 0.631937
Si Si4 0.231731 0.315845 0.228128
Si Si5 0.624332 0.289212 0.510619
Si Si6 0.605987 0.113060 0.176117
Si Si7 0.084072 0.579398 0.983564
O O1 0.203802 0.731175 0.241830
O O2 0.394818 0.603313 0.852655
O O3 0.266894 0.870345 0.989682
O O4 0.850116 0.073881 0.268560
O O5 0.125595 0.678110 0.575261
O O6 0.341044 0.336365 0.444639
O O7 0.018273 0.593002 0.884076
O O8 0.806442 0.770727 0.757041
O O9 0.776608 0.194847 0.547541
O O10 0.496772 0.149433 0.121653
O O11 0.000000 0.500000 0.500000
O O12 0.135032 0.465882 0.123337
O O13 0.500000 0.500000 0.500000
O O14 0.378414 0.403445 0.737062
O O15 0.837575 0.855972 0.129501
#
# Coordination Sequence:
#
# PCOD9005731 Si02
#       7
#     2   2   2   2   2   2   2
#     4  10  21  39  63  93 127 165 209 259 315 385
#     4  10  22  41  64  94 128 164 217 265 315 380
#     4  10  21  38  63  91 127 168 207 259 319 376
#     4  10  24  45  67  92 126 167 220 269 317 380
#     4  12  22  37  61  93 129 163 202 255 318 380
#     4  10  22  43  67  92 129 169 212 265 320 381
#     4  12  24  42  67  96 127 171 213 264 326 376
#
# _framework density 24.270261000000001
#
# number of rings (size 3 to 8) (size 9 to 14) (size 15 to 20)
#    0.000    1.429    2.857    1.714    0.000    6.857 
#    0.000    4.286    0.000    0.000    0.000    0.000 
#    0.000    0.000    0.000    0.000    0.000    0.000 
#
# Total GULP energy -78239.522356 kJ/mol
# GULP energy per Si atom -5588.537311 kJ/mol
# Density = 2.421502 g / cm^3
# Si number density = 24.270261 Si / 1000 Ang^3
#
#
#
# Elastic Constant Matrix: (Units=GPa)
#
#
# Indices 1 2 3 4 5 6 
#
# 1 85.0344 -13.8712 11.6527 -0.4630 4.0642 -6.7011
# 2 -13.8712 73.1425 20.9736 -7.3930 3.4489 -20.2109
# 3 11.6527 20.9736 112.3930 5.7733 -1.3896 3.2459
# 4 -0.4630 -7.3930 5.7733 56.0679 -3.0985 7.6600
# 5 4.0642 3.4489 -1.3896 -3.0985 36.8659 -0.3351
# 6 -6.7011 -20.2109 3.2459 7.6600 -0.3351 28.9196
#
#
#
# Elastic Compliance Matrix: (Units=1/GPa)
#
#
# Indices 1 2 3 4 5 6 
#
# 1 0.013690 0.005470 -0.002676 0.000003 -0.002055 0.007270
# 2 0.005470 0.020800 -0.004994 0.000967 -0.002510 0.016079
# 3 -0.002676 -0.004994 0.010315 -0.001005 0.001021 -0.004990
# 4 0.000003 0.000967 -0.001005 0.018711 0.001406 -0.004151
# 5 -0.002055 -0.002510 0.001021 0.001406 0.027722 -0.002396
# 6 0.007270 0.016079 -0.004990 -0.004151 -0.002396 0.049132
#
#
# Mechanical properties :
#
#
# Convention : Reuss Voigt Hill
#
# Bulk Modulus (GPa) = 24.74869 34.23112 29.48990
# Shear Modulus (GPa) = 31.59787 41.15832 36.37809
#
# Velocity S-wave (km/s) = 3.61212 4.12252 3.87573
# Velocity P-wave (km/s) = 5.25508 6.06588 5.67498
#
# Compressibility (1/GPa) = 0.04040618
#
# Stress axis : x y z
#
# Youngs Moduli (GPa) = 73.04578 48.07610 96.94659
#
# Poissons Ratio (x) = -0.26296 0.25939
# Poissons Ratio (y) = -0.39954 0.48412
# Poissons Ratio (z) = 0.19544 0.24008
#
# Static dielectric constant tensor:
#      x y z
#    x 1.979270 -0.066180 0.008820 
#    y -0.066180 2.056030 0.032400 
#    z 0.008820 0.032400 1.912160 
# 
# From -- ./inp_files/314841.got.cif
#   From: 2010.05.17/outbox.cif.g08.bks.cpg/sg2_158_cif.got.tgz:314841.got - 2010.06.03 11:33:40.
