data_PCOD9005053
_publ_section_title
;
Structure prediction by ZEFSAII (Michael W. Deem and Ramdas Pophale) SiO2 
 PCOD9005053
Probable space group: P -1
;
_chemical_formula_sum "Si O2"
_cell_formula_units_Z 16
_cell_length_a 8.931929
_cell_length_b 11.018519
_cell_length_c 13.984987
_cell_angle_alpha 131.004404
_cell_angle_beta 76.307212
_cell_angle_gamma 128.690742
_cell_volume 774.783111
_symmetry_space_group_name_H-M "P -1"
_symmetry_group_IT_number 2
_symmetry_cell_setting 'triclinic'
loop_
_space_group_symop_operation_xyz
x,y,z
-x,-y,-z
loop_
_atom_site_type_symbol
_atom_site_label
_atom_site_fract_x
_atom_site_fract_y
_atom_site_fract_z
Si Si1 0.304574 0.162829 0.587985
Si Si2 0.094537 0.017080 0.350438
Si Si3 0.005428 0.589933 0.149048
Si Si4 0.117229 0.064988 0.159331
Si Si5 0.582415 0.249356 0.742655
Si Si6 0.691730 0.944960 0.141573
Si Si7 0.428020 0.412877 0.145968
Si Si8 0.264401 0.833322 0.927830
O O1 0.476505 0.167367 0.612243
O O2 0.388840 0.396791 0.721145
O O3 0.091603 0.001326 0.591275
O O4 0.259703 0.118045 0.460606
O O5 0.004534 0.778549 0.227630
O O6 0.177461 0.125632 0.291836
O O7 0.210388 0.692596 0.230333
O O8 0.000000 0.500000 0.000000
O O9 0.833111 0.395155 0.139099
O O10 0.245782 0.257003 0.165384
O O11 0.155288 0.907990 0.038113
O O12 0.887162 0.965737 0.137682
O O13 0.418105 0.087784 0.761521
O O14 0.614731 0.465362 0.854742
O O15 0.543483 0.730594 0.991678
O O16 0.753145 0.136288 0.165860
O O17 0.500000 0.000000 0.000000
#
# Coordination Sequence:
#
# PCOD9005053 Si02
#       8
#     2   2   2   2   2   2   2   2
#     4   9  23  41  60  86 111 167 208 237 290 340
#     4  11  23  40  61  86 120 157 203 251 282 354
#     4  12  24  37  62  90 122 153 193 243 313 352
#     4  11  20  37  60  90 120 155 195 246 297 347
#     4  10  21  38  60  89 117 156 199 239 300 352
#     4  11  20  35  62  88 123 150 193 251 294 355
#     4   9  20  33  61  84 116 152 196 238 288 353
#     4  11  24  37  55  93 125 150 189 243 312 354
#
# _framework density 20.650943000000002
#
# number of rings (size 3 to 8) (size 9 to 14) (size 15 to 20)
#    0.750    0.750    2.500    4.125    5.250    1.000 
#    0.000    0.000    0.000    0.750    0.000    0.000 
#    0.000    0.000    0.000    0.000    0.000    0.000 
#
# Total GULP energy -89267.433255 kJ/mol
# GULP energy per Si atom -5579.214578 kJ/mol
# Density = 2.060394 g / cm^3
# Si number density = 20.650943 Si / 1000 Ang^3
#
#
#
# Elastic Constant Matrix: (Units=GPa)
#
#
# Indices 1 2 3 4 5 6 
#
# 1 91.2056 12.7148 10.0510 -5.7183 17.6104 7.0957
# 2 12.7148 76.8465 3.7089 -15.8629 11.8142 -5.8585
# 3 10.0510 3.7089 54.2968 -6.5853 30.7406 -4.5187
# 4 -5.7183 -15.8629 -6.5853 26.1442 -10.5745 8.4815
# 5 17.6104 11.8142 30.7406 -10.5745 27.8554 3.0930
# 6 7.0957 -5.8585 -4.5187 8.4815 3.0930 32.5570
#
#
#
# Elastic Compliance Matrix: (Units=1/GPa)
#
#
# Indices 1 2 3 4 5 6 
#
# 1 0.013309 -0.000491 0.006531 -0.002372 -0.016324 0.000086
# 2 -0.000491 0.016102 0.007544 0.004784 -0.013482 0.004086
# 3 0.006531 0.007544 0.071389 -0.023879 -0.097995 0.025373
# 4 -0.002372 0.004784 -0.023879 0.063475 0.052525 -0.023462
# 5 -0.016324 -0.013482 -0.097995 0.052525 0.184877 -0.043716
# 6 0.000086 0.004086 0.025373 -0.023462 -0.043716 0.045219
#
#
# Mechanical properties :
#
#
# Convention : Reuss Voigt Hill
#
# Bulk Modulus (GPa) = 7.81435 30.58869 19.20152
# Shear Modulus (GPa) = 12.19936 30.36959 21.28447
#
# Velocity S-wave (km/s) = 2.43315 3.83902 3.21390
# Velocity P-wave (km/s) = 3.41846 5.87326 4.80526
#
# Compressibility (1/GPa) = 0.12796969
#
# Stress axis : x y z
#
# Youngs Moduli (GPa) = 75.13490 62.10482 14.00777
#
# Poissons Ratio (x) = 0.03048 -0.09149
# Poissons Ratio (y) = 0.03688 -0.10568
# Poissons Ratio (z) = -0.49072 -0.46854
#
# Static dielectric constant tensor:
#      x y z
#    x 1.802970 -0.001850 0.002750 
#    y -0.001850 1.715970 0.003270 
#    z 0.002750 0.003270 1.748760 
# 
# From -- ./inp_files/499412.got.cif
#   From: 2010.05.17/outbox.cif.g08.bks.cpg/sg2_250_cif.got.tgz:499412.got - 2010.06.03 11:33:40.
