data_PCOD9005494
_publ_section_title
;
Structure prediction by ZEFSAII (Michael W. Deem and Ramdas Pophale) SiO2 
 PCOD9005494
Probable space group: P -1
;
_chemical_formula_sum "Si O2"
_cell_formula_units_Z 14
_cell_length_a 8.345626
_cell_length_b 9.191596
_cell_length_c 17.111890
_cell_angle_alpha 25.309055
_cell_angle_beta 97.068483
_cell_angle_gamma 96.837232
_cell_volume 556.798229
_symmetry_space_group_name_H-M "P -1"
_symmetry_group_IT_number 2
_symmetry_cell_setting 'triclinic'
loop_
_space_group_symop_operation_xyz
x,y,z
-x,-y,-z
loop_
_atom_site_type_symbol
_atom_site_label
_atom_site_fract_x
_atom_site_fract_y
_atom_site_fract_z
Si Si1 0.015664 0.114454 0.067636
Si Si2 0.904677 0.836558 0.645684
Si Si3 0.601900 0.524223 0.711527
Si Si4 0.307559 0.133062 0.867586
Si Si5 0.422225 0.862967 0.832492
Si Si6 0.709086 0.315493 0.657118
Si Si7 0.093728 0.078221 0.677003
O O1 0.885396 0.841383 0.157652
O O2 0.968271 0.107297 0.159335
O O3 0.976818 0.466828 0.852887
O O4 0.194550 0.979754 0.148694
O O5 0.715542 0.779708 0.643081
O O6 0.000000 0.000000 0.500000
O O7 0.953891 0.058664 0.615080
O O8 0.651086 0.546345 0.613391
O O9 0.408708 0.474869 0.726316
O O10 0.653672 0.157499 0.926700
O O11 0.368766 0.973841 0.864608
O O12 0.561426 0.142315 0.686765
O O13 0.258533 0.876721 0.766298
O O14 0.500000 0.500000 0.000000
O O15 0.831034 0.538497 0.503068
#
# Coordination Sequence:
#
# PCOD9005494 Si02
#       7
#     2   2   2   2   2   2   2
#     4  10  22  38  63  91 121 163 203 252 305 358
#     4  11  21  37  59  88 121 162 203 246 300 361
#     4   9  18  36  59  85 118 162 196 244 300 357
#     4   8  18  36  60  86 118 157 202 243 303 354
#     4  10  21  38  62  91 118 158 208 253 304 361
#     4  11  21  37  63  92 123 157 207 252 298 368
#     4  11  22  40  60  91 123 161 203 252 306 357
#
# _framework density 25.14376
#
# number of rings (size 3 to 8) (size 9 to 14) (size 15 to 20)
#    0.000    2.000    1.429    2.143    0.000    4.571 
#    0.000    1.429    0.000    1.714    0.000    0.000 
#    0.000    0.000    0.000    0.000    0.000    0.000 
#
# Total GULP energy -78199.667256 kJ/mol
# GULP energy per Si atom -5585.690518 kJ/mol
# Density = 2.508653 g / cm^3
# Si number density = 25.143760 Si / 1000 Ang^3
#
#
#
# Elastic Constant Matrix: (Units=GPa)
#
#
# Indices 1 2 3 4 5 6 
#
# 1 48.8526 49.3152 16.4983 -15.5499 -22.3635 23.2412
# 2 49.3152 113.8935 36.9104 -3.6465 -17.7885 36.3877
# 3 16.4983 36.9104 136.3857 0.6397 -14.0568 -12.3822
# 4 -15.5499 -3.6465 0.6397 32.1372 -4.5211 -6.0524
# 5 -22.3635 -17.7885 -14.0568 -4.5211 46.1233 -1.9569
# 6 23.2412 36.3877 -12.3822 -6.0524 -1.9569 38.4991
#
#
#
# Elastic Compliance Matrix: (Units=1/GPa)
#
#
# Indices 1 2 3 4 5 6 
#
# 1 0.077498 -0.019362 -0.003052 0.035635 0.031728 -0.022251
# 2 -0.019362 0.021762 -0.005023 -0.009662 -0.003991 -0.012217
# 3 -0.003052 -0.005023 0.009944 -0.000416 -0.000015 0.009722
# 4 0.035635 -0.009662 -0.000416 0.049083 0.018072 -0.003879
# 5 0.031728 -0.003991 -0.000015 0.018072 0.036840 -0.010672
# 6 -0.022251 -0.012217 0.009722 -0.003879 -0.010672 0.052928
#
#
# Mechanical properties :
#
#
# Convention : Reuss Voigt Hill
#
# Bulk Modulus (GPa) = 18.40580 56.06442 37.23511
# Shear Modulus (GPa) = 15.57447 36.44578 26.01012
#
# Velocity S-wave (km/s) = 2.49151 3.81135 3.21979
# Velocity P-wave (km/s) = 3.95132 6.45868 5.35385
#
# Compressibility (1/GPa) = 0.05433071
#
# Stress axis : x y z
#
# Youngs Moduli (GPa) = 12.90352 45.95145 100.56673
#
# Poissons Ratio (x) = 0.88972 0.30693
# Poissons Ratio (y) = 0.24984 0.50510
# Poissons Ratio (z) = 0.03938 0.23079
#
# Static dielectric constant tensor:
#      x y z
#    x 2.055660 -0.008410 0.020900 
#    y -0.008410 2.040850 -0.026410 
#    z 0.020900 -0.026410 1.979440 
# 
# From -- ./inp_files/204772.got.cif
#   From: 2010.05.17/outbox.cif.g08.bks.cpg/sg2_103_cif.got.tgz:204772.got - 2010.06.03 11:33:40.
