data_PCOD9005911
_publ_section_title
;
Structure prediction by ZEFSAII (Michael W. Deem and Ramdas Pophale) SiO2 
 PCOD9005911
Probable space group: P -1
;
_chemical_formula_sum "Si O2"
_cell_formula_units_Z 14
_cell_length_a 11.543996
_cell_length_b 8.717836
_cell_length_c 11.092936
_cell_angle_alpha 56.380897
_cell_angle_beta 113.294522
_cell_angle_gamma 69.494511
_cell_volume 570.291763
_symmetry_space_group_name_H-M "P -1"
_symmetry_group_IT_number 2
_symmetry_cell_setting 'triclinic'
loop_
_space_group_symop_operation_xyz
x,y,z
-x,-y,-z
loop_
_atom_site_type_symbol
_atom_site_label
_atom_site_fract_x
_atom_site_fract_y
_atom_site_fract_z
Si Si1 0.166290 0.022981 0.461552
Si Si2 0.364407 0.793643 0.896225
Si Si3 0.533385 0.538955 0.699108
Si Si4 0.838685 0.712938 0.245523
Si Si5 0.704349 0.895541 0.714724
Si Si6 0.251582 0.475671 0.918076
Si Si7 0.850354 0.999554 0.932374
O O1 0.196904 0.190905 0.337558
O O2 0.949184 0.210276 0.277235
O O3 0.226204 0.961025 0.652079
O O4 0.318705 0.734815 0.574155
O O5 0.331898 0.011442 0.869849
O O6 0.347394 0.647886 0.051792
O O7 0.573365 0.588173 0.017513
O O8 0.499798 0.784810 0.532378
O O9 0.641577 0.306247 0.744250
O O10 0.785489 0.605867 0.181808
O O11 0.000000 0.500000 0.500000
O O12 0.907603 0.797103 0.147859
O O13 0.824825 0.908136 0.841279
O O14 0.699424 0.715637 0.867970
O O15 0.000000 0.000000 0.000000
#
# Coordination Sequence:
#
# PCOD9005911 Si02
#       7
#     2   2   2   2   2   2   2
#     4  10  22  40  62  80 134 150 194 248 288 352
#     4  11  22  39  63  89 117 160 199 238 299 350
#     4   9  22  40  58  86 122 151 196 248 289 346
#     4  10  21  40  60  87 123 148 199 255 285 340
#     4   9  22  40  58  86 122 151 196 248 289 346
#     4  11  22  39  63  89 117 160 199 238 299 350
#     4  10  21  38  64  86 114 156 200 243 294 351
#
# _framework density 24.548836000000001
#
# number of rings (size 3 to 8) (size 9 to 14) (size 15 to 20)
#    0.857    1.143    1.429    1.714    0.000    4.571 
#    0.000    0.000    0.000    0.000    0.000    0.000 
#    0.000    0.000    0.000    0.000    0.000    0.000 
#
# Total GULP energy -78138.240177 kJ/mol
# GULP energy per Si atom -5581.302870 kJ/mol
# Density = 2.449296 g / cm^3
# Si number density = 24.548836 Si / 1000 Ang^3
#
#
#
# Elastic Constant Matrix: (Units=GPa)
#
#
# Indices 1 2 3 4 5 6 
#
# 1 143.2680 18.1739 74.2316 20.7814 -8.3983 4.2167
# 2 18.1739 57.3610 30.4219 -4.0211 -6.5300 -4.1180
# 3 74.2316 30.4219 193.5223 23.6015 -24.6433 -8.1874
# 4 20.7814 -4.0211 23.6015 42.1414 -11.9230 0.0443
# 5 -8.3983 -6.5300 -24.6433 -11.9230 37.2966 5.8384
# 6 4.2167 -4.1180 -8.1874 0.0443 5.8384 21.9056
#
#
#
# Elastic Compliance Matrix: (Units=1/GPa)
#
#
# Indices 1 2 3 4 5 6 
#
# 1 0.009356 -0.001848 -0.003139 -0.003270 -0.000853 -0.003087
# 2 -0.001848 0.020257 -0.002657 0.005068 0.002609 0.002465
# 3 -0.003139 -0.002657 0.007491 -0.002123 0.002759 0.002174
# 4 -0.003270 0.005068 -0.002123 0.029387 0.008378 -0.001504
# 5 -0.000853 0.002609 0.002759 0.008378 0.032680 -0.007041
# 6 -0.003087 0.002465 0.002174 -0.001504 -0.007041 0.049400
#
#
# Mechanical properties :
#
#
# Convention : Reuss Voigt Hill
#
# Bulk Modulus (GPa) = 45.83524 71.08959 58.46241
# Shear Modulus (GPa) = 29.21735 38.35697 33.78716
#
# Velocity S-wave (km/s) = 3.45363 3.95711 3.71391
# Velocity P-wave (km/s) = 5.88345 7.06396 6.50056
#
# Compressibility (1/GPa) = 0.02181728
#
# Stress axis : x y z
#
# Youngs Moduli (GPa) = 106.88611 49.36467 133.48982
#
# Poissons Ratio (x) = 0.09121 0.41898
# Poissons Ratio (y) = 0.19748 0.35472
# Poissons Ratio (z) = 0.33548 0.13118
#
# Static dielectric constant tensor:
#      x y z
#    x 1.936540 0.072250 -0.020820 
#    y 0.072250 2.093410 0.007350 
#    z -0.020820 0.007350 1.999280 
# 
# From -- ./inp_files/427586.got.cif
#   From: 2010.05.17/outbox.cif.g08.bks.cpg/sg2_214_cif.got.tgz:427586.got - 2010.06.03 11:33:40.
