data_PCOD9005767
_publ_section_title
;
Structure prediction by ZEFSAII (Michael W. Deem and Ramdas Pophale) SiO2 
 PCOD9005767
Probable space group: P -1
;
_chemical_formula_sum "Si O2"
_cell_formula_units_Z 16
_cell_length_a 7.981116
_cell_length_b 23.090039
_cell_length_c 9.063866
_cell_angle_alpha 50.295073
_cell_angle_beta 131.430249
_cell_angle_gamma 144.937068
_cell_volume 700.880472
_symmetry_space_group_name_H-M "P -1"
_symmetry_group_IT_number 2
_symmetry_cell_setting 'triclinic'
loop_
_space_group_symop_operation_xyz
x,y,z
-x,-y,-z
loop_
_atom_site_type_symbol
_atom_site_label
_atom_site_fract_x
_atom_site_fract_y
_atom_site_fract_z
Si Si1 0.154545 0.235444 0.575303
Si Si2 0.605143 0.458210 0.989089
Si Si3 0.825491 0.415433 0.409422
Si Si4 0.120378 0.864472 0.853945
Si Si5 0.381651 0.557993 0.304942
Si Si6 0.391928 0.181966 0.576674
Si Si7 0.318275 0.903923 0.218254
Si Si8 0.141503 0.337364 0.103985
O O1 0.433062 0.339912 0.655738
O O2 0.249313 0.176393 0.658080
O O3 0.108563 0.277876 0.337685
O O4 0.871571 0.163500 0.639175
O O5 0.527341 0.392770 0.206300
O O6 0.272365 0.417850 0.889160
O O7 0.595272 0.417784 0.892363
O O8 0.857140 0.580915 0.941476
O O9 0.696902 0.304252 0.540180
O O10 0.000000 0.500000 0.500000
O O11 0.028254 0.473059 0.287978
O O12 0.849090 0.845352 0.642856
O O13 0.088779 0.769520 0.950699
O O14 0.445282 0.973942 0.815444
O O15 0.096290 0.871204 0.004736
O O16 0.500000 0.500000 0.500000
O O17 0.478567 0.117472 0.695003
#
# Coordination Sequence:
#
# PCOD9005767 Si02
#       8
#     2   2   2   2   2   2   2   2
#     4  11  22  43  66 101 133 175 227 277 331 409
#     4  11  22  38  62  91 132 175 210 271 322 397
#     4  12  24  41  61  94 134 176 223 265 334 407
#     4  10  23  47  69 100 134 172 229 286 336 407
#     4  12  23  38  61  93 131 174 220 268 329 400
#     4  11  24  45  68  99 139 177 221 283 337 399
#     4  11  25  45  75  97 131 179 226 285 348 390
#     4  10  21  38  63  92 131 170 214 268 337 384
#
# _framework density 22.828427000000001
#
# number of rings (size 3 to 8) (size 9 to 14) (size 15 to 20)
#    0.000    1.000    5.000    2.250    3.500    2.000 
#    0.000    5.000    0.000    0.000    0.000    0.000 
#    0.000    0.000    0.000    0.000    0.000    0.000 
#
# Total GULP energy -89107.530722 kJ/mol
# GULP energy per Si atom -5569.220670 kJ/mol
# Density = 2.277647 g / cm^3
# Si number density = 22.828427 Si / 1000 Ang^3
#
#
#
# Elastic Constant Matrix: (Units=GPa)
#
#
# Indices 1 2 3 4 5 6 
#
# 1 72.9135 17.4476 24.0599 -13.1441 -22.3427 -6.3701
# 2 17.4476 142.3811 31.2303 -2.1235 -13.2496 -15.3096
# 3 24.0599 31.2303 83.8253 4.6527 -27.2332 6.2442
# 4 -13.1441 -2.1235 4.6527 34.3320 2.2769 -5.2838
# 5 -22.3427 -13.2496 -27.2332 2.2769 44.9272 -11.2436
# 6 -6.3701 -15.3096 6.2442 -5.2838 -11.2436 29.0985
#
#
#
# Elastic Compliance Matrix: (Units=1/GPa)
#
#
# Indices 1 2 3 4 5 6 
#
# 1 0.020948 0.000759 -0.004309 0.009761 0.010469 0.011728
# 2 0.000759 0.008637 -0.003229 0.002136 0.002556 0.006779
# 3 -0.004309 -0.003229 0.017077 -0.005327 0.006317 -0.004833
# 4 0.009761 0.002136 -0.005327 0.035360 0.003512 0.012182
# 5 0.010469 0.002556 0.006317 0.003512 0.036090 0.016864
# 6 0.011728 0.006779 -0.004833 0.012182 0.016864 0.050265
#
#
# Mechanical properties :
#
#
# Convention : Reuss Voigt Hill
#
# Bulk Modulus (GPa) = 30.20818 49.39949 39.80383
# Shear Modulus (GPa) = 25.91062 36.76367 31.33714
#
# Velocity S-wave (km/s) = 3.37265 4.01737 3.70905
# Velocity P-wave (km/s) = 5.33177 6.57309 5.98470
#
# Compressibility (1/GPa) = 0.03310362
#
# Stress axis : x y z
#
# Youngs Moduli (GPa) = 47.73807 115.77795 58.55706
#
# Poissons Ratio (x) = -0.08790 0.25235
# Poissons Ratio (y) = -0.03624 0.18908
# Poissons Ratio (z) = 0.20572 0.37385
#
# Static dielectric constant tensor:
#      x y z
#    x 1.747310 -0.046440 -0.240470 
#    y -0.046440 1.772730 -0.120360 
#    z -0.240470 -0.120360 1.417970 
# 
# From -- ./inp_files/225388.got.cif
#   From: 2010.05.17/outbox.cif.g08.bks.cpg/sg2_113_cif.got.tgz:225388.got - 2010.06.03 11:33:40.
