data_PCOD9005260
_publ_section_title
;
Structure prediction by ZEFSAII (Michael W. Deem and Ramdas Pophale) SiO2 
 PCOD9005260
Probable space group: P -1
;
_chemical_formula_sum "Si O2"
_cell_formula_units_Z 16
_cell_length_a 14.794896
_cell_length_b 15.072958
_cell_length_c 8.258619
_cell_angle_alpha 85.356692
_cell_angle_beta 76.567368
_cell_angle_gamma 152.234788
_cell_volume 646.479384
_symmetry_space_group_name_H-M "P -1"
_symmetry_group_IT_number 2
_symmetry_cell_setting 'triclinic'
loop_
_space_group_symop_operation_xyz
x,y,z
-x,-y,-z
loop_
_atom_site_type_symbol
_atom_site_label
_atom_site_fract_x
_atom_site_fract_y
_atom_site_fract_z
Si Si1 0.665862 0.243300 0.605123
Si Si2 0.584231 0.632248 0.700482
Si Si3 0.080832 0.720813 0.950243
Si Si4 0.898836 0.437129 0.815010
Si Si5 0.747314 0.509108 0.525186
Si Si6 0.046438 0.201133 0.851864
Si Si7 0.798068 0.926489 0.292834
Si Si8 0.679596 0.535675 0.868866
O O1 0.697595 0.253119 0.780685
O O2 0.822045 0.474351 0.476997
O O3 0.820214 0.310394 0.425337
O O4 0.369957 0.993597 0.725115
O O5 0.313547 0.391680 0.754900
O O6 0.787003 0.839961 0.447122
O O7 0.631476 0.581582 0.775535
O O8 0.525802 0.647769 0.872312
O O9 0.887301 0.512780 0.923903
O O10 0.111856 0.661280 0.058786
O O11 0.990306 0.730727 0.071612
O O12 0.940205 0.758632 0.347798
O O13 0.489289 0.292194 0.558187
O O14 0.680056 0.459287 0.748544
O O15 0.852738 0.966904 0.070509
O O16 0.036320 0.198741 0.213182
#
# Coordination Sequence:
#
# PCOD9005260 Si02
#       8
#     2   2   2   2   2   2   2   2
#     4  11  22  40  61  91 121 153 207 246 296 365
#     4   9  21  41  62  90 121 159 207 255 293 362
#     4  11  21  42  63  87 123 160 197 245 307 357
#     4  10  24  39  64  89 119 157 198 255 298 354
#     4  11  23  38  62  90 125 162 198 254 301 357
#     4  10  21  38  61  89 126 158 199 251 297 362
#     4  10  21  40  62  87 121 163 201 250 299 359
#     4  10  22  41  63  89 123 159 206 251 304 353
#
# _framework density 24.749434999999998
#
# number of rings (size 3 to 8) (size 9 to 14) (size 15 to 20)
#    0.000    1.750    2.500    1.125    3.500    3.000 
#    0.000    6.250    0.000    0.000    0.000    0.000 
#    0.000    0.000    0.000    0.000    0.000    0.000 
#
# Total GULP energy -89257.177475 kJ/mol
# GULP energy per Si atom -5578.573592 kJ/mol
# Density = 2.469310 g / cm^3
# Si number density = 24.749435 Si / 1000 Ang^3
#
#
#
# Elastic Constant Matrix: (Units=GPa)
#
#
# Indices 1 2 3 4 5 6 
#
# 1 74.7940 17.6760 15.1173 5.2676 26.0556 3.7211
# 2 17.6760 59.2897 14.5854 -2.2681 -0.9395 -3.5665
# 3 15.1173 14.5854 101.5281 3.7357 29.0827 -11.4061
# 4 5.2676 -2.2681 3.7357 33.4583 4.6703 -7.9114
# 5 26.0556 -0.9395 29.0827 4.6703 55.6314 8.6743
# 6 3.7211 -3.5665 -11.4061 -7.9114 8.6743 27.1336
#
#
#
# Elastic Compliance Matrix: (Units=1/GPa)
#
#
# Indices 1 2 3 4 5 6 
#
# 1 0.017720 -0.005695 0.000546 -0.002298 -0.008339 -0.000953
# 2 -0.005695 0.019564 -0.003098 0.002307 0.004209 0.001377
# 3 0.000546 -0.003098 0.013669 0.001438 -0.008905 0.008530
# 4 -0.002298 0.002307 0.001438 0.033818 -0.004424 0.012497
# 5 -0.008339 0.004209 -0.008905 -0.004424 0.028942 -0.012589
# 6 -0.000953 0.001377 0.008530 0.012497 -0.012589 0.048421
#
#
# Mechanical properties :
#
#
# Convention : Reuss Voigt Hill
#
# Bulk Modulus (GPa) = 29.01980 36.70769 32.86375
# Shear Modulus (GPa) = 26.29992 35.79352 31.04672
#
# Velocity S-wave (km/s) = 3.26336 3.80707 3.54565
# Velocity P-wave (km/s) = 5.09414 5.84713 5.48358
#
# Compressibility (1/GPa) = 0.03445923
#
# Stress axis : x y z
#
# Youngs Moduli (GPa) = 56.43371 51.11416 73.15558
#
# Poissons Ratio (x) = 0.29107 -0.03993
# Poissons Ratio (y) = 0.32136 0.22667
# Poissons Ratio (z) = -0.03080 0.15837
#
# Static dielectric constant tensor:
#      x y z
#    x 1.961110 -0.020550 0.060510 
#    y -0.020550 2.000260 0.020280 
#    z 0.060510 0.020280 2.046690 
# 
# From -- ./inp_files/315261.got.cif
#   From: 2010.05.17/outbox.cif.g08.bks.cpg/sg2_158_cif.got.tgz:315261.got - 2010.06.03 11:33:40.
