data_PCOD9005374
_publ_section_title
;
Structure prediction by ZEFSAII (Michael W. Deem and Ramdas Pophale) SiO2 
 PCOD9005374
Probable space group: P -1
;
_chemical_formula_sum "Si O2"
_cell_formula_units_Z 15
_cell_length_a 10.554369
_cell_length_b 15.737057
_cell_length_c 7.426275
_cell_angle_alpha 117.858969
_cell_angle_beta 77.566845
_cell_angle_gamma 145.757008
_cell_volume 576.245924
_symmetry_space_group_name_H-M "P -1"
_symmetry_group_IT_number 2
_symmetry_cell_setting 'triclinic'
loop_
_space_group_symop_operation_xyz
x,y,z
-x,-y,-z
loop_
_atom_site_type_symbol
_atom_site_label
_atom_site_fract_x
_atom_site_fract_y
_atom_site_fract_z
Si Si1 0.606377 0.791607 0.080766
Si Si2 0.613534 0.655903 0.237780
Si Si3 0.294032 0.738635 0.725887
Si Si4 0.000000 0.000000 0.500000
Si Si5 0.652372 0.191913 0.642942
Si Si6 0.844438 0.541100 0.291526
Si Si7 0.109741 0.358729 0.254276
Si Si8 0.805241 0.001896 0.883467
O O1 0.732903 0.818523 0.237107
O O2 0.481233 0.810097 0.206311
O O3 0.388205 0.586738 0.883612
O O4 0.769037 0.913802 0.982983
O O5 0.857294 0.802505 0.418136
O O6 0.380634 0.550510 0.305764
O O7 0.500000 0.500000 0.000000
O O8 0.305248 0.745851 0.512692
O O9 0.224370 0.595392 0.700981
O O10 0.088720 0.686685 0.786939
O O11 0.569964 0.924317 0.880677
O O12 0.177488 0.048385 0.350467
O O13 0.920074 0.335441 0.772426
O O14 0.500000 0.000000 0.500000
O O15 0.901430 0.653778 0.538371
O O16 0.033758 0.211101 0.046139
#
# Coordination Sequence:
#
# PCOD9005374 Si02
#       8
#     2   2   2   1   2   2   2   2
#     4  11  23  42  67  99 137 176 232 291 343 408
#     4  12  26  49  72 100 132 190 239 286 350 411
#     4  10  21  40  68  98 139 185 221 280 353 415
#     4  12  26  52  70  96 140 178 240 284 350 418
#     4  11  21  36  61 104 142 175 220 280 349 417
#     4  10  21  38  61  97 136 182 219 276 350 421
#     4  11  21  43  69 101 137 182 236 275 351 424
#     4  11  24  43  70 103 137 185 227 291 348 417
#
# _framework density 26.030553999999999
#
# number of rings (size 3 to 8) (size 9 to 14) (size 15 to 20)
#    0.000    1.067    1.333    8.000    0.000    3.733 
#    4.800    1.333    0.000    0.000    0.000    0.000 
#    0.000    0.000    0.000    0.000    0.000    0.000 
#
# Total GULP energy -83822.282885 kJ/mol
# GULP energy per Si atom -5588.152192 kJ/mol
# Density = 2.597131 g / cm^3
# Si number density = 26.030554 Si / 1000 Ang^3
#
#
#
# Elastic Constant Matrix: (Units=GPa)
#
#
# Indices 1 2 3 4 5 6 
#
# 1 81.0891 56.1583 40.7783 -20.1225 10.0576 13.0157
# 2 56.1583 167.0549 36.3370 16.8988 3.2271 31.4040
# 3 40.7783 36.3370 123.6198 8.4551 -14.8481 -6.7440
# 4 -20.1225 16.8988 8.4551 57.7634 4.4345 1.2471
# 5 10.0576 3.2271 -14.8481 4.4345 41.0079 -4.6220
# 6 13.0157 31.4040 -6.7440 1.2471 -4.6220 42.4025
#
#
#
# Elastic Compliance Matrix: (Units=1/GPa)
#
#
# Indices 1 2 3 4 5 6 
#
# 1 0.029114 -0.007534 -0.010307 0.014975 -0.012667 -0.006818
# 2 -0.007534 0.010020 -0.000227 -0.005496 0.001022 -0.004872
# 3 -0.010307 -0.000227 0.013409 -0.006307 0.008828 0.006612
# 4 0.014975 -0.005496 -0.006307 0.025796 -0.008678 -0.003234
# 5 -0.012667 0.001022 0.008828 -0.008678 0.032486 0.008332
# 6 -0.006818 -0.004872 0.006612 -0.003234 0.008332 0.031339
#
#
# Mechanical properties :
#
#
# Convention : Reuss Voigt Hill
#
# Bulk Modulus (GPa) = 60.95029 70.92345 65.93687
# Shear Modulus (GPa) = 27.20812 44.13412 35.67112
#
# Velocity S-wave (km/s) = 3.23652 4.12208 3.70585
# Velocity P-wave (km/s) = 6.11821 7.06829 6.61034
#
# Compressibility (1/GPa) = 0.01640681
#
# Stress axis : x y z
#
# Youngs Moduli (GPa) = 34.34739 99.79954 74.57918
#
# Poissons Ratio (x) = 0.75187 0.76869
# Poissons Ratio (y) = 0.25877 0.01695
# Poissons Ratio (z) = 0.35402 0.02268
#
# Static dielectric constant tensor:
#      x y z
#    x 2.123500 0.026000 0.144950 
#    y 0.026000 2.039330 0.130420 
#    z 0.144950 0.130420 2.256210 
# 
# From -- ./inp_files/276817.got.cif
#   From: 2010.05.17/outbox.cif.g08.bks.cpg/sg2_139_cif.got.tgz:276817.got - 2010.06.03 11:33:40.
