data_PCOD9005225
_publ_section_title
;
Structure prediction by ZEFSAII (Michael W. Deem and Ramdas Pophale) SiO2 
 PCOD9005225
Probable space group: P -1
;
_chemical_formula_sum "Si O2"
_cell_formula_units_Z 12
_cell_length_a 18.293715
_cell_length_b 5.238654
_cell_length_c 5.697713
_cell_angle_alpha 87.137938
_cell_angle_beta 62.277758
_cell_angle_gamma 65.897542
_cell_volume 434.542024
_symmetry_space_group_name_H-M "P -1"
_symmetry_group_IT_number 2
_symmetry_cell_setting 'triclinic'
loop_
_space_group_symop_operation_xyz
x,y,z
-x,-y,-z
loop_
_atom_site_type_symbol
_atom_site_label
_atom_site_fract_x
_atom_site_fract_y
_atom_site_fract_z
Si Si1 0.689516 0.841381 0.225935
Si Si2 0.476761 0.826238 0.240660
Si Si3 0.355925 0.690642 0.097610
Si Si4 0.018318 0.699904 0.272669
Si Si5 0.854056 0.752699 0.282968
Si Si6 0.814259 0.376494 0.744843
O O1 0.592871 0.939299 0.492861
O O2 0.759652 0.916201 0.275512
O O3 0.664066 0.023427 0.020316
O O4 0.751995 0.525371 0.059568
O O5 0.414685 0.678554 0.238158
O O6 0.574742 0.566470 0.158243
O O7 0.500000 0.000000 0.000000
O O8 0.256647 0.704168 0.285596
O O9 0.085458 0.820208 0.286878
O O10 0.000000 0.500000 0.500000
O O11 0.920826 0.884431 0.281961
O O12 0.081416 0.485445 0.987280
O O13 0.830555 0.597533 0.542497
#
# Coordination Sequence:
#
# PCOD9005225 Si02
#       6
#     2   2   2   2   2   2
#     4  11  22  38  61  87 118 153 195 242 292 347
#     4  11  25  43  60  82 117 156 196 243 296 351
#     4  11  24  39  59  88 117 151 197 244 294 346
#     4   8  16  32  59  89 117 155 194 232 284 342
#     4   9  17  34  60  87 119 156 192 234 287 344
#     4  10  21  38  61  88 119 155 196 240 288 343
#
# _framework density 27.615283000000002
#
# number of rings (size 3 to 8) (size 9 to 14) (size 15 to 20)
#    0.000    2.000    0.000    3.500    0.000    8.000 
#    0.000    0.833    0.000   41.000    0.000    0.000 
#    0.000    0.000    0.000    0.000    0.000    0.000 
#
# Total GULP energy -67126.375385 kJ/mol
# GULP energy per Si atom -5593.864615 kJ/mol
# Density = 2.755243 g / cm^3
# Si number density = 27.615283 Si / 1000 Ang^3
#
#
#
# Elastic Constant Matrix: (Units=GPa)
#
#
# Indices 1 2 3 4 5 6 
#
# 1 228.2072 13.5358 23.0245 16.0570 -30.2312 -10.6370
# 2 13.5358 42.5928 14.3121 9.3921 -18.2433 -11.4215
# 3 23.0245 14.3121 154.6915 28.5816 -37.0263 -5.7392
# 4 16.0570 9.3921 28.5816 34.4784 -5.8757 -8.7429
# 5 -30.2312 -18.2433 -37.0263 -5.8757 57.4116 17.2338
# 6 -10.6370 -11.4215 -5.7392 -8.7429 17.2338 48.2212
#
#
#
# Elastic Compliance Matrix: (Units=1/GPa)
#
#
# Indices 1 2 3 4 5 6 
#
# 1 0.004833 -0.000148 0.000272 -0.002059 0.002526 -0.000213
# 2 -0.000148 0.028882 0.000478 -0.006104 0.007902 0.002934
# 3 0.000272 0.000478 0.009112 -0.007343 0.006096 -0.002252
# 4 -0.002059 -0.006104 -0.007343 0.038315 -0.005702 0.006211
# 5 0.002526 0.007902 0.006096 -0.005702 0.026851 -0.007476
# 6 -0.000213 0.002934 -0.002252 0.006211 -0.007476 0.024916
#
#
# Mechanical properties :
#
#
# Convention : Reuss Voigt Hill
#
# Bulk Modulus (GPa) = 22.71177 58.58181 40.64679
# Shear Modulus (GPa) = 34.15683 52.99684 43.57683
#
# Velocity S-wave (km/s) = 3.52075 4.38552 3.97671
# Velocity P-wave (km/s) = 4.97692 6.84860 5.98636
#
# Compressibility (1/GPa) = 0.04403003
#
# Stress axis : x y z
#
# Youngs Moduli (GPa) = 206.91231 34.62340 109.74438
#
# Poissons Ratio (x) = 0.00513 -0.02980
# Poissons Ratio (y) = 0.03067 -0.05247
# Poissons Ratio (z) = -0.05618 -0.01655
#
# Static dielectric constant tensor:
#      x y z
#    x 2.265360 0.084220 0.078340 
#    y 0.084220 2.147960 0.127240 
#    z 0.078340 0.127240 2.183250 
# 
# From -- ./inp_files/3116.got.cif
#   From: 2010.05.17/outbox.cif.g08.bks.cpg/sg2_2_cif.got.tgz:3116.got - 2010.06.03 11:33:40.
