data_PCOD9005860
_publ_section_title
;
Structure prediction by ZEFSAII (Michael W. Deem and Ramdas Pophale) SiO2 
 PCOD9005860
Probable space group: P -1
;
_chemical_formula_sum "Si O2"
_cell_formula_units_Z 16
_cell_length_a 30.088056
_cell_length_b 8.581631
_cell_length_c 15.828294
_cell_angle_alpha 130.880909
_cell_angle_beta 17.735349
_cell_angle_gamma 139.541137
_cell_volume 755.165572
_symmetry_space_group_name_H-M "P -1"
_symmetry_group_IT_number 2
_symmetry_cell_setting 'triclinic'
loop_
_space_group_symop_operation_xyz
x,y,z
-x,-y,-z
loop_
_atom_site_type_symbol
_atom_site_label
_atom_site_fract_x
_atom_site_fract_y
_atom_site_fract_z
Si Si1 0.294851 0.811486 0.272317
Si Si2 0.325237 0.452738 0.412144
Si Si3 0.869592 0.703015 0.658890
Si Si4 0.638967 0.470615 0.288138
Si Si5 0.560619 0.736903 0.253445
Si Si6 0.987034 0.052427 0.139727
Si Si7 0.424092 0.148448 0.012184
Si Si8 0.220133 0.832628 0.121194
O O1 0.210335 0.520020 0.345233
O O2 0.150671 0.866848 0.577412
O O3 0.342087 0.882185 0.112856
O O4 0.500000 0.000000 0.000000
O O5 0.416332 0.564856 0.378735
O O6 0.410113 0.321209 0.166152
O O7 0.116613 0.219356 0.720315
O O8 0.381344 0.681233 0.326499
O O9 0.004311 0.668082 0.453628
O O10 0.692834 0.654669 0.002083
O O11 0.000000 0.000000 0.500000
O O12 0.500000 0.500000 0.500000
O O13 0.536388 0.298549 0.496186
O O14 0.704796 0.333167 0.064039
O O15 0.821160 0.733763 0.088187
O O16 0.694489 0.018757 0.069882
O O17 0.000000 0.000000 0.000000
O O18 0.291694 0.057892 0.139542
#
# Coordination Sequence:
#
# PCOD9005860 Si02
#       8
#     2   2   2   2   2   2   2   2
#     4  11  23  39  66  97 130 171 223 280 338 397
#     4   9  18  39  62  94 123 173 215 269 333 396
#     4  10  21  38  63  97 127 166 218 274 332 400
#     4  12  26  41  62  96 135 177 223 272 336 399
#     4  10  21  40  67  89 130 176 218 267 337 406
#     4  11  22  41  68  94 132 177 223 276 334 407
#     4   9  20  35  64  91 129 164 216 271 333 392
#     4  10  22  42  63  91 130 173 219 272 338 400
#
# _framework density 21.187405999999999
#
# number of rings (size 3 to 8) (size 9 to 14) (size 15 to 20)
#    0.000    1.750    2.500    1.875    1.750    3.500 
#    0.000    2.500    0.000    2.250    0.000    0.000 
#    0.000    0.000    0.000    0.000    0.000    0.000 
#
# Total GULP energy -89086.155030 kJ/mol
# GULP energy per Si atom -5567.884689 kJ/mol
# Density = 2.113918 g / cm^3
# Si number density = 21.187406 Si / 1000 Ang^3
#
#
#
# Elastic Constant Matrix: (Units=GPa)
#
#
# Indices 1 2 3 4 5 6 
#
# 1 72.3962 21.6700 39.6362 7.8381 3.6716 3.0785
# 2 21.6700 88.3605 36.1970 -1.7606 -8.3721 2.2028
# 3 39.6362 36.1970 97.3388 -0.3549 -12.1513 -3.2473
# 4 7.8381 -1.7606 -0.3549 43.4795 -5.8706 2.0206
# 5 3.6716 -8.3721 -12.1513 -5.8706 43.7067 -3.2123
# 6 3.0785 2.2028 -3.2473 2.0206 -3.2123 25.8744
#
#
#
# Elastic Compliance Matrix: (Units=1/GPa)
#
#
# Indices 1 2 3 4 5 6 
#
# 1 0.019676 -0.002016 -0.008030 -0.004220 -0.005094 -0.003480
# 2 -0.002016 0.013712 -0.004104 0.001178 0.001716 -0.001321
# 3 -0.008030 -0.004104 0.015801 0.001886 0.004809 0.003738
# 4 -0.004220 0.001178 0.001886 0.024442 0.004334 -0.000732
# 5 -0.005094 0.001716 0.004809 0.004334 0.025845 0.003934
# 6 -0.003480 -0.001321 0.003738 -0.000732 0.003934 0.040189
#
#
# Mechanical properties :
#
#
# Convention : Reuss Voigt Hill
#
# Bulk Modulus (GPa) = 47.86979 50.34466 49.10722
# Shear Modulus (GPa) = 28.58339 33.31828 30.95084
#
# Velocity S-wave (km/s) = 3.67696 3.96984 3.82620
# Velocity P-wave (km/s) = 6.37725 6.69523 6.53817
#
# Compressibility (1/GPa) = 0.02089000
#
# Stress axis : x y z
#
# Youngs Moduli (GPa) = 50.82417 72.93016 63.28719
#
# Poissons Ratio (x) = 0.14703 0.50817
# Poissons Ratio (y) = 0.10246 0.25970
# Poissons Ratio (z) = 0.40810 0.29927
#
# Static dielectric constant tensor:
#      x y z
#    x 1.960600 -0.028240 0.000180 
#    y -0.028240 1.890530 -0.039160 
#    z 0.000180 -0.039160 1.781480 
# 
# From -- ./inp_files/544845.got.cif
#   From: 2010.05.17/outbox.cif.g08.bks.cpg/sg2_273_cif.got.tgz:544845.got - 2010.06.03 11:33:40.
