data_PCOD9005327
_publ_section_title
;
Structure prediction by ZEFSAII (Michael W. Deem and Ramdas Pophale) SiO2 
 PCOD9005327
Probable space group: P -1
;
_chemical_formula_sum "Si O2"
_cell_formula_units_Z 16
_cell_length_a 9.489938
_cell_length_b 9.418131
_cell_length_c 15.960596
_cell_angle_alpha 68.819262
_cell_angle_beta 48.861473
_cell_angle_gamma 47.424409
_cell_volume 782.047955
_symmetry_space_group_name_H-M "P -1"
_symmetry_group_IT_number 2
_symmetry_cell_setting 'triclinic'
loop_
_space_group_symop_operation_xyz
x,y,z
-x,-y,-z
loop_
_atom_site_type_symbol
_atom_site_label
_atom_site_fract_x
_atom_site_fract_y
_atom_site_fract_z
Si Si1 0.841073 0.691844 0.077485
Si Si2 0.407091 0.598106 0.107044
Si Si3 0.463616 0.636254 0.253976
Si Si4 0.684524 0.262750 0.334695
Si Si5 0.068129 0.043870 0.550994
Si Si6 0.543758 0.917542 0.593987
Si Si7 0.118678 0.011646 0.091520
Si Si8 0.063284 0.213501 0.814220
O O1 0.592005 0.733484 0.181643
O O2 0.965743 0.660112 0.124308
O O3 0.000000 0.500000 0.000000
O O4 0.819611 0.867842 0.006668
O O5 0.533412 0.514371 0.164726
O O6 0.142939 0.655468 0.201908
O O7 0.500000 0.500000 0.000000
O O8 0.354329 0.805963 0.077408
O O9 0.565680 0.487548 0.323526
O O10 0.179308 0.797798 0.337394
O O11 0.762795 0.152557 0.416647
O O12 0.499123 0.240605 0.366396
O O13 0.930007 0.141355 0.210981
O O14 0.211277 0.129167 0.463147
O O15 0.000000 0.000000 0.500000
O O16 0.500000 0.000000 0.500000
O O17 0.326784 0.085341 0.701265
O O18 0.994583 0.933220 0.106802
#
# Coordination Sequence:
#
# PCOD9005327 Si02
#       8
#     2   2   2   2   2   2   2   2
#     4  12  22  35  62  95 129 176 209 250 325 386
#     4  10  21  38  61  92 128 167 215 263 304 378
#     4  12  24  39  63  95 133 164 215 264 315 385
#     4  10  21  42  65  91 126 168 209 261 322 381
#     4  11  23  43  65  92 125 162 213 273 324 368
#     4   9  18  39  68  84 115 169 212 258 323 370
#     4   9  20  40  63  84 130 172 211 253 314 373
#     4   9  20  38  60  90 123 166 218 259 307 381
#
# _framework density 20.459102000000001
#
# number of rings (size 3 to 8) (size 9 to 14) (size 15 to 20)
#    0.750    1.000    2.500    2.625    0.000    2.500 
#    0.000    1.250    0.000    0.000    0.000    0.000 
#    0.000    0.000    0.000    0.000    0.000    0.000 
#
# Total GULP energy -89135.921049 kJ/mol
# GULP energy per Si atom -5570.995066 kJ/mol
# Density = 2.041254 g / cm^3
# Si number density = 20.459102 Si / 1000 Ang^3
#
#
#
# Elastic Constant Matrix: (Units=GPa)
#
#
# Indices 1 2 3 4 5 6 
#
# 1 115.3844 24.6439 35.6996 -7.7803 2.0327 8.2380
# 2 24.6439 64.6078 29.9347 -10.2106 -4.8946 -1.8600
# 3 35.6996 29.9347 79.4734 -8.8013 -19.0379 7.4899
# 4 -7.7803 -10.2106 -8.8013 26.9362 3.4433 2.3798
# 5 2.0327 -4.8946 -19.0379 3.4433 39.9507 0.3701
# 6 8.2380 -1.8600 7.4899 2.3798 0.3701 25.2983
#
#
#
# Elastic Compliance Matrix: (Units=1/GPa)
#
#
# Indices 1 2 3 4 5 6 
#
# 1 0.010808 -0.002168 -0.004358 0.001478 -0.002997 -0.002484
# 2 -0.002168 0.020179 -0.006721 0.004629 -0.001054 0.003759
# 3 -0.004358 -0.006721 0.019893 0.002041 0.008751 -0.005284
# 4 0.001478 0.004629 0.002041 0.040630 -0.001995 -0.004538
# 5 -0.002997 -0.001054 0.008751 -0.001995 0.029414 -0.001935
# 6 -0.002484 0.003759 -0.005284 -0.004538 -0.001935 0.042633
#
#
# Mechanical properties :
#
#
# Convention : Reuss Voigt Hill
#
# Bulk Modulus (GPa) = 41.00929 48.89134 44.95031
# Shear Modulus (GPa) = 25.22961 29.71619 27.47290
#
# Velocity S-wave (km/s) = 3.51547 3.81526 3.66843
# Velocity P-wave (km/s) = 6.04699 6.58462 6.32152
#
# Compressibility (1/GPa) = 0.02438472
#
# Stress axis : x y z
#
# Youngs Moduli (GPa) = 92.52352 49.55642 50.27012
#
# Poissons Ratio (x) = 0.10744 0.21910
# Poissons Ratio (y) = 0.20060 0.33786
# Poissons Ratio (z) = 0.40326 0.33306
#
# Static dielectric constant tensor:
#      x y z
#    x 1.776830 -0.031470 0.013550 
#    y -0.031470 1.764080 -0.003780 
#    z 0.013550 -0.003780 1.702230 
# 
# From -- ./inp_files/557092.got.cif
#   From: 2010.05.17/outbox.cif.g08.bks.cpg/sg2_279_cif.got.tgz:557092.got - 2010.06.03 11:33:40.
