data_PCOD9005646
_publ_section_title
;
Structure prediction by ZEFSAII (Michael W. Deem and Ramdas Pophale) SiO2 
 PCOD9005646
Probable space group: P -1
;
_chemical_formula_sum "Si O2"
_cell_formula_units_Z 10
_cell_length_a 6.561002
_cell_length_b 11.866167
_cell_length_c 13.119506
_cell_angle_alpha 147.065914
_cell_angle_beta 124.588636
_cell_angle_gamma 71.819599
_cell_volume 425.186421
_symmetry_space_group_name_H-M "P -1"
_symmetry_group_IT_number 2
_symmetry_cell_setting 'triclinic'
loop_
_space_group_symop_operation_xyz
x,y,z
-x,-y,-z
loop_
_atom_site_type_symbol
_atom_site_label
_atom_site_fract_x
_atom_site_fract_y
_atom_site_fract_z
Si Si1 0.321303 0.101395 0.150865
Si Si2 0.618557 0.603241 0.958210
Si Si3 0.311636 0.631315 0.712281
Si Si4 0.191613 0.766114 0.213588
Si Si5 0.575831 0.044623 0.379635
O O1 0.472300 0.304258 0.270033
O O2 0.484858 0.157938 0.346450
O O3 0.354050 0.878106 0.950458
O O4 0.000000 0.000000 0.000000
O O5 0.383851 0.515584 0.743373
O O6 0.660392 0.409067 0.888671
O O7 0.609032 0.821736 0.177075
O O8 0.889860 0.678021 0.026419
O O9 0.000000 0.500000 0.500000
O O10 0.342416 0.972776 0.342891
O O11 0.187225 0.817809 0.372733
#
# Coordination Sequence:
#
# PCOD9005646 Si02
#       5
#     2   2   2   2   2
#     4  10  22  41  64  91 126 164 209 257 311 370
#     4  10  21  40  59  89 122 158 206 256 302 374
#     4  10  23  42  62  93 126 163 207 260 311 371
#     4  10  21  38  63  87 121 161 206 248 314 368
#     4  10  21  39  59  91 120 160 201 259 308 365
#
# _framework density 23.519096000000001
#
# number of rings (size 3 to 8) (size 9 to 14) (size 15 to 20)
#    0.000    2.000    0.000    2.400    2.800    0.800 
#   25.200    0.000    0.000    0.000    0.000    0.000 
#    0.000    0.000    0.000    0.000    0.000    0.000 
#
# Total GULP energy -55712.087414 kJ/mol
# GULP energy per Si atom -5571.208741 kJ/mol
# Density = 2.346557 g / cm^3
# Si number density = 23.519096 Si / 1000 Ang^3
#
#
#
# Elastic Constant Matrix: (Units=GPa)
#
#
# Indices 1 2 3 4 5 6 
#
# 1 76.6064 34.1664 21.9452 -11.0560 2.9971 0.2962
# 2 34.1664 58.8364 11.5807 -11.0980 -0.5487 1.7935
# 3 21.9452 11.5807 91.2127 -11.7546 -5.2939 -12.0948
# 4 -11.0560 -11.0980 -11.7546 37.8364 -10.5129 9.9576
# 5 2.9971 -0.5487 -5.2939 -10.5129 54.2457 6.8825
# 6 0.2962 1.7935 -12.0948 9.9576 6.8825 27.8941
#
#
#
# Elastic Compliance Matrix: (Units=1/GPa)
#
#
# Indices 1 2 3 4 5 6 
#
# 1 0.018662 -0.009857 -0.003260 0.001628 -0.000966 -0.001321
# 2 -0.009857 0.024051 -0.000353 0.005871 0.002436 -0.004291
# 3 -0.003260 -0.000353 0.012730 0.002049 0.001240 0.004540
# 4 0.001628 0.005871 0.002049 0.035513 0.008875 -0.014374
# 5 -0.000966 0.002436 0.001240 0.008875 0.021375 -0.008051
# 6 -0.001321 -0.004291 0.004540 -0.014374 -0.008051 0.045226
#
#
# Mechanical properties :
#
#
# Convention : Reuss Voigt Hill
#
# Bulk Modulus (GPa) = 35.08386 40.22667 37.65526
# Shear Modulus (GPa) = 25.77363 34.59279 30.18321
#
# Velocity S-wave (km/s) = 3.31397 3.83931 3.58627
# Velocity P-wave (km/s) = 5.43992 6.06587 5.76140
#
# Compressibility (1/GPa) = 0.02850314
#
# Stress axis : x y z
#
# Youngs Moduli (GPa) = 53.58597 41.57906 78.55168
#
# Poissons Ratio (x) = 0.40984 0.25606
# Poissons Ratio (y) = 0.52819 0.02774
# Poissons Ratio (z) = 0.17468 0.01469
#
# Static dielectric constant tensor:
#      x y z
#    x 1.939610 -0.008820 0.001610 
#    y -0.008820 1.871450 -0.012030 
#    z 0.001610 -0.012030 1.989470 
# 
# From -- ./inp_files/20015.got.cif
#   From: 2010.05.17/outbox.cif.g08.bks.cpg/sg2_11_cif.got.tgz:20015.got - 2010.06.03 11:33:40.
