data_PCOD9005128
_publ_section_title
;
Structure prediction by ZEFSAII (Michael W. Deem and Ramdas Pophale) SiO2 
 PCOD9005128
Probable space group: P -1
;
_chemical_formula_sum "Si O2"
_cell_formula_units_Z 16
_cell_length_a 13.994588
_cell_length_b 11.690711
_cell_length_c 7.710179
_cell_angle_alpha 100.198621
_cell_angle_beta 138.931449
_cell_angle_gamma 60.173248
_cell_volume 674.193717
_symmetry_space_group_name_H-M "P -1"
_symmetry_group_IT_number 2
_symmetry_cell_setting 'triclinic'
loop_
_space_group_symop_operation_xyz
x,y,z
-x,-y,-z
loop_
_atom_site_type_symbol
_atom_site_label
_atom_site_fract_x
_atom_site_fract_y
_atom_site_fract_z
Si Si1 0.118311 0.466850 0.324555
Si Si2 0.962493 0.877956 0.220416
Si Si3 0.741524 0.182226 0.110714
Si Si4 0.651565 0.857446 0.936684
Si Si5 0.573891 0.491359 0.910274
Si Si6 0.776637 0.367654 0.689447
Si Si7 0.417874 0.164428 0.760685
Si Si8 0.223460 0.436054 0.970868
O O1 0.202378 0.552424 0.422393
O O2 0.259503 0.302038 0.489772
O O3 0.000000 0.500000 0.000000
O O4 0.971231 0.526623 0.286030
O O5 0.120534 0.832682 0.561061
O O6 0.059269 0.791107 0.155827
O O7 0.849615 0.046272 0.099731
O O8 0.825855 0.844846 0.102913
O O9 0.661723 0.328323 0.941455
O O10 0.586890 0.175584 0.988536
O O11 0.655895 0.723721 0.838342
O O12 0.486831 0.016434 0.720503
O O13 0.644915 0.842094 0.133112
O O14 0.414997 0.598631 0.594477
O O15 0.703213 0.543199 0.099721
O O16 0.500000 0.500000 0.000000
O O17 0.777763 0.449695 0.878801
#
# Coordination Sequence:
#
# PCOD9005128 Si02
#       8
#     2   2   2   2   2   2   2   2
#     4  10  22  40  62  89 128 166 212 258 315 379
#     4  10  21  38  62  88 126 163 208 260 316 380
#     4  10  21  38  60  93 121 163 211 259 316 369
#     4  10  22  38  63  96 126 167 209 266 324 373
#     4  12  23  39  64  94 121 165 216 262 317 374
#     4  11  22  42  60  88 128 168 208 259 318 379
#     4  10  21  40  63  93 130 162 214 268 317 377
#     4  11  25  40  61  93 130 164 212 261 323 381
#
# _framework density 23.732050000000001
#
# number of rings (size 3 to 8) (size 9 to 14) (size 15 to 20)
#    0.000    1.500    3.750    1.125    1.750    0.500 
#    0.000    5.625    0.000    0.000    0.000    0.000 
#    0.000    0.000    0.000    0.000    0.000    0.000 
#
# Total GULP energy -89423.007535 kJ/mol
# GULP energy per Si atom -5588.937971 kJ/mol
# Density = 2.367804 g / cm^3
# Si number density = 23.732050 Si / 1000 Ang^3
#
#
#
# Elastic Constant Matrix: (Units=GPa)
#
#
# Indices 1 2 3 4 5 6 
#
# 1 73.2614 23.2603 -8.7971 -10.6223 19.3324 11.2049
# 2 23.2603 182.7891 15.5551 -32.8046 9.8684 -12.5187
# 3 -8.7971 15.5551 36.9642 -19.1583 15.4422 0.1545
# 4 -10.6223 -32.8046 -19.1583 39.5781 -2.8943 7.2125
# 5 19.3324 9.8684 15.4422 -2.8943 29.6621 4.3337
# 6 11.2049 -12.5187 0.1545 7.2125 4.3337 38.6590
#
#
#
# Elastic Compliance Matrix: (Units=1/GPa)
#
#
# Indices 1 2 3 4 5 6 
#
# 1 0.033402 -0.001745 0.036617 0.024581 -0.036260 -0.010914
# 2 -0.001745 0.006695 -0.000777 0.004312 -0.000547 0.001934
# 3 0.036617 -0.000777 0.088075 0.049690 -0.062643 -0.013465
# 4 0.024581 0.004312 0.049690 0.059251 -0.035646 -0.012985
# 5 -0.036260 -0.000547 -0.062643 -0.035646 0.085545 0.007643
# 6 -0.010914 0.001934 -0.013465 -0.012985 0.007643 0.031276
#
#
# Mechanical properties :
#
#
# Convention : Reuss Voigt Hill
#
# Bulk Modulus (GPa) = 5.09262 39.22791 22.16026
# Shear Modulus (GPa) = 16.58329 39.11292 27.84810
#
# Velocity S-wave (km/s) = 2.64630 4.06409 3.42927
# Velocity P-wave (km/s) = 3.38935 6.21191 5.00378
#
# Compressibility (1/GPa) = 0.19636263
#
# Stress axis : x y z
#
# Youngs Moduli (GPa) = 29.93802 149.36881 11.35393
#
# Poissons Ratio (x) = 0.26066 -0.41575
# Poissons Ratio (y) = 0.05224 0.00882
# Poissons Ratio (z) = -1.09625 0.11609
#
# Static dielectric constant tensor:
#      x y z
#    x 2.010520 -0.070390 0.011670 
#    y -0.070390 1.951010 0.008570 
#    z 0.011670 0.008570 1.939370 
# 
# From -- ./inp_files/307826.got.cif
#   From: 2010.05.17/outbox.cif.g08.bks.cpg/sg2_154_cif.got.tgz:307826.got - 2010.06.03 11:33:40.
