data_PCOD9005744
_publ_section_title
;
Structure prediction by ZEFSAII (Michael W. Deem and Ramdas Pophale) SiO2 
 PCOD9005744
Probable space group: P -1
;
_chemical_formula_sum "Si O2"
_cell_formula_units_Z 13
_cell_length_a 9.900630
_cell_length_b 9.606925
_cell_length_c 17.232006
_cell_angle_alpha 134.343328
_cell_angle_beta 154.522884
_cell_angle_gamma 40.923710
_cell_volume 461.001729
_symmetry_space_group_name_H-M "P -1"
_symmetry_group_IT_number 2
_symmetry_cell_setting 'triclinic'
loop_
_space_group_symop_operation_xyz
x,y,z
-x,-y,-z
loop_
_atom_site_type_symbol
_atom_site_label
_atom_site_fract_x
_atom_site_fract_y
_atom_site_fract_z
Si Si1 0.578688 0.471356 0.326431
Si Si2 0.200248 0.872360 0.209877
Si Si3 0.510609 0.940511 0.178162
Si Si4 0.180291 0.004051 0.785468
Si Si5 0.686549 0.615677 0.694372
Si Si6 0.500000 0.500000 0.000000
Si Si7 0.952079 0.678756 0.708635
O O1 0.770880 0.231748 0.304527
O O2 0.292618 0.466969 0.239204
O O3 0.817956 0.550116 0.533203
O O4 0.448727 0.628649 0.248045
O O5 0.289529 0.073636 0.317366
O O6 0.118877 0.902619 0.271897
O O7 0.862332 0.924076 0.002975
O O8 0.506986 0.733406 0.135770
O O9 0.805562 0.881097 0.242413
O O10 0.537375 0.130495 0.317050
O O11 0.500000 0.000000 0.000000
O O12 0.500000 0.500000 0.500000
O O13 0.011742 0.594369 0.799228
O O14 0.656287 0.358052 0.107628
#
# Coordination Sequence:
#
# PCOD9005744 Si02
#       7
#     2   2   2   2   2   1   2
#     4  10  21  41  65  89 124 162 202 260 306 360
#     4  10  21  38  63  92 122 164 200 256 309 360
#     4   9  20  40  59  93 121 159 211 247 308 367
#     4   9  20  38  59  92 124 156 210 246 302 373
#     4   9  20  40  63  89 121 160 207 251 306 367
#     4  10  22  38  60  84 126 162 192 258 300 358
#     4  10  22  42  58  94 123 158 209 244 313 370
#
# _framework density 28.199462
#
# number of rings (size 3 to 8) (size 9 to 14) (size 15 to 20)
#    0.000    2.462    0.000    0.462    2.154    8.615 
#   19.385    2.308    0.000    0.000    0.000    0.000 
#    0.000    0.000    0.000    0.000    0.000    0.000 
#
# Total GULP energy -72549.059482 kJ/mol
# GULP energy per Si atom -5580.696883 kJ/mol
# Density = 2.813528 g / cm^3
# Si number density = 28.199462 Si / 1000 Ang^3
#
#
#
# Elastic Constant Matrix: (Units=GPa)
#
#
# Indices 1 2 3 4 5 6 
#
# 1 118.4511 17.6583 2.0685 3.0798 -12.5920 9.1570
# 2 17.6583 174.6366 41.5480 26.6837 1.8186 29.6301
# 3 2.0685 41.5480 108.9461 20.5236 6.4750 7.0930
# 4 3.0798 26.6837 20.5236 62.1206 -5.7170 -0.2064
# 5 -12.5920 1.8186 6.4750 -5.7170 23.6216 6.7176
# 6 9.1570 29.6301 7.0930 -0.2064 6.7176 38.0982
#
#
#
# Elastic Compliance Matrix: (Units=1/GPa)
#
#
# Indices 1 2 3 4 5 6 
#
# 1 0.009374 -0.000532 -0.000217 0.000378 0.006001 -0.002855
# 2 -0.000532 0.007589 -0.002094 -0.002498 0.000670 -0.005516
# 3 -0.000217 -0.002094 0.010743 -0.002979 -0.003711 0.000319
# 4 0.000378 -0.002498 -0.002979 0.018627 0.005270 0.001578
# 5 0.006001 0.000670 -0.003711 0.005270 0.050669 -0.010178
# 6 -0.002855 -0.005516 0.000319 0.001578 -0.010178 0.032968
#
#
# Mechanical properties :
#
#
# Convention : Reuss Voigt Hill
#
# Bulk Modulus (GPa) = 45.41529 58.28705 51.85117
# Shear Modulus (GPa) = 34.96620 47.48534 41.22577
#
# Velocity S-wave (km/s) = 3.52513 4.10800 3.82767
# Velocity P-wave (km/s) = 5.71915 6.57383 6.16133
#
# Compressibility (1/GPa) = 0.02201901
#
# Stress axis : x y z
#
# Youngs Moduli (GPa) = 106.67542 131.77331 93.08697
#
# Poissons Ratio (x) = 0.07012 0.02021
# Poissons Ratio (y) = 0.05677 0.19493
# Poissons Ratio (z) = 0.02316 0.27594
#
# Static dielectric constant tensor:
#      x y z
#    x 2.457440 -0.117550 0.118150 
#    y -0.117550 2.383630 -0.033850 
#    z 0.118150 -0.033850 2.311870 
# 
# From -- ./inp_files/409016.got.cif
#   From: 2010.05.17/outbox.cif.g08.bks.cpg/sg2_205_cif.got.tgz:409016.got - 2010.06.03 11:33:40.
