data_PCOD9005058
_publ_section_title
;
Structure prediction by ZEFSAII (Michael W. Deem and Ramdas Pophale) SiO2 
 PCOD9005058
Probable space group: P -1
;
_chemical_formula_sum "Si O2"
_cell_formula_units_Z 16
_cell_length_a 10.088787
_cell_length_b 19.337374
_cell_length_c 11.795736
_cell_angle_alpha 137.859560
_cell_angle_beta 48.265174
_cell_angle_gamma 151.307955
_cell_volume 740.455796
_symmetry_space_group_name_H-M "P -1"
_symmetry_group_IT_number 2
_symmetry_cell_setting 'triclinic'
loop_
_space_group_symop_operation_xyz
x,y,z
-x,-y,-z
loop_
_atom_site_type_symbol
_atom_site_label
_atom_site_fract_x
_atom_site_fract_y
_atom_site_fract_z
Si Si1 0.339725 0.440769 0.137250
Si Si2 0.727026 0.089890 0.720239
Si Si3 0.184017 0.637014 0.918374
Si Si4 0.248778 0.039400 0.640512
Si Si5 0.310378 0.140799 0.257196
Si Si6 0.715233 0.793500 0.399305
Si Si7 0.588354 0.342123 0.956323
Si Si8 0.258259 0.894440 0.917035
O O1 0.467279 0.601460 0.309302
O O2 0.420156 0.373116 0.077402
O O3 0.009741 0.291698 0.131457
O O4 0.500000 0.500000 0.000000
O O5 0.798351 0.238367 0.892960
O O6 0.997913 0.144975 0.676001
O O7 0.682006 0.036953 0.551941
O O8 0.426863 0.938890 0.764198
O O9 0.864316 0.471032 0.878760
O O10 0.389398 0.714244 0.790702
O O11 0.302936 0.621265 0.933755
O O12 0.277891 0.136731 0.636222
O O13 0.418963 0.167179 0.799029
O O14 0.927739 0.884443 0.668793
O O15 0.322267 0.153785 0.402509
O O16 0.182136 0.980543 0.078616
O O17 0.500000 0.000000 0.000000
#
# Coordination Sequence:
#
# PCOD9005058 Si02
#       8
#     2   2   2   2   2   2   2   2
#     4  12  22  38  61  91 119 161 194 244 307 356
#     4  10  21  38  60  89 120 154 196 246 302 348
#     4  10  24  42  63  83 118 165 204 247 286 351
#     4  11  21  38  62  93 122 153 196 250 302 355
#     4  10  21  38  60  90 119 157 195 244 301 348
#     4  11  21  38  63  93 124 155 192 246 310 354
#     4  11  23  42  61  86 121 159 206 242 296 353
#     4  11  21  35  58  90 120 152 198 245 293 359
#
# _framework density 21.608311
#
# number of rings (size 3 to 8) (size 9 to 14) (size 15 to 20)
#    0.000    1.250    3.750    3.750    1.750    2.000 
#    0.000    2.500    0.000    0.000    0.000    0.000 
#    0.000    0.000    0.000    0.000    0.000    0.000 
#
# Total GULP energy -89281.411604 kJ/mol
# GULP energy per Si atom -5580.088225 kJ/mol
# Density = 2.155913 g / cm^3
# Si number density = 21.608311 Si / 1000 Ang^3
#
#
#
# Elastic Constant Matrix: (Units=GPa)
#
#
# Indices 1 2 3 4 5 6 
#
# 1 45.5346 0.8176 -1.4509 -8.1182 -5.1594 6.5502
# 2 0.8176 133.4865 21.3005 -4.8646 -5.3352 18.9393
# 3 -1.4509 21.3005 82.7233 -13.5693 -12.7911 8.1831
# 4 -8.1182 -4.8646 -13.5693 35.2850 3.7782 3.4708
# 5 -5.1594 -5.3352 -12.7911 3.7782 17.0177 5.3656
# 6 6.5502 18.9393 8.1831 3.4708 5.3656 20.5655
#
#
#
# Elastic Compliance Matrix: (Units=1/GPa)
#
#
# Indices 1 2 3 4 5 6 
#
# 1 0.028971 0.002890 0.006329 0.009531 0.018938 -0.020957
# 2 0.002890 0.009537 0.000367 0.002527 0.007433 -0.012216
# 3 0.006329 0.000367 0.017826 0.007908 0.018607 -0.015636
# 4 0.009531 0.002527 0.007908 0.034766 0.007017 -0.016207
# 5 0.018938 0.007433 0.018607 0.007017 0.093741 -0.045922
# 6 -0.020957 -0.012216 -0.015636 -0.016207 -0.045922 0.087487
#
#
# Mechanical properties :
#
#
# Convention : Reuss Voigt Hill
#
# Bulk Modulus (GPa) = 13.24395 33.67545 23.45970
# Shear Modulus (GPa) = 17.96466 30.64545 24.30505
#
# Velocity S-wave (km/s) = 2.88649 3.77002 3.35744
# Velocity P-wave (km/s) = 4.15349 5.87954 5.09021
#
# Compressibility (1/GPa) = 0.07550619
#
# Stress axis : x y z
#
# Youngs Moduli (GPa) = 34.51745 104.84988 56.09843
#
# Poissons Ratio (x) = -0.30305 -0.35503
# Poissons Ratio (y) = -0.09977 -0.02059
# Poissons Ratio (z) = -0.21845 -0.03848
#
# Static dielectric constant tensor:
#      x y z
#    x 1.900800 -0.023740 0.064470 
#    y -0.023740 1.756160 0.274710 
#    z 0.064470 0.274710 -0.054830 
# 
# From -- ./inp_files/283379.got.cif
#   From: 2010.05.17/outbox.cif.g08.bks.cpg/sg2_142_cif.got.tgz:283379.got - 2010.06.03 11:33:40.
