data_PCOD9005216
_publ_section_title
;
Structure prediction by ZEFSAII (Michael W. Deem and Ramdas Pophale) SiO2 
 PCOD9005216
Probable space group: P -1
;
_chemical_formula_sum "Si O2"
_cell_formula_units_Z 16
_cell_length_a 8.129673
_cell_length_b 28.503811
_cell_length_c 23.161932
_cell_angle_alpha 165.298355
_cell_angle_beta 29.585031
_cell_angle_gamma 149.077019
_cell_volume 666.498324
_symmetry_space_group_name_H-M "P -1"
_symmetry_group_IT_number 2
_symmetry_cell_setting 'triclinic'
loop_
_space_group_symop_operation_xyz
x,y,z
-x,-y,-z
loop_
_atom_site_type_symbol
_atom_site_label
_atom_site_fract_x
_atom_site_fract_y
_atom_site_fract_z
Si Si1 0.836992 0.224644 0.632424
Si Si2 0.817807 0.738805 0.189761
Si Si3 0.239190 0.199714 0.993835
Si Si4 0.356591 0.460667 0.678187
Si Si5 0.275390 0.091210 0.980659
Si Si6 0.056510 0.866559 0.109928
Si Si7 0.623137 0.464408 0.356566
Si Si8 0.897177 0.174855 0.683759
O O1 0.530510 0.302480 0.786369
O O2 0.867563 0.267310 0.741200
O O3 0.174140 0.309690 0.597393
O O4 0.788867 0.000277 0.369759
O O5 0.805702 0.727027 0.249123
O O6 0.940722 0.958861 0.404135
O O7 0.097490 0.615979 0.937776
O O8 0.312375 0.417354 0.250652
O O9 0.220610 0.075792 0.910327
O O10 0.565734 0.179730 0.830360
O O11 0.940960 0.140610 0.969012
O O12 0.354984 0.386994 0.524996
O O13 0.621722 0.040633 0.841389
O O14 0.332411 0.311578 0.237527
O O15 0.000000 0.000000 0.000000
O O16 0.053513 0.649078 0.869099
O O17 0.500000 0.500000 0.500000
#
# Coordination Sequence:
#
# PCOD9005216 Si02
#       8
#     2   2   2   2   2   2   2   2
#     4  12  23  38  61  98 124 160 207 251 294 360
#     4  10  21  38  61  87 129 172 196 244 304 360
#     4  10  21  41  63  91 122 164 204 247 301 370
#     4  10  23  41  58  91 134 157 202 254 304 359
#     4   9  22  43  65  88 123 153 203 262 305 357
#     4  10  23  40  67  91 117 164 206 247 305 368
#     4   9  21  45  65  85 121 162 200 252 317 359
#     4  10  22  35  64  89 125 167 208 237 297 365
#
# _framework density 24.006062
#
# number of rings (size 3 to 8) (size 9 to 14) (size 15 to 20)
#    0.750    1.250    1.250    1.500    5.250    3.500 
#    6.750    1.250    0.000    0.000    0.000    0.000 
#    0.000    0.000    0.000    0.000    0.000    0.000 
#
# Total GULP energy -89139.545528 kJ/mol
# GULP energy per Si atom -5571.221595 kJ/mol
# Density = 2.395142 g / cm^3
# Si number density = 24.006062 Si / 1000 Ang^3
#
#
#
# Elastic Constant Matrix: (Units=GPa)
#
#
# Indices 1 2 3 4 5 6 
#
# 1 176.4362 64.3803 11.4141 3.0132 11.6213 -66.6418
# 2 64.3803 124.7557 5.9618 -2.4643 6.7203 -54.1728
# 3 11.4141 5.9618 54.8413 -8.5125 -2.1236 -12.3183
# 4 3.0132 -2.4643 -8.5125 17.8165 -6.2575 4.3123
# 5 11.6213 6.7203 -2.1236 -6.2575 25.1873 -8.0936
# 6 -66.6418 -54.1728 -12.3183 4.3123 -8.0936 52.6083
#
#
#
# Elastic Compliance Matrix: (Units=1/GPa)
#
#
# Indices 1 2 3 4 5 6 
#
# 1 0.011523 0.000838 -0.000046 -0.006380 -0.002101 0.015649
# 2 0.000838 0.014789 0.001932 -0.000911 0.001061 0.016981
# 3 -0.000046 0.001932 0.021589 0.011115 0.006354 0.007052
# 4 -0.006380 -0.000911 0.011115 0.071268 0.018821 -0.009364
# 5 -0.002101 0.001061 0.006354 0.018821 0.047423 0.005672
# 6 0.015649 0.016981 0.007052 -0.009364 0.005672 0.059609
#
#
# Mechanical properties :
#
#
# Convention : Reuss Voigt Hill
#
# Bulk Modulus (GPa) = 18.74438 57.72729 38.23583
# Shear Modulus (GPa) = 20.96110 37.40758 29.18434
#
# Velocity S-wave (km/s) = 2.95813 3.95176 3.49048
# Velocity P-wave (km/s) = 4.41503 6.70231 5.67510
#
# Compressibility (1/GPa) = 0.05334932
#
# Stress axis : x y z
#
# Youngs Moduli (GPa) = 86.78277 67.61593 46.31909
#
# Poissons Ratio (x) = -0.05667 0.00213
# Poissons Ratio (y) = -0.07273 -0.08948
# Poissons Ratio (z) = 0.00400 -0.13062
#
# Static dielectric constant tensor:
#      x y z
#    x 2.057630 -0.026240 -0.042830 
#    y -0.026240 2.093340 0.007430 
#    z -0.042830 0.007430 1.981520 
# 
# From -- ./inp_files/591893.got.cif
#   From: 2010.05.17/outbox.cif.g08.bks.cpg/sg2_296_cif.got.tgz:591893.got - 2010.06.03 11:33:40.
