data_PCOD9005387
_publ_section_title
;
Structure prediction by ZEFSAII (Michael W. Deem and Ramdas Pophale) SiO2 
 PCOD9005387
Probable space group: P -1
;
_chemical_formula_sum "Si O2"
_cell_formula_units_Z 12
_cell_length_a 7.908719
_cell_length_b 12.444203
_cell_length_c 6.473806
_cell_angle_alpha 99.774926
_cell_angle_beta 102.935479
_cell_angle_gamma 115.713253
_cell_volume 533.008215
_symmetry_space_group_name_H-M "P -1"
_symmetry_group_IT_number 2
_symmetry_cell_setting 'triclinic'
loop_
_space_group_symop_operation_xyz
x,y,z
-x,-y,-z
loop_
_atom_site_type_symbol
_atom_site_label
_atom_site_fract_x
_atom_site_fract_y
_atom_site_fract_z
Si Si1 0.160897 0.398685 0.389516
Si Si2 0.648829 0.107693 0.726507
Si Si3 0.538110 0.804001 0.975382
Si Si4 0.768010 0.334377 0.524402
Si Si5 0.617850 0.627935 0.196659
Si Si6 0.927159 0.808526 0.045615
O O1 0.222136 0.535819 0.360843
O O2 0.337748 0.399969 0.572693
O O3 0.096815 0.287467 0.173182
O O4 0.973090 0.368994 0.474101
O O5 0.535970 0.110837 0.903688
O O6 0.729940 0.237135 0.663893
O O7 0.500000 0.000000 0.500000
O O8 0.842801 0.096249 0.828338
O O9 0.512404 0.706034 0.119897
O O10 0.404249 0.732858 0.718682
O O11 0.770338 0.859367 0.996691
O O12 0.500000 0.500000 0.000000
O O13 0.836086 0.718260 0.189717
#
# Coordination Sequence:
#
# PCOD9005387 Si02
#       6
#     2   2   2   2   2   2
#     4  11  21  38  68 100 137 162 200 265 335 389
#     4  12  27  47  65  88 130 178 224 271 307 366
#     4  10  24  40  66  97 126 167 221 254 324 385
#     4  11  23  39  67 101 126 171 213 256 325 395
#     4  10  21  38  62 101 138 162 199 261 328 396
#     4  10  24  41  65  97 134 165 209 266 323 384
#
# _framework density 22.513724
#
# number of rings (size 3 to 8) (size 9 to 14) (size 15 to 20)
#    1.000    0.333    5.000    0.000    4.667    3.333 
#    0.000    0.833    0.000    0.000    0.000    0.000 
#    0.000    0.000    0.000    0.000    0.000    0.000 
#
# Total GULP energy -66976.562585 kJ/mol
# GULP energy per Si atom -5581.380215 kJ/mol
# Density = 2.246248 g / cm^3
# Si number density = 22.513724 Si / 1000 Ang^3
#
#
#
# Elastic Constant Matrix: (Units=GPa)
#
#
# Indices 1 2 3 4 5 6 
#
# 1 148.2260 27.8101 17.7123 5.3676 9.7619 16.3051
# 2 27.8101 88.7008 13.5083 -19.0513 2.9930 -2.7070
# 3 17.7123 13.5083 39.0996 3.2433 19.0174 16.5679
# 4 5.3676 -19.0513 3.2433 36.5498 -1.0881 18.9900
# 5 9.7619 2.9930 19.0174 -1.0881 43.8390 -1.2708
# 6 16.3051 -2.7070 16.5679 18.9900 -1.2708 -4.5898
#
#
#
# Elastic Compliance Matrix: (Units=1/GPa)
#
#
# Indices 1 2 3 4 5 6 
#
# 1 0.007461 -0.002498 -0.003213 -0.003379 -0.000110 0.002431
# 2 -0.002498 0.014710 -0.005420 0.008942 0.002105 -0.000700
# 3 -0.003213 -0.005420 0.025966 -0.016133 -0.009955 0.021518
# 4 -0.003379 0.008942 -0.016133 0.023694 0.008315 0.020214
# 5 -0.000110 0.002105 -0.009955 0.008315 0.026909 -0.010619
# 6 0.002431 -0.000700 0.021518 0.020214 -0.010619 -0.044578
#
#
# Mechanical properties :
#
#
# Convention : Reuss Voigt Hill
#
# Bulk Modulus (GPa) = 38.64458 43.78753 41.21606
# Shear Modulus (GPa) = 58.79004 29.62619 44.20811
#
# Velocity S-wave (km/s) = 5.11563 3.63149 4.43607
# Velocity P-wave (km/s) = 7.21769 6.08894 6.67721
#
# Compressibility (1/GPa) = 0.02587685
#
# Stress axis : x y z
#
# Youngs Moduli (GPa) = 134.02565 67.97891 38.51183
#
# Poissons Ratio (x) = 0.16980 0.12374
# Poissons Ratio (y) = 0.33477 0.20872
# Poissons Ratio (z) = 0.43064 0.36841
#
# Static dielectric constant tensor:
#      x y z
#    x 1.874170 0.000340 -0.022650 
#    y 0.000340 1.828340 -0.028420 
#    z -0.022650 -0.028420 1.763390 
# 
# From -- ./inp_files/28540.got.cif
#   From: 2010.05.17/outbox.cif.g08.bks.cpg/sg2_15_cif.got.tgz:28540.got - 2010.06.03 11:33:40.
