data_PCOD9005509
_publ_section_title
;
Structure prediction by ZEFSAII (Michael W. Deem and Ramdas Pophale) SiO2 
 PCOD9005509
Probable space group: P -1
;
_chemical_formula_sum "Si O2"
_cell_formula_units_Z 16
_cell_length_a 11.329993
_cell_length_b 11.451607
_cell_length_c 7.498073
_cell_angle_alpha 57.729389
_cell_angle_beta 69.199831
_cell_angle_gamma 95.606969
_cell_volume 716.371883
_symmetry_space_group_name_H-M "P -1"
_symmetry_group_IT_number 2
_symmetry_cell_setting 'triclinic'
loop_
_space_group_symop_operation_xyz
x,y,z
-x,-y,-z
loop_
_atom_site_type_symbol
_atom_site_label
_atom_site_fract_x
_atom_site_fract_y
_atom_site_fract_z
Si Si1 0.656881 0.609426 0.620853
Si Si2 0.879903 0.221075 0.514933
Si Si3 0.312754 0.080849 0.114925
Si Si4 0.331857 0.885068 0.572943
Si Si5 0.161522 0.576929 0.338598
Si Si6 0.878744 0.515556 0.940213
Si Si7 0.643427 0.590758 0.074782
Si Si8 0.613108 0.897823 0.332463
O O1 0.760240 0.532387 0.564849
O O2 0.649918 0.599781 0.847800
O O3 0.684547 0.778527 0.417973
O O4 0.507667 0.511642 0.709674
O O5 0.800210 0.220414 0.373134
O O6 0.810626 0.287492 0.651424
O O7 0.037390 0.321894 0.329388
O O8 0.837800 0.046201 0.716283
O O9 0.318725 0.245190 0.005521
O O10 0.373722 0.028031 0.298015
O O11 0.610855 0.925233 0.102166
O O12 0.459263 0.833400 0.543104
O O13 0.315003 0.952870 0.715241
O O14 0.182794 0.599055 0.095864
O O15 0.000000 0.500000 0.500000
O O16 0.758401 0.526650 0.114309
O O17 0.000000 0.500000 0.000000
#
# Coordination Sequence:
#
# PCOD9005509 Si02
#       8
#     2   2   2   2   2   2   2   2
#     4  10  21  38  62  91 126 164 208 259 320 367
#     4   9  21  40  60  85 124 165 208 257 314 365
#     4  10  22  38  59  90 124 163 209 258 310 372
#     4   9  22  39  58  92 130 162 210 254 309 382
#     4   9  20  40  63  86 123 167 203 261 312 370
#     4  10  22  39  63  89 125 167 211 261 312 378
#     4  10  22  39  59  92 128 164 206 269 314 362
#     4  11  21  38  63  91 128 168 204 262 309 380
#
# _framework density 22.334769000000001
#
# number of rings (size 3 to 8) (size 9 to 14) (size 15 to 20)
#    0.750    1.500    1.250    0.375    3.500    4.000 
#    4.500    0.000    0.000    8.250    0.000    0.000 
#    0.000    0.000    0.000    0.000    0.000    0.000 
#
# Total GULP energy -89259.357212 kJ/mol
# GULP energy per Si atom -5578.709826 kJ/mol
# Density = 2.228393 g / cm^3
# Si number density = 22.334769 Si / 1000 Ang^3
#
#
#
# Elastic Constant Matrix: (Units=GPa)
#
#
# Indices 1 2 3 4 5 6 
#
# 1 108.4641 51.9928 8.6413 1.0144 -13.5582 -11.5471
# 2 51.9928 153.1599 28.8954 5.1305 -8.9627 11.0552
# 3 8.6413 28.8954 33.2116 9.3414 -0.9003 0.3301
# 4 1.0144 5.1305 9.3414 35.4259 9.4357 -0.1546
# 5 -13.5582 -8.9627 -0.9003 9.4357 33.2557 -0.9615
# 6 -11.5471 11.0552 0.3301 -0.1546 -0.9615 36.6717
#
#
#
# Elastic Compliance Matrix: (Units=1/GPa)
#
#
# Indices 1 2 3 4 5 6 
#
# 1 0.012426 -0.004517 0.001077 -0.001121 0.004351 0.005374
# 2 -0.004517 0.009774 -0.007440 0.000576 0.000304 -0.004292
# 3 0.001077 -0.007440 0.039126 -0.009891 0.002364 0.002250
# 4 -0.001121 0.000576 -0.009891 0.033467 -0.010082 -0.000561
# 5 0.004351 0.000304 0.002364 -0.010082 0.034912 0.002130
# 6 0.005374 -0.004292 0.002250 -0.000561 0.002130 0.030288
#
#
# Mechanical properties :
#
#
# Convention : Reuss Voigt Hill
#
# Bulk Modulus (GPa) = 25.27411 52.65497 38.96454
# Shear Modulus (GPa) = 25.64856 34.75772 30.20314
#
# Velocity S-wave (km/s) = 3.39244 3.94917 3.68134
# Velocity P-wave (km/s) = 5.16579 6.66492 5.96266
#
# Compressibility (1/GPa) = 0.03956619
#
# Stress axis : x y z
#
# Youngs Moduli (GPa) = 80.47932 102.30854 25.55813
#
# Poissons Ratio (x) = 0.46212 -0.02752
# Poissons Ratio (y) = 0.36352 0.19015
# Poissons Ratio (z) = -0.08666 0.76117
#
# Static dielectric constant tensor:
#      x y z
#    x 1.812570 0.009750 0.024650 
#    y 0.009750 1.837540 -0.010830 
#    z 0.024650 -0.010830 1.944260 
# 
# From -- ./inp_files/242932.got.cif
#   From: 2010.05.17/outbox.cif.g08.bks.cpg/sg2_122_cif.got.tgz:242932.got - 2010.06.03 11:33:40.
