data_PCOD9005460
_publ_section_title
;
Structure prediction by ZEFSAII (Michael W. Deem and Ramdas Pophale) SiO2 
 PCOD9005460
Probable space group: P -1
;
_chemical_formula_sum "Si O2"
_cell_formula_units_Z 14
_cell_length_a 6.460213
_cell_length_b 11.176043
_cell_length_c 11.244431
_cell_angle_alpha 122.909532
_cell_angle_beta 108.453883
_cell_angle_gamma 62.436702
_cell_volume 601.890592
_symmetry_space_group_name_H-M "P -1"
_symmetry_group_IT_number 2
_symmetry_cell_setting 'triclinic'
loop_
_space_group_symop_operation_xyz
x,y,z
-x,-y,-z
loop_
_atom_site_type_symbol
_atom_site_label
_atom_site_fract_x
_atom_site_fract_y
_atom_site_fract_z
Si Si1 0.180550 0.698265 0.813209
Si Si2 0.023078 0.732206 0.061136
Si Si3 0.590152 0.818683 0.538047
Si Si4 0.717406 0.549211 0.892160
Si Si5 0.173626 0.969368 0.358929
Si Si6 0.028774 0.551529 0.363689
Si Si7 0.742838 0.243625 0.393110
O O1 0.449340 0.590077 0.830650
O O2 0.021030 0.600315 0.696590
O O3 0.204512 0.794603 0.756374
O O4 0.072665 0.772684 0.958518
O O5 0.210027 0.566063 0.046047
O O6 0.067956 0.852987 0.220525
O O7 0.781226 0.700295 0.008646
O O8 0.369113 0.889034 0.448381
O O9 0.786438 0.686968 0.428317
O O10 0.498638 0.758682 0.604201
O O11 0.690142 0.950851 0.658686
O O12 0.886424 0.465701 0.767161
O O13 0.949700 0.116220 0.435319
O O14 0.224645 0.596784 0.491228
#
# Coordination Sequence:
#
# PCOD9005460 Si02
#       7
#     2   2   2   2   2   2   2
#     4  11  23  38  59  88 121 156 192 235 291 349
#     4  10  22  40  61  85 117 153 196 243 285 340
#     4  10  22  39  63  89 115 151 195 242 293 341
#     4  10  22  39  63  89 115 151 195 242 293 341
#     4  10  22  40  61  85 117 153 196 243 285 340
#     4  10  21  38  62  90 117 148 194 246 291 340
#     4  11  23  38  59  88 121 156 192 235 291 349
#
# _framework density 23.260043
#
# number of rings (size 3 to 8) (size 9 to 14) (size 15 to 20)
#    0.000    1.714    0.000    3.857    0.000   13.143 
#    0.000    1.429    0.000    0.000    0.000    0.000 
#    0.000    0.000    0.000    0.000    0.000    0.000 
#
# Total GULP energy -78199.718181 kJ/mol
# GULP energy per Si atom -5585.694156 kJ/mol
# Density = 2.320710 g / cm^3
# Si number density = 23.260043 Si / 1000 Ang^3
#
#
#
# Elastic Constant Matrix: (Units=GPa)
#
#
# Indices 1 2 3 4 5 6 
#
# 1 144.7271 31.8645 34.9555 4.8017 17.2049 15.8534
# 2 31.8645 41.9164 1.9528 -2.5305 0.0552 -2.7971
# 3 34.9555 1.9528 64.3660 5.6625 20.6800 19.3743
# 4 4.8017 -2.5305 5.6625 24.1249 7.9413 2.5561
# 5 17.2049 0.0552 20.6800 7.9413 28.8985 -2.0684
# 6 15.8534 -2.7971 19.3743 2.5561 -2.0684 40.3197
#
#
#
# Elastic Compliance Matrix: (Units=1/GPa)
#
#
# Indices 1 2 3 4 5 6 
#
# 1 0.010222 -0.007877 -0.002971 -0.000479 -0.004050 -0.003316
# 2 -0.007877 0.030337 0.000287 0.002821 0.004016 0.005091
# 3 -0.002971 0.000287 0.026924 0.001897 -0.018939 -0.012841
# 4 -0.000479 0.002821 0.001897 0.046502 -0.014157 -0.004202
# 5 -0.004050 0.004016 -0.018939 -0.014157 0.055504 0.014717
# 6 -0.003316 0.005091 -0.012841 -0.004202 0.014717 0.033651
#
#
# Mechanical properties :
#
#
# Convention : Reuss Voigt Hill
#
# Bulk Modulus (GPa) = 21.57025 43.17279 32.37152
# Shear Modulus (GPa) = 20.85801 30.81772 25.83787
#
# Velocity S-wave (km/s) = 2.99780 3.64390 3.33652
# Velocity P-wave (km/s) = 4.61259 6.02538 5.36569
#
# Compressibility (1/GPa) = 0.04636014
#
# Stress axis : x y z
#
# Youngs Moduli (GPa) = 97.82854 32.96354 37.14122
#
# Poissons Ratio (x) = 0.25966 0.11034
# Poissons Ratio (y) = 0.77060 -0.01064
# Poissons Ratio (z) = 0.29063 -0.00945
#
# Static dielectric constant tensor:
#      x y z
#    x 1.872860 0.024900 -0.005320 
#    y 0.024900 1.917750 -0.025290 
#    z -0.005320 -0.025290 1.890790 
# 
# From -- ./inp_files/63538.got.cif
#   From: 2010.05.17/outbox.cif.g08.bks.cpg/sg2_32_cif.got.tgz:63538.got - 2010.06.03 11:33:40.
