data_PCOD9005026
_publ_section_title
;
Structure prediction by ZEFSAII (Michael W. Deem and Ramdas Pophale) SiO2 
 PCOD9005026
Probable space group: P -1
;
_chemical_formula_sum "Si O2"
_cell_formula_units_Z 14
_cell_length_a 5.047429
_cell_length_b 16.133492
_cell_length_c 16.075339
_cell_angle_alpha 27.474220
_cell_angle_beta 112.408936
_cell_angle_gamma 103.159813
_cell_volume 539.246027
_symmetry_space_group_name_H-M "P -1"
_symmetry_group_IT_number 2
_symmetry_cell_setting 'triclinic'
loop_
_space_group_symop_operation_xyz
x,y,z
-x,-y,-z
loop_
_atom_site_type_symbol
_atom_site_label
_atom_site_fract_x
_atom_site_fract_y
_atom_site_fract_z
Si Si1 0.027654 0.185376 0.381387
Si Si2 0.586541 0.589952 0.844714
Si Si3 0.320521 0.978124 0.867148
Si Si4 0.700654 0.448478 0.463970
Si Si5 0.293698 0.805104 0.180126
Si Si6 0.658277 0.617160 0.134311
Si Si7 0.826879 0.691039 0.552790
O O1 0.133998 0.319744 0.207744
O O2 0.258422 0.190506 0.478315
O O3 0.718512 0.246496 0.340827
O O4 0.000000 0.000000 0.500000
O O5 0.575487 0.456261 0.884406
O O6 0.500000 0.500000 0.000000
O O7 0.572656 0.048767 0.884346
O O8 0.102627 0.154178 0.639406
O O9 0.164307 0.886853 0.002821
O O10 0.489249 0.823286 0.959102
O O11 0.558828 0.630977 0.338184
O O12 0.880708 0.291562 0.688501
O O13 0.791960 0.519546 0.324711
O O14 0.442782 0.360727 0.478374
O O15 0.956714 0.510681 0.215167
#
# Coordination Sequence:
#
# PCOD9005026 Si02
#       7
#     2   2   2   2   2   2   2
#     4  11  24  44  69 100 136 177 228 281 345 408
#     4  11  24  44  69 100 136 177 228 281 345 408
#     4   9  18  36  58  86 126 158 220 264 334 385
#     4   9  16  36  60  78 126 162 210 264 340 379
#     4   8  16  32  56  86 116 166 204 278 319 394
#     4  10  21  38  60  87 122 171 214 266 336 399
#     4  10  21  38  60  87 122 171 214 266 336 399
#
# _framework density 25.962178000000002
#
# number of rings (size 3 to 8) (size 9 to 14) (size 15 to 20)
#    0.000    2.286    1.429    0.857    2.000    0.000 
#    0.000   32.857    0.000    0.000    0.000    0.000 
#    0.000    0.000    0.000    0.000    0.000    0.000 
#
# Total GULP energy -77953.996219 kJ/mol
# GULP energy per Si atom -5568.142587 kJ/mol
# Density = 2.590309 g / cm^3
# Si number density = 25.962178 Si / 1000 Ang^3
#
#
#
# Elastic Constant Matrix: (Units=GPa)
#
#
# Indices 1 2 3 4 5 6 
#
# 1 96.5647 35.6874 23.5106 -4.9952 -13.7197 -4.4747
# 2 35.6874 217.8991 45.2999 -42.5538 -3.3643 -0.4065
# 3 23.5106 45.2999 102.0380 -13.2711 -1.9033 -5.3387
# 4 -4.9952 -42.5538 -13.2711 47.7914 -14.6149 0.2945
# 5 -13.7197 -3.3643 -1.9033 -14.6149 31.3824 -0.9870
# 6 -4.4747 -0.4065 -5.3387 0.2945 -0.9870 32.3220
#
#
#
# Elastic Compliance Matrix: (Units=1/GPa)
#
#
# Indices 1 2 3 4 5 6 
#
# 1 0.012247 -0.001242 -0.001898 0.001415 0.005813 0.001531
# 2 -0.001242 0.006344 -0.001731 0.005885 0.002762 -0.000347
# 3 -0.001898 -0.001731 0.011294 0.001517 0.000426 0.001580
# 4 0.001415 0.005885 0.001517 0.031654 0.016106 0.000724
# 5 0.005813 0.002762 0.000426 0.016106 0.042293 0.002055
# 6 0.001531 -0.000347 0.001580 0.000724 0.002055 0.031463
#
#
# Mechanical properties :
#
#
# Convention : Reuss Voigt Hill
#
# Bulk Modulus (GPa) = 49.64751 69.49973 59.57362
# Shear Modulus (GPa) = 32.94843 43.09944 38.02393
#
# Velocity S-wave (km/s) = 3.56630 4.07883 3.83115
# Velocity P-wave (km/s) = 6.01020 7.00073 6.52429
#
# Compressibility (1/GPa) = 0.02014200
#
# Stress axis : x y z
#
# Youngs Moduli (GPa) = 81.65290 157.63137 88.54202
#
# Poissons Ratio (x) = 0.19583 0.16803
# Poissons Ratio (y) = 0.10144 0.15331
# Poissons Ratio (z) = 0.15495 0.27293
#
# Static dielectric constant tensor:
#      x y z
#    x 0.887380 -0.580200 -1.385490 
#    y -0.580200 1.926680 -0.481430 
#    z -1.385490 -0.481430 0.829830 
# 
# From -- ./inp_files/484161.got.cif
#   From: 2010.05.17/outbox.cif.g08.bks.cpg/sg2_243_cif.got.tgz:484161.got - 2010.06.03 11:33:40.
