data_PCOD9005421
_publ_section_title
;
Structure prediction by ZEFSAII (Michael W. Deem and Ramdas Pophale) SiO2 
 PCOD9005421
Probable space group: P -1
;
_chemical_formula_sum "Si O2"
_cell_formula_units_Z 12
_cell_length_a 21.077551
_cell_length_b 5.255190
_cell_length_c 5.019395
_cell_angle_alpha 117.212463
_cell_angle_beta 86.508654
_cell_angle_gamma 97.180505
_cell_volume 490.561128
_symmetry_space_group_name_H-M "P -1"
_symmetry_group_IT_number 2
_symmetry_cell_setting 'triclinic'
loop_
_space_group_symop_operation_xyz
x,y,z
-x,-y,-z
loop_
_atom_site_type_symbol
_atom_site_label
_atom_site_fract_x
_atom_site_fract_y
_atom_site_fract_z
Si Si1 0.737726 0.513548 0.748661
Si Si2 0.423773 0.253126 0.238748
Si Si3 0.928919 0.934419 0.602759
Si Si4 0.883360 0.567541 0.933868
Si Si5 0.309590 0.155264 0.584575
Si Si6 0.447385 0.842783 0.629489
O O1 0.811510 0.551787 0.835424
O O2 0.725294 0.705319 0.587447
O O3 0.718239 0.176043 0.534371
O O4 0.700600 0.643884 0.066405
O O5 0.383462 0.166935 0.471458
O O6 0.410741 0.578963 0.358331
O O7 0.501643 0.278383 0.231096
O O8 0.404857 0.019220 0.909519
O O9 0.073842 0.247705 0.210337
O O10 0.902376 0.243129 0.800543
O O11 0.890318 0.738080 0.292977
O O12 0.000000 0.000000 0.500000
O O13 0.500000 0.000000 0.500000
#
# Coordination Sequence:
#
# PCOD9005421 Si02
#       6
#     2   2   2   2   2   2
#     4  12  26  45  68 100 132 186 227 278 338 397
#     4  10  23  38  59  92 119 167 210 280 324 407
#     4  12  25  44  72 106 138 180 225 278 336 399
#     4  12  24  44  69  98 143 179 225 280 334 401
#     4  12  27  45  71  98 137 175 239 280 336 399
#     4  10  21  38  62  87 123 160 213 259 356 392
#
# _framework density 24.461784999999999
#
# number of rings (size 3 to 8) (size 9 to 14) (size 15 to 20)
#    0.000    0.667    0.000    8.000    4.667    0.000 
#    0.000    0.000    0.000    0.000    0.000    0.000 
#    0.000    0.000    0.000    0.000    0.000    0.000 
#
# Total GULP energy -67202.472009 kJ/mol
# GULP energy per Si atom -5600.206001 kJ/mol
# Density = 2.440611 g / cm^3
# Si number density = 24.461785 Si / 1000 Ang^3
#
#
#
# Elastic Constant Matrix: (Units=GPa)
#
#
# Indices 1 2 3 4 5 6 
#
# 1 77.7213 -25.9203 -0.4831 18.6301 -0.8159 1.1677
# 2 -25.9203 91.9862 54.7453 23.7489 14.3770 0.0561
# 3 -0.4831 54.7453 182.4920 24.5588 13.3092 4.0052
# 4 18.6301 23.7489 24.5588 48.0806 0.2353 3.3315
# 5 -0.8159 14.3770 13.3092 0.2353 39.0959 -1.1435
# 6 1.1677 0.0561 4.0052 3.3315 -1.1435 41.7913
#
#
#
# Elastic Compliance Matrix: (Units=1/GPa)
#
#
# Indices 1 2 3 4 5 6 
#
# 1 0.018547 0.009107 -0.001000 -0.011188 -0.002543 0.000388
# 2 0.009107 0.019546 -0.003945 -0.011199 -0.005563 0.000838
# 3 -0.001000 -0.003945 0.006894 -0.001142 -0.000927 -0.000562
# 4 -0.011188 -0.011199 -0.001142 0.031364 0.004028 -0.001953
# 5 -0.002543 -0.005563 -0.000927 0.004028 0.027880 0.000609
# 6 0.000388 0.000838 -0.000562 -0.001953 0.000609 0.024143
#
#
# Mechanical properties :
#
#
# Convention : Reuss Voigt Hill
#
# Bulk Modulus (GPa) = 18.75784 45.43148 32.09466
# Shear Modulus (GPa) = 36.27941 47.38407 41.83174
#
# Velocity S-wave (km/s) = 3.85529 4.40598 4.13980
# Velocity P-wave (km/s) = 5.24429 6.67056 5.99995
#
# Compressibility (1/GPa) = 0.05331104
#
# Stress axis : x y z
#
# Youngs Moduli (GPa) = 53.91697 51.16230 145.05319
#
# Poissons Ratio (x) = -0.46596 0.14511
# Poissons Ratio (y) = -0.49105 0.57222
# Poissons Ratio (z) = 0.05394 0.20183
#
# Static dielectric constant tensor:
#      x y z
#    x 2.043230 -0.105570 0.002500 
#    y -0.105570 2.057220 0.031230 
#    z 0.002500 0.031230 1.937310 
# 
# From -- ./inp_files/8572.got.cif
#   From: 2010.05.17/outbox.cif.g08.bks.cpg/sg2_5_cif.got.tgz:8572.got - 2010.06.03 11:33:40.
