data_PCOD9005574
_publ_section_title
;
Structure prediction by ZEFSAII (Michael W. Deem and Ramdas Pophale) SiO2 
 PCOD9005574
Probable space group: P -1
;
_chemical_formula_sum "Si O2"
_cell_formula_units_Z 14
_cell_length_a 5.345970
_cell_length_b 27.879021
_cell_length_c 12.218373
_cell_angle_alpha 29.046763
_cell_angle_beta 100.907359
_cell_angle_gamma 82.309271
_cell_volume 675.853513
_symmetry_space_group_name_H-M "P -1"
_symmetry_group_IT_number 2
_symmetry_cell_setting 'triclinic'
loop_
_space_group_symop_operation_xyz
x,y,z
-x,-y,-z
loop_
_atom_site_type_symbol
_atom_site_label
_atom_site_fract_x
_atom_site_fract_y
_atom_site_fract_z
Si Si1 0.756667 0.381954 0.997747
Si Si2 0.892541 0.421492 0.701470
Si Si3 0.605150 0.877811 0.681743
Si Si4 0.295303 0.490510 0.913474
Si Si5 0.933241 0.135425 0.423261
Si Si6 0.737409 0.027021 0.011092
Si Si7 0.235793 0.311738 0.372192
O O1 0.916203 0.410128 0.859952
O O2 0.407488 0.497813 0.789123
O O3 0.717235 0.283511 0.139617
O O4 0.988091 0.320219 0.248019
O O5 0.500000 0.500000 0.500000
O O6 0.000000 0.500000 0.500000
O O7 0.111808 0.275659 0.962921
O O8 0.283531 0.890324 0.608759
O O9 0.760772 0.892150 0.559884
O O10 0.500000 0.000000 0.500000
O O11 0.933386 0.594143 0.724806
O O12 0.500000 0.500000 0.000000
O O13 0.387574 0.355810 0.215954
O O14 0.069158 0.053843 0.705925
O O15 0.496511 0.176061 0.714283
O O16 0.500000 0.000000 0.000000
O O17 0.000000 0.000000 0.000000
#
# Coordination Sequence:
#
# PCOD9005574 Si02
#       7
#     2   2   2   2   2   2   2
#     4  10  21  38  69  91 130 175 221 265 346 399
#     4  11  25  44  70 103 128 167 235 293 334 402
#     4  11  25  49  72  95 138 179 225 286 360 406
#     4   9  20  38  58  91 127 179 213 255 334 390
#     4  11  23  41  71 101 127 181 222 272 335 413
#     4  12  24  39  65 102 137 169 227 271 318 394
#     4  10  21  38  62  93 137 177 213 271 320 404
#
# _framework density 20.714545999999999
#
# number of rings (size 3 to 8) (size 9 to 14) (size 15 to 20)
#    0.000    1.429    1.429    3.857   10.000    0.000 
#    2.571    2.857    0.000    0.000    0.000    0.000 
#    0.000    0.000    0.000    0.000    0.000    0.000 
#
# Total GULP energy -77997.964566 kJ/mol
# GULP energy per Si atom -5571.283183 kJ/mol
# Density = 2.066740 g / cm^3
# Si number density = 20.714546 Si / 1000 Ang^3
#
#
#
# Elastic Constant Matrix: (Units=GPa)
#
#
# Indices 1 2 3 4 5 6 
#
# 1 104.5530 15.3264 28.7340 -2.5858 -27.4163 -6.1128
# 2 15.3264 78.2947 29.3845 -10.9813 -19.6249 -19.7126
# 3 28.7340 29.3845 117.4455 -2.0489 -18.4826 -14.1792
# 4 -2.5858 -10.9813 -2.0489 24.6284 5.3973 -1.6846
# 5 -27.4163 -19.6249 -18.4826 5.3973 29.1285 2.9237
# 6 -6.1128 -19.7126 -14.1792 -1.6846 2.9237 48.5477
#
#
#
# Elastic Compliance Matrix: (Units=1/GPa)
#
#
# Indices 1 2 3 4 5 6 
#
# 1 0.013022 0.001168 -0.001465 -0.000839 0.012177 0.000923
# 2 0.001168 0.018573 -0.002415 0.006412 0.010230 0.006589
# 3 -0.001465 -0.002415 0.010199 -0.001042 0.003501 0.001567
# 4 -0.000839 0.006412 -0.001042 0.044851 -0.005854 0.004102
# 5 0.012177 0.010230 0.003501 -0.005854 0.055674 0.003154
# 6 0.000923 0.006589 0.001567 0.004102 0.003154 0.023800
#
#
# Mechanical properties :
#
#
# Convention : Reuss Voigt Hill
#
# Bulk Modulus (GPa) = 27.49598 49.68700 38.59149
# Shear Modulus (GPa) = 27.22316 35.58416 31.40366
#
# Velocity S-wave (km/s) = 3.62913 4.14917 3.89783
# Velocity P-wave (km/s) = 5.55548 6.85513 6.23924
#
# Compressibility (1/GPa) = 0.03636895
#
# Stress axis : x y z
#
# Youngs Moduli (GPa) = 76.79171 53.84267 98.04622
#
# Poissons Ratio (x) = -0.06287 0.14364
# Poissons Ratio (y) = -0.08966 0.23680
# Poissons Ratio (z) = 0.11250 0.13004
#
# Static dielectric constant tensor:
#      x y z
#    x 1.826710 -0.005660 0.028030 
#    y -0.005660 1.789770 -0.029100 
#    z 0.028030 -0.029100 1.770970 
# 
# From -- ./inp_files/371316.got.cif
#   From: 2010.05.17/outbox.cif.g08.bks.cpg/sg2_186_cif.got.tgz:371316.got - 2010.06.03 11:33:40.
