data_PCOD9005404
_publ_section_title
;
Structure prediction by ZEFSAII (Michael W. Deem and Ramdas Pophale) SiO2 
 PCOD9005404
Probable space group: P -1
;
_chemical_formula_sum "Si O2"
_cell_formula_units_Z 16
_cell_length_a 20.218509
_cell_length_b 8.227343
_cell_length_c 8.221588
_cell_angle_alpha 54.415432
_cell_angle_beta 44.324374
_cell_angle_gamma 75.624454
_cell_volume 742.386147
_symmetry_space_group_name_H-M "P -1"
_symmetry_group_IT_number 2
_symmetry_cell_setting 'triclinic'
loop_
_space_group_symop_operation_xyz
x,y,z
-x,-y,-z
loop_
_atom_site_type_symbol
_atom_site_label
_atom_site_fract_x
_atom_site_fract_y
_atom_site_fract_z
Si Si1 0.378224 0.480174 0.599312
Si Si2 0.493683 0.826162 0.397410
Si Si3 0.841954 0.154064 0.617686
Si Si4 0.070842 0.220860 0.801386
Si Si5 0.232634 0.474006 0.566596
Si Si6 0.188932 0.292523 0.221552
Si Si7 0.977449 0.552389 0.695342
Si Si8 0.650181 0.190797 0.046823
O O1 0.442789 0.716787 0.386479
O O2 0.449841 0.335543 0.539687
O O3 0.302945 0.456760 0.598020
O O4 0.305288 0.395815 0.930724
O O5 0.408823 0.836447 0.667026
O O6 0.575858 0.050254 0.125205
O O7 0.820490 0.339923 0.438256
O O8 0.940950 0.245356 0.494536
O O9 0.838639 0.948521 0.644425
O O10 0.746516 0.108315 0.931741
O O11 0.145800 0.264104 0.796178
O O12 0.145283 0.301313 0.471820
O O13 0.998334 0.364231 0.867279
O O14 0.000000 0.000000 0.000000
O O15 0.307793 0.572233 0.227823
O O16 0.128484 0.410084 0.145598
O O17 0.000000 0.500000 0.500000
#
# Coordination Sequence:
#
# PCOD9005404 Si02
#       8
#     2   2   2   2   2   2   2   2
#     4  11  22  36  59  94 116 153 206 243 299 347
#     4  10  21  38  62  86 118 157 200 251 292 354
#     4   9  19  38  59  84 118 156 197 242 295 346
#     4  10  22  41  59  86 123 161 198 237 300 357
#     4   9  21  39  59  85 125 153 195 245 295 358
#     4  11  21  38  62  87 119 158 196 246 290 353
#     4   9  20  35  58  86 112 156 196 237 293 356
#     4   9  19  41  61  81 118 161 193 244 301 344
#
# _framework density 21.552126999999999
#
# number of rings (size 3 to 8) (size 9 to 14) (size 15 to 20)
#    0.750    1.500    1.250    1.125    1.750    5.000 
#    0.000    5.000    0.000    0.000    0.000    0.000 
#    0.000    0.000    0.000    0.000    0.000    0.000 
#
# Total GULP energy -89196.730000 kJ/mol
# GULP energy per Si atom -5574.795625 kJ/mol
# Density = 2.150307 g / cm^3
# Si number density = 21.552127 Si / 1000 Ang^3
#
#
#
# Elastic Constant Matrix: (Units=GPa)
#
#
# Indices 1 2 3 4 5 6 
#
# 1 100.8388 30.3466 0.4201 -9.3047 -23.5756 15.2510
# 2 30.3466 82.2266 16.7664 -6.1993 -24.0161 4.3803
# 3 0.4201 16.7664 53.0048 -2.9678 -18.1276 2.2704
# 4 -9.3047 -6.1993 -2.9678 46.2202 6.3751 -22.0187
# 5 -23.5756 -24.0161 -18.1276 6.3751 24.7257 -7.5952
# 6 15.2510 4.3803 2.2704 -22.0187 -7.5952 26.6374
#
#
#
# Elastic Compliance Matrix: (Units=1/GPa)
#
#
# Indices 1 2 3 4 5 6 
#
# 1 0.014725 -0.002073 0.005805 -0.001752 0.014964 -0.005766
# 2 -0.002073 0.017455 -0.000232 0.001787 0.015661 0.004279
# 3 0.005805 -0.000232 0.027799 0.000286 0.026252 0.002067
# 4 -0.001752 0.001787 0.000286 0.036070 0.000378 0.030609
# 5 0.014964 0.015661 0.026252 0.000378 0.093224 0.013513
# 6 -0.005766 0.004279 0.002067 0.030609 0.013513 0.069117
#
#
# Mechanical properties :
#
#
# Convention : Reuss Voigt Hill
#
# Bulk Modulus (GPa) = 14.92960 36.79293 25.86127
# Shear Modulus (GPa) = 18.26712 32.08580 25.17646
#
# Velocity S-wave (km/s) = 2.91448 3.86262 3.42155
# Velocity P-wave (km/s) = 4.27409 6.08291 5.25688
#
# Compressibility (1/GPa) = 0.06698103
#
# Stress axis : x y z
#
# Youngs Moduli (GPa) = 67.91036 57.29107 35.97213
#
# Poissons Ratio (x) = 0.11874 -0.20883
# Poissons Ratio (y) = 0.14075 0.00834
# Poissons Ratio (z) = -0.39425 0.01329
#
# Static dielectric constant tensor:
#      x y z
#    x 1.796560 0.029040 0.026810 
#    y 0.029040 1.783210 -0.019160 
#    z 0.026810 -0.019160 1.833410 
# 
# From -- ./inp_files/325744.got.cif
#   From: 2010.05.17/outbox.cif.g08.bks.cpg/sg2_163_cif.got.tgz:325744.got - 2010.06.03 11:33:40.
