data_PCOD9005098
_publ_section_title
;
Structure prediction by ZEFSAII (Michael W. Deem and Ramdas Pophale) SiO2 
 PCOD9005098
Probable space group: P -1
;
_chemical_formula_sum "Si O2"
_cell_formula_units_Z 15
_cell_length_a 9.631012
_cell_length_b 9.531770
_cell_length_c 9.153729
_cell_angle_alpha 68.410860
_cell_angle_beta 98.995337
_cell_angle_gamma 116.261243
_cell_volume 700.697336
_symmetry_space_group_name_H-M "P -1"
_symmetry_group_IT_number 2
_symmetry_cell_setting 'triclinic'
loop_
_space_group_symop_operation_xyz
x,y,z
-x,-y,-z
loop_
_atom_site_type_symbol
_atom_site_label
_atom_site_fract_x
_atom_site_fract_y
_atom_site_fract_z
Si Si1 0.444554 0.496352 0.829998
Si Si2 0.446227 0.101046 0.645294
Si Si3 0.022848 0.052690 0.232486
Si Si4 0.347088 0.374044 0.442827
Si Si5 0.749796 0.880282 0.025774
Si Si6 0.698691 0.256844 0.386988
Si Si7 0.500000 0.000000 0.000000
Si Si8 0.012231 0.248205 0.447204
O O1 0.602020 0.573389 0.733378
O O2 0.331113 0.306344 0.853776
O O3 0.353714 0.609897 0.742232
O O4 0.500000 0.500000 0.000000
O O5 0.337096 0.191265 0.544004
O O6 0.603928 0.195619 0.544998
O O7 0.363677 0.909390 0.658449
O O8 0.476801 0.106416 0.818584
O O9 0.018735 0.177093 0.312048
O O10 0.161959 0.119547 0.111775
O O11 0.872388 0.991410 0.125795
O O12 0.027951 0.899240 0.384400
O O13 0.500000 0.500000 0.500000
O O14 0.187446 0.379080 0.456689
O O15 0.625473 0.954491 0.944265
O O16 0.881105 0.315201 0.407703
#
# Coordination Sequence:
#
# PCOD9005098 Si02
#       8
#     2   2   2   2   2   2   1   2
#     4  11  23  41  61  86 128 170 203 254 314 369
#     4  10  21  38  60  91 124 161 209 255 307 370
#     4  10  22  39  63  89 122 157 201 260 314 365
#     4  11  23  40  62  90 126 163 204 258 319 372
#     4  11  23  40  59  91 124 158 205 257 311 366
#     4  10  22  39  62  90 122 165 215 255 300 370
#     4  12  20  34  62  88 116 154 202 250 296 364
#     4  11  20  39  65  90 118 164 210 254 307 372
#
# _framework density 21.407245
#
# number of rings (size 3 to 8) (size 9 to 14) (size 15 to 20)
#    0.000    1.333    0.000    7.200    0.000    2.133 
#    0.000   14.000    0.000    0.000    0.000    0.000 
#    0.000    0.000    0.000    0.000    0.000    0.000 
#
# Total GULP energy -83641.981113 kJ/mol
# GULP energy per Si atom -5576.132074 kJ/mol
# Density = 2.135852 g / cm^3
# Si number density = 21.407245 Si / 1000 Ang^3
#
#
#
# Elastic Constant Matrix: (Units=GPa)
#
#
# Indices 1 2 3 4 5 6 
#
# 1 162.8128 31.1847 33.6917 -20.2751 6.6099 20.8614
# 2 31.1847 70.9948 14.5396 -9.1530 7.5932 9.4652
# 3 33.6917 14.5396 126.5550 -7.5670 -15.2756 7.2404
# 4 -20.2751 -9.1530 -7.5670 32.4449 -3.8725 1.4139
# 5 6.6099 7.5932 -15.2756 -3.8725 21.1751 5.2247
# 6 20.8614 9.4652 7.2404 1.4139 5.2247 23.0441
#
#
#
# Elastic Compliance Matrix: (Units=1/GPa)
#
#
# Indices 1 2 3 4 5 6 
#
# 1 0.008176 -0.001822 -0.001396 0.004486 -0.000513 -0.006373
# 2 -0.001822 0.016620 -0.001686 0.002692 -0.005219 -0.003629
# 3 -0.001396 -0.001686 0.009943 0.002253 0.009478 -0.003455
# 4 0.004486 0.002692 0.002253 0.036345 0.008374 -0.010003
# 5 -0.000513 -0.005219 0.009478 0.008374 0.061272 -0.014775
# 6 -0.006373 -0.003629 -0.003455 -0.010003 -0.014775 0.055704
#
#
# Mechanical properties :
#
#
# Convention : Reuss Voigt Hill
#
# Bulk Modulus (GPa) = 40.11083 57.68829 48.89956
# Shear Modulus (GPa) = 24.25056 34.06258 29.15657
#
# Velocity S-wave (km/s) = 3.36939 3.99328 3.69453
# Velocity P-wave (km/s) = 5.82364 6.94753 6.41026
#
# Compressibility (1/GPa) = 0.02493092
#
# Stress axis : x y z
#
# Youngs Moduli (GPa) = 122.30679 60.16691 100.56837
#
# Poissons Ratio (x) = 0.10965 0.14043
# Poissons Ratio (y) = 0.22290 0.16953
# Poissons Ratio (z) = 0.17078 0.10142
#
# Static dielectric constant tensor:
#      x y z
#    x 1.799550 -0.002850 -0.060650 
#    y -0.002850 1.802080 0.013050 
#    z -0.060650 0.013050 1.713420 
# 
# From -- ./inp_files/175496.got.cif
#   From: 2010.05.17/outbox.cif.g08.bks.cpg/sg2_88_cif.got.tgz:175496.got - 2010.06.03 11:33:40.
