data_PCOD9005882
_publ_section_title
;
Structure prediction by ZEFSAII (Michael W. Deem and Ramdas Pophale) SiO2 
 PCOD9005882
Probable space group: P -1
;
_chemical_formula_sum "Si O2"
_cell_formula_units_Z 16
_cell_length_a 9.807942
_cell_length_b 12.476149
_cell_length_c 11.258761
_cell_angle_alpha 132.824947
_cell_angle_beta 116.957084
_cell_angle_gamma 48.972792
_cell_volume 762.209989
_symmetry_space_group_name_H-M "P -1"
_symmetry_group_IT_number 2
_symmetry_cell_setting 'triclinic'
loop_
_space_group_symop_operation_xyz
x,y,z
-x,-y,-z
loop_
_atom_site_type_symbol
_atom_site_label
_atom_site_fract_x
_atom_site_fract_y
_atom_site_fract_z
Si Si1 0.102401 0.313680 0.464152
Si Si2 0.513581 0.995666 0.644612
Si Si3 0.413854 0.363417 0.987093
Si Si4 0.346915 0.946440 0.755679
Si Si5 0.798831 0.228625 0.033837
Si Si6 0.911999 0.466869 0.181223
Si Si7 0.317137 0.276747 0.122206
Si Si8 0.930338 0.092816 0.236675
O O1 0.284160 0.161725 0.360584
O O2 0.164325 0.358748 0.644552
O O3 0.000000 0.500000 0.500000
O O4 0.976493 0.238656 0.384205
O O5 0.373963 0.965311 0.641112
O O6 0.500000 0.000000 0.500000
O O7 0.481430 0.174024 0.817234
O O8 0.225414 0.497844 0.952561
O O9 0.589047 0.374231 0.046732
O O10 0.376242 0.359967 0.107878
O O11 0.536785 0.793011 0.768214
O O12 0.186603 0.922754 0.718499
O O13 0.318185 0.116220 0.939344
O O14 0.913874 0.318507 0.147810
O O15 0.823142 0.137001 0.101428
O O16 0.884597 0.087562 0.856922
O O17 0.113018 0.404630 0.177206
#
# Coordination Sequence:
#
# PCOD9005882 Si02
#       8
#     2   2   2   2   2   2   2   2
#     4  12  24  41  65  94 130 174 219 263 318 390
#     4  11  23  43  66  93 130 178 215 256 333 396
#     4  11  22  40  67  92 132 168 214 271 321 386
#     4  10  21  39  68  92 127 169 218 272 311 389
#     4  11  22  38  65  97 129 163 220 270 316 382
#     4  12  23  39  63  95 132 168 213 270 323 383
#     4  10  21  38  64 100 121 163 220 267 328 371
#     4  11  22  40  65  95 128 168 218 271 321 376
#
# _framework density 20.991592000000001
#
# number of rings (size 3 to 8) (size 9 to 14) (size 15 to 20)
#    0.000    1.000    6.250    1.500    0.000    0.000 
#    0.000    4.375    2.750    0.000    0.000    0.000 
#    0.000    0.000    0.000    0.000    0.000    0.000 
#
# Total GULP energy -89346.672608 kJ/mol
# GULP energy per Si atom -5584.167038 kJ/mol
# Density = 2.094381 g / cm^3
# Si number density = 20.991592 Si / 1000 Ang^3
#
#
#
# Elastic Constant Matrix: (Units=GPa)
#
#
# Indices 1 2 3 4 5 6 
#
# 1 153.1540 18.2631 18.6437 0.6248 -12.7946 14.8034
# 2 18.2631 51.4717 -5.7804 1.5013 -12.7673 -0.5083
# 3 18.6437 -5.7804 36.2777 0.2471 -1.0098 18.3897
# 4 0.6248 1.5013 0.2471 27.7257 4.2363 -9.2955
# 5 -12.7946 -12.7673 -1.0098 4.2363 30.8399 0.0238
# 6 14.8034 -0.5083 18.3897 -9.2955 0.0238 35.1364
#
#
#
# Elastic Compliance Matrix: (Units=1/GPa)
#
#
# Indices 1 2 3 4 5 6 
#
# 1 0.007588 -0.002538 -0.003374 -0.000898 0.002111 -0.001707
# 2 -0.002538 0.023538 0.007003 -0.003820 0.009448 -0.003272
# 3 -0.003374 0.007003 0.042235 -0.009013 0.004138 -0.022969
# 4 -0.000898 -0.003820 -0.009013 0.043145 -0.008189 0.016460
# 5 0.002111 0.009448 0.004138 -0.008189 0.038477 -0.005111
# 6 -0.001707 -0.003272 -0.022969 0.016460 -0.005111 0.045512
#
#
# Mechanical properties :
#
#
# Convention : Reuss Voigt Hill
#
# Bulk Modulus (GPa) = 13.23766 33.68401 23.46084
# Shear Modulus (GPa) = 22.37201 32.72553 27.54877
#
# Velocity S-wave (km/s) = 3.26814 3.95268 3.62660
# Velocity P-wave (km/s) = 4.53441 6.07559 5.36068
#
# Compressibility (1/GPa) = 0.07554203
#
# Stress axis : x y z
#
# Youngs Moduli (GPa) = 131.79121 42.48496 23.67708
#
# Poissons Ratio (x) = 0.10783 0.07988
# Poissons Ratio (y) = 0.33449 -0.16580
# Poissons Ratio (z) = 0.44463 -0.29750
#
# Static dielectric constant tensor:
#      x y z
#    x 1.737160 0.005940 -0.002410 
#    y 0.005940 1.826630 -0.033400 
#    z -0.002410 -0.033400 1.753100 
# 
# From -- ./inp_files/185062.got.cif
#   From: 2010.05.17/outbox.cif.g08.bks.cpg/sg2_93_cif.got.tgz:185062.got - 2010.06.03 11:33:40.
