data_PCOD9005497
_publ_section_title
;
Structure prediction by ZEFSAII (Michael W. Deem and Ramdas Pophale) SiO2 
 PCOD9005497
Probable space group: P -1
;
_chemical_formula_sum "Si O2"
_cell_formula_units_Z 14
_cell_length_a 8.943527
_cell_length_b 9.967441
_cell_length_c 8.683771
_cell_angle_alpha 69.660698
_cell_angle_beta 125.687154
_cell_angle_gamma 107.360537
_cell_volume 584.873791
_symmetry_space_group_name_H-M "P -1"
_symmetry_group_IT_number 2
_symmetry_cell_setting 'triclinic'
loop_
_space_group_symop_operation_xyz
x,y,z
-x,-y,-z
loop_
_atom_site_type_symbol
_atom_site_label
_atom_site_fract_x
_atom_site_fract_y
_atom_site_fract_z
Si Si1 0.005390 0.737264 0.390423
Si Si2 0.847290 0.000328 0.044714
Si Si3 0.333477 0.299645 0.272836
Si Si4 0.946397 0.277435 0.212109
Si Si5 0.360502 0.825586 0.351815
Si Si6 0.340844 0.368638 0.907934
Si Si7 0.385299 0.615976 0.171109
O O1 0.855060 0.603136 0.296687
O O2 0.052854 0.736837 0.598411
O O3 0.191584 0.774519 0.387209
O O4 0.882011 0.864929 0.222699
O O5 0.877750 0.133234 0.130843
O O6 0.671029 0.036079 0.824733
O O7 0.000000 0.000000 0.000000
O O8 0.445523 0.172939 0.445514
O O9 0.446564 0.458786 0.295649
O O10 0.154649 0.311546 0.263177
O O11 0.291331 0.286871 0.071248
O O12 0.811218 0.392657 0.032496
O O13 0.362595 0.697883 0.280677
O O14 0.461063 0.297400 0.880312
O O15 0.500000 0.500000 0.000000
#
# Coordination Sequence:
#
# PCOD9005497 Si02
#       7
#     2   2   2   2   2   2   2
#     4  11  22  41  62  87 123 162 198 249 301 353
#     4   9  20  40  62  88 120 157 201 247 296 356
#     4  11  21  38  59  88 122 158 198 249 299 355
#     4  11  22  38  63  92 121 160 200 243 300 360
#     4  10  21  38  62  91 119 158 203 246 300 358
#     4  10  22  40  61  87 120 158 204 250 296 354
#     4  10  21  39  58  87 122 157 201 250 297 356
#
# _framework density 23.936789000000001
#
# number of rings (size 3 to 8) (size 9 to 14) (size 15 to 20)
#    0.000    1.714    0.000    5.571    0.000    2.286 
#    0.000   20.714    0.000    0.000    0.000    0.000 
#    0.000    0.000    0.000    0.000    0.000    0.000 
#
# Total GULP energy -78141.606171 kJ/mol
# GULP energy per Si atom -5581.543298 kJ/mol
# Density = 2.388231 g / cm^3
# Si number density = 23.936789 Si / 1000 Ang^3
#
#
#
# Elastic Constant Matrix: (Units=GPa)
#
#
# Indices 1 2 3 4 5 6 
#
# 1 124.2150 -2.0176 33.1203 -5.8229 -23.9923 -0.1918
# 2 -2.0176 46.6472 12.5958 -1.7965 -10.3079 -15.0535
# 3 33.1203 12.5958 157.8839 -5.7685 -24.4568 -19.0232
# 4 -5.8229 -1.7965 -5.7685 33.7833 -9.5732 4.6573
# 5 -23.9923 -10.3079 -24.4568 -9.5732 50.2371 4.8513
# 6 -0.1918 -15.0535 -19.0232 4.6573 4.8513 28.0669
#
#
#
# Elastic Compliance Matrix: (Units=1/GPa)
#
#
# Indices 1 2 3 4 5 6 
#
# 1 0.009544 0.001537 -0.001426 0.003070 0.004903 -0.001434
# 2 0.001537 0.027032 -0.000006 0.001343 0.005242 0.013376
# 3 -0.001426 -0.000006 0.007661 0.001253 0.002854 0.004478
# 4 0.003070 0.001343 0.001253 0.033841 0.009345 -0.005640
# 5 0.004903 0.005242 0.002854 0.009345 0.026625 -0.001374
# 6 -0.001434 0.013376 0.004478 -0.005640 -0.001374 0.047002
#
#
# Mechanical properties :
#
#
# Convention : Reuss Voigt Hill
#
# Bulk Modulus (GPa) = 22.49895 46.23813 34.36854
# Shear Modulus (GPa) = 30.06399 41.42064 35.74231
#
# Velocity S-wave (km/s) = 3.54782 4.16434 3.86838
# Velocity P-wave (km/s) = 5.11883 6.51775 5.86018
#
# Compressibility (1/GPa) = 0.04444652
#
# Stress axis : x y z
#
# Youngs Moduli (GPa) = 104.77297 36.99292 130.53536
#
# Poissons Ratio (x) = -0.05685 0.18613
# Poissons Ratio (y) = -0.16101 0.00082
# Poissons Ratio (z) = 0.14940 0.00023
#
# Static dielectric constant tensor:
#      x y z
#    x 1.903970 0.071500 0.032970 
#    y 0.071500 2.185060 0.092760 
#    z 0.032970 0.092760 1.946640 
# 
# From -- ./inp_files/177009.got.cif
#   From: 2010.05.17/outbox.cif.g08.bks.cpg/sg2_89_cif.got.tgz:177009.got - 2010.06.03 11:33:40.
