data_PCOD9005871
_publ_section_title
;
Structure prediction by ZEFSAII (Michael W. Deem and Ramdas Pophale) SiO2 
 PCOD9005871
Probable space group: P -1
;
_chemical_formula_sum "Si O2"
_cell_formula_units_Z 14
_cell_length_a 14.016027
_cell_length_b 11.190268
_cell_length_c 5.269818
_cell_angle_alpha 74.387906
_cell_angle_beta 72.941929
_cell_angle_gamma 48.543628
_cell_volume 588.957382
_symmetry_space_group_name_H-M "P -1"
_symmetry_group_IT_number 2
_symmetry_cell_setting 'triclinic'
loop_
_space_group_symop_operation_xyz
x,y,z
-x,-y,-z
loop_
_atom_site_type_symbol
_atom_site_label
_atom_site_fract_x
_atom_site_fract_y
_atom_site_fract_z
Si Si1 0.872692 0.128674 0.688042
Si Si2 0.496136 0.353092 0.112027
Si Si3 0.021166 0.695104 0.455571
Si Si4 0.865112 0.866670 0.997433
Si Si5 0.726331 0.649528 0.577253
Si Si6 0.648732 0.857091 0.018245
Si Si7 0.400295 0.694340 0.443978
O O1 0.742885 0.233757 0.560743
O O2 0.900230 0.240951 0.716896
O O3 0.858725 0.020720 0.941280
O O4 0.000000 0.000000 0.500000
O O5 0.359206 0.405086 0.260846
O O6 0.591757 0.244988 0.328180
O O7 0.500000 0.500000 0.000000
O O8 0.541755 0.271932 0.849845
O O9 0.959500 0.761874 0.744265
O O10 0.874283 0.495322 0.514828
O O11 0.916292 0.767055 0.274292
O O12 0.730422 0.913963 0.994933
O O13 0.670619 0.750753 0.304381
O O14 0.707358 0.751946 0.776596
O O15 0.500000 0.000000 0.000000
O O16 0.500000 0.500000 0.500000
#
# Coordination Sequence:
#
# PCOD9005871 Si02
#       7
#     2   2   2   2   2   2   2
#     4  10  24  44  70 108 149 187 231 298 369 440
#     4  10  22  38  64 104 135 176 223 288 360 406
#     4  11  24  46  74 112 139 181 245 295 373 426
#     4  11  26  45  73 101 148 196 230 296 359 437
#     4  12  26  46  77 104 145 184 246 312 344 430
#     4  12  29  51  70 104 144 195 251 292 359 426
#     4  10  21  38  63  97 140 182 231 276 351 425
#
# _framework density 23.770821000000002
#
# number of rings (size 3 to 8) (size 9 to 14) (size 15 to 20)
#    0.000    1.143    0.000    5.143    4.000   13.714 
#    0.000    0.000    0.000    0.000    0.000    0.000 
#    0.000    0.000    0.000    0.000    0.000    0.000 
#
# Total GULP energy -78365.238583 kJ/mol
# GULP energy per Si atom -5597.517042 kJ/mol
# Density = 2.371672 g / cm^3
# Si number density = 23.770821 Si / 1000 Ang^3
#
#
#
# Elastic Constant Matrix: (Units=GPa)
#
#
# Indices 1 2 3 4 5 6 
#
# 1 81.0350 12.4998 9.2096 -14.8806 -1.9865 -10.7145
# 2 12.4998 97.2464 35.1892 -12.6575 0.7390 -10.3712
# 3 9.2096 35.1892 151.8392 4.9956 21.9033 -0.1407
# 4 -14.8806 -12.6575 4.9956 31.3076 -1.5874 3.5360
# 5 -1.9865 0.7390 21.9033 -1.5874 48.3969 -3.7450
# 6 -10.7145 -10.3712 -0.1407 3.5360 -3.7450 38.8798
#
#
#
# Elastic Compliance Matrix: (Units=1/GPa)
#
#
# Indices 1 2 3 4 5 6 
#
# 1 0.014214 -0.000153 -0.001278 0.006594 0.001646 0.003430
# 2 -0.000153 0.012483 -0.003299 0.005252 0.001697 0.002962
# 3 -0.001278 -0.003299 0.008093 -0.003284 -0.003871 -0.001277
# 4 0.006594 0.005252 -0.003284 0.037866 0.002922 0.000044
# 5 0.001646 0.001697 -0.003871 0.002922 0.022770 0.002820
# 6 0.003430 0.002962 -0.001277 0.000044 0.002820 0.027719
#
#
# Mechanical properties :
#
#
# Convention : Reuss Voigt Hill
#
# Bulk Modulus (GPa) = 39.47695 49.32421 44.40058
# Shear Modulus (GPa) = 35.44902 41.93167 38.69035
#
# Velocity S-wave (km/s) = 3.86590 4.20455 4.03878
# Velocity P-wave (km/s) = 6.04734 6.66078 6.36146
#
# Compressibility (1/GPa) = 0.02533123
#
# Stress axis : x y z
#
# Youngs Moduli (GPa) = 70.35340 80.10909 123.56023
#
# Poissons Ratio (x) = 0.01226 0.15789
# Poissons Ratio (y) = 0.01077 0.40757
# Poissons Ratio (z) = 0.08990 0.26425
#
# Static dielectric constant tensor:
#      x y z
#    x 1.879310 -0.036080 -0.039380 
#    y -0.036080 1.770730 -0.050500 
#    z -0.039380 -0.050500 1.894200 
# 
# From -- ./inp_files/65823.got.cif
#   From: 2010.05.17/outbox.cif.g08.bks.cpg/sg2_33_cif.got.tgz:65823.got - 2010.06.03 11:33:40.
