data_PCOD9005155
_publ_section_title
;
Structure prediction by ZEFSAII (Michael W. Deem and Ramdas Pophale) SiO2 
 PCOD9005155
Probable space group: P -1
;
_chemical_formula_sum "Si O2"
_cell_formula_units_Z 16
_cell_length_a 14.803513
_cell_length_b 5.412738
_cell_length_c 11.012216
_cell_angle_alpha 108.246700
_cell_angle_beta 114.887309
_cell_angle_gamma 93.866163
_cell_volume 739.594521
_symmetry_space_group_name_H-M "P -1"
_symmetry_group_IT_number 2
_symmetry_cell_setting 'triclinic'
loop_
_space_group_symop_operation_xyz
x,y,z
-x,-y,-z
loop_
_atom_site_type_symbol
_atom_site_label
_atom_site_fract_x
_atom_site_fract_y
_atom_site_fract_z
Si Si1 0.717264 0.767254 0.359897
Si Si2 0.819551 0.813016 0.682449
Si Si3 0.519520 0.507317 0.305155
Si Si4 0.603339 0.117919 0.464474
Si Si5 0.082425 0.157070 0.668645
Si Si6 0.699735 0.522843 0.783694
Si Si7 0.113303 0.675167 0.075006
Si Si8 0.960566 0.268021 0.205117
O O1 0.767215 0.723761 0.511664
O O2 0.608515 0.548173 0.259024
O O3 0.803025 0.785210 0.311420
O O4 0.685644 0.049978 0.404365
O O5 0.740023 0.741294 0.736489
O O6 0.917899 0.692701 0.740229
O O7 0.863512 0.128231 0.767486
O O8 0.541609 0.303827 0.387774
O O9 0.399514 0.432456 0.194857
O O10 0.542984 0.815165 0.414363
O O11 0.659868 0.263097 0.635571
O O12 0.059730 0.444864 0.728061
O O13 0.070740 0.957169 0.744963
O O14 0.000000 0.000000 0.500000
O O15 0.796106 0.479033 0.906947
O O16 0.102285 0.828582 0.967721
O O17 0.000000 0.500000 0.000000
#
# Coordination Sequence:
#
# PCOD9005155 Si02
#       8
#     2   2   2   2   2   2   2   2
#     4  10  24  39  69  97 136 166 221 272 335 381
#     4  12  24  40  68  99 139 172 219 269 341 403
#     4  10  23  36  63  95 139 166 216 264 341 398
#     4  10  21  38  60  98 135 167 210 268 338 391
#     4  12  27  43  70  94 132 175 227 272 329 381
#     4  12  23  37  65  95 138 174 210 269 335 406
#     4  12  26  44  65  97 139 181 220 267 331 400
#     4  12  28  44  65  96 135 176 223 266 322 396
#
# _framework density 21.633476999999999
#
# number of rings (size 3 to 8) (size 9 to 14) (size 15 to 20)
#    0.750    0.000    5.000    2.250    7.000    0.000 
#    0.000    0.000    0.000    1.500    0.000    0.000 
#    0.000    0.000    0.000    0.000    0.000    0.000 
#
# Total GULP energy -89332.783378 kJ/mol
# GULP energy per Si atom -5583.298961 kJ/mol
# Density = 2.158424 g / cm^3
# Si number density = 21.633477 Si / 1000 Ang^3
#
#
#
# Elastic Constant Matrix: (Units=GPa)
#
#
# Indices 1 2 3 4 5 6 
#
# 1 162.3213 41.7455 27.2304 -4.8083 31.6135 2.8093
# 2 41.7455 124.0741 19.0156 -14.1504 10.4046 -3.5611
# 3 27.2304 19.0156 36.6616 -16.5792 17.8443 -2.9302
# 4 -4.8083 -14.1504 -16.5792 37.5231 -6.1876 -0.6229
# 5 31.6135 10.4046 17.8443 -6.1876 31.6957 -4.7786
# 6 2.8093 -3.5611 -2.9302 -0.6229 -4.7786 41.3698
#
#
#
# Elastic Compliance Matrix: (Units=1/GPa)
#
#
# Indices 1 2 3 4 5 6 
#
# 1 0.008504 -0.002128 -0.003066 -0.002212 -0.006759 -0.001792
# 2 -0.002128 0.009385 -0.002768 0.002253 0.001180 0.000927
# 3 -0.003066 -0.002768 0.048227 0.016641 -0.019731 0.001357
# 4 -0.002212 0.002253 0.016641 0.034456 -0.000883 0.001940
# 5 -0.006759 0.001180 -0.019731 -0.000883 0.049576 0.004876
# 6 -0.001792 0.000927 0.001357 0.001940 0.004876 0.025062
#
#
# Mechanical properties :
#
#
# Convention : Reuss Voigt Hill
#
# Bulk Modulus (GPa) = 19.92404 55.44887 37.68645
# Shear Modulus (GPa) = 24.05406 37.78876 30.92141
#
# Velocity S-wave (km/s) = 3.33812 4.18397 3.78475
# Velocity P-wave (km/s) = 4.90787 7.00197 6.04627
#
# Compressibility (1/GPa) = 0.05019063
#
# Stress axis : x y z
#
# Youngs Moduli (GPa) = 117.58797 106.55722 20.73520
#
# Poissons Ratio (x) = 0.22678 0.06358
# Poissons Ratio (y) = 0.25026 0.05740
# Poissons Ratio (z) = 0.36055 0.29498
#
# Static dielectric constant tensor:
#      x y z
#    x 1.882870 0.015290 0.013210 
#    y 0.015290 1.855240 0.025620 
#    z 0.013210 0.025620 1.791730 
# 
# From -- ./inp_files/441345.got.cif
#   From: 2010.05.17/outbox.cif.g08.bks.cpg/sg2_221_cif.got.tgz:441345.got - 2010.06.03 11:33:40.
