data_PCOD9005643
_publ_section_title
;
Structure prediction by ZEFSAII (Michael W. Deem and Ramdas Pophale) SiO2 
 PCOD9005643
Probable space group: P -1
;
_chemical_formula_sum "Si O2"
_cell_formula_units_Z 12
_cell_length_a 6.606084
_cell_length_b 11.561992
_cell_length_c 14.862498
_cell_angle_alpha 40.419726
_cell_angle_beta 63.328656
_cell_angle_gamma 88.717746
_cell_volume 548.787447
_symmetry_space_group_name_H-M "P -1"
_symmetry_group_IT_number 2
_symmetry_cell_setting 'triclinic'
loop_
_space_group_symop_operation_xyz
x,y,z
-x,-y,-z
loop_
_atom_site_type_symbol
_atom_site_label
_atom_site_fract_x
_atom_site_fract_y
_atom_site_fract_z
Si Si1 0.689906 0.423061 0.596910
Si Si2 0.722889 0.855528 0.298271
Si Si3 0.435885 0.319524 0.034374
Si Si4 0.173943 0.890374 0.689443
Si Si5 0.571653 0.762137 0.711973
Si Si6 0.352162 0.116184 0.991177
O O1 0.704114 0.636607 0.446860
O O2 0.524955 0.230346 0.671517
O O3 0.514209 0.333513 0.774967
O O4 0.000000 0.500000 0.500000
O O5 0.708460 0.957978 0.334491
O O6 0.029604 0.007882 0.107301
O O7 0.483268 0.248800 0.162967
O O8 0.138809 0.276904 0.129201
O O9 0.608538 0.563319 0.818941
O O10 0.413753 0.163849 0.055195
O O11 0.317516 0.762724 0.720645
O O12 0.201522 0.032625 0.512721
O O13 0.500000 0.000000 0.000000
#
# Coordination Sequence:
#
# PCOD9005643 Si02
#       6
#     2   2   2   2   2   2
#     4  11  22  40  60  87 126 159 204 250 302 366
#     4  10  23  39  61  90 123 163 202 251 307 363
#     4  10  22  39  60  88 123 158 203 251 304 359
#     4  10  21  38  63  87 119 158 202 252 306 367
#     4  10  21  39  61  89 119 155 205 251 309 355
#     4  11  22  39  62  89 125 165 201 248 302 367
#
# _framework density 21.866389000000002
#
# number of rings (size 3 to 8) (size 9 to 14) (size 15 to 20)
#    0.000    1.667    1.667    2.500    2.333    0.000 
#    0.000    8.333    0.000    0.000    0.000    0.000 
#    0.000    0.000    0.000    0.000    0.000    0.000 
#
# Total GULP energy -66814.766621 kJ/mol
# GULP energy per Si atom -5567.897218 kJ/mol
# Density = 2.181662 g / cm^3
# Si number density = 21.866389 Si / 1000 Ang^3
#
#
#
# Elastic Constant Matrix: (Units=GPa)
#
#
# Indices 1 2 3 4 5 6 
#
# 1 79.4427 37.0115 30.6600 -2.5999 4.6390 11.2072
# 2 37.0115 70.5324 16.3118 8.0576 -0.7517 13.8477
# 3 30.6600 16.3118 119.1136 8.0204 -4.6477 7.0082
# 4 -2.5999 8.0576 8.0204 24.1922 -2.7612 3.3148
# 5 4.6390 -0.7517 -4.6477 -2.7612 30.2996 2.0857
# 6 11.2072 13.8477 7.0082 3.3148 2.0857 34.3529
#
#
#
# Elastic Compliance Matrix: (Units=1/GPa)
#
#
# Indices 1 2 3 4 5 6 
#
# 1 0.019309 -0.009562 -0.004101 0.006549 -0.003085 -0.002053
# 2 -0.009562 0.020884 0.000440 -0.007277 0.001716 -0.004791
# 3 -0.004101 0.000440 0.009735 -0.003522 0.001852 -0.000598
# 4 0.006549 -0.007277 -0.003522 0.046369 0.002717 -0.003124
# 5 -0.003085 0.001716 0.001852 0.002717 0.034216 -0.002403
# 6 -0.002053 -0.004791 -0.000598 -0.003124 -0.002403 0.032280
#
#
# Mechanical properties :
#
#
# Convention : Reuss Voigt Hill
#
# Bulk Modulus (GPa) = 42.58527 48.56173 45.57350
# Shear Modulus (GPa) = 25.37211 30.10930 27.74070
#
# Velocity S-wave (km/s) = 3.41005 3.71478 3.56567
# Velocity P-wave (km/s) = 5.91795 6.37621 6.15135
#
# Compressibility (1/GPa) = 0.02348230
#
# Stress axis : x y z
#
# Youngs Moduli (GPa) = 51.78810 47.88394 102.71836
#
# Poissons Ratio (x) = 0.45787 0.42129
# Poissons Ratio (y) = 0.49520 -0.04521
# Poissons Ratio (z) = 0.21240 -0.02108
#
# Static dielectric constant tensor:
#      x y z
#    x 1.852270 0.048530 0.013960 
#    y 0.048530 1.863060 0.012410 
#    z 0.013960 0.012410 1.691290 
# 
# From -- ./inp_files/46439.got.cif
#   From: 2010.05.17/outbox.cif.g08.bks.cpg/sg2_24_cif.got.tgz:46439.got - 2010.06.03 11:33:40.
