data_PCOD9005833
_publ_section_title
;
Structure prediction by ZEFSAII (Michael W. Deem and Ramdas Pophale) SiO2 
 PCOD9005833
Probable space group: P -1
;
_chemical_formula_sum "Si O2"
_cell_formula_units_Z 14
_cell_length_a 17.483309
_cell_length_b 17.436176
_cell_length_c 10.856115
_cell_angle_alpha 148.282563
_cell_angle_beta 147.514794
_cell_angle_gamma 21.095555
_cell_volume 604.059349
_symmetry_space_group_name_H-M "P -1"
_symmetry_group_IT_number 2
_symmetry_cell_setting 'triclinic'
loop_
_space_group_symop_operation_xyz
x,y,z
-x,-y,-z
loop_
_atom_site_type_symbol
_atom_site_label
_atom_site_fract_x
_atom_site_fract_y
_atom_site_fract_z
Si Si1 0.739895 0.110176 0.547045
Si Si2 0.368246 0.066067 0.530913
Si Si3 0.084813 0.513556 0.911148
Si Si4 0.316759 0.364793 0.460498
Si Si5 0.935662 0.944124 0.217842
Si Si6 0.472701 0.697477 0.725848
Si Si7 0.984853 0.841462 0.746149
O O1 0.496629 0.311972 0.552118
O O2 0.673711 0.116042 0.327340
O O3 0.901635 0.120416 0.754094
O O4 0.877939 0.904528 0.549151
O O5 0.214860 0.313085 0.714668
O O6 0.191076 0.077680 0.284976
O O7 0.500000 0.000000 0.500000
O O8 0.540903 0.867398 0.592143
O O9 0.891177 0.566834 0.780020
O O10 0.289722 0.418709 0.135039
O O11 0.986704 0.735779 0.022340
O O12 0.203672 0.574784 0.680565
O O13 0.669767 0.162154 0.152283
O O14 0.000000 0.000000 0.500000
O O15 0.500000 0.500000 0.500000
O O16 0.000000 0.000000 0.000000
#
# Coordination Sequence:
#
# PCOD9005833 Si02
#       7
#     2   2   2   2   2   2   2
#     4  10  23  40  65  96 132 170 214 270 328 389
#     4  10  24  45  66  96 129 172 224 273 327 390
#     4  11  22  41  68  95 134 174 218 271 326 391
#     4  10  24  44  62  95 133 170 221 267 335 395
#     4  10  21  38  63  95 132 168 222 263 319 385
#     4  11  22  40  64  99 132 171 219 265 320 389
#     4  10  24  42  65  95 129 172 220 275 332 387
#
# _framework density 23.176531000000001
#
# number of rings (size 3 to 8) (size 9 to 14) (size 15 to 20)
#    0.000    1.714    2.857    0.857    2.000    9.714 
#    0.000   15.000    0.000    0.000    0.000    0.000 
#    0.000    0.000    0.000    0.000    0.000    0.000 
#
# Total GULP energy -77945.751715 kJ/mol
# GULP energy per Si atom -5567.553694 kJ/mol
# Density = 2.312378 g / cm^3
# Si number density = 23.176531 Si / 1000 Ang^3
#
#
#
# Elastic Constant Matrix: (Units=GPa)
#
#
# Indices 1 2 3 4 5 6 
#
# 1 120.2369 44.2170 27.3081 -2.6266 27.7388 -35.7388
# 2 44.2170 126.9191 43.9204 13.3237 18.2740 -31.6746
# 3 27.3081 43.9204 83.9787 12.5372 26.6143 -7.2579
# 4 -2.6266 13.3237 12.5372 38.3530 -1.3859 11.5373
# 5 27.7388 18.2740 26.6143 -1.3859 27.4917 -13.8322
# 6 -35.7388 -31.6746 -7.2579 11.5373 -13.8322 38.0235
#
#
#
# Elastic Compliance Matrix: (Units=1/GPa)
#
#
# Indices 1 2 3 4 5 6 
#
# 1 0.013270 -0.000859 -0.000272 -0.001809 -0.007932 0.009368
# 2 -0.000859 0.013524 -0.005865 -0.006505 0.003572 0.012612
# 3 -0.000272 -0.005865 0.021439 -0.003490 -0.020506 -0.007450
# 4 -0.001809 -0.006505 -0.003490 0.034671 0.002527 -0.017385
# 5 -0.007932 0.003572 -0.020506 0.002527 0.070227 0.016387
# 6 0.009368 0.012612 -0.007450 -0.017385 0.016387 0.055426
#
#
# Mechanical properties :
#
#
# Convention : Reuss Voigt Hill
#
# Bulk Modulus (GPa) = 29.20470 62.44729 45.82599
# Shear Modulus (GPa) = 21.37094 35.15293 28.26193
#
# Velocity S-wave (km/s) = 3.03989 3.89877 3.49581
# Velocity P-wave (km/s) = 4.99496 6.87531 6.00914
#
# Compressibility (1/GPa) = 0.03424107
#
# Stress axis : x y z
#
# Youngs Moduli (GPa) = 75.36043 73.94372 46.64295
#
# Poissons Ratio (x) = 0.06350 0.01271
# Poissons Ratio (y) = 0.06472 0.27355
# Poissons Ratio (z) = 0.02053 0.43365
#
# Static dielectric constant tensor:
#      x y z
#    x 1.927940 -0.007770 -0.012160 
#    y -0.007770 2.329070 0.200780 
#    z -0.012160 0.200780 2.187570 
# 
# From -- ./inp_files/466666.got.cif
#   From: 2010.05.17/outbox.cif.g08.bks.cpg/sg2_234_cif.got.tgz:466666.got - 2010.06.03 11:33:40.
