data_PCOD9005524
_publ_section_title
;
Structure prediction by ZEFSAII (Michael W. Deem and Ramdas Pophale) SiO2 
 PCOD9005524
Probable space group: P -1
;
_chemical_formula_sum "Si O2"
_cell_formula_units_Z 16
_cell_length_a 11.301190
_cell_length_b 6.301057
_cell_length_c 13.323881
_cell_angle_alpha 50.327346
_cell_angle_beta 83.287212
_cell_angle_gamma 72.742091
_cell_volume 694.005662
_symmetry_space_group_name_H-M "P -1"
_symmetry_group_IT_number 2
_symmetry_cell_setting 'triclinic'
loop_
_space_group_symop_operation_xyz
x,y,z
-x,-y,-z
loop_
_atom_site_type_symbol
_atom_site_label
_atom_site_fract_x
_atom_site_fract_y
_atom_site_fract_z
Si Si1 0.290673 0.713183 0.493423
Si Si2 0.164102 0.404866 0.265077
Si Si3 0.144528 0.891188 0.980368
Si Si4 0.554606 0.206117 0.365506
Si Si5 0.079892 0.711641 0.632308
Si Si6 0.647275 0.875765 0.995440
Si Si7 0.763031 0.202663 0.218279
Si Si8 0.668231 0.329350 0.718838
O O1 0.375877 0.656584 0.599747
O O2 0.181192 0.578997 0.577042
O O3 0.355050 0.608043 0.414419
O O4 0.234097 0.064376 0.377628
O O5 0.206672 0.593107 0.289096
O O6 0.017824 0.448043 0.276671
O O7 0.185806 0.557415 0.114368
O O8 0.160654 0.918144 0.851978
O O9 0.247602 0.030087 0.976879
O O10 0.000000 0.000000 0.000000
O O11 0.655192 0.072294 0.310959
O O12 0.435218 0.454645 0.266610
O O13 0.500000 0.000000 0.500000
O O14 0.146351 0.790904 0.699759
O O15 0.000000 0.000000 0.500000
O O16 0.686741 0.533228 0.101300
O O17 0.500000 0.000000 0.000000
O O18 0.665296 0.014976 0.844815
#
# Coordination Sequence:
#
# PCOD9005524 Si02
#       8
#     2   2   2   2   2   2   2   2
#     4  10  21  38  62  92 124 174 218 267 334 392
#     4  10  21  41  60  90 131 164 220 277 326 397
#     4  11  26  44  69 102 132 180 233 278 345 405
#     4  11  22  42  63  94 132 172 219 268 333 399
#     4   9  21  40  64  93 129 173 223 268 336 400
#     4  11  24  44  69 103 137 178 233 277 338 413
#     4  11  24  46  70  94 141 177 219 292 335 392
#     4  11  22  39  64  93 128 171 220 270 329 398
#
# _framework density 23.054566999999999
#
# number of rings (size 3 to 8) (size 9 to 14) (size 15 to 20)
#    0.000    1.500    2.500    1.875    0.000    8.000 
#    6.750    0.000    0.000    0.000    0.000    0.000 
#    0.000    0.000    0.000    0.000    0.000    0.000 
#
# Total GULP energy -89272.201919 kJ/mol
# GULP energy per Si atom -5579.512620 kJ/mol
# Density = 2.300209 g / cm^3
# Si number density = 23.054567 Si / 1000 Ang^3
#
#
#
# Elastic Constant Matrix: (Units=GPa)
#
#
# Indices 1 2 3 4 5 6 
#
# 1 136.1930 28.9672 24.1453 16.5763 -24.5167 -7.9639
# 2 28.9672 47.7906 22.2106 4.7965 -15.6308 -23.7141
# 3 24.1453 22.2106 107.5949 16.6796 -21.0374 -2.5474
# 4 16.5763 4.7965 16.6796 47.2011 -2.2439 -5.3844
# 5 -24.5167 -15.6308 -21.0374 -2.2439 45.5325 -6.7163
# 6 -7.9639 -23.7141 -2.5474 -5.3844 -6.7163 22.0624
#
#
#
# Elastic Compliance Matrix: (Units=1/GPa)
#
#
# Indices 1 2 3 4 5 6 
#
# 1 0.009225 -0.006491 0.000037 -0.002921 0.002063 -0.003727
# 2 -0.006491 0.113000 -0.010577 0.012541 0.051167 0.136533
# 3 0.000037 -0.010577 0.011898 -0.004400 0.000041 -0.011043
# 4 -0.002921 0.012541 -0.004400 0.024941 0.004800 0.019466
# 5 0.002063 0.051167 0.000041 0.004800 0.051606 0.072629
# 6 -0.003727 0.136533 -0.011043 0.019466 0.072629 0.216321
#
#
# Mechanical properties :
#
#
# Convention : Reuss Voigt Hill
#
# Bulk Modulus (GPa) = 9.99381 49.13611 29.56496
# Shear Modulus (GPa) = 10.11314 37.37621 23.74468
#
# Velocity S-wave (km/s) = 2.09670 4.03079 3.21274
# Velocity P-wave (km/s) = 3.19465 6.55913 5.15888
#
# Compressibility (1/GPa) = 0.10006195
#
# Stress axis : x y z
#
# Youngs Moduli (GPa) = 108.39815 8.84957 84.04952
#
# Poissons Ratio (x) = 0.05744 -0.00315
# Poissons Ratio (y) = 0.70360 0.88899
# Poissons Ratio (z) = -0.00406 0.09360
#
# Static dielectric constant tensor:
#      x y z
#    x 1.907370 -0.019710 -0.011620 
#    y -0.019710 1.875000 -0.035180 
#    z -0.011620 -0.035180 1.878370 
# 
# From -- ./inp_files/409829.got.cif
#   From: 2010.05.17/outbox.cif.g08.bks.cpg/sg2_205_cif.got.tgz:409829.got - 2010.06.03 11:33:40.
