data_PCOD9005223
_publ_section_title
;
Structure prediction by ZEFSAII (Michael W. Deem and Ramdas Pophale) SiO2 
 PCOD9005223
Probable space group: P -1
;
_chemical_formula_sum "Si O2"
_cell_formula_units_Z 16
_cell_length_a 11.107426
_cell_length_b 16.037020
_cell_length_c 8.273164
_cell_angle_alpha 58.967261
_cell_angle_beta 92.830263
_cell_angle_gamma 139.273930
_cell_volume 652.529681
_symmetry_space_group_name_H-M "P -1"
_symmetry_group_IT_number 2
_symmetry_cell_setting 'triclinic'
loop_
_space_group_symop_operation_xyz
x,y,z
-x,-y,-z
loop_
_atom_site_type_symbol
_atom_site_label
_atom_site_fract_x
_atom_site_fract_y
_atom_site_fract_z
Si Si1 0.573678 0.415288 0.708955
Si Si2 0.388024 0.115382 0.192026
Si Si3 0.112317 0.356628 0.013251
Si Si4 0.769561 0.943165 0.400377
Si Si5 0.415535 0.365507 0.391523
Si Si6 0.242059 0.755867 0.050781
Si Si7 0.601757 0.185452 0.649170
Si Si8 0.045383 0.703208 0.575956
O O1 0.487089 0.387312 0.556805
O O2 0.605238 0.533198 0.704514
O O3 0.832984 0.551119 0.590379
O O4 0.405344 0.220061 0.973257
O O5 0.315554 0.096442 0.384154
O O6 0.204485 0.905967 0.335596
O O7 0.639940 0.235669 0.078733
O O8 0.048113 0.343659 0.203458
O O9 0.379899 0.523043 0.828322
O O10 0.981052 0.163146 0.162971
O O11 0.005287 0.368742 0.883748
O O12 0.803475 0.852526 0.456552
O O13 0.550519 0.826785 0.392514
O O14 0.277843 0.732447 0.250811
O O15 0.408985 0.966221 0.853216
O O16 0.794568 0.281391 0.440283
#
# Coordination Sequence:
#
# PCOD9005223 Si02
#       8
#     2   2   2   2   2   2   2   2
#     4  11  25  42  59  82 113 151 197 243 284 335
#     4  10  21  38  61  88 118 151 188 234 287 341
#     4  10  21  38  61  88 118 151 188 234 287 341
#     4  10  21  38  61  88 118 151 188 234 287 341
#     4  11  25  42  59  82 113 151 197 243 284 335
#     4   9  17  32  57  88 120 151 185 228 281 342
#     4   9  17  32  57  88 120 151 185 228 281 342
#     4  10  21  38  61  88 118 151 188 234 287 341
#
# _framework density 24.519959
#
# number of rings (size 3 to 8) (size 9 to 14) (size 15 to 20)
#    0.000    2.000    0.000    3.000    0.000   10.000 
#    0.000   10.000    0.000    0.000    0.000    0.000 
#    0.000    0.000    0.000    0.000    0.000    0.000 
#
# Total GULP energy -89586.891456 kJ/mol
# GULP energy per Si atom -5599.180716 kJ/mol
# Density = 2.446415 g / cm^3
# Si number density = 24.519959 Si / 1000 Ang^3
#
#
#
# Elastic Constant Matrix: (Units=GPa)
#
#
# Indices 1 2 3 4 5 6 
#
# 1 63.2314 13.3189 24.6465 -12.2887 16.1791 -22.5913
# 2 13.3189 50.8090 16.3706 -9.2754 12.8420 -11.0170
# 3 24.6465 16.3706 87.4218 -8.0682 19.9844 -6.8641
# 4 -12.2887 -9.2754 -8.0682 31.4701 -4.8524 12.9388
# 5 16.1791 12.8420 19.9844 -4.8524 24.5173 -10.5536
# 6 -22.5913 -11.0170 -6.8641 12.9388 -10.5536 42.7903
#
#
#
# Elastic Compliance Matrix: (Units=1/GPa)
#
#
# Indices 1 2 3 4 5 6 
#
# 1 0.022979 -0.000476 -0.003688 0.003189 -0.007583 0.008583
# 2 -0.000476 0.023864 -0.001717 0.004134 -0.009049 0.002136
# 3 -0.003688 -0.001717 0.014955 0.001562 -0.009786 -0.002876
# 4 0.003189 0.004134 0.001562 0.038037 -0.001874 -0.008965
# 5 -0.007583 -0.009049 -0.009786 -0.001874 0.061510 0.007834
# 6 0.008583 0.002136 -0.002876 -0.008965 0.007834 0.032633
#
#
# Mechanical properties :
#
#
# Convention : Reuss Voigt Hill
#
# Bulk Modulus (GPa) = 19.98439 34.45935 27.22187
# Shear Modulus (GPa) = 22.48010 29.56398 26.02204
#
# Velocity S-wave (km/s) = 3.03117 3.47610 3.26123
# Velocity P-wave (km/s) = 4.51869 5.49501 5.03059
#
# Compressibility (1/GPa) = 0.05003906
#
# Stress axis : x y z
#
# Youngs Moduli (GPa) = 43.51751 41.90332 66.86554
#
# Poissons Ratio (x) = 0.01993 0.24657
# Poissons Ratio (y) = 0.02069 0.11480
# Poissons Ratio (z) = 0.16048 0.07194
#
# Static dielectric constant tensor:
#      x y z
#    x 1.964040 -0.015280 0.035250 
#    y -0.015280 1.933220 -0.028080 
#    z 0.035250 -0.028080 1.939770 
# 
# From -- ./inp_files/257809.got.cif
#   From: 2010.05.17/outbox.cif.g08.bks.cpg/sg2_129_cif.got.tgz:257809.got - 2010.06.03 11:33:40.
