data_PCOD9005071
_publ_section_title
;
Structure prediction by ZEFSAII (Michael W. Deem and Ramdas Pophale) SiO2 
 PCOD9005071
Probable space group: P -1
;
_chemical_formula_sum "Si O2"
_cell_formula_units_Z 16
_cell_length_a 8.102723
_cell_length_b 23.568222
_cell_length_c 8.490965
_cell_angle_alpha 30.542258
_cell_angle_beta 51.968381
_cell_angle_gamma 57.447520
_cell_volume 648.927959
_symmetry_space_group_name_H-M "P -1"
_symmetry_group_IT_number 2
_symmetry_cell_setting 'triclinic'
loop_
_space_group_symop_operation_xyz
x,y,z
-x,-y,-z
loop_
_atom_site_type_symbol
_atom_site_label
_atom_site_fract_x
_atom_site_fract_y
_atom_site_fract_z
Si Si1 0.671690 0.891870 0.789757
Si Si2 0.186090 0.306772 0.642067
Si Si3 0.552943 0.278459 0.256762
Si Si4 0.156209 0.541215 0.676602
Si Si5 0.719531 0.076197 0.845879
Si Si6 0.939963 0.083895 0.019288
Si Si7 0.378124 0.746407 0.086401
Si Si8 0.242966 0.479889 0.449836
O O1 0.791386 0.985010 0.402899
O O2 0.834730 0.810768 0.977420
O O3 0.502355 0.941922 0.893859
O O4 0.535924 0.814363 0.939740
O O5 0.330458 0.286409 0.454627
O O6 0.304252 0.386085 0.509702
O O7 0.978876 0.371752 0.557175
O O8 0.685025 0.181407 0.500952
O O9 0.547671 0.249463 0.146138
O O10 0.642607 0.403185 0.921077
O O11 0.337178 0.616706 0.463092
O O12 0.239797 0.454810 0.701225
O O13 0.000000 0.500000 0.000000
O O14 0.885291 0.106181 0.814878
O O15 0.825082 0.963858 0.981208
O O16 0.846533 0.190255 0.909055
O O17 0.000000 0.500000 0.500000
#
# Coordination Sequence:
#
# PCOD9005071 Si02
#       8
#     2   2   2   2   2   2   2   2
#     4  10  22  42  63  89 127 162 215 253 296 381
#     4  10  22  41  60  91 115 168 204 246 310 374
#     4  10  21  38  60  89 127 150 208 263 303 366
#     4  10  23  42  61  92 129 153 204 258 310 368
#     4   9  20  38  59  90 118 164 209 249 300 371
#     4  10  21  40  64  86 127 168 211 248 308 370
#     4  10  22  41  60  92 125 161 199 260 314 352
#     4   9  20  36  61  84 116 162 200 243 306 370
#
# _framework density 24.65605
#
# number of rings (size 3 to 8) (size 9 to 14) (size 15 to 20)
#    0.000    2.250    0.000    1.875    5.250    8.500 
#   11.250    5.625    0.000    0.000    0.000    0.000 
#    0.000    0.000    0.000    0.000    0.000    0.000 
#
# Total GULP energy -89502.858494 kJ/mol
# GULP energy per Si atom -5593.928656 kJ/mol
# Density = 2.459993 g / cm^3
# Si number density = 24.656050 Si / 1000 Ang^3
#
#
#
# Elastic Constant Matrix: (Units=GPa)
#
#
# Indices 1 2 3 4 5 6 
#
# 1 63.2060 19.7556 8.2663 -5.7564 8.3720 -10.2988
# 2 19.7556 148.5007 18.4048 11.6418 -3.0359 1.4959
# 3 8.2663 18.4048 79.4277 15.3976 5.6417 13.1047
# 4 -5.7564 11.6418 15.3976 31.7110 -2.1611 -0.2871
# 5 8.3720 -3.0359 5.6417 -2.1611 35.2824 -12.2664
# 6 -10.2988 1.4959 13.1047 -0.2871 -12.2664 38.6486
#
#
#
# Elastic Compliance Matrix: (Units=1/GPa)
#
#
# Indices 1 2 3 4 5 6 
#
# 1 0.018787 -0.002649 -0.003298 0.005912 -0.001817 0.005695
# 2 -0.002649 0.007441 -0.000958 -0.002672 0.001145 -0.000325
# 3 -0.003298 -0.000958 0.016587 -0.008740 -0.005348 -0.008228
# 4 0.005912 -0.002672 -0.008740 0.038182 0.004289 0.006287
# 5 -0.001817 0.001145 -0.005348 0.004289 0.034225 0.012179
# 6 0.005695 -0.000325 -0.008228 0.006287 0.012179 0.034106
#
#
# Mechanical properties :
#
#
# Convention : Reuss Voigt Hill
#
# Bulk Modulus (GPa) = 34.47581 42.66530 38.57056
# Shear Modulus (GPa) = 28.93398 37.44223 33.18811
#
# Velocity S-wave (km/s) = 3.42936 3.90113 3.67283
# Velocity P-wave (km/s) = 5.44920 6.13461 5.80203
#
# Compressibility (1/GPa) = 0.02900585
#
# Stress axis : x y z
#
# Youngs Moduli (GPa) = 53.22725 134.38569 60.28769
#
# Poissons Ratio (x) = 0.35593 0.19884
# Poissons Ratio (y) = 0.14098 0.05777
# Poissons Ratio (z) = 0.17555 0.12878
#
# Static dielectric constant tensor:
#      x y z
#    x 2.019530 -0.018830 0.008990 
#    y -0.018830 2.021590 -0.033240 
#    z 0.008990 -0.033240 1.919240 
# 
# From -- ./inp_files/225819.got.cif
#   From: 2010.05.17/outbox.cif.g08.bks.cpg/sg2_113_cif.got.tgz:225819.got - 2010.06.03 11:33:40.
