data_PCOD9005456
_publ_section_title
;
Structure prediction by ZEFSAII (Michael W. Deem and Ramdas Pophale) SiO2 
 PCOD9005456
Probable space group: P -1
;
_chemical_formula_sum "Si O2"
_cell_formula_units_Z 16
_cell_length_a 11.416022
_cell_length_b 8.884114
_cell_length_c 20.211504
_cell_angle_alpha 133.719309
_cell_angle_beta 32.007245
_cell_angle_gamma 125.703512
_cell_volume 785.226138
_symmetry_space_group_name_H-M "P -1"
_symmetry_group_IT_number 2
_symmetry_cell_setting 'triclinic'
loop_
_space_group_symop_operation_xyz
x,y,z
-x,-y,-z
loop_
_atom_site_type_symbol
_atom_site_label
_atom_site_fract_x
_atom_site_fract_y
_atom_site_fract_z
Si Si1 0.618285 0.144986 0.910177
Si Si2 0.138233 0.049552 0.147341
Si Si3 0.022329 0.566038 0.210869
Si Si4 0.524908 0.832546 0.755514
Si Si5 0.810841 0.534507 0.155879
Si Si6 0.129063 0.095769 0.026654
Si Si7 0.390281 0.276695 0.469036
Si Si8 0.657110 0.000143 0.361506
O O1 0.737731 0.331751 0.873610
O O2 0.758077 0.110154 0.899495
O O3 0.654985 0.930001 0.785348
O O4 0.360598 0.182253 0.064030
O O5 0.084475 0.966597 0.074873
O O6 0.889795 0.113499 0.305304
O O7 0.920679 0.554586 0.182285
O O8 0.854445 0.700628 0.376431
O O9 0.050296 0.328448 0.147950
O O10 0.376112 0.642682 0.796937
O O11 0.615629 0.765252 0.619841
O O12 0.380749 0.043004 0.873603
O O13 0.703430 0.755603 0.254938
O O14 0.000000 0.500000 0.000000
O O15 0.000000 0.000000 0.000000
O O16 0.500000 0.500000 0.500000
O O17 0.538022 0.111582 0.390111
O O18 0.500000 0.000000 0.500000
#
# Coordination Sequence:
#
# PCOD9005456 Si02
#       8
#     2   2   2   2   2   2   2   2
#     4  10  23  42  61  93 135 176 218 259 338 400
#     4  10  21  38  62  89 130 176 202 272 327 384
#     4  12  24  41  67  97 132 175 216 271 334 396
#     4  11  24  41  64  97 133 175 215 278 328 392
#     4  12  24  39  64 102 126 169 226 277 321 374
#     4  11  21  38  65  99 128 166 227 275 322 378
#     4  12  23  43  68 100 134 171 218 276 340 383
#     4  12  22  40  67  99 128 169 226 269 327 391
#
# _framework density 20.376294999999999
#
# number of rings (size 3 to 8) (size 9 to 14) (size 15 to 20)
#    0.000    0.750    5.000    3.000    3.500    2.500 
#    0.000    1.250    0.000   10.500    0.000    0.000 
#    0.000    0.000    0.000    0.000    0.000    0.000 
#
# Total GULP energy -89093.724165 kJ/mol
# GULP energy per Si atom -5568.357760 kJ/mol
# Density = 2.032992 g / cm^3
# Si number density = 20.376295 Si / 1000 Ang^3
#
#
#
# Elastic Constant Matrix: (Units=GPa)
#
#
# Indices 1 2 3 4 5 6 
#
# 1 98.8157 38.0205 33.7851 -1.0591 9.3810 -18.4174
# 2 38.0205 111.1557 44.3324 -3.0307 -4.8354 -2.3881
# 3 33.7851 44.3324 136.3525 -9.7086 3.1735 -16.3862
# 4 -1.0591 -3.0307 -9.7086 43.2988 -3.6511 -7.5009
# 5 9.3810 -4.8354 3.1735 -3.6511 39.3083 -3.0455
# 6 -18.4174 -2.3881 -16.3862 -7.5009 -3.0455 28.4275
#
#
#
# Elastic Compliance Matrix: (Units=1/GPa)
#
#
# Indices 1 2 3 4 5 6 
#
# 1 0.013897 -0.004314 -0.000936 0.000960 -0.003061 0.008027
# 2 -0.004314 0.011798 -0.003280 -0.000424 0.002432 -0.003546
# 3 -0.000936 -0.003280 0.009469 0.002761 -0.000279 0.005275
# 4 0.000960 -0.000424 0.002761 0.025517 0.002578 0.009187
# 5 -0.003061 0.002432 -0.000279 0.002578 0.026857 0.001618
# 6 0.008027 -0.003546 0.005275 0.009187 0.001618 0.045718
#
#
# Mechanical properties :
#
#
# Convention : Reuss Voigt Hill
#
# Bulk Modulus (GPa) = 55.23928 64.28887 59.76407
# Shear Modulus (GPa) = 31.97919 37.55266 34.76592
#
# Velocity S-wave (km/s) = 3.96590 4.29763 4.13509
# Velocity P-wave (km/s) = 6.93827 7.49970 7.22444
#
# Compressibility (1/GPa) = 0.01810306
#
# Stress axis : x y z
#
# Youngs Moduli (GPa) = 71.95848 84.75806 105.60402
#
# Poissons Ratio (x) = 0.36568 0.09888
# Poissons Ratio (y) = 0.31046 0.34637
# Poissons Ratio (z) = 0.06738 0.27800
#
# Static dielectric constant tensor:
#      x y z
#    x 2.120560 0.102100 0.039550 
#    y 0.102100 1.780380 -0.024540 
#    z 0.039550 -0.024540 1.830920 
# 
# From -- ./inp_files/187803.got.cif
#   From: 2010.05.17/outbox.cif.g08.bks.cpg/sg2_94_cif.got.tgz:187803.got - 2010.06.03 11:33:40.
