data_PCOD9005784
_publ_section_title
;
Structure prediction by ZEFSAII (Michael W. Deem and Ramdas Pophale) SiO2 
 PCOD9005784
Probable space group: P -1
;
_chemical_formula_sum "Si O2"
_cell_formula_units_Z 14
_cell_length_a 9.468453
_cell_length_b 11.346938
_cell_length_c 7.784729
_cell_angle_alpha 87.687708
_cell_angle_beta 115.508199
_cell_angle_gamma 133.439481
_cell_volume 504.631142
_symmetry_space_group_name_H-M "P -1"
_symmetry_group_IT_number 2
_symmetry_cell_setting 'triclinic'
loop_
_space_group_symop_operation_xyz
x,y,z
-x,-y,-z
loop_
_atom_site_type_symbol
_atom_site_label
_atom_site_fract_x
_atom_site_fract_y
_atom_site_fract_z
Si Si1 0.242131 0.029070 0.822676
Si Si2 0.375071 0.000281 0.225188
Si Si3 0.850185 0.279237 0.606226
Si Si4 0.725797 0.387213 0.104263
Si Si5 0.636020 0.495377 0.744787
Si Si6 0.449101 0.298896 0.311785
Si Si7 0.882047 0.796423 0.340960
O O1 0.157168 0.115915 0.813194
O O2 0.232182 0.932684 0.979040
O O3 0.523520 0.188546 0.935254
O O4 0.088050 0.926411 0.580305
O O5 0.660760 0.165990 0.359492
O O6 0.334910 0.106081 0.291149
O O7 0.303256 0.846970 0.304576
O O8 0.010097 0.484001 0.699676
O O9 0.040569 0.282048 0.694305
O O10 0.586505 0.361638 0.199819
O O11 0.766530 0.491389 0.952069
O O12 0.615284 0.424207 0.552651
O O13 0.710822 0.674068 0.773218
O O14 0.366546 0.349080 0.683443
#
# Coordination Sequence:
#
# PCOD9005784 Si02
#       7
#     2   2   2   2   2   2   2
#     4   9  22  39  65  97 120 161 222 251 328 367
#     4  10  25  42  61  93 127 175 211 261 313 387
#     4  11  24  42  64  87 137 167 214 257 323 372
#     4  10  21  41  63  94 126 170 202 266 320 374
#     4  10  21  38  64 100 130 156 209 274 321 370
#     4  10  21  38  63  93 127 161 214 258 315 383
#     4  10  21  40  65  97 126 165 205 273 314 380
#
# _framework density 27.743037000000001
#
# number of rings (size 3 to 8) (size 9 to 14) (size 15 to 20)
#    0.000    2.000    1.429    0.429   10.000    5.714 
#    0.000    0.714    0.000    0.000    0.000    0.000 
#    0.000    0.000    0.000    0.000    0.000    0.000 
#
# Total GULP energy -78179.486309 kJ/mol
# GULP energy per Si atom -5584.249022 kJ/mol
# Density = 2.767989 g / cm^3
# Si number density = 27.743037 Si / 1000 Ang^3
#
#
#
# Elastic Constant Matrix: (Units=GPa)
#
#
# Indices 1 2 3 4 5 6 
#
# 1 72.4775 -8.6907 -5.7481 -2.4577 9.3184 7.4596
# 2 -8.6907 66.5914 24.5422 19.6219 15.1144 12.8999
# 3 -5.7481 24.5422 141.1970 -3.1469 6.4706 13.4448
# 4 -2.4577 19.6219 -3.1469 58.3030 1.4897 14.6327
# 5 9.3184 15.1144 6.4706 1.4897 49.6066 7.2092
# 6 7.4596 12.8999 13.4448 14.6327 7.2092 23.2041
#
#
#
# Elastic Compliance Matrix: (Units=1/GPa)
#
#
# Indices 1 2 3 4 5 6 
#
# 1 0.015471 0.003352 0.000922 0.001504 -0.003020 -0.007381
# 2 0.003352 0.020377 -0.002719 -0.005266 -0.005482 -0.005807
# 3 0.000922 -0.002719 0.008145 0.002718 0.000282 -0.005306
# 4 0.001504 -0.005266 0.002718 0.022618 0.002340 -0.014121
# 5 -0.003020 -0.005482 0.000282 0.002340 0.022981 -0.004761
# 6 -0.007381 -0.005807 -0.005306 -0.014121 -0.004761 0.062156
#
#
# Mechanical properties :
#
#
# Convention : Reuss Voigt Hill
#
# Bulk Modulus (GPa) = 21.22975 33.38584 27.30780
# Shear Modulus (GPa) = 30.42475 44.23356 37.32916
#
# Velocity S-wave (km/s) = 3.31518 3.99733 3.67213
# Velocity P-wave (km/s) = 4.72470 5.77624 5.27673
#
# Compressibility (1/GPa) = 0.04710371
#
# Stress axis : x y z
#
# Youngs Moduli (GPa) = 64.63544 49.07486 122.77036
#
# Poissons Ratio (x) = -0.16448 -0.11320
# Poissons Ratio (y) = -0.21663 0.33377
# Poissons Ratio (z) = -0.05960 0.13342
#
# Static dielectric constant tensor:
#      x y z
#    x 2.216760 -0.072860 -0.028200 
#    y -0.072860 2.344440 0.036940 
#    z -0.028200 0.036940 2.102630 
# 
# From -- ./inp_files/270222.got.cif
#   From: 2010.05.17/outbox.cif.g08.bks.cpg/sg2_136_cif.got.tgz:270222.got - 2010.06.03 11:33:40.
