data_PCOD9005314
_publ_section_title
;
Structure prediction by ZEFSAII (Michael W. Deem and Ramdas Pophale) SiO2 
 PCOD9005314
Probable space group: P -1
;
_chemical_formula_sum "Si O2"
_cell_formula_units_Z 14
_cell_length_a 12.939645
_cell_length_b 7.762841
_cell_length_c 9.089040
_cell_angle_alpha 87.099769
_cell_angle_beta 68.557941
_cell_angle_gamma 43.889031
_cell_volume 556.154010
_symmetry_space_group_name_H-M "P -1"
_symmetry_group_IT_number 2
_symmetry_cell_setting 'triclinic'
loop_
_space_group_symop_operation_xyz
x,y,z
-x,-y,-z
loop_
_atom_site_type_symbol
_atom_site_label
_atom_site_fract_x
_atom_site_fract_y
_atom_site_fract_z
Si Si1 0.872998 0.864169 0.100410
Si Si2 0.757335 0.617651 0.940560
Si Si3 0.857176 0.821256 0.758645
Si Si4 0.229503 0.486634 0.568882
Si Si5 0.297820 0.585197 0.817068
Si Si6 0.459327 0.910021 0.755361
Si Si7 0.360681 0.639390 0.317838
O O1 0.835351 0.105782 0.146226
O O2 0.712698 0.946922 0.243753
O O3 0.052555 0.595686 0.079549
O O4 0.857862 0.858918 0.932615
O O5 0.783833 0.712504 0.783696
O O6 0.715248 0.468644 0.006075
O O7 0.604799 0.887648 0.096248
O O8 0.051564 0.611048 0.618687
O O9 0.746792 0.099021 0.728959
O O10 0.252781 0.487724 0.730330
O O11 0.391814 0.206097 0.423851
O O12 0.243067 0.667170 0.488515
O O13 0.484336 0.435424 0.689970
O O14 0.537231 0.641702 0.797177
#
# Coordination Sequence:
#
# PCOD9005314 Si02
#       7
#     2   2   2   2   2   2   2
#     4  10  21  38  61  92 114 160 198 246 290 349
#     4  11  22  38  60  95 118 153 201 248 296 341
#     4  11  21  39  65  86 123 153 203 245 286 359
#     4  10  21  39  65  89 114 161 199 245 286 357
#     4  11  22  39  63  90 123 151 199 247 300 348
#     4   8  20  36  59  88 116 151 202 235 292 346
#     4   9  22  40  60  90 118 161 196 238 301 353
#
# _framework density 25.172881
#
# number of rings (size 3 to 8) (size 9 to 14) (size 15 to 20)
#    0.857    1.143    1.429    3.000    0.000    6.286 
#    0.000    0.000    0.000    1.714    0.000    0.000 
#    0.000    0.000    0.000    0.000    0.000    0.000 
#
# Total GULP energy -78152.502756 kJ/mol
# GULP energy per Si atom -5582.321625 kJ/mol
# Density = 2.511559 g / cm^3
# Si number density = 25.172881 Si / 1000 Ang^3
#
#
#
# Elastic Constant Matrix: (Units=GPa)
#
#
# Indices 1 2 3 4 5 6 
#
# 1 35.3829 34.5115 32.7252 4.9675 -9.6739 -7.6120
# 2 34.5115 143.6805 70.0534 5.7567 -11.4837 0.1851
# 3 32.7252 70.0534 106.5445 8.9482 -36.5428 -5.7908
# 4 4.9675 5.7567 8.9482 51.1826 1.8411 -13.0801
# 5 -9.6739 -11.4837 -36.5428 1.8411 43.3911 -1.0471
# 6 -7.6120 0.1851 -5.7908 -13.0801 -1.0471 34.4188
#
#
#
# Elastic Compliance Matrix: (Units=1/GPa)
#
#
# Indices 1 2 3 4 5 6 
#
# 1 0.044669 -0.006450 -0.008604 0.000026 0.001210 0.008513
# 2 -0.006450 0.011835 -0.007602 0.000057 -0.004780 -0.002893
# 3 -0.008604 -0.007602 0.022511 -0.002416 0.015166 0.001469
# 4 0.000026 0.000057 -0.002416 0.022070 -0.002759 0.007902
# 5 0.001210 -0.004780 0.015166 -0.002759 0.035010 0.002861
# 6 0.008513 -0.002893 0.001469 0.007902 0.002861 0.034289
#
#
# Mechanical properties :
#
#
# Convention : Reuss Voigt Hill
#
# Bulk Modulus (GPa) = 29.66988 62.24312 45.95650
# Shear Modulus (GPa) = 22.03318 35.68635 28.85976
#
# Velocity S-wave (km/s) = 2.96171 3.76925 3.38962
# Velocity P-wave (km/s) = 4.84847 6.61234 5.79787
#
# Compressibility (1/GPa) = 0.03370421
#
# Stress axis : x y z
#
# Youngs Moduli (GPa) = 22.38672 84.49564 44.42233
#
# Poissons Ratio (x) = 0.54497 0.38221
# Poissons Ratio (y) = 0.14439 0.33770
# Poissons Ratio (z) = 0.19261 0.64233
#
# Static dielectric constant tensor:
#      x y z
#    x 2.063410 0.018690 -0.016680 
#    y 0.018690 1.967780 -0.067930 
#    z -0.016680 -0.067930 2.029540 
# 
# From -- ./inp_files/461982.got.cif
#   From: 2010.05.17/outbox.cif.g08.bks.cpg/sg2_231_cif.got.tgz:461982.got - 2010.06.03 11:33:40.
