data_PCOD9005498
_publ_section_title
;
Structure prediction by ZEFSAII (Michael W. Deem and Ramdas Pophale) SiO2 
 PCOD9005498
Probable space group: P -1
;
_chemical_formula_sum "Si O2"
_cell_formula_units_Z 16
_cell_length_a 7.201125
_cell_length_b 8.312845
_cell_length_c 16.580178
_cell_angle_alpha 56.293850
_cell_angle_beta 103.881831
_cell_angle_gamma 122.125264
_cell_volume 697.103328
_symmetry_space_group_name_H-M "P -1"
_symmetry_group_IT_number 2
_symmetry_cell_setting 'triclinic'
loop_
_space_group_symop_operation_xyz
x,y,z
-x,-y,-z
loop_
_atom_site_type_symbol
_atom_site_label
_atom_site_fract_x
_atom_site_fract_y
_atom_site_fract_z
Si Si1 0.550242 0.834287 0.885015
Si Si2 0.581949 0.217825 0.501744
Si Si3 0.192390 0.954487 0.002421
Si Si4 0.621655 0.266078 0.678869
Si Si5 0.978136 0.905867 0.831628
Si Si6 0.849556 0.744053 0.534279
Si Si7 0.817890 0.688147 0.363652
Si Si8 0.047259 0.541867 0.897477
O O1 0.742563 0.791756 0.882805
O O2 0.308765 0.645514 0.886639
O O3 0.589579 0.876590 0.973791
O O4 0.601071 0.069666 0.787312
O O5 0.644346 0.206032 0.604392
O O6 0.387873 0.274769 0.480433
O O7 0.752548 0.435361 0.409496
O O8 0.500000 0.000000 0.500000
O O9 0.105940 0.698498 0.088834
O O10 0.172473 0.968424 0.900276
O O11 0.000000 0.000000 0.000000
O O12 0.812827 0.523784 0.638951
O O13 0.392505 0.270802 0.666066
O O14 0.989597 0.734435 0.818051
O O15 0.020236 0.129815 0.731771
O O16 0.906995 0.724317 0.453714
O O17 0.000000 0.000000 0.500000
O O18 0.000000 0.500000 0.000000
#
# Coordination Sequence:
#
# PCOD9005498 Si02
#       8
#     2   2   2   2   2   2   2   2
#     4  11  22  41  65  89 127 161 207 255 310 366
#     4   9  19  36  58  83 120 158 194 250 305 352
#     4   9  22  41  62  90 122 159 207 250 309 362
#     4   9  19  38  57  84 120 165 197 250 311 357
#     4  10  21  38  62  91 119 161 207 253 304 364
#     4   9  19  34  59  84 118 160 201 245 304 368
#     4   9  18  38  58  80 125 158 197 254 296 363
#     4  10  22  41  64  88 123 161 205 256 313 359
#
# _framework density 22.952119
#
# number of rings (size 3 to 8) (size 9 to 14) (size 15 to 20)
#    0.000    2.500    1.250    1.500    0.000    9.500 
#    4.500    5.000    2.750    0.000    0.000    0.000 
#    0.000    0.000    0.000    0.000    0.000    0.000 
#
# Total GULP energy -89266.453484 kJ/mol
# GULP energy per Si atom -5579.153343 kJ/mol
# Density = 2.289988 g / cm^3
# Si number density = 22.952119 Si / 1000 Ang^3
#
#
#
# Elastic Constant Matrix: (Units=GPa)
#
#
# Indices 1 2 3 4 5 6 
#
# 1 85.9518 3.5637 0.5310 2.4048 -4.0125 6.5652
# 2 3.5637 97.5194 12.1154 -22.3027 0.2327 -13.9005
# 3 0.5310 12.1154 80.3574 -21.6434 1.5464 -2.6125
# 4 2.4048 -22.3027 -21.6434 24.8543 2.1355 0.5640
# 5 -4.0125 0.2327 1.5464 2.1355 31.0177 -5.4456
# 6 6.5652 -13.9005 -2.6125 0.5640 -5.4456 29.6382
#
#
#
# Elastic Compliance Matrix: (Units=1/GPa)
#
#
# Indices 1 2 3 4 5 6 
#
# 1 0.012104 -0.001564 -0.000884 -0.003383 0.001294 -0.003190
# 2 -0.001564 0.014419 0.002031 0.014718 -0.000201 0.006971
# 3 -0.000884 0.002031 0.016702 0.016558 -0.001754 0.001983
# 4 -0.003383 0.014718 0.016558 0.068450 -0.004872 0.006914
# 5 0.001294 -0.000201 -0.001754 -0.004872 0.033846 0.005776
# 6 -0.003190 0.006971 0.001983 0.006914 0.005776 0.038821
#
#
# Mechanical properties :
#
#
# Convention : Reuss Voigt Hill
#
# Bulk Modulus (GPa) = 23.59009 32.91654 28.25332
# Shear Modulus (GPa) = 25.08714 33.60992 29.34853
#
# Velocity S-wave (km/s) = 3.30967 3.83083 3.57975
# Velocity P-wave (km/s) = 4.99054 5.82577 5.42426
#
# Compressibility (1/GPa) = 0.04239068
#
# Stress axis : x y z
#
# Youngs Moduli (GPa) = 82.62068 69.35111 59.87316
#
# Poissons Ratio (x) = 0.10847 0.05293
# Poissons Ratio (y) = 0.12922 -0.12160
# Poissons Ratio (z) = 0.07304 -0.14085
#
# Static dielectric constant tensor:
#      x y z
#    x 1.833940 -0.098170 0.029980 
#    y -0.098170 1.770980 0.011830 
#    z 0.029980 0.011830 1.873750 
# 
# From -- ./inp_files/328064.got.cif
#   From: 2010.05.17/outbox.cif.g08.bks.cpg/sg2_165_cif.got.tgz:328064.got - 2010.06.03 11:33:40.
