data_PCOD9005267
_publ_section_title
;
Structure prediction by ZEFSAII (Michael W. Deem and Ramdas Pophale) SiO2 
 PCOD9005267
Probable space group: P -1
;
_chemical_formula_sum "Si O2"
_cell_formula_units_Z 16
_cell_length_a 15.202750
_cell_length_b 18.690739
_cell_length_c 12.552809
_cell_angle_alpha 44.908506
_cell_angle_beta 48.380719
_cell_angle_gamma 19.309935
_cell_volume 832.558010
_symmetry_space_group_name_H-M "P -1"
_symmetry_group_IT_number 2
_symmetry_cell_setting 'triclinic'
loop_
_space_group_symop_operation_xyz
x,y,z
-x,-y,-z
loop_
_atom_site_type_symbol
_atom_site_label
_atom_site_fract_x
_atom_site_fract_y
_atom_site_fract_z
Si Si1 0.218299 0.481466 0.379388
Si Si2 0.232230 0.611137 0.849666
Si Si3 0.489137 0.093630 0.675121
Si Si4 0.364359 0.694878 0.334840
Si Si5 0.018105 0.604889 0.178569
Si Si6 0.284258 0.910373 0.349442
Si Si7 0.248232 0.815174 0.684976
Si Si8 0.771549 0.787317 0.575927
O O1 0.302574 0.300024 0.524904
O O2 0.091898 0.588806 0.252823
O O3 0.494771 0.329249 0.320722
O O4 0.002540 0.668031 0.449815
O O5 0.492611 0.400119 0.791932
O O6 0.262684 0.683964 0.826167
O O7 0.140239 0.583603 0.014994
O O8 0.999358 0.824384 0.731442
O O9 0.568416 0.115185 0.677040
O O10 0.302337 0.155794 0.816177
O O11 0.716333 0.875108 0.645527
O O12 0.500000 0.500000 0.500000
O O13 0.392425 0.776323 0.296063
O O14 0.050565 0.917424 0.330968
O O15 0.135125 0.401069 0.287868
O O16 0.269133 0.828073 0.529637
O O17 0.500000 0.000000 0.500000
#
# Coordination Sequence:
#
# PCOD9005267 Si02
#       8
#     2   2   2   2   2   2   2   2
#     4  10  21  38  62  92 119 152 206 247 295 356
#     4  11  23  38  59  87 126 162 194 248 304 355
#     4  10  21  39  63  89 118 155 203 247 293 359
#     4  11  19  39  64  86 121 157 206 241 292 359
#     4  11  23  39  57  90 128 156 196 250 305 351
#     4  10  21  38  62  90 115 156 200 251 298 348
#     4  10  21  38  61  90 117 157 200 249 298 349
#     4  11  19  39  67  87 114 163 203 241 296 357
#
# _framework density 19.217880999999998
#
# number of rings (size 3 to 8) (size 9 to 14) (size 15 to 20)
#    0.000    1.500    5.000    1.500    0.000    8.000 
#    0.000    1.875    0.000    0.000    0.000    0.000 
#    0.000    0.000    0.000    0.000    0.000    0.000 
#
# Total GULP energy -89200.951470 kJ/mol
# GULP energy per Si atom -5575.059467 kJ/mol
# Density = 1.917414 g / cm^3
# Si number density = 19.217881 Si / 1000 Ang^3
#
#
#
# Elastic Constant Matrix: (Units=GPa)
#
#
# Indices 1 2 3 4 5 6 
#
# 1 84.8451 50.9288 30.9700 9.8566 -11.4189 -14.9171
# 2 50.9288 113.8444 24.9692 28.6084 -4.5410 4.6472
# 3 30.9700 24.9692 62.6638 23.0345 -18.1394 -3.5318
# 4 9.8566 28.6084 23.0345 26.5326 -1.8709 -1.9152
# 5 -11.4189 -4.5410 -18.1394 -1.8709 12.8395 2.5607
# 6 -14.9171 4.6472 -3.5318 -1.9152 2.5607 24.0925
#
#
#
# Elastic Compliance Matrix: (Units=1/GPa)
#
#
# Indices 1 2 3 4 5 6 
#
# 1 0.026160 -0.014254 -0.013703 0.018744 -0.002123 0.018654
# 2 -0.014254 0.020313 0.009568 -0.025430 0.007136 -0.014121
# 3 -0.013703 0.009568 0.054850 -0.049264 0.064106 -0.013019
# 4 0.018744 -0.025430 -0.049264 0.098883 -0.052038 0.022680
# 5 -0.002123 0.007136 0.064106 -0.052038 0.164479 -0.014912
# 6 0.018654 -0.014121 -0.013019 0.022680 -0.014912 0.057260
#
#
# Mechanical properties :
#
#
# Convention : Reuss Voigt Hill
#
# Bulk Modulus (GPa) = 15.49266 52.78767 34.14017
# Shear Modulus (GPa) = 10.41153 22.99195 16.70174
#
# Velocity S-wave (km/s) = 2.33010 3.46263 2.95120
# Velocity P-wave (km/s) = 3.91386 6.59652 5.42367
#
# Compressibility (1/GPa) = 0.06454670
#
# Stress axis : x y z
#
# Youngs Moduli (GPa) = 38.22593 49.22843 18.23166
#
# Poissons Ratio (x) = 0.70169 0.24982
# Poissons Ratio (y) = 0.54487 -0.17444
# Poissons Ratio (z) = 0.52379 -0.47102
#
# Static dielectric constant tensor:
#      x y z
#    x 1.716550 -0.009540 -0.012800 
#    y -0.009540 1.710480 0.016230 
#    z -0.012800 0.016230 1.653520 
# 
# From -- ./inp_files/68572.got.cif
#   From: 2010.05.17/outbox.cif.g08.bks.cpg/sg2_35_cif.got.tgz:68572.got - 2010.06.03 11:33:40.
