data_PCOD9005893
_publ_section_title
;
Structure prediction by ZEFSAII (Michael W. Deem and Ramdas Pophale) SiO2 
 PCOD9005893
Probable space group: P -1
;
_chemical_formula_sum "Si O2"
_cell_formula_units_Z 14
_cell_length_a 22.369430
_cell_length_b 14.468804
_cell_length_c 10.573978
_cell_angle_alpha 146.055575
_cell_angle_beta 27.760978
_cell_angle_gamma 160.189489
_cell_volume 540.156780
_symmetry_space_group_name_H-M "P -1"
_symmetry_group_IT_number 2
_symmetry_cell_setting 'triclinic'
loop_
_space_group_symop_operation_xyz
x,y,z
-x,-y,-z
loop_
_atom_site_type_symbol
_atom_site_label
_atom_site_fract_x
_atom_site_fract_y
_atom_site_fract_z
Si Si1 0.397482 0.351580 0.201855
Si Si2 0.619970 0.112325 0.031704
Si Si3 0.827874 0.935298 0.179966
Si Si4 0.646407 0.789785 0.614552
Si Si5 0.241576 0.860643 0.834275
Si Si6 0.765815 0.478553 0.371299
Si Si7 0.042919 0.624481 0.696754
O O1 0.632682 0.643888 0.144454
O O2 0.262685 0.195643 0.410110
O O3 0.293620 0.389571 0.353357
O O4 0.393993 0.170330 0.933565
O O5 0.866558 0.369828 0.829366
O O6 0.553999 0.867162 0.930480
O O7 0.608822 0.265167 0.307806
O O8 0.500000 0.000000 0.000000
O O9 0.753080 0.954158 0.469056
O O10 0.951781 0.177122 0.123840
O O11 0.000000 0.000000 0.000000
O O12 0.500000 0.500000 0.500000
O O13 0.267306 0.711737 0.688356
O O14 0.242135 0.815115 0.633083
O O15 0.013520 0.708068 0.130249
O O16 0.000000 0.500000 0.500000
#
# Coordination Sequence:
#
# PCOD9005893 Si02
#       7
#     2   2   2   2   2   2   2
#     4  11  23  45  73 102 140 182 239 290 345 415
#     4  11  21  38  70  97 133 179 233 287 344 407
#     4  11  26  43  65 102 145 186 231 285 354 414
#     4  10  21  38  64 101 130 177 234 282 338 409
#     4  10  23  44  70 101 137 186 233 291 356 410
#     4  10  22  40  70 107 136 175 237 294 344 408
#     4  11  25  45  65  96 139 179 232 289 351 421
#
# _framework density 25.918400999999999
#
# number of rings (size 3 to 8) (size 9 to 14) (size 15 to 20)
#    0.000    1.429    2.857    2.143    8.000    0.571 
#    2.571    0.714    0.000    0.000    0.000    0.000 
#    0.000    0.000    0.000    0.000    0.000    0.000 
#
# Total GULP energy -77986.856463 kJ/mol
# GULP energy per Si atom -5570.489747 kJ/mol
# Density = 2.585941 g / cm^3
# Si number density = 25.918401 Si / 1000 Ang^3
#
#
#
# Elastic Constant Matrix: (Units=GPa)
#
#
# Indices 1 2 3 4 5 6 
#
# 1 134.2214 21.1317 27.8831 27.7021 -15.7324 14.1010
# 2 21.1317 104.6351 48.1246 30.8935 -9.3778 14.8516
# 3 27.8831 48.1246 88.6932 28.0006 -13.4741 10.9873
# 4 27.7021 30.8935 28.0006 41.0619 1.5912 -5.1832
# 5 -15.7324 -9.3778 -13.4741 1.5912 52.0767 13.6545
# 6 14.1010 14.8516 10.9873 -5.1832 13.6545 36.9438
#
#
#
# Elastic Compliance Matrix: (Units=1/GPa)
#
#
# Indices 1 2 3 4 5 6 
#
# 1 0.011129 0.002848 0.001033 -0.011894 0.007128 -0.010003
# 2 0.002848 0.016756 -0.003202 -0.014008 0.006416 -0.011207
# 3 0.001033 -0.003202 0.018982 -0.012695 0.007472 -0.009295
# 4 -0.011894 -0.014008 -0.012695 0.055915 -0.018628 0.028676
# 5 0.007128 0.006416 0.007472 -0.018628 0.030641 -0.021460
# 6 -0.010003 -0.011207 -0.009295 0.028676 -0.021460 0.050111
#
#
# Mechanical properties :
#
#
# Convention : Reuss Voigt Hill
#
# Bulk Modulus (GPa) = 20.73628 57.98092 39.35860
# Shear Modulus (GPa) = 25.22078 41.37717 33.29898
#
# Velocity S-wave (km/s) = 3.12281 3.99988 3.58825
# Velocity P-wave (km/s) = 4.58482 6.61447 5.69086
#
# Compressibility (1/GPa) = 0.04822465
#
# Stress axis : x y z
#
# Youngs Moduli (GPa) = 89.85869 59.68023 52.68243
#
# Poissons Ratio (x) = -0.16994 -0.05444
# Poissons Ratio (y) = -0.25588 0.16867
# Poissons Ratio (z) = -0.09285 0.19108
#
# Static dielectric constant tensor:
#      x y z
#    x 2.020840 -0.038680 0.187490 
#    y -0.038680 1.932110 0.060480 
#    z 0.187490 0.060480 1.642850 
# 
# From -- ./inp_files/475202.got.cif
#   From: 2010.05.17/outbox.cif.g08.bks.cpg/sg2_238_cif.got.tgz:475202.got - 2010.06.03 11:33:40.
