data_PCOD9005880
_publ_section_title
;
Structure prediction by ZEFSAII (Michael W. Deem and Ramdas Pophale) SiO2 
 PCOD9005880
Probable space group: P -1
;
_chemical_formula_sum "Si O2"
_cell_formula_units_Z 12
_cell_length_a 5.327010
_cell_length_b 10.588480
_cell_length_c 9.395394
_cell_angle_alpha 117.403439
_cell_angle_beta 83.429208
_cell_angle_gamma 87.064233
_cell_volume 464.136064
_symmetry_space_group_name_H-M "P -1"
_symmetry_group_IT_number 2
_symmetry_cell_setting 'triclinic'
loop_
_space_group_symop_operation_xyz
x,y,z
-x,-y,-z
loop_
_atom_site_type_symbol
_atom_site_label
_atom_site_fract_x
_atom_site_fract_y
_atom_site_fract_z
Si Si1 0.832470 0.106872 0.220506
Si Si2 0.998430 0.814805 0.215346
Si Si3 0.360582 0.603315 0.444223
Si Si4 0.550361 0.658162 0.029623
Si Si5 0.147668 0.314358 0.570567
Si Si6 0.673351 0.797500 0.812029
O O1 0.746612 0.247154 0.395404
O O2 0.573754 0.091656 0.146621
O O3 0.066720 0.143087 0.126078
O O4 0.924392 0.972139 0.240969
O O5 0.809866 0.710481 0.101801
O O6 0.939301 0.804547 0.381530
O O7 0.294017 0.760479 0.142417
O O8 0.500000 0.500000 0.500000
O O9 0.601264 0.631427 0.348618
O O10 0.099317 0.568271 0.370359
O O11 0.500000 0.500000 0.000000
O O12 0.580809 0.685171 0.871295
O O13 0.240528 0.262119 0.381257
#
# Coordination Sequence:
#
# PCOD9005880 Si02
#       6
#     2   2   2   2   2   2
#     4  10  23  41  68 102 137 178 230 281 338 411
#     4  12  26  44  70 102 138 179 229 288 345 404
#     4  10  21  38  63  99 139 176 220 277 338 399
#     4  12  28  48  68  98 139 182 230 287 350 411
#     4  10  23  41  68 100 133 177 228 281 340 405
#     4  10  23  44  70  97 137 182 227 280 343 413
#
# _framework density 25.854486999999999
#
# number of rings (size 3 to 8) (size 9 to 14) (size 15 to 20)
#    0.000    1.333    0.000    4.000    0.000   17.333 
#    0.000    0.000    0.000    0.000    0.000    0.000 
#    0.000    0.000    0.000    0.000    0.000    0.000 
#
# Total GULP energy -67125.089766 kJ/mol
# GULP energy per Si atom -5593.757480 kJ/mol
# Density = 2.579564 g / cm^3
# Si number density = 25.854487 Si / 1000 Ang^3
#
#
#
# Elastic Constant Matrix: (Units=GPa)
#
#
# Indices 1 2 3 4 5 6 
#
# 1 213.7198 28.6811 27.7028 4.9960 -43.0857 -14.7813
# 2 28.6811 191.1023 55.1275 -20.0348 -32.6852 -12.4778
# 3 27.7028 55.1275 110.0602 -31.9825 -10.7599 3.2548
# 4 4.9960 -20.0348 -31.9825 50.7571 8.8394 -9.9503
# 5 -43.0857 -32.6852 -10.7599 8.8394 50.5536 -0.4418
# 6 -14.7813 -12.4778 3.2548 -9.9503 -0.4418 44.6711
#
#
#
# Elastic Compliance Matrix: (Units=1/GPa)
#
#
# Indices 1 2 3 4 5 6 
#
# 1 0.006173 0.000476 -0.001959 -0.002256 0.005562 0.001871
# 2 0.000476 0.007002 -0.003147 0.000491 0.004198 0.002493
# 3 -0.001959 -0.003147 0.013126 0.007442 -0.002219 -0.000848
# 4 -0.002256 0.000491 0.007442 0.026535 -0.004620 0.004713
# 5 0.005562 0.004198 -0.002219 -0.004620 0.027592 0.002419
# 6 0.001871 0.002493 -0.000848 0.004713 0.002419 0.024837
#
#
# Mechanical properties :
#
#
# Convention : Reuss Voigt Hill
#
# Bulk Modulus (GPa) = 58.68913 81.98946 70.33929
# Shear Modulus (GPa) = 41.59527 56.08774 48.84151
#
# Velocity S-wave (km/s) = 4.01536 4.66269 4.35108
# Velocity P-wave (km/s) = 6.65181 7.79541 7.24620
#
# Compressibility (1/GPa) = 0.01703893
#
# Stress axis : x y z
#
# Youngs Moduli (GPa) = 162.00713 142.82262 76.18441
#
# Poissons Ratio (x) = -0.06794 0.14925
# Poissons Ratio (y) = -0.07706 0.23977
# Poissons Ratio (z) = 0.31739 0.44950
#
# Static dielectric constant tensor:
#      x y z
#    x 2.365100 0.201050 0.276910 
#    y 0.201050 2.115390 0.127380 
#    z 0.276910 0.127380 2.230780 
# 
# From -- ./inp_files/360289.got.cif
#   From: 2010.05.17/outbox.cif.g08.bks.cpg/sg2_181_cif.got.tgz:360289.got - 2010.06.03 11:33:40.
