data_PCOD9005385
_publ_section_title
;
Structure prediction by ZEFSAII (Michael W. Deem and Ramdas Pophale) SiO2 
 PCOD9005385
Probable space group: P -1
;
_chemical_formula_sum "Si O2"
_cell_formula_units_Z 16
_cell_length_a 11.604794
_cell_length_b 5.408306
_cell_length_c 14.116294
_cell_angle_alpha 72.222749
_cell_angle_beta 121.347130
_cell_angle_gamma 87.497970
_cell_volume 697.826312
_symmetry_space_group_name_H-M "P -1"
_symmetry_group_IT_number 2
_symmetry_cell_setting 'triclinic'
loop_
_space_group_symop_operation_xyz
x,y,z
-x,-y,-z
loop_
_atom_site_type_symbol
_atom_site_label
_atom_site_fract_x
_atom_site_fract_y
_atom_site_fract_z
Si Si1 0.373084 0.430747 0.272214
Si Si2 0.854513 0.299188 0.724819
Si Si3 0.863103 0.554421 0.153980
Si Si4 0.656011 0.414232 0.449960
Si Si5 0.272250 0.919664 0.039069
Si Si6 0.360323 0.716317 0.889416
Si Si7 0.596300 0.037354 0.313793
Si Si8 0.005081 0.228247 0.088498
O O1 0.230080 0.477720 0.263227
O O2 0.495338 0.415093 0.403152
O O3 0.368273 0.689174 0.171611
O O4 0.436998 0.167680 0.266967
O O5 0.765881 0.313722 0.590705
O O6 0.013200 0.319850 0.769540
O O7 0.863324 0.017243 0.813876
O O8 0.755262 0.433849 0.180517
O O9 0.953640 0.310015 0.162298
O O10 0.761893 0.757663 0.012674
O O11 0.678048 0.215394 0.391284
O O12 0.651191 0.723645 0.392081
O O13 0.311905 0.860238 0.952063
O O14 0.119350 0.877219 0.996702
O O15 0.391109 0.904845 0.798072
O O16 0.500000 0.500000 0.000000
O O17 0.000000 0.500000 0.000000
#
# Coordination Sequence:
#
# PCOD9005385 Si02
#       8
#     2   2   2   2   2   2   2   2
#     4  10  22  38  66 101 134 178 225 273 337 405
#     4  11  23  43  65  95 137 180 218 281 332 405
#     4  10  24  37  65  93 132 171 224 270 352 398
#     4  10  25  44  66 101 135 182 233 272 332 397
#     4  10  21  38  62 101 131 168 220 274 347 399
#     4  11  22  41  67  95 132 176 219 289 338 400
#     4  10  25  43  67 103 132 179 237 275 335 396
#     4  10  21  38  62  95 133 173 215 272 341 405
#
# _framework density 22.928339999999999
#
# number of rings (size 3 to 8) (size 9 to 14) (size 15 to 20)
#    0.750    1.000    1.250    1.875    5.250    5.000 
#    0.000    1.250    0.000    0.000    0.000    0.000 
#    0.000    0.000    0.000    0.000    0.000    0.000 
#
# Total GULP energy -89203.356945 kJ/mol
# GULP energy per Si atom -5575.209809 kJ/mol
# Density = 2.287615 g / cm^3
# Si number density = 22.928340 Si / 1000 Ang^3
#
#
#
# Elastic Constant Matrix: (Units=GPa)
#
#
# Indices 1 2 3 4 5 6 
#
# 1 96.2629 18.1494 32.7457 2.0488 5.5638 0.7568
# 2 18.1494 90.0579 28.3291 -10.0136 2.5305 -8.7306
# 3 32.7457 28.3291 127.3137 5.0481 19.0598 -6.4873
# 4 2.0488 -10.0136 5.0481 29.6886 -0.7504 -4.7317
# 5 5.5638 2.5305 19.0598 -0.7504 25.2951 7.7102
# 6 0.7568 -8.7306 -6.4873 -4.7317 7.7102 25.2001
#
#
#
# Elastic Compliance Matrix: (Units=1/GPa)
#
#
# Indices 1 2 3 4 5 6 
#
# 1 0.011678 -0.001854 -0.002670 -0.001288 0.000195 -0.001982
# 2 -0.001854 0.013421 -0.002378 0.005902 -0.000611 0.005389
# 3 -0.002670 -0.002378 0.010644 -0.001967 -0.008547 0.004242
# 4 -0.001288 0.005902 -0.001967 0.037479 -0.000373 0.008729
# 5 0.000195 -0.000611 -0.008547 -0.000373 0.051546 -0.018259
# 6 -0.001982 0.005389 0.004242 0.008729 -0.018259 0.049926
#
#
# Mechanical properties :
#
#
# Convention : Reuss Voigt Hill
#
# Bulk Modulus (GPa) = 45.58003 52.45366 49.01685
# Shear Modulus (GPa) = 25.53478 31.66412 28.59945
#
# Velocity S-wave (km/s) = 3.34080 3.72022 3.53560
# Velocity P-wave (km/s) = 5.89947 6.43275 6.17187
#
# Compressibility (1/GPa) = 0.02193943
#
# Stress axis : x y z
#
# Youngs Moduli (GPa) = 85.63214 74.50766 93.94929
#
# Poissons Ratio (x) = 0.13817 0.25085
# Poissons Ratio (y) = 0.15880 0.22337
# Poissons Ratio (z) = 0.22864 0.17714
#
# Static dielectric constant tensor:
#      x y z
#    x 1.901320 0.000370 0.012210 
#    y 0.000370 1.972390 0.004280 
#    z 0.012210 0.004280 1.860940 
# 
# From -- ./inp_files/510752.got.cif
#   From: 2010.05.17/outbox.cif.g08.bks.cpg/sg2_256_cif.got.tgz:510752.got - 2010.06.03 11:33:40.
