data_PCOD9005285
_publ_section_title
;
Structure prediction by ZEFSAII (Michael W. Deem and Ramdas Pophale) SiO2 
 PCOD9005285
Probable space group: P -1
;
_chemical_formula_sum "Si O2"
_cell_formula_units_Z 16
_cell_length_a 8.907390
_cell_length_b 15.054115
_cell_length_c 13.478529
_cell_angle_alpha 48.389092
_cell_angle_beta 146.895658
_cell_angle_gamma 136.585186
_cell_volume 670.948212
_symmetry_space_group_name_H-M "P -1"
_symmetry_group_IT_number 2
_symmetry_cell_setting 'triclinic'
loop_
_space_group_symop_operation_xyz
x,y,z
-x,-y,-z
loop_
_atom_site_type_symbol
_atom_site_label
_atom_site_fract_x
_atom_site_fract_y
_atom_site_fract_z
Si Si1 0.231307 0.098671 0.203879
Si Si2 0.991412 0.537903 0.128940
Si Si3 0.405421 0.311192 0.974693
Si Si4 0.672514 0.586333 0.721495
Si Si5 0.970352 0.858769 0.745121
Si Si6 0.414969 0.026586 0.623394
Si Si7 0.827956 0.333114 0.663510
Si Si8 0.449207 0.111533 0.010870
O O1 0.245262 0.189388 0.050919
O O2 0.257819 0.179448 0.258786
O O3 0.464638 0.037818 0.349120
O O4 0.902330 0.980751 0.125566
O O5 0.720965 0.410640 0.121252
O O6 0.241017 0.498160 0.247025
O O7 0.132553 0.644927 0.212113
O O8 0.806737 0.567134 0.915452
O O9 0.473990 0.251744 0.956213
O O10 0.163425 0.370437 0.780787
O O11 0.866710 0.741271 0.696160
O O12 0.337175 0.578291 0.532977
O O13 0.911997 0.978709 0.579692
O O14 0.305644 0.875919 0.946267
O O15 0.632875 0.180383 0.642766
O O16 0.439032 0.952902 0.789713
#
# Coordination Sequence:
#
# PCOD9005285 Si02
#       8
#     2   2   2   2   2   2   2   2
#     4  11  21  39  63  89 124 163 200 252 314 372
#     4  11  23  43  66  89 127 166 208 261 312 367
#     4  11  21  40  64  89 122 165 208 252 311 369
#     4  10  24  41  63  95 128 158 211 265 305 370
#     4  11  22  37  61  93 123 158 205 256 311 367
#     4  10  21  38  61  90 127 156 203 255 306 375
#     4  11  21  40  67  90 124 169 204 253 317 367
#     4  11  20  39  63  87 123 163 200 249 313 372
#
# _framework density 23.846848000000001
#
# number of rings (size 3 to 8) (size 9 to 14) (size 15 to 20)
#    0.000    1.250    3.750    3.375    0.000    0.500 
#    0.000    1.250    2.750    0.000    0.000    0.000 
#    0.000    0.000    0.000    0.000    0.000    0.000 
#
# Total GULP energy -89361.885486 kJ/mol
# GULP energy per Si atom -5585.117843 kJ/mol
# Density = 2.379257 g / cm^3
# Si number density = 23.846848 Si / 1000 Ang^3
#
#
#
# Elastic Constant Matrix: (Units=GPa)
#
#
# Indices 1 2 3 4 5 6 
#
# 1 96.4112 24.0623 50.5115 -15.7735 26.5382 -25.7237
# 2 24.0623 53.3442 11.1693 -3.7613 8.1762 -14.3721
# 3 50.5115 11.1693 132.0234 -24.3312 29.4482 -21.1704
# 4 -15.7735 -3.7613 -24.3312 30.3297 -11.7030 6.8045
# 5 26.5382 8.1762 29.4482 -11.7030 41.0190 -9.1275
# 6 -25.7237 -14.3721 -21.1704 6.8045 -9.1275 32.0342
#
#
#
# Elastic Compliance Matrix: (Units=1/GPa)
#
#
# Indices 1 2 3 4 5 6 
#
# 1 0.016990 -0.003904 -0.003364 0.001772 -0.005579 0.007702
# 2 -0.003904 0.022424 0.000917 -0.000600 -0.001141 0.007333
# 3 -0.003364 0.000917 0.011034 0.005099 -0.003845 0.002823
# 4 0.001772 -0.000600 0.005099 0.040928 0.006472 -0.002326
# 5 -0.005579 -0.001141 -0.003845 0.006472 0.032928 0.000475
# 6 0.007702 0.007333 0.002823 -0.002326 0.000475 0.043187
#
#
# Mechanical properties :
#
#
# Convention : Reuss Voigt Hill
#
# Bulk Modulus (GPa) = 26.49377 50.36277 38.42827
# Shear Modulus (GPa) = 25.93709 33.74562 29.84136
#
# Velocity S-wave (km/s) = 3.30154 3.76586 3.54132
# Velocity P-wave (km/s) = 5.06632 6.33041 5.73331
#
# Compressibility (1/GPa) = 0.03774472
#
# Stress axis : x y z
#
# Youngs Moduli (GPa) = 58.85928 44.59573 90.62995
#
# Poissons Ratio (x) = 0.17411 0.30485
# Poissons Ratio (y) = 0.22979 -0.08307
# Poissons Ratio (z) = 0.19799 -0.04087
#
# Static dielectric constant tensor:
#      x y z
#    x 1.967160 0.022960 -0.027400 
#    y 0.022960 1.978450 0.020190 
#    z -0.027400 0.020190 1.961610 
# 
# From -- ./inp_files/185330.got.cif
#   From: 2010.05.17/outbox.cif.g08.bks.cpg/sg2_93_cif.got.tgz:185330.got - 2010.06.03 11:33:40.
