data_PCOD9005436
_publ_section_title
;
Structure prediction by ZEFSAII (Michael W. Deem and Ramdas Pophale) SiO2 
 PCOD9005436
Probable space group: P -1
;
_chemical_formula_sum "Si O2"
_cell_formula_units_Z 16
_cell_length_a 8.735493
_cell_length_b 8.766454
_cell_length_c 14.970677
_cell_angle_alpha 74.597597
_cell_angle_beta 89.256302
_cell_angle_gamma 44.244724
_cell_volume 743.907485
_symmetry_space_group_name_H-M "P -1"
_symmetry_group_IT_number 2
_symmetry_cell_setting 'triclinic'
loop_
_space_group_symop_operation_xyz
x,y,z
-x,-y,-z
loop_
_atom_site_type_symbol
_atom_site_label
_atom_site_fract_x
_atom_site_fract_y
_atom_site_fract_z
Si Si1 0.307703 0.178301 0.605471
Si Si2 0.001640 0.723857 0.542420
Si Si3 0.170169 0.882519 0.932587
Si Si4 0.281873 0.671234 0.411453
Si Si5 0.011083 0.724998 0.262785
Si Si6 0.032400 0.472509 0.139086
Si Si7 0.676316 0.593763 0.009757
Si Si8 0.211647 0.072089 0.306041
O O1 0.234400 0.156245 0.516554
O O2 0.194856 0.160580 0.687354
O O3 0.181765 0.444804 0.569585
O O4 0.569106 0.003115 0.648345
O O5 0.976771 0.776819 0.638069
O O6 0.082119 0.802802 0.465285
O O7 0.404190 0.796040 0.970145
O O8 0.048589 0.073790 0.825205
O O9 0.246595 0.647801 0.939813
O O10 0.000000 0.000000 0.000000
O O11 0.500000 0.500000 0.500000
O O12 0.227767 0.583679 0.348762
O O13 0.276846 0.840416 0.334118
O O14 0.035491 0.565417 0.216864
O O15 0.191005 0.445786 0.073187
O O16 0.132996 0.221994 0.195699
O O17 0.780570 0.630319 0.078484
#
# Coordination Sequence:
#
# PCOD9005436 Si02
#       8
#     2   2   2   2   2   2   2   2
#     4  10  21  38  62  88 126 161 214 269 309 379
#     4  10  21  39  60  88 123 165 213 265 318 375
#     4  11  22  45  70  99 129 174 209 270 335 389
#     4  11  24  42  62  94 134 171 215 270 318 381
#     4  11  23  43  65  96 131 172 217 260 329 385
#     4  11  23  43  66 100 129 175 218 274 318 398
#     4  10  24  45  67  97 138 163 221 269 329 389
#     4  12  22  39  65  93 121 170 217 258 326 377
#
# _framework density 21.508050999999998
#
# number of rings (size 3 to 8) (size 9 to 14) (size 15 to 20)
#    0.000    1.250    3.750    2.250    0.000    1.500 
#    6.750    1.250    0.000    0.000    0.000    0.000 
#    0.000    0.000    0.000    0.000    0.000    0.000 
#
# Total GULP energy -89354.830179 kJ/mol
# GULP energy per Si atom -5584.676886 kJ/mol
# Density = 2.145910 g / cm^3
# Si number density = 21.508051 Si / 1000 Ang^3
#
#
#
# Elastic Constant Matrix: (Units=GPa)
#
#
# Indices 1 2 3 4 5 6 
#
# 1 127.3174 21.8031 52.0431 -1.0940 13.3196 -14.1325
# 2 21.8031 24.4344 19.5190 -2.1924 13.4326 -1.3830
# 3 52.0431 19.5190 98.1531 -8.6624 4.9023 3.5196
# 4 -1.0940 -2.1924 -8.6624 31.6225 8.1276 0.6127
# 5 13.3196 13.4326 4.9023 8.1276 54.1606 -11.3977
# 6 -14.1325 -1.3830 3.5196 0.6127 -11.3977 30.2721
#
#
#
# Elastic Compliance Matrix: (Units=1/GPa)
#
#
# Indices 1 2 3 4 5 6 
#
# 1 0.011730 -0.006415 -0.005362 -0.001820 0.000754 0.006127
# 2 -0.006415 0.060826 -0.007252 0.005912 -0.014805 -0.005067
# 3 -0.005362 -0.007252 0.014921 0.003409 0.000303 -0.004524
# 4 -0.001820 0.005912 0.003409 0.034923 -0.007518 -0.004513
# 5 0.000754 -0.014805 0.000303 -0.007518 0.024987 0.009200
# 6 0.006127 -0.005067 -0.004524 -0.004513 0.009200 0.039744
#
#
# Mechanical properties :
#
#
# Convention : Reuss Voigt Hill
#
# Bulk Modulus (GPa) = 20.23477 48.51503 34.37490
# Shear Modulus (GPa) = 20.69002 33.64704 27.16853
#
# Velocity S-wave (km/s) = 3.10492 3.95953 3.55798
# Velocity P-wave (km/s) = 4.72043 6.59617 5.73550
#
# Compressibility (1/GPa) = 0.04941990
#
# Stress axis : x y z
#
# Youngs Moduli (GPa) = 85.24865 16.44046 67.01818
#
# Poissons Ratio (x) = 0.10546 0.35936
# Poissons Ratio (y) = 0.54686 0.48600
# Poissons Ratio (z) = 0.45711 0.11922
#
# Static dielectric constant tensor:
#      x y z
#    x 1.810790 0.038620 0.011650 
#    y 0.038620 1.784090 -0.024120 
#    z 0.011650 -0.024120 1.777830 
# 
# From -- ./inp_files/186451.got.cif
#   From: 2010.05.17/outbox.cif.g08.bks.cpg/sg2_94_cif.got.tgz:186451.got - 2010.06.03 11:33:40.
