data_PCOD9005019
_publ_section_title
;
Structure prediction by ZEFSAII (Michael W. Deem and Ramdas Pophale) SiO2 
 PCOD9005019
Probable space group: P -1
;
_chemical_formula_sum "Si O2"
_cell_formula_units_Z 16
_cell_length_a 5.472075
_cell_length_b 18.468942
_cell_length_c 11.809352
_cell_angle_alpha 56.332273
_cell_angle_beta 52.645029
_cell_angle_gamma 80.387614
_cell_volume 763.250401
_symmetry_space_group_name_H-M "P -1"
_symmetry_group_IT_number 2
_symmetry_cell_setting 'triclinic'
loop_
_space_group_symop_operation_xyz
x,y,z
-x,-y,-z
loop_
_atom_site_type_symbol
_atom_site_label
_atom_site_fract_x
_atom_site_fract_y
_atom_site_fract_z
Si Si1 0.710062 0.928682 0.513101
Si Si2 0.159290 0.728935 0.479460
Si Si3 0.140478 0.805013 0.168297
Si Si4 0.540821 0.514122 0.305434
Si Si5 0.717500 0.644654 0.327681
Si Si6 0.400225 0.059713 0.219396
Si Si7 0.398778 0.116589 0.659132
Si Si8 0.218186 0.463968 0.198604
O O1 0.637008 0.891978 0.692777
O O2 0.641809 0.864948 0.478682
O O3 0.500000 0.000000 0.500000
O O4 0.062601 0.991930 0.349773
O O5 0.133889 0.761232 0.331050
O O6 0.459781 0.685889 0.426807
O O7 0.269800 0.816524 0.451161
O O8 0.875039 0.645232 0.669384
O O9 0.033927 0.723476 0.180231
O O10 0.877137 0.861731 0.205991
O O11 0.464422 0.871446 0.977768
O O12 0.606554 0.611039 0.263011
O O13 0.298286 0.444439 0.517122
O O14 0.369301 0.503448 0.242404
O O15 0.890521 0.491530 0.232361
O O16 0.613695 0.988380 0.235474
O O17 0.500000 0.500000 0.000000
#
# Coordination Sequence:
#
# PCOD9005019 Si02
#       8
#     2   2   2   2   2   2   2   2
#     4   9  20  39  58  78 115 155 205 246 306 368
#     4  10  22  37  60  87 124 155 201 257 309 366
#     4  11  21  37  60  90 126 151 209 259 307 373
#     4  10  21  40  68  89 122 168 207 255 318 374
#     4   9  21  37  61  89 120 155 200 260 312 366
#     4  10  21  38  61  87 116 164 204 254 309 371
#     4  10  21  38  60  87 119 164 197 257 313 371
#     4  11  23  42  64  93 128 169 210 253 311 384
#
# _framework density 20.962975
#
# number of rings (size 3 to 8) (size 9 to 14) (size 15 to 20)
#    0.000    2.000    1.250    1.500    1.750    7.500 
#    2.250    3.750    0.000    0.000    0.000    0.000 
#    0.000    0.000    0.000    0.000    0.000    0.000 
#
# Total GULP energy -89219.472985 kJ/mol
# GULP energy per Si atom -5576.217062 kJ/mol
# Density = 2.091526 g / cm^3
# Si number density = 20.962975 Si / 1000 Ang^3
#
#
#
# Elastic Constant Matrix: (Units=GPa)
#
#
# Indices 1 2 3 4 5 6 
#
# 1 61.4461 11.8544 16.5996 2.7237 -1.4969 17.0982
# 2 11.8544 82.0835 29.9825 -6.6292 -1.6840 26.8676
# 3 16.5996 29.9825 131.1079 -1.5939 0.5075 6.4635
# 4 2.7237 -6.6292 -1.5939 14.0331 -5.5658 -3.2592
# 5 -1.4969 -1.6840 0.5075 -5.5658 15.1147 2.9955
# 6 17.0982 26.8676 6.4635 -3.2592 2.9955 31.4199
#
#
#
# Elastic Compliance Matrix: (Units=1/GPa)
#
#
# Indices 1 2 3 4 5 6 
#
# 1 0.020523 0.001848 -0.002452 -0.005242 0.002981 -0.013072
# 2 0.001848 0.019759 -0.003845 0.008086 0.008884 -0.017119
# 3 -0.002452 -0.003845 0.008673 -0.000330 -0.001671 0.002963
# 4 -0.005242 0.008086 -0.000330 0.089640 0.032973 0.002161
# 5 0.002981 0.008884 -0.001671 0.032973 0.082280 -0.013299
# 6 -0.013072 -0.017119 0.002963 0.002161 -0.013299 0.054462
#
#
# Mechanical properties :
#
#
# Convention : Reuss Voigt Hill
#
# Bulk Modulus (GPa) = 24.96355 43.50118 34.23236
# Shear Modulus (GPa) = 16.80186 26.52692 21.66439
#
# Velocity S-wave (km/s) = 2.83415 3.56113 3.21823
# Velocity P-wave (km/s) = 4.75859 6.14047 5.49315
#
# Compressibility (1/GPa) = 0.04005841
#
# Stress axis : x y z
#
# Youngs Moduli (GPa) = 48.72642 50.61007 115.29543
#
# Poissons Ratio (x) = -0.09354 0.28269
# Poissons Ratio (y) = -0.09006 0.44328
# Poissons Ratio (z) = 0.11947 0.19458
#
# Static dielectric constant tensor:
#      x y z
#    x 1.861460 -0.026190 0.011890 
#    y -0.026190 1.810290 0.001460 
#    z 0.011890 0.001460 1.728820 
# 
# From -- ./inp_files/47092.got.cif
#   From: 2010.05.17/outbox.cif.g08.bks.cpg/sg2_24_cif.got.tgz:47092.got - 2010.06.03 11:33:40.
