data_PCOD9005642
_publ_section_title
;
Structure prediction by ZEFSAII (Michael W. Deem and Ramdas Pophale) SiO2 
 PCOD9005642
Probable space group: P -1
;
_chemical_formula_sum "Si O2"
_cell_formula_units_Z 15
_cell_length_a 8.779322
_cell_length_b 14.380154
_cell_length_c 11.887127
_cell_angle_alpha 129.412886
_cell_angle_beta 33.932395
_cell_angle_gamma 120.351090
_cell_volume 646.416657
_symmetry_space_group_name_H-M "P -1"
_symmetry_group_IT_number 2
_symmetry_cell_setting 'triclinic'
loop_
_space_group_symop_operation_xyz
x,y,z
-x,-y,-z
loop_
_atom_site_type_symbol
_atom_site_label
_atom_site_fract_x
_atom_site_fract_y
_atom_site_fract_z
Si Si1 0.623051 0.219213 0.494428
Si Si2 0.500000 0.000000 0.000000
Si Si3 0.333696 0.036231 0.396270
Si Si4 0.403922 0.398575 0.179592
Si Si5 0.834052 0.603649 0.061758
Si Si6 0.099673 0.582502 0.659718
Si Si7 0.976753 0.172149 0.452356
Si Si8 0.932132 0.266255 0.778415
O O1 0.563900 0.094561 0.376125
O O2 0.345018 0.273934 0.762798
O O3 0.848817 0.217265 0.449761
O O4 0.707239 0.313597 0.420454
O O5 0.434531 0.017874 0.193465
O O6 0.252076 0.096942 0.201450
O O7 0.077840 0.138402 0.629711
O O8 0.228329 0.919346 0.432634
O O9 0.624951 0.498579 0.095687
O O10 0.197371 0.389212 0.194788
O O11 0.222557 0.457957 0.436407
O O12 0.603558 0.284495 0.001858
O O13 0.945100 0.632680 0.139782
O O14 0.071009 0.583698 0.811122
O O15 0.006283 0.273071 0.607098
#
# Coordination Sequence:
#
# PCOD9005642 Si02
#       8
#     2   1   2   2   2   2   2   2
#     4  10  23  40  62  89 118 159 204 242 294 355
#     4  10  22  38  60  88 118 150 198 248 294 348
#     4  10  23  42  61  88 122 158 201 249 296 350
#     4  10  21  39  60  90 122 155 196 241 300 361
#     4  10  21  40  62  89 123 154 193 247 298 359
#     4  10  22  38  61  91 121 154 199 246 292 354
#     4  11  23  41  62  87 121 161 200 247 298 350
#     4  10  21  38  63  87 117 157 195 240 300 353
#
# _framework density 23.204847999999998
#
# number of rings (size 3 to 8) (size 9 to 14) (size 15 to 20)
#    0.000    1.867    0.000    3.600    0.000    9.600 
#    0.000    6.667    0.000    0.000    0.000    0.000 
#    0.000    0.000    0.000    0.000    0.000    0.000 
#
# Total GULP energy -83600.869575 kJ/mol
# GULP energy per Si atom -5573.391305 kJ/mol
# Density = 2.315203 g / cm^3
# Si number density = 23.204848 Si / 1000 Ang^3
#
#
#
# Elastic Constant Matrix: (Units=GPa)
#
#
# Indices 1 2 3 4 5 6 
#
# 1 88.9530 6.4285 55.5401 8.3085 12.4233 2.7568
# 2 6.4285 67.2310 17.1074 -5.2894 32.5326 3.6839
# 3 55.5401 17.1074 143.7782 15.7207 11.7383 0.5738
# 4 8.3085 -5.2894 15.7207 18.8703 -2.9276 6.8058
# 5 12.4233 32.5326 11.7383 -2.9276 44.6098 1.9676
# 6 2.7568 3.6839 0.5738 6.8058 1.9676 24.7730
#
#
#
# Elastic Compliance Matrix: (Units=1/GPa)
#
#
# Indices 1 2 3 4 5 6 
#
# 1 0.015425 0.001958 -0.005633 -0.001850 -0.004318 -0.001026
# 2 0.001958 0.024500 -0.003106 0.007608 -0.016896 -0.004537
# 3 -0.005633 -0.003106 0.010327 -0.008010 0.000458 0.003014
# 4 -0.001850 0.007608 -0.008010 0.070323 0.002583 -0.020265
# 5 -0.004318 -0.016896 0.000458 0.002583 0.036016 -0.000588
# 6 -0.001026 -0.004537 0.003014 -0.020265 -0.000588 0.046700
#
#
# Mechanical properties :
#
#
# Convention : Reuss Voigt Hill
#
# Bulk Modulus (GPa) = 27.25413 50.90158 39.07786
# Shear Modulus (GPa) = 21.82631 32.37636 27.10133
#
# Velocity S-wave (km/s) = 3.07024 3.73934 3.42119
# Velocity P-wave (km/s) = 4.93345 6.37393 5.69938
#
# Compressibility (1/GPa) = 0.03669168
#
# Stress axis : x y z
#
# Youngs Moduli (GPa) = 64.83045 40.81594 96.83407
#
# Poissons Ratio (x) = -0.07994 0.54543
# Poissons Ratio (y) = -0.12697 0.30077
# Poissons Ratio (z) = 0.36517 0.12678
#
# Static dielectric constant tensor:
#      x y z
#    x 1.863480 0.006400 -0.021670 
#    y 0.006400 1.922120 0.023310 
#    z -0.021670 0.023310 1.871030 
# 
# From -- ./inp_files/76346.got.cif
#   From: 2010.05.17/outbox.cif.g08.bks.cpg/sg2_39_cif.got.tgz:76346.got - 2010.06.03 11:33:40.
