data_PCOD9005841
_publ_section_title
;
Structure prediction by ZEFSAII (Michael W. Deem and Ramdas Pophale) SiO2 
 PCOD9005841
Probable space group: P -1
;
_chemical_formula_sum "Si O2"
_cell_formula_units_Z 16
_cell_length_a 12.517362
_cell_length_b 14.474123
_cell_length_c 9.898476
_cell_angle_alpha 112.611726
_cell_angle_beta 60.025091
_cell_angle_gamma 62.833626
_cell_volume 838.637720
_symmetry_space_group_name_H-M "P -1"
_symmetry_group_IT_number 2
_symmetry_cell_setting 'triclinic'
loop_
_space_group_symop_operation_xyz
x,y,z
-x,-y,-z
loop_
_atom_site_type_symbol
_atom_site_label
_atom_site_fract_x
_atom_site_fract_y
_atom_site_fract_z
Si Si1 0.406913 0.100062 0.255876
Si Si2 0.433837 0.314953 0.789114
Si Si3 0.480402 0.273016 0.413211
Si Si4 0.008544 0.699833 0.263750
Si Si5 0.879071 0.009047 0.477998
Si Si6 0.635867 0.861758 0.216195
Si Si7 0.063338 0.665819 0.889531
Si Si8 0.123060 0.858762 0.958676
O O1 0.489711 0.154313 0.283372
O O2 0.153696 0.261872 0.527881
O O3 0.493053 0.964886 0.234238
O O4 0.500000 0.000000 0.000000
O O5 0.503545 0.266536 0.559170
O O6 0.633558 0.188618 0.693302
O O7 0.322646 0.280561 0.857668
O O8 0.253188 0.516757 0.040527
O O9 0.252133 0.466616 0.629837
O O10 0.655403 0.231075 0.218052
O O11 0.000982 0.688994 0.099791
O O12 0.928641 0.865624 0.421637
O O13 0.000000 0.000000 0.500000
O O14 0.994680 0.946847 0.227227
O O15 0.500000 0.000000 0.500000
O O16 0.849741 0.781221 0.012509
O O17 0.136863 0.730650 0.850876
O O18 0.000000 0.000000 0.000000
#
# Coordination Sequence:
#
# PCOD9005841 Si02
#       8
#     2   2   2   2   2   2   2   2
#     4  12  25  39  62  95 133 164 202 262 326 373
#     4  11  21  40  70  94 119 164 221 262 303 374
#     4  11  22  38  63  94 127 164 208 265 314 361
#     4  10  22  42  64  93 125 163 216 258 306 377
#     4  11  24  42  65  91 129 170 206 256 316 381
#     4  12  19  38  67  91 121 163 215 255 310 372
#     4  10  21  38  63  96 120 161 218 264 299 369
#     4  11  21  38  62  91 125 161 212 255 312 369
#
# _framework density 19.078558999999998
#
# number of rings (size 3 to 8) (size 9 to 14) (size 15 to 20)
#    0.000    1.000    5.000    2.625    1.750    2.500 
#    0.000    3.750    0.000    0.000    0.000    0.000 
#    0.000    0.000    0.000    0.000    0.000    0.000 
#
# Total GULP energy -89262.219027 kJ/mol
# GULP energy per Si atom -5578.888689 kJ/mol
# Density = 1.903514 g / cm^3
# Si number density = 19.078559 Si / 1000 Ang^3
#
#
#
# Elastic Constant Matrix: (Units=GPa)
#
#
# Indices 1 2 3 4 5 6 
#
# 1 97.6728 34.3688 45.5072 13.6564 -20.9911 4.2089
# 2 34.3688 83.2560 32.4768 14.4628 3.2453 4.1471
# 3 45.5072 32.4768 76.6605 16.3356 -21.7436 4.3011
# 4 13.6564 14.4628 16.3356 34.9491 -1.2211 -10.0822
# 5 -20.9911 3.2453 -21.7436 -1.2211 27.9394 -7.5018
# 6 4.2089 4.1471 4.3011 -10.0822 -7.5018 27.9703
#
#
#
# Elastic Compliance Matrix: (Units=1/GPa)
#
#
# Indices 1 2 3 4 5 6 
#
# 1 0.016407 -0.005148 -0.004580 -0.001512 0.009568 0.001020
# 2 -0.005148 0.018643 -0.007413 -0.004482 -0.013642 -0.006124
# 3 -0.004580 -0.007413 0.024909 -0.006151 0.016587 0.000190
# 4 -0.001512 -0.004482 -0.006151 0.038532 0.000544 0.015873
# 5 0.009568 -0.013642 0.016587 0.000544 0.061447 0.014709
# 6 0.001020 -0.006124 0.000190 0.015873 0.014709 0.046144
#
#
# Mechanical properties :
#
#
# Convention : Reuss Voigt Hill
#
# Bulk Modulus (GPa) = 38.94501 53.58831 46.26666
# Shear Modulus (GPa) = 20.08654 27.85419 23.97037
#
# Velocity S-wave (km/s) = 3.24826 3.82511 3.54842
# Velocity P-wave (km/s) = 5.87584 6.90346 6.41028
#
# Compressibility (1/GPa) = 0.02567723
#
# Stress axis : x y z
#
# Youngs Moduli (GPa) = 60.94862 53.63858 40.14664
#
# Poissons Ratio (x) = 0.27611 0.18388
# Poissons Ratio (y) = 0.31374 0.29762
# Poissons Ratio (z) = 0.27916 0.39763
#
# Static dielectric constant tensor:
#      x y z
#    x 1.598660 -0.028950 0.028810 
#    y -0.028950 1.654190 0.025180 
#    z 0.028810 0.025180 1.623310 
# 
# From -- ./inp_files/189382.got.cif
#   From: 2010.05.17/outbox.cif.g08.bks.cpg/sg2_95_cif.got.tgz:189382.got - 2010.06.03 11:33:40.
