data_PCOD9005375
_publ_section_title
;
Structure prediction by ZEFSAII (Michael W. Deem and Ramdas Pophale) SiO2 
 PCOD9005375
Probable space group: P -1
;
_chemical_formula_sum "Si O2"
_cell_formula_units_Z 12
_cell_length_a 14.653891
_cell_length_b 14.874349
_cell_length_c 9.259197
_cell_angle_alpha 126.360165
_cell_angle_beta 124.698775
_cell_angle_gamma 19.230721
_cell_volume 534.977362
_symmetry_space_group_name_H-M "P -1"
_symmetry_group_IT_number 2
_symmetry_cell_setting 'triclinic'
loop_
_space_group_symop_operation_xyz
x,y,z
-x,-y,-z
loop_
_atom_site_type_symbol
_atom_site_label
_atom_site_fract_x
_atom_site_fract_y
_atom_site_fract_z
Si Si1 0.132527 0.285447 0.020798
Si Si2 0.338670 0.670510 0.367781
Si Si3 0.006694 0.803645 0.326586
Si Si4 0.615955 0.823407 0.228015
Si Si5 0.707965 0.490642 0.405792
Si Si6 0.723613 0.951854 0.602757
O O1 0.872458 0.512676 0.111931
O O2 0.413975 0.053564 0.137951
O O3 0.000000 0.500000 0.000000
O O4 0.176674 0.128259 0.829285
O O5 0.500000 0.500000 0.500000
O O6 0.556048 0.509764 0.290294
O O7 0.153158 0.730784 0.253660
O O8 0.149460 0.953000 0.498158
O O9 0.209571 0.566748 0.406264
O O10 0.413529 0.943087 0.266229
O O11 0.749386 0.805864 0.414550
O O12 0.493482 0.778727 0.430734
O O13 0.986436 0.250933 0.337122
#
# Coordination Sequence:
#
# PCOD9005375 Si02
#       6
#     2   2   2   2   2   2
#     4  12  25  39  64  92 132 156 195 246 319 371
#     4   9  20  36  63  94 120 158 204 251 311 343
#     4  10  21  38  61  98 125 156 197 257 310 364
#     4  11  25  41  57  91 120 174 197 248 302 354
#     4  11  20  36  65  92 113 158 206 260 291 347
#     4  11  22  40  63  82 126 159 221 243 282 366
#
# _framework density 22.430855999999999
#
# number of rings (size 3 to 8) (size 9 to 14) (size 15 to 20)
#    0.000    1.333    1.667    4.500    4.667    2.667 
#    0.000    0.000    0.000    6.000    0.000    0.000 
#    0.000    0.000    0.000    0.000    0.000    0.000 
#
# Total GULP energy -67016.266803 kJ/mol
# GULP energy per Si atom -5584.688900 kJ/mol
# Density = 2.237980 g / cm^3
# Si number density = 22.430856 Si / 1000 Ang^3
#
#
#
# Elastic Constant Matrix: (Units=GPa)
#
#
# Indices 1 2 3 4 5 6 
#
# 1 132.4047 18.8859 2.6090 4.2119 -11.4801 -15.7956
# 2 18.8859 95.9887 -2.9577 9.0800 -3.7865 -4.3323
# 3 2.6090 -2.9577 18.4513 4.1711 -0.3465 1.4492
# 4 4.2119 9.0800 4.1711 13.7508 -1.9352 0.0569
# 5 -11.4801 -3.7865 -0.3465 -1.9352 22.3223 1.4948
# 6 -15.7956 -4.3323 1.4492 0.0569 1.4948 41.9425
#
#
#
# Elastic Compliance Matrix: (Units=1/GPa)
#
#
# Indices 1 2 3 4 5 6 
#
# 1 0.008485 -0.001357 -0.001409 -0.000747 0.003848 0.002968
# 2 -0.001357 0.011646 0.003922 -0.008386 0.000575 0.000547
# 3 -0.001409 0.003922 0.059788 -0.020392 -0.000756 -0.002137
# 4 -0.000747 -0.008386 -0.020392 0.085428 0.005333 -0.000749
# 5 0.003848 0.000575 -0.000756 0.005333 0.047336 -0.000159
# 6 0.002968 0.000547 -0.002137 -0.000749 -0.000159 0.025097
#
#
# Mechanical properties :
#
#
# Convention : Reuss Voigt Hill
#
# Bulk Modulus (GPa) = 12.16062 31.54656 21.85359
# Shear Modulus (GPa) = 19.02010 30.82362 24.92186
#
# Velocity S-wave (km/s) = 2.91511 3.71099 3.33686
# Velocity P-wave (km/s) = 4.09434 5.69705 4.96085
#
# Compressibility (1/GPa) = 0.08223263
#
# Stress axis : x y z
#
# Youngs Moduli (GPa) = 117.84978 85.86412 16.72570
#
# Poissons Ratio (x) = 0.11648 0.02357
# Poissons Ratio (y) = 0.15987 -0.06560
# Poissons Ratio (z) = 0.16609 -0.33678
#
# Static dielectric constant tensor:
#      x y z
#    x 1.938720 -0.057680 -0.039250 
#    y -0.057680 1.874410 0.005130 
#    z -0.039250 0.005130 1.844410 
# 
# From -- ./inp_files/29928.got.cif
#   From: 2010.05.17/outbox.cif.g08.bks.cpg/sg2_15_cif.got.tgz:29928.got - 2010.06.03 11:33:40.
