data_PCOD9005930
_publ_section_title
;
Structure prediction by ZEFSAII (Michael W. Deem and Ramdas Pophale) SiO2 
 PCOD9005930
Probable space group: P -1
;
_chemical_formula_sum "Si O2"
_cell_formula_units_Z 14
_cell_length_a 11.939414
_cell_length_b 21.489003
_cell_length_c 7.202415
_cell_angle_alpha 133.550627
_cell_angle_beta 115.110133
_cell_angle_gamma 29.626200
_cell_volume 578.165982
_symmetry_space_group_name_H-M "P -1"
_symmetry_group_IT_number 2
_symmetry_cell_setting 'triclinic'
loop_
_space_group_symop_operation_xyz
x,y,z
-x,-y,-z
loop_
_atom_site_type_symbol
_atom_site_label
_atom_site_fract_x
_atom_site_fract_y
_atom_site_fract_z
Si Si1 0.215908 0.189457 0.120113
Si Si2 0.975700 0.871555 0.041836
Si Si3 0.644661 0.219090 0.980705
Si Si4 0.026362 0.668758 0.129875
Si Si5 0.945584 0.449114 0.736311
Si Si6 0.907687 0.177231 0.539960
Si Si7 0.529383 0.269588 0.561661
O O1 0.116070 0.338220 0.444776
O O2 0.037167 0.222957 0.152989
O O3 0.201260 0.189589 0.889136
O O4 0.500000 0.000000 0.000000
O O5 0.039142 0.854235 0.265716
O O6 0.194524 0.789263 0.909077
O O7 0.690363 0.086294 0.241587
O O8 0.596402 0.238005 0.763511
O O9 0.838634 0.024592 0.778333
O O10 0.353853 0.383841 0.187349
O O11 0.965074 0.675419 0.305029
O O12 0.138146 0.696790 0.286155
O O13 0.229435 0.478541 0.786806
O O14 0.000000 0.500000 0.000000
O O15 0.666522 0.261060 0.521317
#
# Coordination Sequence:
#
# PCOD9005930 Si02
#       7
#     2   2   2   2   2   2   2
#     4  11  26  43  63  92 124 164 206 255 306 366
#     4   8  16  34  60  88 124 160 198 251 306 358
#     4   8  16  34  60  88 124 160 198 251 306 358
#     4  10  21  38  64  88 123 164 206 252 300 362
#     4  11  26  43  63  92 124 164 206 255 306 366
#     4   8  14  29  59  93 121 158 199 245 306 367
#     4   8  14  29  59  93 121 158 199 245 306 367
#
# _framework density 24.214502
#
# number of rings (size 3 to 8) (size 9 to 14) (size 15 to 20)
#    0.000    2.857    0.000    2.143    8.000    2.857 
#    0.000    0.000    0.000    3.429    0.000    0.000 
#    0.000    0.000    0.000    0.000    0.000    0.000 
#
# Total GULP energy -78120.076833 kJ/mol
# GULP energy per Si atom -5580.005488 kJ/mol
# Density = 2.415939 g / cm^3
# Si number density = 24.214502 Si / 1000 Ang^3
#
#
#
# Elastic Constant Matrix: (Units=GPa)
#
#
# Indices 1 2 3 4 5 6 
#
# 1 47.7460 0.1322 1.1072 1.6382 9.5552 9.0186
# 2 0.1322 84.8298 9.5406 -0.0632 -5.7460 -5.8424
# 3 1.1072 9.5406 46.7043 -6.6447 -0.3263 -4.5320
# 4 1.6382 -0.0632 -6.6447 25.2346 -1.3524 -5.2346
# 5 9.5552 -5.7460 -0.3263 -1.3524 34.1446 4.4001
# 6 9.0186 -5.8424 -4.5320 -5.2346 4.4001 27.2230
#
#
#
# Elastic Compliance Matrix: (Units=1/GPa)
#
#
# Indices 1 2 3 4 5 6 
#
# 1 0.023864 -0.000803 -0.001815 -0.004048 -0.005934 -0.008199
# 2 -0.000803 0.012332 -0.002262 0.000056 0.001994 0.002224
# 3 -0.001815 -0.002262 0.023504 0.007432 -0.000058 0.005467
# 4 -0.004048 0.000056 0.007432 0.044179 0.001567 0.010832
# 5 -0.005934 0.001994 -0.000058 0.001567 0.031658 -0.002432
# 6 -0.008199 0.002224 0.005467 0.010832 -0.002432 0.043313
#
#
# Mechanical properties :
#
#
# Convention : Reuss Voigt Hill
#
# Bulk Modulus (GPa) = 20.02403 22.31555 21.16979
# Shear Modulus (GPa) = 24.35968 28.55379 26.45674
#
# Velocity S-wave (km/s) = 3.17518 3.43768 3.30903
# Velocity P-wave (km/s) = 4.66152 4.99926 4.83334
#
# Compressibility (1/GPa) = 0.04993999
#
# Stress axis : x y z
#
# Youngs Moduli (GPa) = 41.90469 81.08777 42.54607
#
# Poissons Ratio (x) = 0.06509 0.07721
# Poissons Ratio (y) = 0.03364 0.09626
# Poissons Ratio (z) = 0.07605 0.18346
#
# Static dielectric constant tensor:
#      x y z
#    x 1.981000 -0.014640 0.036050 
#    y -0.014640 1.945760 -0.003990 
#    z 0.036050 -0.003990 1.962640 
# 
# From -- ./inp_files/171679.got.cif
#   From: 2010.05.17/outbox.cif.g08.bks.cpg/sg2_86_cif.got.tgz:171679.got - 2010.06.03 11:33:40.
