data_PCOD9005174
_publ_section_title
;
Structure prediction by ZEFSAII (Michael W. Deem and Ramdas Pophale) SiO2 
 PCOD9005174
Probable space group: P -1
;
_chemical_formula_sum "Si O2"
_cell_formula_units_Z 14
_cell_length_a 6.333492
_cell_length_b 15.871375
_cell_length_c 8.071714
_cell_angle_alpha 51.929008
_cell_angle_beta 116.727615
_cell_angle_gamma 108.059091
_cell_volume 569.891624
_symmetry_space_group_name_H-M "P -1"
_symmetry_group_IT_number 2
_symmetry_cell_setting 'triclinic'
loop_
_space_group_symop_operation_xyz
x,y,z
-x,-y,-z
loop_
_atom_site_type_symbol
_atom_site_label
_atom_site_fract_x
_atom_site_fract_y
_atom_site_fract_z
Si Si1 0.893815 0.538303 0.088994
Si Si2 0.233524 0.206074 0.813760
Si Si3 0.285102 0.069635 0.674845
Si Si4 0.835019 0.087409 0.922700
Si Si5 0.417292 0.120529 0.330847
Si Si6 0.571265 0.349300 0.178085
Si Si7 0.602600 0.396515 0.741816
O O1 0.764321 0.427270 0.244379
O O2 0.113742 0.593940 0.197651
O O3 0.688326 0.621000 0.887619
O O4 0.000000 0.500000 0.000000
O O5 0.214762 0.148337 0.700146
O O6 0.424869 0.301399 0.732631
O O7 0.339862 0.149323 0.083718
O O8 0.961758 0.202150 0.788578
O O9 0.224320 0.109862 0.423540
O O10 0.194936 0.952781 0.849692
O O11 0.571045 0.073966 0.777509
O O12 0.000000 0.000000 0.000000
O O13 0.589292 0.221743 0.325047
O O14 0.500000 0.000000 0.500000
O O15 0.571083 0.389042 0.938637
O O16 0.500000 0.500000 0.500000
#
# Coordination Sequence:
#
# PCOD9005174 Si02
#       7
#     2   2   2   2   2   2   2
#     4   9  19  40  65  89 124 165 215 269 324 385
#     4  10  23  40  59  91 127 160 212 267 314 383
#     4  10  21  38  61  84 120 168 206 255 316 370
#     4   9  18  37  57  81 117 156 203 253 300 367
#     4  11  22  39  64  96 131 171 218 261 319 394
#     4   9  21  40  63  94 131 170 214 271 323 384
#     4  10  22  39  62  92 124 163 212 271 335 389
#
# _framework density 24.566075000000001
#
# number of rings (size 3 to 8) (size 9 to 14) (size 15 to 20)
#    0.000    2.286    0.000    2.571    0.000    8.000 
#    0.000   17.143    0.000    0.000    0.000    0.000 
#    0.000    0.000    0.000    0.000    0.000    0.000 
#
# Total GULP energy -77998.367627 kJ/mol
# GULP energy per Si atom -5571.311973 kJ/mol
# Density = 2.451016 g / cm^3
# Si number density = 24.566075 Si / 1000 Ang^3
#
#
#
# Elastic Constant Matrix: (Units=GPa)
#
#
# Indices 1 2 3 4 5 6 
#
# 1 114.8847 55.8393 17.6886 -12.4830 -7.3508 40.9219
# 2 55.8393 146.2408 39.0598 -18.6761 -8.0084 34.1817
# 3 17.6886 39.0598 112.9983 -16.5176 -28.5132 6.8492
# 4 -12.4830 -18.6761 -16.5176 28.5878 0.6526 -4.8737
# 5 -7.3508 -8.0084 -28.5132 0.6526 24.2576 11.1117
# 6 40.9219 34.1817 6.8492 -4.8737 11.1117 49.6216
#
#
#
# Elastic Compliance Matrix: (Units=1/GPa)
#
#
# Indices 1 2 3 4 5 6 
#
# 1 0.016157 -0.002101 0.003769 0.004879 0.015557 -0.015401
# 2 -0.002101 0.009907 -0.001387 0.003779 0.003318 -0.005272
# 3 0.003769 -0.001387 0.016557 0.008220 0.024056 -0.009018
# 4 0.004879 0.003779 0.008220 0.042849 0.014333 -0.006763
# 5 0.015557 0.003318 0.024056 0.014333 0.092179 -0.037669
# 6 -0.015401 -0.005272 -0.009018 -0.006763 -0.037669 0.045501
#
#
# Mechanical properties :
#
#
# Convention : Reuss Voigt Hill
#
# Bulk Modulus (GPa) = 23.15634 66.58880 44.87257
# Shear Modulus (GPa) = 21.09866 37.92915 29.51390
#
# Velocity S-wave (km/s) = 2.93380 3.93359 3.46990
# Velocity P-wave (km/s) = 4.57415 6.91345 5.86168
#
# Compressibility (1/GPa) = 0.04318471
#
# Stress axis : x y z
#
# Youngs Moduli (GPa) = 61.89376 100.93636 60.39632
#
# Poissons Ratio (x) = 0.21207 -0.22765
# Poissons Ratio (y) = 0.13004 0.08374
# Poissons Ratio (z) = -0.23329 0.13995
#
# Static dielectric constant tensor:
#      x y z
#    x 2.044760 0.092270 0.005540 
#    y 0.092270 2.168170 -0.007830 
#    z 0.005540 -0.007830 2.004500 
# 
# From -- ./inp_files/137271.got.cif
#   From: 2010.05.17/outbox.cif.g08.bks.cpg/sg2_69_cif.got.tgz:137271.got - 2010.06.03 11:33:40.
