data_PCOD9005016
_publ_section_title
;
Structure prediction by ZEFSAII (Michael W. Deem and Ramdas Pophale) SiO2 
 PCOD9005016
Probable space group: P -1
;
_chemical_formula_sum "Si O2"
_cell_formula_units_Z 14
_cell_length_a 12.530631
_cell_length_b 9.633421
_cell_length_c 25.813629
_cell_angle_alpha 152.064387
_cell_angle_beta 151.832516
_cell_angle_gamma 40.042476
_cell_volume 687.855059
_symmetry_space_group_name_H-M "P -1"
_symmetry_group_IT_number 2
_symmetry_cell_setting 'triclinic'
loop_
_space_group_symop_operation_xyz
x,y,z
-x,-y,-z
loop_
_atom_site_type_symbol
_atom_site_label
_atom_site_fract_x
_atom_site_fract_y
_atom_site_fract_z
Si Si1 0.141893 0.236782 0.673003
Si Si2 0.997453 0.753044 0.039581
Si Si3 0.921603 0.653887 0.860488
Si Si4 0.482605 0.248797 0.731855
Si Si5 0.297047 0.611027 0.415896
Si Si6 0.315964 0.250630 0.859142
Si Si7 0.551314 0.887863 0.927898
O O1 0.349401 0.335094 0.756010
O O2 0.233462 0.100217 0.720358
O O3 0.947958 0.446276 0.679899
O O4 0.000000 0.000000 0.500000
O O5 0.262804 0.841447 0.173899
O O6 0.000000 0.500000 0.000000
O O7 0.883679 0.631909 0.898002
O O8 0.815121 0.967939 0.054355
O O9 0.724400 0.547272 0.701170
O O10 0.118240 0.434597 0.859447
O O11 0.000000 0.000000 0.000000
O O12 0.503752 0.532626 0.796742
O O13 0.351036 0.967265 0.555437
O O14 0.500000 0.500000 0.500000
O O15 0.409226 0.034359 0.870451
O O16 0.500000 0.500000 0.000000
O O17 0.500000 0.000000 0.000000
#
# Coordination Sequence:
#
# PCOD9005016 Si02
#       7
#     2   2   2   2   2   2   2
#     4   9  20  39  60  86 120 156 198 246 301 361
#     4  10  21  38  60  87 119 157 199 246 302 361
#     4  11  22  38  61  88 118 156 203 251 298 359
#     4  10  21  41  62  87 125 162 200 255 305 357
#     4  10  22  38  61  92 122 159 205 253 306 361
#     4  11  21  36  61  90 118 156 203 249 298 359
#     4  11  23  38  61  92 122 158 203 254 308 362
#
# _framework density 20.353124999999999
#
# number of rings (size 3 to 8) (size 9 to 14) (size 15 to 20)
#    0.000    1.714    0.000    5.143    0.000    6.857 
#    0.000    9.286    0.000    1.714    0.000    0.000 
#    0.000    0.000    0.000    0.000    0.000    0.000 
#
# Total GULP energy -78076.052706 kJ/mol
# GULP energy per Si atom -5576.860908 kJ/mol
# Density = 2.030680 g / cm^3
# Si number density = 20.353125 Si / 1000 Ang^3
#
#
#
# Elastic Constant Matrix: (Units=GPa)
#
#
# Indices 1 2 3 4 5 6 
#
# 1 143.9679 55.2102 54.6291 -20.9356 -9.7712 8.3211
# 2 55.2102 139.3451 53.6496 -17.7347 -1.8074 24.5425
# 3 54.6291 53.6496 121.5587 -5.8495 -16.6523 18.0748
# 4 -20.9356 -17.7347 -5.8495 41.3880 4.4860 3.0098
# 5 -9.7712 -1.8074 -16.6523 4.4860 41.5257 -13.3566
# 6 8.3211 24.5425 18.0748 3.0098 -13.3566 42.3899
#
#
#
# Elastic Compliance Matrix: (Units=1/GPa)
#
#
# Indices 1 2 3 4 5 6 
#
# 1 0.009477 -0.002278 -0.003109 0.003234 0.000793 0.000804
# 2 -0.002278 0.010773 -0.003174 0.003836 -0.003638 -0.005855
# 3 -0.003109 -0.003174 0.011625 -0.001582 0.003552 -0.001277
# 4 0.003234 0.003836 -0.001582 0.028118 -0.004549 -0.005611
# 5 0.000793 -0.003638 0.003552 -0.004549 0.029232 0.009970
# 6 0.000804 -0.005855 -0.001277 -0.005611 0.009970 0.030907
#
#
# Mechanical properties :
#
#
# Convention : Reuss Voigt Hill
#
# Bulk Modulus (GPa) = 67.78161 81.31660 74.54911
# Shear Modulus (GPa) = 35.16857 41.15291 38.16074
#
# Velocity S-wave (km/s) = 4.16134 4.50148 4.33475
# Velocity P-wave (km/s) = 7.51426 8.18886 7.85880
#
# Compressibility (1/GPa) = 0.01475326
#
# Stress axis : x y z
#
# Youngs Moduli (GPa) = 105.52116 92.82232 86.02144
#
# Poissons Ratio (x) = 0.21142 0.26744
# Poissons Ratio (y) = 0.24034 0.27306
# Poissons Ratio (z) = 0.32806 0.29464
#
# Static dielectric constant tensor:
#      x y z
#    x 1.746640 -0.028870 0.022200 
#    y -0.028870 1.745020 -0.006280 
#    z 0.022200 -0.006280 1.756830 
# 
# From -- ./inp_files/392279.got.cif
#   From: 2010.05.17/outbox.cif.g08.bks.cpg/sg2_197_cif.got.tgz:392279.got - 2010.06.03 11:33:40.
