data_PCOD9005227
_publ_section_title
;
Structure prediction by ZEFSAII (Michael W. Deem and Ramdas Pophale) SiO2 
 PCOD9005227
Probable space group: P -1
;
_chemical_formula_sum "Si O2"
_cell_formula_units_Z 14
_cell_length_a 6.770848
_cell_length_b 24.278963
_cell_length_c 11.695830
_cell_angle_alpha 26.001231
_cell_angle_beta 127.362463
_cell_angle_gamma 124.266666
_cell_volume 669.074365
_symmetry_space_group_name_H-M "P -1"
_symmetry_group_IT_number 2
_symmetry_cell_setting 'triclinic'
loop_
_space_group_symop_operation_xyz
x,y,z
-x,-y,-z
loop_
_atom_site_type_symbol
_atom_site_label
_atom_site_fract_x
_atom_site_fract_y
_atom_site_fract_z
Si Si1 0.103735 0.713731 0.093194
Si Si2 0.909534 0.027907 0.291181
Si Si3 0.386577 0.971133 0.137782
Si Si4 0.822301 0.173755 0.345883
Si Si5 0.597637 0.661420 0.108708
Si Si6 0.632447 0.599051 0.497830
Si Si7 0.050086 0.205577 0.610894
O O1 0.347285 0.637518 0.341624
O O2 0.833620 0.647629 0.137407
O O3 0.117435 0.764928 0.871797
O O4 0.112923 0.823163 0.989325
O O5 0.095701 0.969815 0.373715
O O6 0.000000 0.000000 0.500000
O O7 0.637920 0.959818 0.316806
O O8 0.198830 0.850638 0.308570
O O9 0.500000 0.000000 0.000000
O O10 0.240297 0.092713 0.896652
O O11 0.975107 0.221643 0.421599
O O12 0.535510 0.207132 0.199007
O O13 0.687265 0.640719 0.308722
O O14 0.384504 0.551481 0.217557
O O15 0.819089 0.673208 0.510105
#
# Coordination Sequence:
#
# PCOD9005227 Si02
#       7
#     2   2   2   2   2   2   2
#     4  10  21  40  64  88 118 158 199 248 292 346
#     4  10  21  38  61  88 122 150 196 243 294 356
#     4  11  23  40  57  91 123 155 194 239 298 366
#     4  10  23  39  57  93 122 153 198 240 301 358
#     4  10  23  40  64  85 120 155 207 250 284 345
#     4  10  22  42  61  90 114 159 206 244 293 351
#     4  11  24  38  62  85 126 157 190 247 302 350
#
# _framework density 20.924430999999998
#
# number of rings (size 3 to 8) (size 9 to 14) (size 15 to 20)
#    0.000    1.714    2.857    0.429    6.000    1.143 
#    0.000    0.714    0.000    0.000    0.000    0.000 
#    0.000    0.000    0.000    0.000    0.000    0.000 
#
# Total GULP energy -78106.687271 kJ/mol
# GULP energy per Si atom -5579.049091 kJ/mol
# Density = 2.087681 g / cm^3
# Si number density = 20.924431 Si / 1000 Ang^3
#
#
#
# Elastic Constant Matrix: (Units=GPa)
#
#
# Indices 1 2 3 4 5 6 
#
# 1 88.1878 44.5998 31.7980 2.7611 -9.5758 7.3660
# 2 44.5998 134.4723 17.7113 7.4682 -9.2499 -6.1943
# 3 31.7980 17.7113 46.4440 2.2080 11.1816 1.0652
# 4 2.7611 7.4682 2.2080 31.4907 2.7079 4.6961
# 5 -9.5758 -9.2499 11.1816 2.7079 18.3363 2.1032
# 6 7.3660 -6.1943 1.0652 4.6961 2.1032 30.3527
#
#
#
# Elastic Compliance Matrix: (Units=1/GPa)
#
#
# Indices 1 2 3 4 5 6 
#
# 1 0.023939 -0.003899 -0.020471 -0.000691 0.023974 -0.007441
# 2 -0.003899 0.009531 -0.001860 -0.002586 0.003935 0.003084
# 3 -0.020471 -0.001860 0.045784 0.001679 -0.040430 0.005523
# 4 -0.000691 -0.002586 0.001679 0.033687 -0.007074 -0.005141
# 5 0.023974 0.003935 -0.040430 -0.007074 0.095789 -0.009139
# 6 -0.007441 0.003084 0.005523 -0.005141 -0.009139 0.036616
#
#
# Mechanical properties :
#
#
# Convention : Reuss Voigt Hill
#
# Bulk Modulus (GPa) = 37.32372 50.81358 44.06865
# Shear Modulus (GPa) = 16.30060 27.70227 22.00144
#
# Velocity S-wave (km/s) = 2.79413 3.64252 3.24616
# Velocity P-wave (km/s) = 5.31842 6.48287 5.92930
#
# Compressibility (1/GPa) = 0.02679261
#
# Stress axis : x y z
#
# Youngs Moduli (GPa) = 41.77295 104.92165 21.84179
#
# Poissons Ratio (x) = 0.40906 0.44713
# Poissons Ratio (y) = 0.16286 0.04063
# Poissons Ratio (z) = 0.85515 0.19519
#
# Static dielectric constant tensor:
#      x y z
#    x 1.775000 -0.003450 0.026220 
#    y -0.003450 1.723530 -0.033640 
#    z 0.026220 -0.033640 1.803600 
# 
# From -- ./inp_files/78530.got.cif
#   From: 2010.05.17/outbox.cif.g08.bks.cpg/sg2_40_cif.got.tgz:78530.got - 2010.06.03 11:33:40.
