data_PCOD9005408
_publ_section_title
;
Structure prediction by ZEFSAII (Michael W. Deem and Ramdas Pophale) SiO2 
 PCOD9005408
Probable space group: P -1
;
_chemical_formula_sum "Si O2"
_cell_formula_units_Z 12
_cell_length_a 5.178213
_cell_length_b 14.206835
_cell_length_c 11.537503
_cell_angle_alpha 55.444698
_cell_angle_beta 69.401070
_cell_angle_gamma 53.532444
_cell_volume 562.015141
_symmetry_space_group_name_H-M "P -1"
_symmetry_group_IT_number 2
_symmetry_cell_setting 'triclinic'
loop_
_space_group_symop_operation_xyz
x,y,z
-x,-y,-z
loop_
_atom_site_type_symbol
_atom_site_label
_atom_site_fract_x
_atom_site_fract_y
_atom_site_fract_z
Si Si1 0.239469 0.590528 0.213376
Si Si2 0.396282 0.029769 0.130724
Si Si3 0.692195 0.386937 0.451146
Si Si4 0.749903 0.549754 0.900941
Si Si5 0.731742 0.744407 0.389556
Si Si6 0.660546 0.197831 0.092937
O O1 0.109350 0.524303 0.189968
O O2 0.575176 0.469911 0.292962
O O3 0.982953 0.656653 0.310002
O O4 0.286632 0.703965 0.068596
O O5 0.484106 0.135209 0.094618
O O6 0.015741 0.087958 0.153537
O O7 0.586564 0.896081 0.269035
O O8 0.500000 0.000000 0.000000
O O9 0.500000 0.500000 0.500000
O O10 0.543235 0.292039 0.538924
O O11 0.058075 0.301925 0.494174
O O12 0.552148 0.708851 0.832502
O O13 0.500000 0.500000 0.000000
O O14 0.000000 0.500000 0.000000
#
# Coordination Sequence:
#
# PCOD9005408 Si02
#       6
#     2   2   2   2   2   2
#     4  10  21  38  62  86 120 147 193 244 296 342
#     4  12  24  37  60  83 122 158 186 239 289 350
#     4  10  22  36  57  85 117 153 188 241 288 342
#     4  10  22  37  58  87 118 153 189 243 290 342
#     4  11  23  37  57  87 119 150 195 231 293 346
#     4  11  23  38  59  89 118 151 195 234 296 345
#
# _framework density 21.351737
#
# number of rings (size 3 to 8) (size 9 to 14) (size 15 to 20)
#    0.000    1.333    1.667    5.500    4.667    6.667 
#    0.000    0.000    0.000    6.000    0.000    0.000 
#    0.000    0.000    0.000    0.000    0.000    0.000 
#
# Total GULP energy -67095.397782 kJ/mol
# GULP energy per Si atom -5591.283148 kJ/mol
# Density = 2.130314 g / cm^3
# Si number density = 21.351737 Si / 1000 Ang^3
#
#
#
# Elastic Constant Matrix: (Units=GPa)
#
#
# Indices 1 2 3 4 5 6 
#
# 1 132.8919 20.3579 15.2438 -8.1878 11.0998 19.5073
# 2 20.3579 78.0264 10.3756 -13.6504 10.1488 10.1447
# 3 15.2438 10.3756 74.1849 -23.3940 13.5734 6.5385
# 4 -8.1878 -13.6504 -23.3940 26.5283 -3.9028 0.4255
# 5 11.0998 10.1488 13.5734 -3.9028 38.2720 -10.4816
# 6 19.5073 10.1447 6.5385 0.4255 -10.4816 42.9331
#
#
#
# Elastic Compliance Matrix: (Units=1/GPa)
#
#
# Indices 1 2 3 4 5 6 
#
# 1 0.008732 -0.000944 -0.000123 0.001686 -0.003313 -0.004551
# 2 -0.000944 0.015657 0.002231 0.009061 -0.005099 -0.004945
# 3 -0.000123 0.002231 0.020947 0.018546 -0.007658 -0.005715
# 4 0.001686 0.009061 0.018546 0.058533 -0.005604 -0.007680
# 5 -0.003313 -0.005099 -0.007658 -0.005604 0.033932 0.012216
# 6 -0.004551 -0.004945 -0.005715 -0.007680 0.012216 0.030457
#
#
# Mechanical properties :
#
#
# Convention : Reuss Voigt Hill
#
# Bulk Modulus (GPa) = 20.98090 41.89529 31.43810
# Shear Modulus (GPa) = 27.49969 37.48841 32.49405
#
# Velocity S-wave (km/s) = 3.59268 4.19472 3.90532
# Velocity P-wave (km/s) = 5.20168 6.56696 5.92378
#
# Compressibility (1/GPa) = 0.04766240
#
# Stress axis : x y z
#
# Youngs Moduli (GPa) = 114.51573 63.86755 47.74028
#
# Poissons Ratio (x) = 0.06031 0.00588
# Poissons Ratio (y) = 0.10814 -0.10648
# Poissons Ratio (z) = 0.01411 -0.14246
#
# Static dielectric constant tensor:
#      x y z
#    x 1.788540 -0.052870 -0.002930 
#    y -0.052870 1.825520 0.055290 
#    z -0.002930 0.055290 1.835080 
# 
# From -- ./inp_files/367439.got.cif
#   From: 2010.05.17/outbox.cif.g08.bks.cpg/sg2_184_cif.got.tgz:367439.got - 2010.06.03 11:33:40.
