data_PCOD9005700
_publ_section_title
;
Structure prediction by ZEFSAII (Michael W. Deem and Ramdas Pophale) SiO2 
 PCOD9005700
Probable space group: P -1
;
_chemical_formula_sum "Si O2"
_cell_formula_units_Z 16
_cell_length_a 18.262503
_cell_length_b 9.411807
_cell_length_c 5.614010
_cell_angle_alpha 58.692645
_cell_angle_beta 117.489973
_cell_angle_gamma 78.707334
_cell_volume 598.453219
_symmetry_space_group_name_H-M "P -1"
_symmetry_group_IT_number 2
_symmetry_cell_setting 'triclinic'
loop_
_space_group_symop_operation_xyz
x,y,z
-x,-y,-z
loop_
_atom_site_type_symbol
_atom_site_label
_atom_site_fract_x
_atom_site_fract_y
_atom_site_fract_z
Si Si1 0.767275 0.926426 0.312683
Si Si2 0.987571 0.109541 0.637589
Si Si3 0.604573 0.577807 0.630642
Si Si4 0.754177 0.292276 0.741172
Si Si5 0.639483 0.208460 0.263423
Si Si6 0.800231 0.474949 0.263794
Si Si7 0.909940 0.665798 0.396236
Si Si8 0.440769 0.916670 0.368170
O O1 0.872014 0.714407 0.580974
O O2 0.712374 0.994889 0.424300
O O3 0.781981 0.110254 0.126003
O O4 0.676991 0.949981 0.997982
O O5 0.069277 0.162248 0.740495
O O6 0.874655 0.316059 0.310284
O O7 0.000000 0.000000 0.500000
O O8 0.000000 0.000000 0.000000
O O9 0.661349 0.501463 0.533248
O O10 0.501378 0.792511 0.331041
O O11 0.593984 0.400076 0.855910
O O12 0.686728 0.573779 0.926679
O O13 0.713540 0.227461 0.523205
O O14 0.821065 0.350510 0.650933
O O15 0.557571 0.224275 0.299873
O O16 0.827596 0.633092 0.204306
O O17 0.000000 0.500000 0.500000
O O18 0.500000 0.000000 0.500000
#
# Coordination Sequence:
#
# PCOD9005700 Si02
#       8
#     2   2   2   2   2   2   2   2
#     4  10  21  39  64  86 125 169 220 268 336 403
#     4  11  26  46  75 101 136 181 235 282 342 415
#     4  10  21  38  63  90 126 169 217 264 334 399
#     4   9  20  37  64  91 124 167 221 270 329 401
#     4   9  21  37  59  86 121 166 216 268 324 396
#     4  10  22  41  64  96 133 172 214 284 339 397
#     4  10  23  45  64  98 132 172 221 283 345 406
#     4  11  23  37  57  91 126 166 214 270 329 399
#
# _framework density 26.735586999999999
#
# number of rings (size 3 to 8) (size 9 to 14) (size 15 to 20)
#    0.000    2.000    0.000    1.875    7.000    8.000 
#    2.250    1.875    0.000    0.000    0.000    0.000 
#    0.000    0.000    0.000    0.000    0.000    0.000 
#
# Total GULP energy -89241.755753 kJ/mol
# GULP energy per Si atom -5577.609735 kJ/mol
# Density = 2.667474 g / cm^3
# Si number density = 26.735587 Si / 1000 Ang^3
#
#
#
# Elastic Constant Matrix: (Units=GPa)
#
#
# Indices 1 2 3 4 5 6 
#
# 1 147.4654 65.6760 38.6176 -5.1323 11.2603 9.2755
# 2 65.6760 196.6058 25.8041 8.8163 7.2633 -30.8694
# 3 38.6176 25.8041 46.7228 6.2592 -3.2399 0.4839
# 4 -5.1323 8.8163 6.2592 29.5223 -15.2180 14.4270
# 5 11.2603 7.2633 -3.2399 -15.2180 22.6095 -3.5864
# 6 9.2755 -30.8694 0.4839 14.4270 -3.5864 90.9523
#
#
#
# Elastic Compliance Matrix: (Units=1/GPa)
#
#
# Indices 1 2 3 4 5 6 
#
# 1 0.010833 -0.003110 -0.008002 0.004354 -0.003077 -0.002930
# 2 -0.003110 0.007326 -0.000934 -0.006927 -0.005012 0.003710
# 3 -0.008002 -0.000934 0.029601 -0.005460 0.005075 0.001408
# 4 0.004354 -0.006927 -0.005460 0.064489 0.040875 -0.011384
# 5 -0.003077 -0.005012 0.005075 0.040875 0.074826 -0.004948
# 6 -0.002930 0.003710 0.001408 -0.011384 -0.004948 0.014156
#
#
# Mechanical properties :
#
#
# Convention : Reuss Voigt Hill
#
# Bulk Modulus (GPa) = 42.25031 72.33216 57.29123
# Shear Modulus (GPa) = 21.43977 45.99659 33.71818
#
# Velocity S-wave (km/s) = 2.83489 4.15230 3.55515
# Velocity P-wave (km/s) = 5.15294 7.07829 6.19092
#
# Compressibility (1/GPa) = 0.02366846
#
# Stress axis : x y z
#
# Youngs Moduli (GPa) = 92.31353 136.50000 33.78240
#
# Poissons Ratio (x) = 0.42451 0.27033
# Poissons Ratio (y) = 0.28709 0.03154
# Poissons Ratio (z) = 0.73871 0.12743
#
# Static dielectric constant tensor:
#      x y z
#    x 2.092150 -0.028070 -0.010630 
#    y -0.028070 2.119230 0.073880 
#    z -0.010630 0.073880 2.463900 
# 
# From -- ./inp_files/106548.got.cif
#   From: 2010.05.17/outbox.cif.g08.bks.cpg/sg2_54_cif.got.tgz:106548.got - 2010.06.03 11:33:40.
