data_PCOD9005093
_publ_section_title
;
Structure prediction by ZEFSAII (Michael W. Deem and Ramdas Pophale) SiO2 
 PCOD9005093
Probable space group: P -1
;
_chemical_formula_sum "Si O2"
_cell_formula_units_Z 16
_cell_length_a 16.646472
_cell_length_b 21.001914
_cell_length_c 6.159796
_cell_angle_alpha 57.734338
_cell_angle_beta 124.817145
_cell_angle_gamma 158.338036
_cell_volume 652.580328
_symmetry_space_group_name_H-M "P -1"
_symmetry_group_IT_number 2
_symmetry_cell_setting 'triclinic'
loop_
_space_group_symop_operation_xyz
x,y,z
-x,-y,-z
loop_
_atom_site_type_symbol
_atom_site_label
_atom_site_fract_x
_atom_site_fract_y
_atom_site_fract_z
Si Si1 0.599266 0.989937 0.260964
Si Si2 0.677856 0.820972 0.260418
Si Si3 0.864648 0.348954 0.709436
Si Si4 0.949480 0.274920 0.656328
Si Si5 0.665865 0.662132 0.302683
Si Si6 0.013886 0.226976 0.228046
Si Si7 0.203334 0.505714 0.250878
Si Si8 0.102484 0.125505 0.114853
O O1 0.380150 0.792421 0.348109
O O2 0.761921 0.119790 0.478147
O O3 0.755677 0.058247 0.202584
O O4 0.500000 0.000000 0.000000
O O5 0.610510 0.709425 0.187683
O O6 0.449209 0.701139 0.202637
O O7 0.770782 0.837468 0.578824
O O8 0.881232 0.004239 0.118779
O O9 0.842887 0.258737 0.693411
O O10 0.000000 0.500000 0.500000
O O11 0.013868 0.428711 0.000019
O O12 0.148540 0.455204 0.509187
O O13 0.046285 0.273044 0.946691
O O14 0.500000 0.500000 0.500000
O O15 0.899104 0.792440 0.522907
O O16 0.721866 0.699672 0.062449
O O17 0.148968 0.385234 0.283533
O O18 0.000000 0.000000 0.000000
#
# Coordination Sequence:
#
# PCOD9005093 Si02
#       8
#     2   2   2   2   2   2   2   2
#     4  11  20  41  65  86 120 166 205 245 303 381
#     4  10  21  40  64  86 123 171 200 244 311 363
#     4  11  24  40  61  95 123 154 205 261 310 362
#     4  10  21  38  66  86 123 165 204 246 317 364
#     4  11  22  37  61  95 124 151 203 261 299 352
#     4  10  22  37  59  95 121 156 207 248 303 360
#     4  10  21  38  60  91 120 158 208 245 302 368
#     4   9  22  40  59  82 122 168 206 242 304 364
#
# _framework density 24.518053999999999
#
# number of rings (size 3 to 8) (size 9 to 14) (size 15 to 20)
#    0.000    1.750    5.000    0.375    1.750    5.000 
#    0.000    5.000    0.000    0.000    0.000    0.000 
#    0.000    0.000    0.000    0.000    0.000    0.000 
#
# Total GULP energy -89402.570859 kJ/mol
# GULP energy per Si atom -5587.660679 kJ/mol
# Density = 2.446225 g / cm^3
# Si number density = 24.518054 Si / 1000 Ang^3
#
#
#
# Elastic Constant Matrix: (Units=GPa)
#
#
# Indices 1 2 3 4 5 6 
#
# 1 50.4247 30.8600 11.7403 -8.1109 -9.5154 19.7333
# 2 30.8600 141.0005 32.7569 -40.6681 -17.1708 39.0894
# 3 11.7403 32.7569 115.6778 -28.3830 -21.5598 17.9640
# 4 -8.1109 -40.6681 -28.3830 49.8455 7.6291 -5.5478
# 5 -9.5154 -17.1708 -21.5598 7.6291 28.1574 -12.1086
# 6 19.7333 39.0894 17.9640 -5.5478 -12.1086 47.4396
#
#
#
# Elastic Compliance Matrix: (Units=1/GPa)
#
#
# Indices 1 2 3 4 5 6 
#
# 1 0.025160 -0.003042 0.000173 0.000368 0.003648 -0.007050
# 2 -0.003042 0.012573 0.000373 0.008926 0.001105 -0.007910
# 3 0.000173 0.000373 0.011488 0.005607 0.006527 -0.002407
# 4 0.000368 0.008926 0.005607 0.030044 -0.001023 -0.006379
# 5 0.003648 0.001105 0.006527 -0.001023 0.045536 0.006604
# 6 -0.007050 -0.007910 -0.002407 -0.006379 0.006604 0.032381
#
#
# Mechanical properties :
#
#
# Convention : Reuss Voigt Hill
#
# Bulk Modulus (GPa) = 22.61002 50.86859 36.73930
# Shear Modulus (GPa) = 28.26190 40.53821 34.40006
#
# Velocity S-wave (km/s) = 3.39882 4.07062 3.74979
# Velocity P-wave (km/s) = 4.96432 6.54871 5.81077
#
# Compressibility (1/GPa) = 0.04422819
#
# Stress axis : x y z
#
# Youngs Moduli (GPa) = 39.74618 79.53338 87.05006
#
# Poissons Ratio (x) = 0.24193 -0.01505
# Poissons Ratio (y) = 0.12090 -0.03245
# Poissons Ratio (z) = -0.00687 -0.02964
#
# Static dielectric constant tensor:
#      x y z
#    x 2.005810 -0.023040 -0.008290 
#    y -0.023040 2.031880 -0.047190 
#    z -0.008290 -0.047190 1.923250 
# 
# From -- ./inp_files/47433.got.cif
#   From: 2010.05.17/outbox.cif.g08.bks.cpg/sg2_24_cif.got.tgz:47433.got - 2010.06.03 11:33:40.
