data_PCOD9005184
_publ_section_title
;
Structure prediction by ZEFSAII (Michael W. Deem and Ramdas Pophale) SiO2 
 PCOD9005184
Probable space group: P -1
;
_chemical_formula_sum "Si O2"
_cell_formula_units_Z 15
_cell_length_a 5.254863
_cell_length_b 18.677700
_cell_length_c 7.135477
_cell_angle_alpha 123.236830
_cell_angle_beta 65.920140
_cell_angle_gamma 98.572783
_cell_volume 532.240509
_symmetry_space_group_name_H-M "P -1"
_symmetry_group_IT_number 2
_symmetry_cell_setting 'triclinic'
loop_
_space_group_symop_operation_xyz
x,y,z
-x,-y,-z
loop_
_atom_site_type_symbol
_atom_site_label
_atom_site_fract_x
_atom_site_fract_y
_atom_site_fract_z
Si Si1 0.900578 0.643383 0.682655
Si Si2 0.594632 0.348157 0.895104
Si Si3 0.805254 0.191811 0.811396
Si Si4 0.396240 0.110401 0.385238
Si Si5 0.848378 0.477197 0.264208
Si Si6 0.500000 0.500000 0.000000
Si Si7 0.158717 0.798922 0.763715
Si Si8 0.650723 0.923485 0.096439
O O1 0.679122 0.679084 0.960370
O O2 0.766009 0.573316 0.495470
O O3 0.131328 0.586758 0.656938
O O4 0.965484 0.725642 0.662650
O O5 0.650817 0.443286 0.111604
O O6 0.577894 0.392089 0.763995
O O7 0.818769 0.275275 0.797131
O O8 0.548067 0.131959 0.798914
O O9 0.094417 0.133983 0.599182
O O10 0.764046 0.227452 0.085976
O O11 0.598051 0.187271 0.435420
O O12 0.553288 0.023156 0.294236
O O13 0.377535 0.095527 0.144824
O O14 0.169846 0.477493 0.107105
O O15 0.974227 0.890350 0.982671
#
# Coordination Sequence:
#
# PCOD9005184 Si02
#       8
#     2   2   2   2   2   1   2   2
#     4  10  21  38  61  86 118 167 216 256 326 376
#     4  11  21  41  61  87 128 167 215 267 323 386
#     4  11  23  40  67  96 131 174 216 271 328 390
#     4  10  24  41  66  99 130 175 214 267 334 390
#     4  10  21  39  61  85 120 164 207 268 319 379
#     4  10  24  38  58  92 120 160 214 274 318 386
#     4  11  22  41  65  96 131 170 219 275 315 393
#     4  10  22  44  65  95 137 168 217 270 325 395
#
# _framework density 28.182749000000001
#
# number of rings (size 3 to 8) (size 9 to 14) (size 15 to 20)
#    0.000    1.600    2.667    1.600    0.000    3.733 
#    0.000    0.000    0.000    0.000    0.000    0.000 
#    0.000    0.000    0.000    0.000    0.000    0.000 
#
# Total GULP energy -83808.691550 kJ/mol
# GULP energy per Si atom -5587.246103 kJ/mol
# Density = 2.811860 g / cm^3
# Si number density = 28.182749 Si / 1000 Ang^3
#
#
#
# Elastic Constant Matrix: (Units=GPa)
#
#
# Indices 1 2 3 4 5 6 
#
# 1 82.9826 8.9246 17.8212 -15.5415 -9.7991 9.4816
# 2 8.9246 173.8257 24.5217 -17.1620 -6.1816 -2.0989
# 3 17.8212 24.5217 95.0263 -17.3827 -9.4068 1.6794
# 4 -15.5415 -17.1620 -17.3827 49.4763 4.1610 -12.3675
# 5 -9.7991 -6.1816 -9.4068 4.1610 54.2390 -8.0354
# 6 9.4816 -2.0989 1.6794 -12.3675 -8.0354 40.7334
#
#
#
# Elastic Compliance Matrix: (Units=1/GPa)
#
#
# Indices 1 2 3 4 5 6 
#
# 1 0.013392 -0.000114 -0.001750 0.002959 0.001604 -0.001836
# 2 -0.000114 0.006144 -0.001187 0.001904 0.000486 0.001066
# 3 -0.001750 -0.001187 0.011908 0.003391 0.001530 0.001186
# 4 0.002959 0.001904 0.003391 0.024666 0.000462 0.006850
# 5 0.001604 0.000486 0.001530 0.000462 0.019543 0.003584
# 6 -0.001836 0.001066 0.001186 0.006850 0.003584 0.027770
#
#
# Mechanical properties :
#
#
# Convention : Reuss Voigt Hill
#
# Bulk Modulus (GPa) = 39.45629 50.48549 44.97089
# Shear Modulus (GPa) = 42.38278 48.92754 45.65516
#
# Velocity S-wave (km/s) = 3.88216 4.17115 4.02925
# Velocity P-wave (km/s) = 5.84170 6.41487 6.13498
#
# Compressibility (1/GPa) = 0.02534450
#
# Stress axis : x y z
#
# Youngs Moduli (GPa) = 74.67113 162.75288 83.97419
#
# Poissons Ratio (x) = 0.01852 0.14693
# Poissons Ratio (y) = 0.00849 0.09965
# Poissons Ratio (z) = 0.13066 0.19313
#
# Static dielectric constant tensor:
#      x y z
#    x 2.587570 -0.484880 0.208850 
#    y -0.484880 3.493990 -0.209890 
#    z 0.208850 -0.209890 2.400070 
# 
# From -- ./inp_files/104327.got.cif
#   From: 2010.05.17/outbox.cif.g08.bks.cpg/sg2_53_cif.got.tgz:104327.got - 2010.06.03 11:33:40.
