data_PCOD9005512
_publ_section_title
;
Structure prediction by ZEFSAII (Michael W. Deem and Ramdas Pophale) SiO2 
 PCOD9005512
Probable space group: P -1
;
_chemical_formula_sum "Si O2"
_cell_formula_units_Z 16
_cell_length_a 15.399155
_cell_length_b 8.809451
_cell_length_c 12.139577
_cell_angle_alpha 97.194528
_cell_angle_beta 152.024027
_cell_angle_gamma 91.611307
_cell_volume 731.609678
_symmetry_space_group_name_H-M "P -1"
_symmetry_group_IT_number 2
_symmetry_cell_setting 'triclinic'
loop_
_space_group_symop_operation_xyz
x,y,z
-x,-y,-z
loop_
_atom_site_type_symbol
_atom_site_label
_atom_site_fract_x
_atom_site_fract_y
_atom_site_fract_z
Si Si1 0.984834 0.527131 0.853583
Si Si2 0.360643 0.470466 0.234665
Si Si3 0.663600 0.681315 0.446630
Si Si4 0.715070 0.186539 0.497875
Si Si5 0.437982 0.132633 0.845191
Si Si6 0.776369 0.989127 0.745101
Si Si7 0.791456 0.005157 0.223326
Si Si8 0.296818 0.123275 0.113034
O O1 0.868930 0.649365 0.697866
O O2 0.858441 0.357550 0.643934
O O3 0.000000 0.500000 0.000000
O O4 0.206417 0.568818 0.069101
O O5 0.500000 0.500000 0.500000
O O6 0.498359 0.526667 0.289948
O O7 0.239201 0.282811 0.088952
O O8 0.614817 0.735419 0.277061
O O9 0.660247 0.827630 0.536758
O O10 0.503303 0.193724 0.292583
O O11 0.682729 0.039559 0.362374
O O12 0.775217 0.133858 0.678809
O O13 0.357794 0.128971 0.878724
O O14 0.665101 0.134571 0.098098
O O15 0.698816 0.974376 0.780775
O O16 0.000000 0.000000 0.000000
O O17 0.821405 0.983603 0.125269
O O18 0.000000 0.000000 0.500000
#
# Coordination Sequence:
#
# PCOD9005512 Si02
#       8
#     2   2   2   2   2   2   2   2
#     4  12  22  37  61  91 130 176 198 241 314 385
#     4  12  22  38  59  91 134 165 204 246 311 387
#     4  11  23  41  62  92 132 164 204 257 311 380
#     4  10  21  38  62  91 127 163 204 255 316 375
#     4   9  23  45  65  94 121 160 213 270 312 358
#     4  11  22  35  57  95 129 158 204 254 309 381
#     4  10  23  42  69  91 121 163 216 266 313 364
#     4  11  21  39  63  93 123 166 208 260 313 368
#
# _framework density 21.869585000000001
#
# number of rings (size 3 to 8) (size 9 to 14) (size 15 to 20)
#    0.000    1.250    3.750    1.875    5.250    1.000 
#    4.500    0.625    0.000    1.500    0.000    0.000 
#    0.000    0.000    0.000    0.000    0.000    0.000 
#
# Total GULP energy -89213.494610 kJ/mol
# GULP energy per Si atom -5575.843413 kJ/mol
# Density = 2.181981 g / cm^3
# Si number density = 21.869585 Si / 1000 Ang^3
#
#
#
# Elastic Constant Matrix: (Units=GPa)
#
#
# Indices 1 2 3 4 5 6 
#
# 1 71.0061 14.6379 16.5714 -16.6502 -7.7232 12.5002
# 2 14.6379 81.9251 15.0888 -25.5210 -7.2564 12.0458
# 3 16.5714 15.0888 83.0623 -38.8429 15.1887 0.0101
# 4 -16.6502 -25.5210 -38.8429 49.1884 1.1976 -3.9824
# 5 -7.7232 -7.2564 15.1887 1.1976 35.2005 -13.6729
# 6 12.5002 12.0458 0.0101 -3.9824 -13.6729 26.8380
#
#
#
# Elastic Compliance Matrix: (Units=1/GPa)
#
#
# Indices 1 2 3 4 5 6 
#
# 1 0.016716 -0.000544 -0.002128 0.003157 0.002019 -0.006044
# 2 -0.000544 0.015490 0.001146 0.008319 0.000216 -0.005355
# 3 -0.002128 0.001146 0.022799 0.017932 -0.011797 -0.002881
# 4 0.003157 0.008319 0.017932 0.039796 -0.007997 -0.003380
# 5 0.002019 0.000216 -0.011797 -0.007997 0.041636 0.018993
# 6 -0.006044 -0.005355 -0.002881 -0.003380 0.018993 0.051655
#
#
# Mechanical properties :
#
#
# Convention : Reuss Voigt Hill
#
# Bulk Modulus (GPa) = 19.24808 36.50997 27.87903
# Shear Modulus (GPa) = 23.98519 34.89172 29.43845
#
# Velocity S-wave (km/s) = 3.31530 3.99864 3.67289
# Velocity P-wave (km/s) = 4.84513 6.16842 5.54638
#
# Compressibility (1/GPa) = 0.05195325
#
# Stress axis : x y z
#
# Youngs Moduli (GPa) = 59.82310 64.55581 43.86212
#
# Poissons Ratio (x) = 0.03510 0.09335
# Poissons Ratio (y) = 0.03253 -0.05026
# Poissons Ratio (z) = 0.12731 -0.07398
#
# Static dielectric constant tensor:
#      x y z
#    x 1.819530 -0.078050 0.055730 
#    y -0.078050 1.893360 -0.013740 
#    z 0.055730 -0.013740 1.781830 
# 
# From -- ./inp_files/353336.got.cif
#   From: 2010.05.17/outbox.cif.g08.bks.cpg/sg2_177_cif.got.tgz:353336.got - 2010.06.03 11:33:40.
