data_PCOD9005898
_publ_section_title
;
Structure prediction by ZEFSAII (Michael W. Deem and Ramdas Pophale) SiO2 
 PCOD9005898
Probable space group: P -1
;
_chemical_formula_sum "Si O2"
_cell_formula_units_Z 16
_cell_length_a 5.690574
_cell_length_b 15.241790
_cell_length_c 24.342333
_cell_angle_alpha 161.325569
_cell_angle_beta 99.637376
_cell_angle_gamma 80.538697
_cell_volume 666.371813
_symmetry_space_group_name_H-M "P -1"
_symmetry_group_IT_number 2
_symmetry_cell_setting 'triclinic'
loop_
_space_group_symop_operation_xyz
x,y,z
-x,-y,-z
loop_
_atom_site_type_symbol
_atom_site_label
_atom_site_fract_x
_atom_site_fract_y
_atom_site_fract_z
Si Si1 0.236604 0.157630 0.579648
Si Si2 0.131303 0.767597 0.972041
Si Si3 0.629133 0.734004 0.758563
Si Si4 0.778323 0.984419 0.158491
Si Si5 0.332775 0.124354 0.736775
Si Si6 0.588019 0.277223 0.941732
Si Si7 0.618712 0.670800 0.428823
Si Si8 0.036597 0.743414 0.564961
O O1 0.224112 0.459931 0.785963
O O2 0.222034 0.251305 0.570580
O O3 0.500000 0.000000 0.500000
O O4 0.000000 0.000000 0.500000
O O5 0.227649 0.859910 0.090924
O O6 0.222065 0.988747 0.063942
O O7 0.860901 0.825248 0.011433
O O8 0.424519 0.817624 0.757188
O O9 0.524998 0.609142 0.736590
O O10 0.789640 0.498788 0.595189
O O11 0.911903 0.176764 0.322823
O O12 0.661220 0.744411 0.048549
O O13 0.536726 0.135688 0.798389
O O14 0.421031 0.911899 0.568987
O O15 0.104090 0.014294 0.693224
O O16 0.316991 0.425603 0.891452
O O17 0.780168 0.664669 0.486157
#
# Coordination Sequence:
#
# PCOD9005898 Si02
#       8
#     2   2   2   2   2   2   2   2
#     4  12  32  53  79 105 137 186 242 305 362 418
#     4  11  24  42  68  96 136 182 236 288 354 413
#     4  10  23  41  66  98 142 183 231 286 346 432
#     4  10  21  38  64 103 143 183 225 283 351 424
#     4   9  19  35  60  94 135 177 223 281 351 425
#     4   9  19  35  60  94 135 177 223 281 351 425
#     4  11  24  42  68  96 136 182 236 288 354 413
#     4  10  21  38  64 103 143 183 225 283 351 424
#
# _framework density 24.010619999999999
#
# number of rings (size 3 to 8) (size 9 to 14) (size 15 to 20)
#    0.000    1.750    0.000    2.625   10.500    4.500 
#    0.000    6.250    0.000    0.000    0.000    0.000 
#    0.000    0.000    0.000    0.000    0.000    0.000 
#
# Total GULP energy -89135.562741 kJ/mol
# GULP energy per Si atom -5570.972671 kJ/mol
# Density = 2.395597 g / cm^3
# Si number density = 24.010620 Si / 1000 Ang^3
#
#
#
# Elastic Constant Matrix: (Units=GPa)
#
#
# Indices 1 2 3 4 5 6 
#
# 1 60.9794 23.5107 53.7259 13.3098 -15.8332 21.5021
# 2 23.5107 77.6800 36.3940 16.0796 0.0130 27.3858
# 3 53.7259 36.3940 105.7150 30.4712 -0.6727 33.2279
# 4 13.3098 16.0796 30.4712 30.6790 11.8404 13.9759
# 5 -15.8332 0.0130 -0.6727 11.8404 25.7463 5.3964
# 6 21.5021 27.3858 33.2279 13.9759 5.3964 35.8503
#
#
#
# Elastic Compliance Matrix: (Units=1/GPa)
#
#
# Indices 1 2 3 4 5 6 
#
# 1 0.048926 0.001173 -0.016012 -0.013891 0.039393 -0.015915
# 2 0.001173 0.018701 -0.001604 -0.005317 0.005691 -0.012287
# 3 -0.016012 -0.001604 0.023353 -0.011735 -0.002613 -0.005848
# 4 -0.013891 -0.005317 -0.011735 0.067234 -0.040426 0.003144
# 5 0.039393 0.005691 -0.002613 -0.040426 0.086364 -0.022792
# 6 -0.015915 -0.012287 -0.005848 0.003144 -0.022792 0.054450
#
#
# Mechanical properties :
#
#
# Convention : Reuss Voigt Hill
#
# Bulk Modulus (GPa) = 17.21320 52.40396 34.80858
# Shear Modulus (GPa) = 14.23378 27.17137 20.70258
#
# Velocity S-wave (km/s) = 2.43741 3.36763 2.93955
# Velocity P-wave (km/s) = 3.88663 6.08227 5.10391
#
# Compressibility (1/GPa) = 0.05809493
#
# Stress axis : x y z
#
# Youngs Moduli (GPa) = 20.43902 53.47372 42.82116
#
# Poissons Ratio (x) = -0.06274 0.68565
# Poissons Ratio (y) = -0.02398 0.06867
# Poissons Ratio (z) = 0.32727 0.08576
#
# Static dielectric constant tensor:
#      x y z
#    x 2.139260 0.051640 0.028140 
#    y 0.051640 1.939510 -0.016190 
#    z 0.028140 -0.016190 1.909190 
# 
# From -- ./inp_files/583247.got.cif
#   From: 2010.05.17/outbox.cif.g08.bks.cpg/sg2_292_cif.got.tgz:583247.got - 2010.06.03 11:33:40.
