data_PCOD9005117
_publ_section_title
;
Structure prediction by ZEFSAII (Michael W. Deem and Ramdas Pophale) SiO2 
 PCOD9005117
Probable space group: P -1
;
_chemical_formula_sum "Si O2"
_cell_formula_units_Z 14
_cell_length_a 7.911199
_cell_length_b 10.286938
_cell_length_c 8.587532
_cell_angle_alpha 67.867512
_cell_angle_beta 51.410029
_cell_angle_gamma 74.926134
_cell_volume 505.703686
_symmetry_space_group_name_H-M "P -1"
_symmetry_group_IT_number 2
_symmetry_cell_setting 'triclinic'
loop_
_space_group_symop_operation_xyz
x,y,z
-x,-y,-z
loop_
_atom_site_type_symbol
_atom_site_label
_atom_site_fract_x
_atom_site_fract_y
_atom_site_fract_z
Si Si1 0.183595 0.409486 0.843529
Si Si2 0.901556 0.183777 0.743274
Si Si3 0.282965 0.808096 0.459584
Si Si4 0.303941 0.125824 0.017950
Si Si5 0.440809 0.411456 0.392397
Si Si6 0.555672 0.241442 0.109133
Si Si7 0.249850 0.982786 0.678162
O O1 0.148038 0.249485 0.985064
O O2 0.234115 0.426141 0.620772
O O3 0.418681 0.449407 0.761774
O O4 0.000000 0.500000 0.000000
O O5 0.893297 0.232271 0.547382
O O6 0.745372 0.299256 0.864694
O O7 0.130076 0.132116 0.705691
O O8 0.791817 0.027737 0.871323
O O9 0.490033 0.864618 0.221555
O O10 0.387213 0.689736 0.564724
O O11 0.176175 0.922939 0.582647
O O12 0.387247 0.170384 0.121152
O O13 0.434912 0.340504 0.258437
O O14 0.723532 0.131963 0.151655
O O15 0.500000 0.000000 0.500000
#
# Coordination Sequence:
#
# PCOD9005117 Si02
#       7
#     2   2   2   2   2   2   2
#     4  10  22  42  68  88 120 170 216 255 308 377
#     4  11  21  36  61  93 128 165 206 243 318 390
#     4   9  19  36  59  86 123 162 198 256 305 375
#     4  10  21  38  63  90 123 167 207 254 311 370
#     4   9  21  42  65  93 124 162 212 263 311 357
#     4  10  21  38  60  92 127 155 200 267 308 369
#     4  11  21  34  51  84 129 166 199 247 304 368
#
# _framework density 27.684194000000002
#
# number of rings (size 3 to 8) (size 9 to 14) (size 15 to 20)
#    0.000    2.000    0.000    4.286    4.000    0.571 
#    5.143    0.714    0.000    0.000    0.000    0.000 
#    0.000    0.000    0.000    0.000    0.000    0.000 
#
# Total GULP energy -78218.937167 kJ/mol
# GULP energy per Si atom -5587.066940 kJ/mol
# Density = 2.762118 g / cm^3
# Si number density = 27.684194 Si / 1000 Ang^3
#
#
#
# Elastic Constant Matrix: (Units=GPa)
#
#
# Indices 1 2 3 4 5 6 
#
# 1 89.9168 20.4751 54.0142 18.9439 6.6611 7.5618
# 2 20.4751 96.3234 51.5298 28.3221 6.0467 2.8016
# 3 54.0142 51.5298 144.3445 55.5427 0.8797 15.8771
# 4 18.9439 28.3221 55.5427 65.6612 8.2939 4.1997
# 5 6.6611 6.0467 0.8797 8.2939 50.9344 17.1609
# 6 7.5618 2.8016 15.8771 4.1997 17.1609 47.8773
#
#
#
# Elastic Compliance Matrix: (Units=1/GPa)
#
#
# Indices 1 2 3 4 5 6 
#
# 1 0.014555 -0.000173 -0.005794 0.001017 -0.002041 0.000275
# 2 -0.000173 0.013239 -0.003947 -0.002208 -0.001565 0.001316
# 3 -0.005794 -0.003947 0.014430 -0.009051 0.003878 -0.004235
# 4 0.001017 -0.002208 -0.009051 0.023949 -0.004444 0.002462
# 5 -0.002041 -0.001565 0.003878 -0.004444 0.023776 -0.009004
# 6 0.000275 0.001316 -0.004235 0.002462 -0.009004 0.025182
#
#
# Mechanical properties :
#
#
# Convention : Reuss Voigt Hill
#
# Bulk Modulus (GPa) = 44.64954 64.73589 54.69271
# Shear Modulus (GPa) = 35.10612 46.53229 40.81920
#
# Velocity S-wave (km/s) = 3.56489 4.10423 3.84403
# Velocity P-wave (km/s) = 5.75394 6.77452 6.28498
#
# Compressibility (1/GPa) = 0.02239665
#
# Stress axis : x y z
#
# Youngs Moduli (GPa) = 68.70446 75.53285 69.30021
#
# Poissons Ratio (x) = 0.01309 0.40150
# Poissons Ratio (y) = 0.01190 0.27352
# Poissons Ratio (z) = 0.39805 0.29812
#
# Static dielectric constant tensor:
#      x y z
#    x 0.212780 0.842560 -2.571480 
#    y 0.842560 1.951710 0.890230 
#    z -2.571480 0.890230 -0.727630 
# 
# From -- ./inp_files/177202.got.cif
#   From: 2010.05.17/outbox.cif.g08.bks.cpg/sg2_89_cif.got.tgz:177202.got - 2010.06.03 11:33:40.
