data_PCOD9005458
_publ_section_title
;
Structure prediction by ZEFSAII (Michael W. Deem and Ramdas Pophale) SiO2 
 PCOD9005458
Probable space group: P -1
;
_chemical_formula_sum "Si O2"
_cell_formula_units_Z 16
_cell_length_a 8.775340
_cell_length_b 20.716201
_cell_length_c 14.873000
_cell_angle_alpha 19.419983
_cell_angle_beta 89.711263
_cell_angle_gamma 100.366317
_cell_volume 747.513680
_symmetry_space_group_name_H-M "P -1"
_symmetry_group_IT_number 2
_symmetry_cell_setting 'triclinic'
loop_
_space_group_symop_operation_xyz
x,y,z
-x,-y,-z
loop_
_atom_site_type_symbol
_atom_site_label
_atom_site_fract_x
_atom_site_fract_y
_atom_site_fract_z
Si Si1 0.611929 0.834784 0.337116
Si Si2 0.642470 0.479428 0.681147
Si Si3 0.968156 0.203744 0.762811
Si Si4 0.697217 0.990729 0.718288
Si Si5 0.593899 0.059350 0.325935
Si Si6 0.808557 0.318260 0.445330
Si Si7 0.682384 0.746228 0.654256
Si Si8 0.016409 0.312853 0.189528
O O1 0.616773 0.662441 0.491971
O O2 0.406685 0.780184 0.407490
O O3 0.663272 0.791052 0.492187
O O4 0.789236 0.089311 0.976347
O O5 0.825598 0.601003 0.460880
O O6 0.445380 0.280456 0.902930
O O7 0.673843 0.327913 0.952849
O O8 0.913033 0.307414 0.545014
O O9 0.000000 0.000000 0.000000
O O10 0.562782 0.068360 0.583438
O O11 0.803063 0.135768 0.614168
O O12 0.826962 0.062152 0.536874
O O13 0.500000 0.000000 0.500000
O O14 0.712095 0.956105 0.441226
O O15 0.912078 0.568388 0.064453
O O16 0.840443 0.712734 0.723620
O O17 0.500000 0.500000 0.000000
O O18 0.000000 0.500000 0.000000
#
# Coordination Sequence:
#
# PCOD9005458 Si02
#       8
#     2   2   2   2   2   2   2   2
#     4  11  21  41  66  91 125 164 220 259 310 381
#     4   9  22  40  59  92 128 164 209 259 322 357
#     4  10  24  40  66  90 121 173 216 261 311 375
#     4   9  21  40  59  93 130 165 199 260 320 367
#     4  10  21  38  62  89 132 164 202 259 321 374
#     4  11  21  41  64  91 127 162 221 254 309 381
#     4  12  21  39  65  97 124 170 211 254 319 388
#     4  10  22  34  63  96 128 163 209 258 312 380
#
# _framework density 21.40429
#
# number of rings (size 3 to 8) (size 9 to 14) (size 15 to 20)
#    0.750    1.000    2.500    1.875    8.750    0.000 
#    2.250    6.250    0.000    0.000    0.000    0.000 
#    0.000    0.000    0.000    0.000    0.000    0.000 
#
# Total GULP energy -89075.265249 kJ/mol
# GULP energy per Si atom -5567.204078 kJ/mol
# Density = 2.135557 g / cm^3
# Si number density = 21.404290 Si / 1000 Ang^3
#
#
#
# Elastic Constant Matrix: (Units=GPa)
#
#
# Indices 1 2 3 4 5 6 
#
# 1 118.9606 -0.8967 20.6241 12.3006 -8.6509 -2.1530
# 2 -0.8967 22.4836 -13.9683 4.6173 -4.7203 7.1217
# 3 20.6241 -13.9683 63.2187 11.4598 -44.9344 7.3881
# 4 12.3006 4.6173 11.4598 27.1782 -5.0908 4.4518
# 5 -8.6509 -4.7203 -44.9344 -5.0908 44.9269 1.0385
# 6 -2.1530 7.1217 7.3881 4.4518 1.0385 25.6502
#
#
#
# Elastic Compliance Matrix: (Units=1/GPa)
#
#
# Indices 1 2 3 4 5 6 
#
# 1 0.008480 0.008875 0.007085 -0.006135 0.009028 -0.003094
# 2 0.008875 -0.071876 -0.112732 0.025040 -0.116994 0.053562
# 3 0.007085 -0.112732 -0.103382 0.028511 -0.112064 0.061260
# 4 -0.006135 0.025040 0.028511 0.033464 0.034286 -0.022876
# 5 0.009028 -0.116994 -0.112064 0.034286 -0.097962 0.063534
# 6 -0.003094 0.053562 0.061260 -0.022876 0.063534 0.007608
#
#
# Mechanical properties :
#
#
# Convention : Reuss Voigt Hill
#
# Bulk Modulus (GPa) = -2.77529 24.02013 10.62242
# Shear Modulus (GPa) = -33.28205 32.81131 -0.23537
#
# Velocity S-wave (km/s) = -3.94753 3.91951 -0.33197
# Velocity P-wave (km/s) = 4.69859 5.63293 2.19695
#
# Compressibility (1/GPa) = -0.36032212
#
# Stress axis : x y z
#
# Youngs Moduli (GPa) = 117.92969 -13.91286 -9.67289
#
# Poissons Ratio (x) = 0.12347 0.06853
# Poissons Ratio (y) = -1.04661 -1.09044
# Poissons Ratio (z) = -0.83551 -1.56842
#
# Static dielectric constant tensor:
#      x y z
#    x 1.955560 0.045850 -0.071160 
#    y 0.045850 1.790220 -0.018090 
#    z -0.071160 -0.018090 1.852390 
# 
# From -- ./inp_files/507807.got.cif
#   From: 2010.05.17/outbox.cif.g08.bks.cpg/sg2_254_cif.got.tgz:507807.got - 2010.06.03 11:33:40.
