data_PCOD9005557
_publ_section_title
;
Structure prediction by ZEFSAII (Michael W. Deem and Ramdas Pophale) SiO2 
 PCOD9005557
Probable space group: P -1
;
_chemical_formula_sum "Si O2"
_cell_formula_units_Z 16
_cell_length_a 9.308812
_cell_length_b 9.134295
_cell_length_c 12.115695
_cell_angle_alpha 103.439086
_cell_angle_beta 50.982180
_cell_angle_gamma 92.549751
_cell_volume 771.389189
_symmetry_space_group_name_H-M "P -1"
_symmetry_group_IT_number 2
_symmetry_cell_setting 'triclinic'
loop_
_space_group_symop_operation_xyz
x,y,z
-x,-y,-z
loop_
_atom_site_type_symbol
_atom_site_label
_atom_site_fract_x
_atom_site_fract_y
_atom_site_fract_z
Si Si1 0.613694 0.346095 0.871509
Si Si2 0.601228 0.582580 0.218183
Si Si3 0.202719 0.152771 0.727284
Si Si4 0.824178 0.922841 0.533612
Si Si5 0.994453 0.597841 0.411736
Si Si6 0.432416 0.914997 0.738728
Si Si7 0.620830 0.575918 0.539319
Si Si8 0.230726 0.752943 0.995991
O O1 0.478370 0.317993 0.831195
O O2 0.813502 0.378697 0.732880
O O3 0.500000 0.500000 0.000000
O O4 0.665420 0.241665 0.934893
O O5 0.693304 0.698339 0.273320
O O6 0.424255 0.511401 0.342259
O O7 0.732022 0.425056 0.093693
O O8 0.192995 0.097681 0.594701
O O9 0.309257 0.016807 0.726576
O O10 0.988974 0.197674 0.875221
O O11 0.881248 0.757969 0.529146
O O12 0.620277 0.989664 0.687357
O O13 0.000000 0.000000 0.500000
O O14 0.838686 0.542341 0.397888
O O15 0.000000 0.500000 0.500000
O O16 0.527716 0.750771 0.618170
O O17 0.314107 0.865157 0.889735
O O18 0.500000 0.500000 0.500000
#
# Coordination Sequence:
#
# PCOD9005557 Si02
#       8
#     2   2   2   2   2   2   2   2
#     4  10  21  39  64  93 130 161 212 259 319 368
#     4  10  21  38  66  95 128 165 207 265 321 371
#     4  12  23  42  68  92 130 168 213 259 319 380
#     4  11  26  44  65  92 128 167 211 265 319 376
#     4  11  21  39  66  92 121 162 211 262 313 374
#     4  10  24  42  63  93 131 167 212 260 315 379
#     4  10  21  38  62  93 126 162 209 265 317 371
#     4  10  22  43  65  94 131 168 211 258 317 380
#
# _framework density 20.741799
#
# number of rings (size 3 to 8) (size 9 to 14) (size 15 to 20)
#    0.000    1.500    2.500    2.625    3.500    1.000 
#    2.250    3.750    0.000    0.000    0.000    0.000 
#    0.000    0.000    0.000    0.000    0.000    0.000 
#
# Total GULP energy -89138.277818 kJ/mol
# GULP energy per Si atom -5571.142364 kJ/mol
# Density = 2.069459 g / cm^3
# Si number density = 20.741799 Si / 1000 Ang^3
#
#
#
# Elastic Constant Matrix: (Units=GPa)
#
#
# Indices 1 2 3 4 5 6 
#
# 1 144.8005 58.2615 34.0806 -11.5734 -2.5569 -12.5786
# 2 58.2615 113.0990 34.1050 -10.8745 6.0420 -30.7329
# 3 34.0806 34.1050 83.9973 -13.5163 -15.8324 -9.6697
# 4 -11.5734 -10.8745 -13.5163 25.4321 -4.4560 4.0797
# 5 -2.5569 6.0420 -15.8324 -4.4560 40.1280 -2.8811
# 6 -12.5786 -30.7329 -9.6697 4.0797 -2.8811 40.9923
#
#
#
# Elastic Compliance Matrix: (Units=1/GPa)
#
#
# Indices 1 2 3 4 5 6 
#
# 1 0.009098 -0.004327 -0.001639 0.001696 0.000704 -0.000959
# 2 -0.004327 0.014767 -0.003831 0.000346 -0.003357 0.008570
# 3 -0.001639 -0.003831 0.016983 0.007995 0.008090 0.000404
# 4 0.001696 0.000346 0.007995 0.046149 0.008238 -0.001348
# 5 0.000704 -0.003357 0.008090 0.008238 0.029640 0.000871
# 6 -0.000959 0.008570 0.000404 -0.001348 0.000871 0.030816
#
#
# Mechanical properties :
#
#
# Convention : Reuss Voigt Hill
#
# Bulk Modulus (GPa) = 47.04896 66.08787 56.56841
# Shear Modulus (GPa) = 28.71388 35.67379 32.19384
#
# Velocity S-wave (km/s) = 3.72472 4.15167 3.94397
# Velocity P-wave (km/s) = 6.42110 7.41034 6.93338
#
# Compressibility (1/GPa) = 0.02125445
#
# Stress axis : x y z
#
# Youngs Moduli (GPa) = 109.91850 67.71669 58.88136
#
# Poissons Ratio (x) = 0.29303 0.09651
# Poissons Ratio (y) = 0.47565 0.22555
# Poissons Ratio (z) = 0.18015 0.25940
#
# Static dielectric constant tensor:
#      x y z
#    x 1.559350 -0.130340 0.084050 
#    y -0.130340 1.718850 -0.026160 
#    z 0.084050 -0.026160 1.778860 
# 
# From -- ./inp_files/382503.got.cif
#   From: 2010.05.17/outbox.cif.g08.bks.cpg/sg2_192_cif.got.tgz:382503.got - 2010.06.03 11:33:40.
