data_PCOD9005103
_publ_section_title
;
Structure prediction by ZEFSAII (Michael W. Deem and Ramdas Pophale) SiO2 
 PCOD9005103
Probable space group: P -1
;
_chemical_formula_sum "Si O2"
_cell_formula_units_Z 14
_cell_length_a 8.717702
_cell_length_b 11.675217
_cell_length_c 11.883539
_cell_angle_alpha 130.360731
_cell_angle_beta 74.400258
_cell_angle_gamma 132.660351
_cell_volume 645.837187
_symmetry_space_group_name_H-M "P -1"
_symmetry_group_IT_number 2
_symmetry_cell_setting 'triclinic'
loop_
_space_group_symop_operation_xyz
x,y,z
-x,-y,-z
loop_
_atom_site_type_symbol
_atom_site_label
_atom_site_fract_x
_atom_site_fract_y
_atom_site_fract_z
Si Si1 0.430657 0.725161 0.325081
Si Si2 0.582307 0.841615 0.115691
Si Si3 0.151239 0.280177 0.022017
Si Si4 0.865869 0.558142 0.103936
Si Si5 0.722397 0.158665 0.126688
Si Si6 0.009842 0.593814 0.436773
Si Si7 0.084874 0.896733 0.465457
O O1 0.480303 0.790014 0.226134
O O2 0.333699 0.492980 0.191350
O O3 0.239209 0.696355 0.399945
O O4 0.656265 0.907281 0.456661
O O5 0.668264 0.055070 0.192773
O O6 0.774365 0.843206 0.071663
O O7 0.381166 0.654855 0.958908
O O8 0.915272 0.178975 0.049899
O O9 0.157194 0.341170 0.931156
O O10 0.999350 0.722188 0.280396
O O11 0.000000 0.500000 0.000000
O O12 0.820723 0.386880 0.270734
O O13 0.500000 0.000000 0.000000
O O14 0.004161 0.769855 0.520713
O O15 0.000000 0.500000 0.500000
O O16 0.000000 0.000000 0.500000
#
# Coordination Sequence:
#
# PCOD9005103 Si02
#       7
#     2   2   2   2   2   2   2
#     4  10  22  40  64  89 121 170 214 252 312 390
#     4  11  20  39  63  89 125 170 211 256 315 384
#     4  10  21  38  60  91 126 162 208 263 317 374
#     4  11  22  38  62  93 125 161 212 265 312 375
#     4  11  23  38  60  91 125 164 210 262 316 372
#     4  11  25  43  61  88 127 167 208 257 318 384
#     4  12  23  40  66  97 124 162 214 267 313 369
#
# _framework density 21.677289999999999
#
# number of rings (size 3 to 8) (size 9 to 14) (size 15 to 20)
#    0.000    1.143    0.000    9.429    0.000    2.286 
#    0.000    0.714    0.000    0.000    0.000    0.000 
#    0.000    0.000    0.000    0.000    0.000    0.000 
#
# Total GULP energy -78180.137749 kJ/mol
# GULP energy per Si atom -5584.295554 kJ/mol
# Density = 2.162795 g / cm^3
# Si number density = 21.677290 Si / 1000 Ang^3
#
#
#
# Elastic Constant Matrix: (Units=GPa)
#
#
# Indices 1 2 3 4 5 6 
#
# 1 93.0518 52.0574 46.0228 26.0747 4.8365 -10.7214
# 2 52.0574 108.8378 33.6318 18.7791 -4.2873 3.5260
# 3 46.0228 33.6318 117.0317 21.0547 24.4287 6.2043
# 4 26.0747 18.7791 21.0547 34.8618 10.9448 3.6145
# 5 4.8365 -4.2873 24.4287 10.9448 33.4736 12.4099
# 6 -10.7214 3.5260 6.2043 3.6145 12.4099 40.1696
#
#
#
# Elastic Compliance Matrix: (Units=1/GPa)
#
#
# Indices 1 2 3 4 5 6 
#
# 1 0.020567 -0.006989 -0.004746 -0.009503 -0.000167 0.007742
# 2 -0.006989 0.014054 -0.001975 -0.002836 0.006911 -0.004674
# 3 -0.004746 -0.001975 0.012887 -0.000398 -0.008710 -0.000357
# 4 -0.009503 -0.002836 -0.000398 0.041367 -0.011316 -0.002452
# 5 -0.000167 0.006911 -0.008710 -0.011316 0.045405 -0.012315
# 6 0.007742 -0.004674 -0.000357 -0.002452 -0.012315 0.031452
#
#
# Mechanical properties :
#
#
# Convention : Reuss Voigt Hill
#
# Bulk Modulus (GPa) = 49.77790 64.70505 57.24147
# Shear Modulus (GPa) = 25.01900 34.18164 29.60032
#
# Velocity S-wave (km/s) = 3.40097 3.97525 3.69928
# Velocity P-wave (km/s) = 6.19961 7.14032 6.68653
#
# Compressibility (1/GPa) = 0.02008924
#
# Stress axis : x y z
#
# Youngs Moduli (GPa) = 48.62083 71.15452 77.59664
#
# Poissons Ratio (x) = 0.49727 0.36826
# Poissons Ratio (y) = 0.33979 0.15326
# Poissons Ratio (z) = 0.23075 0.14054
#
# Static dielectric constant tensor:
#      x y z
#    x 2.346550 -0.547650 -0.041350 
#    y -0.547650 2.290900 0.039820 
#    z -0.041350 0.039820 1.848690 
# 
# From -- ./inp_files/391353.got.cif
#   From: 2010.05.17/outbox.cif.g08.bks.cpg/sg2_196_cif.got.tgz:391353.got - 2010.06.03 11:33:40.
