data_PCOD9005606
_publ_section_title
;
Structure prediction by ZEFSAII (Michael W. Deem and Ramdas Pophale) SiO2 
 PCOD9005606
Probable space group: P -1
;
_chemical_formula_sum "Si O2"
_cell_formula_units_Z 16
_cell_length_a 15.003430
_cell_length_b 7.545362
_cell_length_c 9.057010
_cell_angle_alpha 102.364076
_cell_angle_beta 139.202607
_cell_angle_gamma 72.410052
_cell_volume 638.423926
_symmetry_space_group_name_H-M "P -1"
_symmetry_group_IT_number 2
_symmetry_cell_setting 'triclinic'
loop_
_space_group_symop_operation_xyz
x,y,z
-x,-y,-z
loop_
_atom_site_type_symbol
_atom_site_label
_atom_site_fract_x
_atom_site_fract_y
_atom_site_fract_z
Si Si1 0.784639 0.813812 0.010602
Si Si2 0.344679 0.116183 0.430939
Si Si3 0.514265 0.805417 0.810321
Si Si4 0.932917 0.876934 0.772476
Si Si5 0.178236 0.602578 0.122258
Si Si6 0.429833 0.637312 0.263121
Si Si7 0.896494 0.227236 0.619138
Si Si8 0.623307 0.314852 0.119149
O O1 0.944190 0.813682 0.244607
O O2 0.674543 0.825664 0.006102
O O3 0.799532 0.612834 0.917748
O O4 0.709029 0.944265 0.805147
O O5 0.429867 0.952533 0.612966
O O6 0.560248 0.735764 0.454337
O O7 0.199404 0.192028 0.345158
O O8 0.521457 0.588019 0.735905
O O9 0.440761 0.821990 0.880439
O O10 0.880217 0.020046 0.602438
O O11 0.058891 0.704102 0.877542
O O12 0.000000 0.000000 0.000000
O O13 0.319235 0.662374 0.261398
O O14 0.127526 0.660642 0.234848
O O15 0.355822 0.720737 0.033429
O O16 0.771738 0.325928 0.375707
O O17 0.500000 0.500000 0.000000
#
# Coordination Sequence:
#
# PCOD9005606 Si02
#       8
#     2   2   2   2   2   2   2   2
#     4  11  24  37  67 103 127 170 220 267 337 381
#     4  12  23  38  69  99 133 170 216 270 336 380
#     4  10  24  43  63  97 135 172 217 272 321 395
#     4  10  21  38  62  96 134 167 211 267 334 384
#     4  10  23  41  64 100 133 163 221 278 319 395
#     4  10  26  43  66  99 131 173 223 268 327 387
#     4  11  22  41  67  92 134 173 214 269 332 386
#     4  10  23  45  66  89 134 179 215 270 327 388
#
# _framework density 25.061715
#
# number of rings (size 3 to 8) (size 9 to 14) (size 15 to 20)
#    0.000    1.500    3.750    0.750    7.000    1.500 
#    0.000    7.500    0.000    0.000    0.000    0.000 
#    0.000    0.000    0.000    0.000    0.000    0.000 
#
# Total GULP energy -89506.012306 kJ/mol
# GULP energy per Si atom -5594.125769 kJ/mol
# Density = 2.500467 g / cm^3
# Si number density = 25.061715 Si / 1000 Ang^3
#
#
#
# Elastic Constant Matrix: (Units=GPa)
#
#
# Indices 1 2 3 4 5 6 
#
# 1 163.9707 29.7012 53.6206 4.7868 36.5554 24.1970
# 2 29.7012 93.6922 20.5098 -21.7911 4.2837 12.8085
# 3 53.6206 20.5098 132.8688 -19.1038 25.0017 7.2756
# 4 4.7868 -21.7911 -19.1038 28.1954 7.5856 1.3151
# 5 36.5554 4.2837 25.0017 7.5856 37.1872 11.0398
# 6 24.1970 12.8085 7.2756 1.3151 11.0398 38.6167
#
#
#
# Elastic Compliance Matrix: (Units=1/GPa)
#
#
# Indices 1 2 3 4 5 6 
#
# 1 0.009140 -0.002584 -0.002696 -0.003826 -0.005286 -0.002721
# 2 -0.002584 0.014899 0.001162 0.013344 -0.001632 -0.003530
# 3 -0.002696 0.001162 0.011440 0.011143 -0.007739 0.000982
# 4 -0.003826 0.013344 0.011143 0.058567 -0.016825 -0.001312
# 5 -0.005286 -0.001632 -0.007739 -0.016825 0.042795 -0.006350
# 6 -0.002721 -0.003530 0.000982 -0.001312 -0.006350 0.030446
#
#
# Mechanical properties :
#
#
# Convention : Reuss Voigt Hill
#
# Bulk Modulus (GPa) = 36.70770 66.46611 51.58690
# Shear Modulus (GPa) = 27.08515 39.91320 33.49918
#
# Velocity S-wave (km/s) = 3.29102 3.99506 3.66001
# Velocity P-wave (km/s) = 5.39628 6.91804 6.20400
#
# Compressibility (1/GPa) = 0.02724224
#
# Stress axis : x y z
#
# Youngs Moduli (GPa) = 109.40919 67.12031 87.41638
#
# Poissons Ratio (x) = 0.17341 0.23569
# Poissons Ratio (y) = 0.28266 -0.10156
# Poissons Ratio (z) = 0.29499 -0.07798
#
# Static dielectric constant tensor:
#      x y z
#    x 1.989150 -0.024440 -0.013500 
#    y -0.024440 2.087800 -0.010440 
#    z -0.013500 -0.010440 2.000360 
# 
# From -- ./inp_files/298388.got.cif
#   From: 2010.05.17/outbox.cif.g08.bks.cpg/sg2_150_cif.got.tgz:298388.got - 2010.06.03 11:33:40.
