data_PCOD9005210
_publ_section_title
;
Structure prediction by ZEFSAII (Michael W. Deem and Ramdas Pophale) SiO2 
 PCOD9005210
Probable space group: P -1
;
_chemical_formula_sum "Si O2"
_cell_formula_units_Z 14
_cell_length_a 5.183755
_cell_length_b 26.705855
_cell_length_c 24.302935
_cell_angle_alpha 10.107787
_cell_angle_beta 97.645923
_cell_angle_gamma 98.080704
_cell_volume 584.318507
_symmetry_space_group_name_H-M "P -1"
_symmetry_group_IT_number 2
_symmetry_cell_setting 'triclinic'
loop_
_space_group_symop_operation_xyz
x,y,z
-x,-y,-z
loop_
_atom_site_type_symbol
_atom_site_label
_atom_site_fract_x
_atom_site_fract_y
_atom_site_fract_z
Si Si1 0.325047 0.708001 0.305566
Si Si2 0.671760 0.230235 0.142446
Si Si3 0.758041 0.946928 0.831778
Si Si4 0.098840 0.937954 0.953257
Si Si5 0.436521 0.524345 0.339114
Si Si6 0.858120 0.610620 0.096342
Si Si7 0.268103 0.420191 0.121921
O O1 0.500000 0.500000 0.500000
O O2 0.315201 0.584087 0.501166
O O3 0.500000 0.000000 0.000000
O O4 0.077467 0.803266 0.159807
O O5 0.740484 0.911751 0.504126
O O6 0.383189 0.230092 0.108855
O O7 0.681667 0.409309 0.004864
O O8 0.888015 0.363218 0.962829
O O9 0.755222 0.277408 0.457777
O O10 0.853533 0.969353 0.873604
O O11 0.514797 0.718181 0.079531
O O12 0.920730 0.775239 0.977568
O O13 0.257371 0.241919 0.628493
O O14 0.275863 0.723071 0.158587
O O15 0.500000 0.500000 0.000000
O O16 0.000000 0.500000 0.000000
#
# Coordination Sequence:
#
# PCOD9005210 Si02
#       7
#     2   2   2   2   2   2   2
#     4   8  16  33  56  85 116 161 201 286 370 439
#     4  12  26  49  70 108 150 189 230 281 338 399
#     4  12  26  40  64  96 122 189 240 290 340 416
#     4  10  21  38  61  87 126 161 224 289 366 424
#     4  10  21  38  61  87 126 161 224 289 366 424
#     4  12  28  45  70  97 146 194 240 281 340 401
#     4  12  24  45  80 114 146 183 230 279 338 399
#
# _framework density 23.959537000000001
#
# number of rings (size 3 to 8) (size 9 to 14) (size 15 to 20)
#    0.000    1.143    0.000    6.000    6.000    0.571 
#    0.000    0.000    0.000   12.000    0.000    0.000 
#    0.000    0.000    0.000    0.000    0.000    0.000 
#
# Total GULP energy -78348.167179 kJ/mol
# GULP energy per Si atom -5596.297656 kJ/mol
# Density = 2.390500 g / cm^3
# Si number density = 23.959537 Si / 1000 Ang^3
#
#
#
# Elastic Constant Matrix: (Units=GPa)
#
#
# Indices 1 2 3 4 5 6 
#
# 1 93.4666 26.8727 12.5499 11.0183 -1.7999 4.1503
# 2 26.8727 107.7643 34.5802 -19.7426 -3.7166 3.9912
# 3 12.5499 34.5802 181.2169 -25.9273 -9.0652 -12.4214
# 4 11.0183 -19.7426 -25.9273 46.5601 -4.6336 6.1296
# 5 -1.7999 -3.7166 -9.0652 -4.6336 27.3256 5.9799
# 6 4.1503 3.9912 -12.4214 6.1296 5.9799 48.3804
#
#
#
# Elastic Compliance Matrix: (Units=1/GPa)
#
#
# Indices 1 2 3 4 5 6 
#
# 1 0.012512 -0.003778 -0.000938 -0.005134 -0.000816 -0.000251
# 2 -0.003778 0.011808 -0.001188 0.005735 0.002368 -0.001974
# 3 -0.000938 -0.001188 0.006488 0.003407 0.002259 0.001133
# 4 -0.005134 0.005735 0.003407 0.028209 0.007147 -0.003615
# 5 -0.000816 0.002368 0.002259 0.007147 0.040006 -0.005396
# 6 -0.000251 -0.001974 0.001133 -0.003615 -0.005396 0.022270
#
#
# Mechanical properties :
#
#
# Convention : Reuss Voigt Hill
#
# Bulk Modulus (GPa) = 52.63289 58.93926 55.78608
# Shear Modulus (GPa) = 35.85912 45.01622 40.43767
#
# Velocity S-wave (km/s) = 3.87286 4.33927 4.11268
# Velocity P-wave (km/s) = 6.48181 7.05397 6.77393
#
# Compressibility (1/GPa) = 0.01899953
#
# Stress axis : x y z
#
# Youngs Moduli (GPa) = 79.92411 84.68565 154.13097
#
# Poissons Ratio (x) = 0.31997 0.14458
# Poissons Ratio (y) = 0.30198 0.18310
# Poissons Ratio (z) = 0.07497 0.10060
#
# Static dielectric constant tensor:
#      x y z
#    x 1.925220 0.065930 -0.008850 
#    y 0.065930 1.976930 0.031810 
#    z -0.008850 0.031810 1.895890 
# 
# From -- ./inp_files/127661.got.cif
#   From: 2010.05.17/outbox.cif.g08.bks.cpg/sg2_64_cif.got.tgz:127661.got - 2010.06.03 11:33:40.
