data_PCOD9005575
_publ_section_title
;
Structure prediction by ZEFSAII (Michael W. Deem and Ramdas Pophale) SiO2 
 PCOD9005575
Probable space group: P -1
;
_chemical_formula_sum "Si O2"
_cell_formula_units_Z 16
_cell_length_a 16.564010
_cell_length_b 19.117819
_cell_length_c 11.547680
_cell_angle_alpha 139.652950
_cell_angle_beta 23.025142
_cell_angle_gamma 149.698262
_cell_volume 711.831050
_symmetry_space_group_name_H-M "P -1"
_symmetry_group_IT_number 2
_symmetry_cell_setting 'triclinic'
loop_
_space_group_symop_operation_xyz
x,y,z
-x,-y,-z
loop_
_atom_site_type_symbol
_atom_site_label
_atom_site_fract_x
_atom_site_fract_y
_atom_site_fract_z
Si Si1 0.042926 0.164676 0.927299
Si Si2 0.646972 0.834796 0.681500
Si Si3 0.503388 0.320905 0.817574
Si Si4 0.922384 0.149200 0.731800
Si Si5 0.925594 0.118171 0.294575
Si Si6 0.651508 0.162746 0.302095
Si Si7 0.467412 0.462496 0.818458
Si Si8 0.925431 0.292456 0.691851
O O1 0.207362 0.133797 0.595028
O O2 0.245876 0.335452 0.869475
O O3 0.972121 0.123553 0.102384
O O4 0.769463 0.103563 0.146437
O O5 0.797068 0.804003 0.532584
O O6 0.716989 0.981182 0.808530
O O7 0.327676 0.717471 0.958318
O O8 0.674606 0.278577 0.493188
O O9 0.459828 0.385919 0.847430
O O10 0.596129 0.434084 0.936795
O O11 0.206083 0.176206 0.055858
O O12 0.913952 0.186933 0.660663
O O13 0.825228 0.216029 0.023786
O O14 0.898411 0.231868 0.522273
O O15 0.657368 0.963045 0.479621
O O16 0.778678 0.560551 0.495056
#
# Coordination Sequence:
#
# PCOD9005575 Si02
#       8
#     2   2   2   2   2   2   2   2
#     4  10  23  40  61  89 127 158 201 255 302 359
#     4  10  22  42  63  90 129 162 192 260 307 356
#     4   9  20  38  60  84 121 158 202 256 297 358
#     4  10  23  40  62  96 128 152 209 245 310 375
#     4  10  21  38  62  94 119 153 206 250 311 370
#     4  11  21  38  61  95 119 158 201 256 312 357
#     4   9  21  41  56  86 120 162 210 240 297 368
#     4  11  22  41  67  88 123 170 200 247 308 360
#
# _framework density 22.477243999999999
#
# number of rings (size 3 to 8) (size 9 to 14) (size 15 to 20)
#    0.000    2.000    1.250    1.875    3.500    3.000 
#    6.750    1.250    0.000    0.000    0.000    0.000 
#    0.000    0.000    0.000    0.000    0.000    0.000 
#
# Total GULP energy -89301.443178 kJ/mol
# GULP energy per Si atom -5581.340199 kJ/mol
# Density = 2.242608 g / cm^3
# Si number density = 22.477244 Si / 1000 Ang^3
#
#
#
# Elastic Constant Matrix: (Units=GPa)
#
#
# Indices 1 2 3 4 5 6 
#
# 1 46.8009 6.4637 28.7860 4.5502 4.0659 12.6203
# 2 6.4637 52.6987 26.7546 -7.2304 -17.5058 5.9175
# 3 28.7860 26.7546 136.5781 11.6630 -2.5730 -3.7590
# 4 4.5502 -7.2304 11.6630 21.8521 11.1889 0.9300
# 5 4.0659 -17.5058 -2.5730 11.1889 17.8001 1.3512
# 6 12.6203 5.9175 -3.7590 0.9300 1.3512 12.1011
#
#
#
# Elastic Compliance Matrix: (Units=1/GPa)
#
#
# Indices 1 2 3 4 5 6 
#
# 1 0.040633 0.005196 -0.011299 0.003597 -0.004405 -0.048212
# 2 0.005196 0.039328 -0.008673 -0.002769 0.040380 -0.031641
# 3 -0.011299 -0.008673 0.012610 -0.007684 -0.000862 0.020629
# 4 0.003597 -0.002769 -0.007684 0.074615 -0.051193 -0.004802
# 5 -0.004405 0.040380 -0.000862 -0.051193 0.130935 -0.026106
# 6 -0.048212 -0.031641 0.020629 -0.004802 -0.026106 0.158083
#
#
# Mechanical properties :
#
#
# Convention : Reuss Voigt Hill
#
# Bulk Modulus (GPa) = 15.86791 40.00956 27.93874
# Shear Modulus (GPa) = 9.86656 21.95556 15.91106
#
# Velocity S-wave (km/s) = 2.09740 3.12876 2.66348
# Velocity P-wave (km/s) = 3.59727 5.55795 4.68141
#
# Compressibility (1/GPa) = 0.06302028
#
# Stress axis : x y z
#
# Youngs Moduli (GPa) = 24.61044 25.42687 79.30251
#
# Poissons Ratio (x) = -0.13213 0.89605
# Poissons Ratio (y) = -0.12789 0.68779
# Poissons Ratio (z) = 0.27808 0.22053
#
# Static dielectric constant tensor:
#      x y z
#    x 1.826000 0.014750 0.014840 
#    y 0.014750 1.862100 0.019700 
#    z 0.014840 0.019700 1.870800 
# 
# From -- ./inp_files/238724.got.cif
#   From: 2010.05.17/outbox.cif.g08.bks.cpg/sg2_120_cif.got.tgz:238724.got - 2010.06.03 11:33:40.
