data_PCOD9005191
_publ_section_title
;
Structure prediction by ZEFSAII (Michael W. Deem and Ramdas Pophale) SiO2 
 PCOD9005191
Probable space group: P -1
;
_chemical_formula_sum "Si O2"
_cell_formula_units_Z 16
_cell_length_a 17.384758
_cell_length_b 8.176277
_cell_length_c 7.046427
_cell_angle_alpha 57.670088
_cell_angle_beta 109.562075
_cell_angle_gamma 121.236565
_cell_volume 721.347402
_symmetry_space_group_name_H-M "P -1"
_symmetry_group_IT_number 2
_symmetry_cell_setting 'triclinic'
loop_
_space_group_symop_operation_xyz
x,y,z
-x,-y,-z
loop_
_atom_site_type_symbol
_atom_site_label
_atom_site_fract_x
_atom_site_fract_y
_atom_site_fract_z
Si Si1 0.720668 0.128166 0.726678
Si Si2 0.350927 0.361141 0.062775
Si Si3 0.916244 0.231779 0.962778
Si Si4 0.790245 0.503907 0.282083
Si Si5 0.476642 0.641840 0.696187
Si Si6 0.035441 0.112075 0.665598
Si Si7 0.455316 0.959399 0.193158
Si Si8 0.073433 0.663119 0.678719
O O1 0.720819 0.308039 0.471693
O O2 0.652280 0.108770 0.852394
O O3 0.823511 0.189748 0.816120
O O4 0.686842 0.889171 0.770577
O O5 0.268024 0.427198 0.956675
O O6 0.390387 0.440301 0.833153
O O7 0.444318 0.439414 0.208151
O O8 0.889515 0.206201 0.179699
O O9 0.963525 0.072034 0.083512
O O10 0.986137 0.463183 0.810094
O O11 0.861752 0.701826 0.344731
O O12 0.854696 0.413308 0.292102
O O13 0.467508 0.765993 0.428508
O O14 0.503023 0.829200 0.766556
O O15 0.965372 0.217847 0.573718
O O16 0.000000 0.000000 0.500000
O O17 0.500000 0.000000 0.000000
#
# Coordination Sequence:
#
# PCOD9005191 Si02
#       8
#     2   2   2   2   2   2   2   2
#     4  11  22  38  63  93 123 163 216 266 315 386
#     4  10  21  40  64  92 131 169 209 274 321 377
#     4  10  21  40  59  84 130 163 207 267 319 375
#     4  12  22  38  66  92 124 169 221 261 321 384
#     4   9  20  42  67  92 134 168 210 268 327 387
#     4  10  21  38  61  86 124 167 206 263 322 376
#     4  10  21  40  71  96 126 173 212 260 332 390
#     4  10  23  38  60  88 122 170 209 261 322 378
#
# _framework density 22.180710999999999
#
# number of rings (size 3 to 8) (size 9 to 14) (size 15 to 20)
#    0.000    1.750    3.750    0.375    0.000    2.500 
#    0.000    5.625   11.000    0.000    0.000    0.000 
#    0.000    0.000    0.000    0.000    0.000    0.000 
#
# Total GULP energy -89164.453428 kJ/mol
# GULP energy per Si atom -5572.778339 kJ/mol
# Density = 2.213023 g / cm^3
# Si number density = 22.180711 Si / 1000 Ang^3
#
#
#
# Elastic Constant Matrix: (Units=GPa)
#
#
# Indices 1 2 3 4 5 6 
#
# 1 -103.5306 -2.4832 -227.7741 121.3747 60.6392 13.7925
# 2 -2.4832 37.8370 -5.5228 -0.6861 3.4236 -8.5274
# 3 -227.7741 -5.5228 -165.1649 105.5315 68.6485 6.0677
# 4 121.3747 -0.6861 105.5315 -25.4736 -22.9902 -12.6777
# 5 60.6392 3.4236 68.6485 -22.9902 42.8450 -2.4817
# 6 13.7925 -8.5274 6.0677 -12.6777 -2.4817 21.6367
#
#
#
# Elastic Compliance Matrix: (Units=1/GPa)
#
#
# Indices 1 2 3 4 5 6 
#
# 1 0.005324 -0.000794 -0.005367 0.001782 0.002030 -0.000925
# 2 -0.000794 0.030885 0.004106 0.007416 -0.003044 0.015523
# 3 -0.005367 0.004106 0.010959 0.015503 -0.001341 0.010897
# 4 0.001782 0.007416 0.015503 0.033476 -0.009065 0.016014
# 5 0.002030 -0.003044 -0.001341 -0.009065 0.017680 -0.005402
# 6 -0.000925 0.015523 0.010897 0.016014 -0.005402 0.058633
#
#
# Mechanical properties :
#
#
# Convention : Reuss Voigt Hill
#
# Bulk Modulus (GPa) = 23.22494 -78.04652 -27.41079
# Shear Modulus (GPa) = 28.50296 8.12972 18.31634
#
# Velocity S-wave (km/s) = 3.58863 1.91655 2.87675
# Velocity P-wave (km/s) = 5.25970 5.51049 1.16211
#
# Compressibility (1/GPa) = 0.04305715
#
# Stress axis : x y z
#
# Youngs Moduli (GPa) = 187.81292 32.37844 91.24760
#
# Poissons Ratio (x) = 0.02570 0.48977
# Poissons Ratio (y) = 0.14908 -0.37463
# Poissons Ratio (z) = 1.00808 -0.13293
#
# Static dielectric constant tensor:
#      x y z
#    x 1.842730 -0.018120 0.019450 
#    y -0.018120 1.940200 -0.001940 
#    z 0.019450 -0.001940 1.837100 
# 
# From -- ./inp_files/325614.got.cif
#   From: 2010.05.17/outbox.cif.g08.bks.cpg/sg2_163_cif.got.tgz:325614.got - 2010.06.03 11:33:40.
