data_PCOD9005465
_publ_section_title
;
Structure prediction by ZEFSAII (Michael W. Deem and Ramdas Pophale) SiO2 
 PCOD9005465
Probable space group: P -1
;
_chemical_formula_sum "Si O2"
_cell_formula_units_Z 16
_cell_length_a 17.068743
_cell_length_b 7.863886
_cell_length_c 13.474113
_cell_angle_alpha 100.273039
_cell_angle_beta 44.423158
_cell_angle_gamma 135.793620
_cell_volume 644.226384
_symmetry_space_group_name_H-M "P -1"
_symmetry_group_IT_number 2
_symmetry_cell_setting 'triclinic'
loop_
_space_group_symop_operation_xyz
x,y,z
-x,-y,-z
loop_
_atom_site_type_symbol
_atom_site_label
_atom_site_fract_x
_atom_site_fract_y
_atom_site_fract_z
Si Si1 0.269597 0.515676 0.854545
Si Si2 0.002904 0.390923 0.200895
Si Si3 0.608907 0.393027 0.928465
Si Si4 0.546382 0.655264 0.136840
Si Si5 0.271463 0.299798 0.542748
Si Si6 0.947556 0.105439 0.918137
Si Si7 0.844421 0.366155 0.709480
Si Si8 0.589519 0.936597 0.449196
O O1 0.504091 0.811660 0.626425
O O2 0.200106 0.246349 0.940460
O O3 0.107077 0.343608 0.892097
O O4 0.225219 0.606729 0.981677
O O5 0.056950 0.565424 0.268521
O O6 0.852417 0.025357 0.329530
O O7 0.846839 0.275672 0.251687
O O8 0.553299 0.357945 0.860360
O O9 0.810613 0.528841 0.764400
O O10 0.623542 0.587659 0.998360
O O11 0.396158 0.022301 0.127868
O O12 0.363431 0.388026 0.359115
O O13 0.767758 0.000521 0.029732
O O14 0.476963 0.635221 0.457702
O O15 0.101445 0.232799 0.705206
O O16 0.000000 0.500000 0.500000
O O17 0.500000 0.000000 0.500000
#
# Coordination Sequence:
#
# PCOD9005465 Si02
#       8
#     2   2   2   2   2   2   2   2
#     4   9  19  36  57  85 122 152 195 239 281 363
#     4  11  22  39  64  84 111 164 204 240 301 357
#     4  10  25  42  61  92 120 158 207 257 310 353
#     4  11  21  39  65  91 125 156 200 260 305 356
#     4  10  21  38  62  90 121 159 202 241 295 368
#     4   9  18  34  60  90 116 156 196 238 295 351
#     4  11  25  45  64  86 121 162 209 254 302 364
#     4  11  24  37  57  93 127 155 194 245 301 358
#
# _framework density 24.835991
#
# number of rings (size 3 to 8) (size 9 to 14) (size 15 to 20)
#    0.000    1.750    0.000    4.875    0.000    7.500 
#    0.000    3.125    0.000    0.000    0.000    0.000 
#    0.000    0.000    0.000    0.000    0.000    0.000 
#
# Total GULP energy -89528.458551 kJ/mol
# GULP energy per Si atom -5595.528659 kJ/mol
# Density = 2.477946 g / cm^3
# Si number density = 24.835991 Si / 1000 Ang^3
#
#
#
# Elastic Constant Matrix: (Units=GPa)
#
#
# Indices 1 2 3 4 5 6 
#
# 1 104.7755 4.2924 20.1954 7.7575 -5.6732 9.5005
# 2 4.2924 55.6043 11.4659 2.4520 -2.2643 5.7943
# 3 20.1954 11.4659 134.8197 29.2986 -2.8508 -0.9793
# 4 7.7575 2.4520 29.2986 38.2212 8.0280 -2.3161
# 5 -5.6732 -2.2643 -2.8508 8.0280 32.1647 -0.4886
# 6 9.5005 5.7943 -0.9793 -2.3161 -0.4886 30.6103
#
#
#
# Elastic Compliance Matrix: (Units=1/GPa)
#
#
# Indices 1 2 3 4 5 6 
#
# 1 0.010319 -0.000049 -0.001109 -0.001893 0.002140 -0.003338
# 2 -0.000049 0.018741 -0.001466 -0.000552 0.001264 -0.003601
# 3 -0.001109 -0.001466 0.009352 -0.007322 0.002364 0.000405
# 4 -0.001893 -0.000552 -0.007322 0.034379 -0.009558 0.002906
# 5 0.002140 0.001264 0.002364 -0.009558 0.034136 -0.001006
# 6 -0.003338 -0.003601 0.000405 0.002906 -0.001006 0.034603
#
#
# Mechanical properties :
#
#
# Convention : Reuss Voigt Hill
#
# Bulk Modulus (GPa) = 30.15390 40.78966 35.47178
# Shear Modulus (GPa) = 31.67883 37.48231 34.58057
#
# Velocity S-wave (km/s) = 3.57532 3.88905 3.73548
# Velocity P-wave (km/s) = 5.40476 6.05190 5.73746
#
# Compressibility (1/GPa) = 0.03316321
#
# Stress axis : x y z
#
# Youngs Moduli (GPa) = 96.91160 53.35790 106.92684
#
# Poissons Ratio (x) = 0.00264 0.11860
# Poissons Ratio (y) = 0.00479 0.15674
# Poissons Ratio (z) = 0.10749 0.07822
#
# Static dielectric constant tensor:
#      x y z
#    x 2.016040 -0.060510 0.026180 
#    y -0.060510 2.029440 -0.030560 
#    z 0.026180 -0.030560 1.943470 
# 
# From -- ./inp_files/462222.got.cif
#   From: 2010.05.17/outbox.cif.g08.bks.cpg/sg2_232_cif.got.tgz:462222.got - 2010.06.03 11:33:40.
