data_PCOD9005526
_publ_section_title
;
Structure prediction by ZEFSAII (Michael W. Deem and Ramdas Pophale) SiO2 
 PCOD9005526
Probable space group: P -1
;
_chemical_formula_sum "Si O2"
_cell_formula_units_Z 14
_cell_length_a 20.056344
_cell_length_b 8.780001
_cell_length_c 8.506107
_cell_angle_alpha 57.678995
_cell_angle_beta 151.070151
_cell_angle_gamma 124.141135
_cell_volume 596.161842
_symmetry_space_group_name_H-M "P -1"
_symmetry_group_IT_number 2
_symmetry_cell_setting 'triclinic'
loop_
_space_group_symop_operation_xyz
x,y,z
-x,-y,-z
loop_
_atom_site_type_symbol
_atom_site_label
_atom_site_fract_x
_atom_site_fract_y
_atom_site_fract_z
Si Si1 0.763982 0.262901 0.526364
Si Si2 0.568548 0.794251 0.181289
Si Si3 0.145261 0.056592 0.675545
Si Si4 0.259106 0.815826 0.809794
Si Si5 0.860008 0.551944 0.120721
Si Si6 0.265355 0.132967 0.192925
Si Si7 0.798624 0.613958 0.611425
O O1 0.826934 0.228203 0.506603
O O2 0.812276 0.455449 0.605642
O O3 0.775106 0.088129 0.750040
O O4 0.598566 0.255508 0.152729
O O5 0.616718 0.806123 0.458454
O O6 0.645797 0.652900 0.327801
O O7 0.625452 0.997138 0.105294
O O8 0.128309 0.194851 0.424931
O O9 0.186178 0.883915 0.771647
O O10 0.270050 0.155679 0.000605
O O11 0.000000 0.000000 0.500000
O O12 0.273390 0.611248 0.004506
O O13 0.000000 0.500000 0.500000
O O14 0.845372 0.748376 0.048606
O O15 0.859961 0.563997 0.928094
#
# Coordination Sequence:
#
# PCOD9005526 Si02
#       7
#     2   2   2   2   2   2   2
#     4  11  21  42  66  94 129 164 205 264 315 368
#     4   9  21  42  65  93 128 166 206 261 317 367
#     4  11  23  42  64  92 126 166 210 262 315 369
#     4  10  21  38  62  92 125 161 211 256 307 376
#     4  11  23  42  64  92 126 166 210 262 315 369
#     4  10  21  38  62  92 125 161 211 256 307 376
#     4  10  23  42  66  95 125 164 213 255 310 387
#
# _framework density 23.483554999999999
#
# number of rings (size 3 to 8) (size 9 to 14) (size 15 to 20)
#    0.000    1.714    0.000    5.571    0.000    2.286 
#    0.000   38.571    0.000    0.000    0.000    0.000 
#    0.000    0.000    0.000    0.000    0.000    0.000 
#
# Total GULP energy -78130.769301 kJ/mol
# GULP energy per Si atom -5580.769236 kJ/mol
# Density = 2.343011 g / cm^3
# Si number density = 23.483555 Si / 1000 Ang^3
#
#
#
# Elastic Constant Matrix: (Units=GPa)
#
#
# Indices 1 2 3 4 5 6 
#
# 1 99.4227 8.2498 27.1370 5.8923 -19.7604 -19.3682
# 2 8.2498 67.1582 14.1626 -11.1747 1.8670 -13.1034
# 3 27.1370 14.1626 100.3756 -15.1951 3.1993 12.2046
# 4 5.8923 -11.1747 -15.1951 31.5860 1.9032 -0.8933
# 5 -19.7604 1.8670 3.1993 1.9032 36.7250 -15.9279
# 6 -19.3682 -13.1034 12.2046 -0.8933 -15.9279 53.5878
#
#
#
# Elastic Compliance Matrix: (Units=1/GPa)
#
#
# Indices 1 2 3 4 5 6 
#
# 1 0.019161 0.000374 -0.008769 -0.008323 0.017605 0.014108
# 2 0.000374 0.017209 -0.002515 0.004863 0.001677 0.005495
# 3 -0.008769 -0.002515 0.015611 0.008619 -0.010927 -0.010444
# 4 -0.008323 0.004863 0.008619 0.039519 -0.010193 -0.006153
# 5 0.017605 0.001677 -0.010927 -0.010193 0.048261 0.023436
# 6 0.014108 0.005495 -0.010444 -0.006153 0.023436 0.034346
#
#
# Mechanical properties :
#
#
# Convention : Reuss Voigt Hill
#
# Bulk Modulus (GPa) = 33.15494 40.67281 36.91388
# Shear Modulus (GPa) = 24.27388 38.87358 31.57373
#
# Velocity S-wave (km/s) = 3.21854 4.07302 3.67073
# Velocity P-wave (km/s) = 5.28782 6.28304 5.80679
#
# Compressibility (1/GPa) = 0.03016141
#
# Stress axis : x y z
#
# Youngs Moduli (GPa) = 52.18874 58.10777 64.05646
#
# Poissons Ratio (x) = -0.02173 0.56174
# Poissons Ratio (y) = -0.01951 0.16108
# Poissons Ratio (z) = 0.45767 0.14612
#
# Static dielectric constant tensor:
#      x y z
#    x 1.936890 0.039780 0.023900 
#    y 0.039780 1.906460 0.057850 
#    z 0.023900 0.057850 1.919630 
# 
# From -- ./inp_files/237198.got.cif
#   From: 2010.05.17/outbox.cif.g08.bks.cpg/sg2_119_cif.got.tgz:237198.got - 2010.06.03 11:33:40.
