data_PCOD9005119
_publ_section_title
;
Structure prediction by ZEFSAII (Michael W. Deem and Ramdas Pophale) SiO2 
 PCOD9005119
Probable space group: P -1
;
_chemical_formula_sum "Si O2"
_cell_formula_units_Z 16
_cell_length_a 14.594375
_cell_length_b 11.063860
_cell_length_c 12.427776
_cell_angle_alpha 78.805753
_cell_angle_beta 60.791449
_cell_angle_gamma 28.105957
_cell_volume 675.298513
_symmetry_space_group_name_H-M "P -1"
_symmetry_group_IT_number 2
_symmetry_cell_setting 'triclinic'
loop_
_space_group_symop_operation_xyz
x,y,z
-x,-y,-z
loop_
_atom_site_type_symbol
_atom_site_label
_atom_site_fract_x
_atom_site_fract_y
_atom_site_fract_z
Si Si1 0.095447 0.350201 0.638969
Si Si2 0.160245 0.633135 0.906863
Si Si3 0.271525 0.735775 0.682360
Si Si4 0.488161 0.398899 0.940230
Si Si5 0.188827 0.215982 0.862800
Si Si6 0.393145 0.042355 0.307098
Si Si7 0.782437 0.438623 0.773488
Si Si8 0.281283 0.684203 0.336899
O O1 0.878873 0.678223 0.654677
O O2 0.941842 0.389357 0.702642
O O3 0.151251 0.293485 0.744306
O O4 0.334342 0.088598 0.460219
O O5 0.160587 0.722446 0.787741
O O6 0.242807 0.631320 0.959876
O O7 0.399119 0.279542 0.804297
O O8 0.911067 0.815855 0.051810
O O9 0.500000 0.500000 0.500000
O O10 0.448777 0.596872 0.701781
O O11 0.012949 0.090961 0.736797
O O12 0.710425 0.204286 0.764424
O O13 0.500000 0.500000 0.000000
O O14 0.468139 0.303413 0.045986
O O15 0.477709 0.959789 0.772990
O O16 0.000000 0.500000 0.000000
O O17 0.705425 0.463230 0.700486
O O18 0.000000 0.000000 0.500000
#
# Coordination Sequence:
#
# PCOD9005119 Si02
#       8
#     2   2   2   2   2   2   2   2
#     4  11  23  44  69  94 134 171 219 277 334 389
#     4  10  21  42  66  94 130 172 220 267 326 390
#     4  11  22  39  65  92 133 174 207 267 324 390
#     4   9  20  39  60  91 130 167 206 262 319 384
#     4  10  22  44  66  97 128 170 227 274 326 389
#     4  10  24  43  69  97 128 173 224 277 330 386
#     4  11  22  41  63  94 129 169 211 262 330 388
#     4  10  21  38  60  92 127 162 220 253 311 400
#
# _framework density 23.693224000000001
#
# number of rings (size 3 to 8) (size 9 to 14) (size 15 to 20)
#    0.000    1.750    2.500    1.125    1.750    5.000 
#    6.750   10.000    0.000    0.000    0.000    0.000 
#    0.000    0.000    0.000    0.000    0.000    0.000 
#
# Total GULP energy -89169.252723 kJ/mol
# GULP energy per Si atom -5573.078295 kJ/mol
# Density = 2.363930 g / cm^3
# Si number density = 23.693224 Si / 1000 Ang^3
#
#
#
# Elastic Constant Matrix: (Units=GPa)
#
#
# Indices 1 2 3 4 5 6 
#
# 1 114.5438 20.5387 33.5538 -5.7149 -14.6981 -17.9860
# 2 20.5387 61.4972 -3.7741 5.3078 8.8310 -16.2475
# 3 33.5538 -3.7741 143.8191 -11.5562 -11.5363 -5.8868
# 4 -5.7149 5.3078 -11.5562 33.9886 2.5558 -3.1432
# 5 -14.6981 8.8310 -11.5363 2.5558 38.1265 -2.6620
# 6 -17.9860 -16.2475 -5.8868 -3.1432 -2.6620 34.2777
#
#
#
# Elastic Compliance Matrix: (Units=1/GPa)
#
#
# Indices 1 2 3 4 5 6 
#
# 1 0.011377 -0.003593 -0.002034 0.001834 0.004791 0.004457
# 2 -0.003593 0.020410 0.001075 -0.002361 -0.005115 0.007360
# 3 -0.002034 0.001075 0.007772 0.002137 0.001250 0.001070
# 4 0.001834 -0.002361 0.002137 0.031107 0.000029 0.003065
# 5 0.004791 -0.005115 0.001250 0.000029 0.029819 0.002622
# 6 0.004457 0.007360 0.001070 0.003065 0.002622 0.035669
#
#
# Mechanical properties :
#
#
# Convention : Reuss Voigt Hill
#
# Bulk Modulus (GPa) = 32.83713 46.72188 39.77950
# Shear Modulus (GPa) = 32.17316 39.24800 35.71058
#
# Velocity S-wave (km/s) = 3.68897 4.07444 3.88649
# Velocity P-wave (km/s) = 5.65987 6.47279 6.07993
#
# Compressibility (1/GPa) = 0.03045333
#
# Stress axis : x y z
#
# Youngs Moduli (GPa) = 87.89945 48.99666 128.67002
#
# Poissons Ratio (x) = 0.17605 0.26177
# Poissons Ratio (y) = 0.31583 -0.13834
# Poissons Ratio (z) = 0.17882 -0.05268
#
# Static dielectric constant tensor:
#      x y z
#    x 1.894220 0.019430 0.000880 
#    y 0.019430 2.021130 -0.070180 
#    z 0.000880 -0.070180 1.964100 
# 
# From -- ./inp_files/452268.got.cif
#   From: 2010.05.17/outbox.cif.g08.bks.cpg/sg2_227_cif.got.tgz:452268.got - 2010.06.03 11:33:40.
