data_PCOD9005065
_publ_section_title
;
Structure prediction by ZEFSAII (Michael W. Deem and Ramdas Pophale) SiO2 
 PCOD9005065
Probable space group: P -1
;
_chemical_formula_sum "Si O2"
_cell_formula_units_Z 16
_cell_length_a 16.370681
_cell_length_b 6.224833
_cell_length_c 10.595746
_cell_angle_alpha 86.284510
_cell_angle_beta 50.140264
_cell_angle_gamma 116.752391
_cell_volume 634.233873
_symmetry_space_group_name_H-M "P -1"
_symmetry_group_IT_number 2
_symmetry_cell_setting 'triclinic'
loop_
_space_group_symop_operation_xyz
x,y,z
-x,-y,-z
loop_
_atom_site_type_symbol
_atom_site_label
_atom_site_fract_x
_atom_site_fract_y
_atom_site_fract_z
Si Si1 0.866037 0.387615 0.967084
Si Si2 0.464177 0.753037 0.835671
Si Si3 0.777790 0.904277 0.924725
Si Si4 0.996298 0.890422 0.648564
Si Si5 0.631109 0.349294 0.664475
Si Si6 0.398752 0.282310 0.503077
Si Si7 0.711719 0.815362 0.716161
Si Si8 0.175649 0.657197 0.721757
O O1 0.897052 0.568580 0.804100
O O2 0.016072 0.485539 0.851015
O O3 0.761415 0.065106 0.038348
O O4 0.817554 0.446290 0.141083
O O5 0.521818 0.816654 0.633529
O O6 0.578504 0.774310 0.805925
O O7 0.490757 0.032244 0.836260
O O8 0.329494 0.432626 0.965486
O O9 0.931271 0.003005 0.786559
O O10 0.760379 0.965351 0.796902
O O11 0.000000 0.000000 0.500000
O O12 0.150003 0.999383 0.513195
O O13 0.607568 0.526773 0.594735
O O14 0.677073 0.514399 0.746397
O O15 0.745169 0.357446 0.473077
O O16 0.500000 0.500000 0.500000
O O17 0.246898 0.980334 0.675128
#
# Coordination Sequence:
#
# PCOD9005065 Si02
#       8
#     2   2   2   2   2   2   2   2
#     4  11  23  41  63  91 130 165 208 264 316 372
#     4  10  22  38  61  92 123 164 210 257 321 376
#     4  11  24  39  62  94 126 163 213 264 312 374
#     4  10  23  40  62  93 123 162 211 255 313 379
#     4  10  21  39  63  86 124 165 206 260 318 377
#     4  10  21  38  60  89 124 161 209 259 312 379
#     4  10  22  41  62  89 124 165 211 260 317 379
#     4  10  23  40  63  92 124 171 212 254 317 380
#
# _framework density 25.227284999999998
#
# number of rings (size 3 to 8) (size 9 to 14) (size 15 to 20)
#    0.000    1.750    0.000    4.125    0.000   11.500 
#    0.000    3.125    0.000    0.000    0.000    0.000 
#    0.000    0.000    0.000    0.000    0.000    0.000 
#
# Total GULP energy -89112.301148 kJ/mol
# GULP energy per Si atom -5569.518822 kJ/mol
# Density = 2.516987 g / cm^3
# Si number density = 25.227285 Si / 1000 Ang^3
#
#
#
# Elastic Constant Matrix: (Units=GPa)
#
#
# Indices 1 2 3 4 5 6 
#
# 1 86.7754 39.8036 34.3951 -2.8983 -7.9641 15.1989
# 2 39.8036 120.5202 16.5569 -7.5784 8.2505 23.2950
# 3 34.3951 16.5569 69.2941 -5.6449 -6.3289 5.4513
# 4 -2.8983 -7.5784 -5.6449 47.8828 -0.8081 5.9755
# 5 -7.9641 8.2505 -6.3289 -0.8081 42.2527 -1.6721
# 6 15.1989 23.2950 5.4513 5.9755 -1.6721 32.4007
#
#
#
# Elastic Compliance Matrix: (Units=1/GPa)
#
#
# Indices 1 2 3 4 5 6 
#
# 1 0.017099 -0.004165 -0.006933 0.000072 0.002852 -0.003726
# 2 -0.004165 0.011386 -0.000229 0.002315 -0.003267 -0.006789
# 3 -0.006933 -0.000229 0.018193 0.001699 0.001500 0.000120
# 4 0.000072 0.002315 0.001699 0.022214 0.000000 -0.006081
# 5 0.002852 -0.003267 0.001500 0.000000 0.025149 0.002057
# 6 -0.003726 -0.006789 0.000120 -0.006081 0.002057 0.038700
#
#
# Mechanical properties :
#
#
# Convention : Reuss Voigt Hill
#
# Bulk Modulus (GPa) = 41.62390 50.90009 46.26200
# Shear Modulus (GPa) = 30.59908 36.89618 33.74763
#
# Velocity S-wave (km/s) = 3.48650 3.82848 3.66149
# Velocity P-wave (km/s) = 5.72215 6.30582 6.02106
#
# Compressibility (1/GPa) = 0.02402466
#
# Stress axis : x y z
#
# Youngs Moduli (GPa) = 58.48170 87.82729 54.96581
#
# Poissons Ratio (x) = 0.36584 0.38107
# Poissons Ratio (y) = 0.24360 0.01257
# Poissons Ratio (z) = 0.40544 0.02008
#
# Static dielectric constant tensor:
#      x y z
#    x 2.089180 -0.022430 0.050640 
#    y -0.022430 2.013360 -0.053360 
#    z 0.050640 -0.053360 2.171030 
# 
# From -- ./inp_files/459508.got.cif
#   From: 2010.05.17/outbox.cif.g08.bks.cpg/sg2_230_cif.got.tgz:459508.got - 2010.06.03 11:33:40.
