data_PCOD9005264
_publ_section_title
;
Structure prediction by ZEFSAII (Michael W. Deem and Ramdas Pophale) SiO2 
 PCOD9005264
Probable space group: P -1
;
_chemical_formula_sum "Si O2"
_cell_formula_units_Z 16
_cell_length_a 18.784967
_cell_length_b 8.187733
_cell_length_c 7.962187
_cell_angle_alpha 84.856370
_cell_angle_beta 143.874082
_cell_angle_gamma 97.653422
_cell_volume 715.229388
_symmetry_space_group_name_H-M "P -1"
_symmetry_group_IT_number 2
_symmetry_cell_setting 'triclinic'
loop_
_space_group_symop_operation_xyz
x,y,z
-x,-y,-z
loop_
_atom_site_type_symbol
_atom_site_label
_atom_site_fract_x
_atom_site_fract_y
_atom_site_fract_z
Si Si1 0.320438 0.310777 0.463706
Si Si2 0.937940 0.701577 0.170072
Si Si3 0.365057 0.550643 0.258252
Si Si4 0.110166 0.887108 0.239695
Si Si5 0.810085 0.720435 0.247892
Si Si6 0.519210 0.120055 0.682432
Si Si7 0.980287 0.384324 0.135810
Si Si8 0.664026 0.906228 0.193405
O O1 0.338055 0.497601 0.406406
O O2 0.399093 0.203765 0.500978
O O3 0.363408 0.261596 0.734398
O O4 0.176680 0.264934 0.168149
O O5 0.906860 0.775013 0.282197
O O6 0.937959 0.502904 0.188815
O O7 0.063283 0.775763 0.321000
O O8 0.500000 0.500000 0.500000
O O9 0.377911 0.735495 0.195346
O O10 0.273825 0.431063 0.981331
O O11 0.238156 0.982739 0.518549
O O12 0.107020 0.772207 0.079291
O O13 0.000000 0.000000 0.000000
O O14 0.728551 0.854145 0.150465
O O15 0.890858 0.669623 0.560247
O O16 0.500000 0.000000 0.500000
O O17 0.559760 0.013877 0.926108
O O18 0.000000 0.500000 0.000000
#
# Coordination Sequence:
#
# PCOD9005264 Si02
#       8
#     2   2   2   2   2   2   2   2
#     4  10  21  44  65  93 130 172 217 260 323 385
#     4  10  21  39  63  91 130 173 218 262 317 388
#     4   9  21  42  65  88 124 168 218 259 316 387
#     4  11  21  41  62  95 133 170 212 265 328 374
#     4  11  22  40  64  91 132 176 213 264 324 388
#     4  11  24  45  68  97 131 165 217 275 325 383
#     4  10  21  38  61  89 131 168 212 264 311 386
#     4  12  23  41  69  97 135 170 212 274 323 382
#
# _framework density 22.370446000000001
#
# number of rings (size 3 to 8) (size 9 to 14) (size 15 to 20)
#    0.000    1.500    2.500    3.750    3.500    0.500 
#    4.500    5.625    0.000    0.000    0.000    0.000 
#    0.000    0.000    0.000    0.000    0.000    0.000 
#
# Total GULP energy -89266.423627 kJ/mol
# GULP energy per Si atom -5579.151477 kJ/mol
# Density = 2.231953 g / cm^3
# Si number density = 22.370446 Si / 1000 Ang^3
#
#
#
# Elastic Constant Matrix: (Units=GPa)
#
#
# Indices 1 2 3 4 5 6 
#
# 1 65.7291 11.1976 -6.5167 -0.2188 -8.8844 -0.2970
# 2 11.1976 64.8328 13.9795 2.5060 -9.4976 -3.0374
# 3 -6.5167 13.9795 81.8725 -4.5642 -9.1429 7.2998
# 4 -0.2188 2.5060 -4.5642 35.8805 0.6088 -1.6878
# 5 -8.8844 -9.4976 -9.1429 0.6088 33.4720 -6.8070
# 6 -0.2970 -3.0374 7.2998 -1.6878 -6.8070 42.4322
#
#
#
# Elastic Compliance Matrix: (Units=1/GPa)
#
#
# Indices 1 2 3 4 5 6 
#
# 1 0.016479 -0.002718 0.002259 0.000517 0.004258 0.000236
# 2 -0.002718 0.017279 -0.003029 -0.001566 0.003849 0.002294
# 3 0.002259 -0.003029 0.013523 0.001802 0.003000 -0.001974
# 4 0.000517 -0.001566 0.001802 0.028247 -0.000192 0.000674
# 5 0.004258 0.003849 0.003000 -0.000192 0.033985 0.005234
# 6 0.000236 0.002294 -0.001974 0.000674 0.005234 0.024939
#
#
# Mechanical properties :
#
#
# Convention : Reuss Voigt Hill
#
# Bulk Modulus (GPa) = 24.81096 27.75058 26.28077
# Shear Modulus (GPa) = 32.28662 35.27520 33.78091
#
# Velocity S-wave (km/s) = 3.80316 3.97529 3.89018
# Velocity P-wave (km/s) = 5.51366 5.78813 5.65256
#
# Compressibility (1/GPa) = 0.04030476
#
# Stress axis : x y z
#
# Youngs Moduli (GPa) = 60.68163 57.87462 73.95057
#
# Poissons Ratio (x) = 0.15733 -0.16707
# Poissons Ratio (y) = 0.16496 0.22397
# Poissons Ratio (z) = -0.13709 0.17529
#
# Static dielectric constant tensor:
#      x y z
#    x 1.917290 0.056110 -0.017900 
#    y 0.056110 1.917910 -0.026380 
#    z -0.017900 -0.026380 1.798920 
# 
# From -- ./inp_files/342719.got.cif
#   From: 2010.05.17/outbox.cif.g08.bks.cpg/sg2_172_cif.got.tgz:342719.got - 2010.06.03 11:33:40.
