data_PCOD9005954
_publ_section_title
;
Structure prediction by ZEFSAII (Michael W. Deem and Ramdas Pophale) SiO2 
 PCOD9005954
Probable space group: P -1
;
_chemical_formula_sum "Si O2"
_cell_formula_units_Z 16
_cell_length_a 12.056442
_cell_length_b 11.185040
_cell_length_c 14.532407
_cell_angle_alpha 102.140361
_cell_angle_beta 100.737526
_cell_angle_gamma 24.234989
_cell_volume 786.362631
_symmetry_space_group_name_H-M "P -1"
_symmetry_group_IT_number 2
_symmetry_cell_setting 'triclinic'
loop_
_space_group_symop_operation_xyz
x,y,z
-x,-y,-z
loop_
_atom_site_type_symbol
_atom_site_label
_atom_site_fract_x
_atom_site_fract_y
_atom_site_fract_z
Si Si1 0.619246 0.717580 0.791191
Si Si2 0.208312 0.409704 0.596004
Si Si3 0.973822 0.138090 0.947964
Si Si4 0.897853 0.641646 0.107533
Si Si5 0.540554 0.653099 0.233558
Si Si6 0.041478 0.239969 0.134040
Si Si7 0.523633 0.391582 0.178631
Si Si8 0.304065 0.239423 0.388376
O O1 0.527439 0.667884 0.768557
O O2 0.669071 0.722716 0.698958
O O3 0.902071 0.449317 0.843869
O O4 0.403454 0.013129 0.863090
O O5 0.338885 0.393554 0.668097
O O6 0.214585 0.414552 0.487415
O O7 0.913355 0.657583 0.624217
O O8 0.403771 0.103592 0.599574
O O9 0.670295 0.444458 0.912720
O O10 0.170078 0.918537 0.858083
O O11 0.080303 0.150707 0.022604
O O12 0.000000 0.000000 0.000000
O O13 0.956470 0.464811 0.151197
O O14 0.000000 0.500000 0.000000
O O15 0.787394 0.414915 0.161411
O O16 0.464449 0.588248 0.231893
O O17 0.295795 0.961744 0.193064
#
# Coordination Sequence:
#
# PCOD9005954 Si02
#       8
#     2   2   2   2   2   2   2   2
#     4  12  24  41  61  84 126 162 197 234 303 366
#     4  10  21  38  64  90 119 143 198 255 296 353
#     4  12  22  41  56  84 118 159 205 242 288 345
#     4  12  25  41  57  88 120 159 199 247 294 348
#     4  12  22  37  58  91 114 149 197 251 296 337
#     4  12  23  36  62  83 116 153 202 249 296 341
#     4  12  24  39  58  86 120 161 200 243 289 357
#     4  10  21  40  63  90 115 157 191 241 308 359
#
# _framework density 20.346845999999999
#
# number of rings (size 3 to 8) (size 9 to 14) (size 15 to 20)
#    0.000    0.500    2.500    8.250    0.000    0.000 
#    0.000    0.625    0.000    0.000    0.000   10.500 
#    0.000    0.000    0.000    0.000    0.000    0.000 
#
# Total GULP energy -89460.893326 kJ/mol
# GULP energy per Si atom -5591.305833 kJ/mol
# Density = 2.030054 g / cm^3
# Si number density = 20.346846 Si / 1000 Ang^3
#
#
#
# Elastic Constant Matrix: (Units=GPa)
#
#
# Indices 1 2 3 4 5 6 
#
# 1 100.5442 -2.0476 24.4452 0.4524 1.5085 5.1085
# 2 -2.0476 86.6957 6.1087 -3.4364 -4.0935 -8.9256
# 3 24.4452 6.1087 101.2978 1.2185 -4.3239 4.4507
# 4 0.4524 -3.4364 1.2185 22.7896 -6.4358 2.4998
# 5 1.5085 -4.0935 -4.3239 -6.4358 38.0128 5.2934
# 6 5.1085 -8.9256 4.4507 2.4998 5.2934 25.3837
#
#
#
# Elastic Compliance Matrix: (Units=1/GPa)
#
#
# Indices 1 2 3 4 5 6 
#
# 1 0.010652 0.000252 -0.002540 -0.000006 -0.000475 -0.001510
# 2 0.000252 0.012132 -0.000951 0.001692 0.000914 0.004025
# 3 -0.002540 -0.000951 0.010694 -0.000024 0.001490 -0.002007
# 4 -0.000006 0.001692 -0.000024 0.047336 0.009022 -0.005943
# 5 -0.000475 0.000914 0.001490 0.009022 0.029067 -0.006794
# 6 -0.001510 0.004025 -0.002007 -0.005943 -0.006794 0.043468
#
#
# Mechanical properties :
#
#
# Convention : Reuss Voigt Hill
#
# Bulk Modulus (GPa) = 37.03336 38.39446 37.71391
# Shear Modulus (GPa) = 29.61614 34.57264 32.09439
#
# Velocity S-wave (km/s) = 3.81932 4.12656 3.97591
# Velocity P-wave (km/s) = 6.13923 6.45102 6.29706
#
# Compressibility (1/GPa) = 0.02700268
#
# Stress axis : x y z
#
# Youngs Moduli (GPa) = 93.87583 82.42572 93.50898
#
# Poissons Ratio (x) = -0.02080 0.23749
# Poissons Ratio (y) = -0.02369 0.08890
# Poissons Ratio (z) = 0.23842 0.07836
#
# Static dielectric constant tensor:
#      x y z
#    x 1.757230 0.009320 0.015090 
#    y 0.009320 1.701520 0.012410 
#    z 0.015090 0.012410 1.755450 
# 
# From -- ./inp_files/519762.got.cif
#   From: 2010.05.17/outbox.cif.g08.bks.cpg/sg2_260_cif.got.tgz:519762.got - 2010.06.03 11:33:40.
