data_PCOD9005040
_publ_section_title
;
Structure prediction by ZEFSAII (Michael W. Deem and Ramdas Pophale) SiO2 
 PCOD9005040
Probable space group: P -1
;
_chemical_formula_sum "Si O2"
_cell_formula_units_Z 15
_cell_length_a 11.669685
_cell_length_b 11.578675
_cell_length_c 4.953915
_cell_angle_alpha 80.659208
_cell_angle_beta 93.423039
_cell_angle_gamma 71.682934
_cell_volume 622.633804
_symmetry_space_group_name_H-M "P -1"
_symmetry_group_IT_number 2
_symmetry_cell_setting 'triclinic'
loop_
_space_group_symop_operation_xyz
x,y,z
-x,-y,-z
loop_
_atom_site_type_symbol
_atom_site_label
_atom_site_fract_x
_atom_site_fract_y
_atom_site_fract_z
Si Si1 0.023196 0.342611 0.340737
Si Si2 0.121279 0.570720 0.221610
Si Si3 0.835585 0.067049 0.240005
Si Si4 0.500000 0.500000 0.000000
Si Si5 0.417475 0.897321 0.723970
Si Si6 0.917690 0.901614 0.823316
Si Si7 0.420563 0.160251 0.727315
Si Si8 0.623942 0.576933 0.511394
O O1 0.972011 0.329818 0.633435
O O2 0.087274 0.446141 0.309978
O O3 0.104745 0.216914 0.261406
O O4 0.906519 0.395977 0.105906
O O5 0.258587 0.539317 0.346294
O O6 0.865755 0.015375 0.565491
O O7 0.694207 0.146409 0.184895
O O8 0.862856 0.951610 0.082951
O O9 0.936083 0.128049 0.146390
O O10 0.538880 0.591988 0.754457
O O11 0.439699 0.448411 0.756150
O O12 0.459823 0.867338 0.435914
O O13 0.372148 0.047607 0.693862
O O14 0.532602 0.851929 0.955406
O O15 0.342154 0.299334 0.590150
#
# Coordination Sequence:
#
# PCOD9005040 Si02
#       8
#     2   2   2   1   2   2   2   2
#     4  10  21  40  59  96 121 157 192 264 289 373
#     4  10  22  39  63  88 126 149 213 241 311 352
#     4  10  21  38  60  88 122 156 198 238 298 371
#     4  10  24  42  60  86 128 146 226 246 296 350
#     4  10  21  40  59  96 121 157 192 264 289 373
#     4  10  21  38  60  88 122 156 198 238 298 371
#     4  10  22  39  63  88 126 149 213 241 311 352
#     4  11  22  44  64  90 117 178 192 266 297 372
#
# _framework density 24.091204000000001
#
# number of rings (size 3 to 8) (size 9 to 14) (size 15 to 20)
#    0.000    1.867    0.000    3.200    1.867    0.000 
#   16.800    0.000    0.000    0.000    0.000    0.000 
#    0.000    0.000    0.000    0.000    0.000    0.000 
#
# Total GULP energy -83606.885702 kJ/mol
# GULP energy per Si atom -5573.792380 kJ/mol
# Density = 2.403637 g / cm^3
# Si number density = 24.091204 Si / 1000 Ang^3
#
#
#
# Elastic Constant Matrix: (Units=GPa)
#
#
# Indices 1 2 3 4 5 6 
#
# 1 40.9952 -0.8640 21.2398 6.3337 -1.0214 -11.0986
# 2 -0.8640 43.0971 1.5065 4.3971 5.8778 8.8288
# 3 21.2398 1.5065 115.5552 12.1533 13.0644 8.6230
# 4 6.3337 4.3971 12.1533 31.7392 5.5298 3.4617
# 5 -1.0214 5.8778 13.0644 5.5298 23.9861 -3.9993
# 6 -11.0986 8.8288 8.6230 3.4617 -3.9993 13.1011
#
#
#
# Elastic Compliance Matrix: (Units=1/GPa)
#
#
# Indices 1 2 3 4 5 6 
#
# 1 0.071843 -0.025121 -0.024310 -0.022068 0.046522 0.113824
# 2 -0.025121 0.039212 0.011646 0.007574 -0.029853 -0.066486
# 3 -0.024310 0.011646 0.018748 0.005572 -0.023633 -0.049469
# 4 -0.022068 0.007574 0.005572 0.041705 -0.023035 -0.045518
# 5 0.046522 -0.029853 -0.023633 -0.023035 0.087140 0.107772
# 6 0.113824 -0.066486 -0.049469 -0.045518 0.107772 0.295046
#
#
# Mechanical properties :
#
#
# Convention : Reuss Voigt Hill
#
# Bulk Modulus (GPa) = 18.43933 27.04579 22.74256
# Shear Modulus (GPa) = 7.72391 25.61629 16.67010
#
# Velocity S-wave (km/s) = 1.79250 3.26437 2.63336
# Velocity P-wave (km/s) = 3.45755 5.04569 4.32514
#
# Compressibility (1/GPa) = 0.05423190
#
# Stress axis : x y z
#
# Youngs Moduli (GPa) = 13.91930 25.50266 53.33955
#
# Poissons Ratio (x) = 0.64065 1.29670
# Poissons Ratio (y) = 0.34967 -0.62120
# Poissons Ratio (z) = 0.33838 -0.29701
#
# Static dielectric constant tensor:
#      x y z
#    x 1.946670 0.016110 -0.004680 
#    y 0.016110 1.999870 -0.024010 
#    z -0.004680 -0.024010 1.833560 
# 
# From -- ./inp_files/63837.got.cif
#   From: 2010.05.17/outbox.cif.g08.bks.cpg/sg2_32_cif.got.tgz:63837.got - 2010.06.03 11:33:40.
