data_PCOD9005307
_publ_section_title
;
Structure prediction by ZEFSAII (Michael W. Deem and Ramdas Pophale) SiO2 
 PCOD9005307
Probable space group: P -1
;
_chemical_formula_sum "Si O2"
_cell_formula_units_Z 14
_cell_length_a 8.684440
_cell_length_b 18.563043
_cell_length_c 7.055003
_cell_angle_alpha 67.960686
_cell_angle_beta 103.086565
_cell_angle_gamma 146.097797
_cell_volume 580.016835
_symmetry_space_group_name_H-M "P -1"
_symmetry_group_IT_number 2
_symmetry_cell_setting 'triclinic'
loop_
_space_group_symop_operation_xyz
x,y,z
-x,-y,-z
loop_
_atom_site_type_symbol
_atom_site_label
_atom_site_fract_x
_atom_site_fract_y
_atom_site_fract_z
Si Si1 0.440324 0.697165 0.506764
Si Si2 0.031464 0.885854 0.567840
Si Si3 0.388920 0.131278 0.154881
Si Si4 0.576023 0.927414 0.175102
Si Si5 0.981424 0.240724 0.649878
Si Si6 0.460849 0.330472 0.842854
Si Si7 0.032343 0.610238 0.729152
O O1 0.513870 0.815382 0.350211
O O2 0.427939 0.644068 0.363336
O O3 0.168643 0.595639 0.659559
O O4 0.704539 0.768550 0.618963
O O5 0.071503 0.832775 0.480435
O O6 0.173537 0.015785 0.367702
O O7 0.190404 0.941380 0.753798
O O8 0.707748 0.257431 0.197048
O O9 0.354232 0.061187 0.033969
O O10 0.338615 0.199333 0.010450
O O11 0.293258 0.860355 0.199148
O O12 0.045759 0.351280 0.472163
O O13 0.229493 0.302303 0.777558
O O14 0.745347 0.470360 0.889464
#
# Coordination Sequence:
#
# PCOD9005307 Si02
#       7
#     2   2   2   2   2   2   2
#     4   9  20  37  64  92 118 166 207 252 313 362
#     4  11  21  42  63  95 129 158 209 260 314 373
#     4  11  24  39  66  95 125 164 208 260 310 371
#     4  10  21  38  61  91 129 162 203 250 319 371
#     4  10  22  40  63  91 127 168 204 255 318 369
#     4  10  22  40  64  95 124 163 214 257 308 367
#     4  11  21  42  64  90 129 166 210 258 303 375
#
# _framework density 24.137229000000001
#
# number of rings (size 3 to 8) (size 9 to 14) (size 15 to 20)
#    0.000    1.714    2.857    2.143    0.000    5.714 
#    0.000    3.571    0.000    0.000    0.000    0.000 
#    0.000    0.000    0.000    0.000    0.000    0.000 
#
# Total GULP energy -78415.210263 kJ/mol
# GULP energy per Si atom -5601.086447 kJ/mol
# Density = 2.408229 g / cm^3
# Si number density = 24.137229 Si / 1000 Ang^3
#
#
#
# Elastic Constant Matrix: (Units=GPa)
#
#
# Indices 1 2 3 4 5 6 
#
# 1 131.9469 49.1428 51.0046 0.8133 3.9757 35.4039
# 2 49.1428 97.9864 24.3092 0.9340 -7.4123 32.9825
# 3 51.0046 24.3092 91.8270 6.8227 1.0121 9.2665
# 4 0.8133 0.9340 6.8227 27.4232 -6.2216 4.3212
# 5 3.9757 -7.4123 1.0121 -6.2216 38.9907 2.0586
# 6 35.4039 32.9825 9.2665 4.3212 2.0586 35.6304
#
#
#
# Elastic Compliance Matrix: (Units=1/GPa)
#
#
# Indices 1 2 3 4 5 6 
#
# 1 0.013382 -0.001779 -0.006111 0.002687 -0.000569 -0.010354
# 2 -0.001779 0.016586 -0.002319 0.003267 0.004637 -0.013647
# 3 -0.006111 -0.002319 0.014739 -0.004460 -0.001176 0.004995
# 4 0.002687 0.003267 -0.004460 0.040638 0.007470 -0.009894
# 5 -0.000569 0.004637 -0.001176 0.007470 0.028123 -0.005952
# 6 -0.010354 -0.013647 0.004995 -0.009894 -0.005952 0.051232
#
#
# Mechanical properties :
#
#
# Convention : Reuss Voigt Hill
#
# Bulk Modulus (GPa) = 41.17091 63.40817 52.28954
# Shear Modulus (GPa) = 25.87796 33.56242 29.72019
#
# Velocity S-wave (km/s) = 3.27787 3.73296 3.51280
# Velocity P-wave (km/s) = 5.60535 6.70126 6.17766
#
# Compressibility (1/GPa) = 0.02428899
#
# Stress axis : x y z
#
# Youngs Moduli (GPa) = 74.72587 60.29062 67.84946
#
# Poissons Ratio (x) = 0.10726 0.41460
# Poissons Ratio (y) = 0.13294 0.15737
# Poissons Ratio (z) = 0.45662 0.13984
#
# Static dielectric constant tensor:
#      x y z
#    x 1.896980 -0.024630 0.018800 
#    y -0.024630 1.964480 0.003440 
#    z 0.018800 0.003440 1.928180 
# 
# From -- ./inp_files/221980.got.cif
#   From: 2010.05.17/outbox.cif.g08.bks.cpg/sg2_111_cif.got.tgz:221980.got - 2010.06.03 11:33:40.
