data_PCOD9005548
_publ_section_title
;
Structure prediction by ZEFSAII (Michael W. Deem and Ramdas Pophale) SiO2 
 PCOD9005548
Probable space group: P -1
;
_chemical_formula_sum "Si O2"
_cell_formula_units_Z 16
_cell_length_a 8.614413
_cell_length_b 9.467362
_cell_length_c 12.724960
_cell_angle_alpha 72.697104
_cell_angle_beta 74.174443
_cell_angle_gamma 45.341364
_cell_volume 701.680957
_symmetry_space_group_name_H-M "P -1"
_symmetry_group_IT_number 2
_symmetry_cell_setting 'triclinic'
loop_
_space_group_symop_operation_xyz
x,y,z
-x,-y,-z
loop_
_atom_site_type_symbol
_atom_site_label
_atom_site_fract_x
_atom_site_fract_y
_atom_site_fract_z
Si Si1 0.800810 0.694836 0.786182
Si Si2 0.038275 0.982514 0.747656
Si Si3 0.827343 0.651171 0.332233
Si Si4 0.664587 0.088953 0.654106
Si Si5 0.486826 0.331118 0.034395
Si Si6 0.263687 0.069599 0.545819
Si Si7 0.880020 0.379666 0.092024
Si Si8 0.105099 0.129288 0.893683
O O1 0.650448 0.647717 0.846001
O O2 0.963678 0.576178 0.684775
O O3 0.952077 0.623378 0.875872
O O4 0.665222 0.928468 0.746355
O O5 0.226229 0.961493 0.660511
O O6 0.133927 0.762102 0.806526
O O7 0.977273 0.106138 0.838572
O O8 0.822420 0.096272 0.690611
O O9 0.591846 0.714697 0.360208
O O10 0.823180 0.774897 0.210883
O O11 0.863004 0.719021 0.418582
O O12 0.780277 0.981830 0.545179
O O13 0.700884 0.097616 0.051424
O O14 0.500000 0.500000 0.000000
O O15 0.346629 0.397140 0.939184
O O16 0.500000 0.000000 0.500000
O O17 0.975737 0.266790 0.987827
#
# Coordination Sequence:
#
# PCOD9005548 Si02
#       8
#     2   2   2   2   2   2   2   2
#     4  11  24  41  59  92 125 159 213 248 302 366
#     4  10  21  38  62  93 122 155 207 254 300 368
#     4  10  21  40  64  88 124 160 205 254 302 372
#     4  10  21  41  66  90 119 161 200 263 313 354
#     4  12  24  37  60  88 123 169 205 247 298 357
#     4   9  20  38  68  91 116 160 202 253 318 368
#     4  11  24  40  59  87 130 165 202 256 294 363
#     4  11  22  40  59  87 129 167 204 243 305 360
#
# _framework density 22.802385999999998
#
# number of rings (size 3 to 8) (size 9 to 14) (size 15 to 20)
#    0.000    1.500    3.750    1.125    0.000    3.000 
#    0.000    0.000    0.000   12.750    0.000    0.000 
#    0.000    0.000    0.000    0.000    0.000    0.000 
#
# Total GULP energy -89333.272190 kJ/mol
# GULP energy per Si atom -5583.329512 kJ/mol
# Density = 2.275049 g / cm^3
# Si number density = 22.802386 Si / 1000 Ang^3
#
#
#
# Elastic Constant Matrix: (Units=GPa)
#
#
# Indices 1 2 3 4 5 6 
#
# 1 81.1064 27.1041 37.5154 14.6868 -6.7481 7.5405
# 2 27.1041 67.1597 4.9317 10.7285 -1.0631 0.4569
# 3 37.5154 4.9317 83.7978 17.3426 1.9012 4.6139
# 4 14.6868 10.7285 17.3426 32.1932 11.8325 -3.9715
# 5 -6.7481 -1.0631 1.9012 11.8325 45.2935 -4.4335
# 6 7.5405 0.4569 4.6139 -3.9715 -4.4335 23.5670
#
#
#
# Elastic Compliance Matrix: (Units=1/GPa)
#
#
# Indices 1 2 3 4 5 6 
#
# 1 0.019433 -0.006446 -0.007134 -0.004881 0.003849 -0.004795
# 2 -0.006446 0.018051 0.002762 -0.004735 0.000633 0.000493
# 3 -0.007134 0.002762 0.016487 -0.006765 -0.000135 -0.002164
# 4 -0.004881 -0.004735 -0.006765 0.043623 -0.011144 0.008233
# 5 0.003849 0.000633 -0.000135 -0.011144 0.025755 0.001750
# 6 -0.004795 0.000493 -0.002164 0.008233 0.001750 0.046097
#
#
# Mechanical properties :
#
#
# Convention : Reuss Voigt Hill
#
# Bulk Modulus (GPa) = 30.92566 41.24069 36.08317
# Shear Modulus (GPa) = 24.76962 31.04492 27.90727
#
# Velocity S-wave (km/s) = 3.29944 3.69382 3.50219
# Velocity P-wave (km/s) = 5.30160 6.02643 5.67560
#
# Compressibility (1/GPa) = 0.03233561
#
# Stress axis : x y z
#
# Youngs Moduli (GPa) = 51.45884 55.39737 60.65404
#
# Poissons Ratio (x) = 0.35707 0.43270
# Poissons Ratio (y) = 0.33169 -0.16751
# Poissons Ratio (z) = 0.36710 -0.15299
#
# Static dielectric constant tensor:
#      x y z
#    x 1.917980 -0.026140 0.004790 
#    y -0.026140 1.858750 -0.020350 
#    z 0.004790 -0.020350 1.882480 
# 
# From -- ./inp_files/294012.got.cif
#   From: 2010.05.17/outbox.cif.g08.bks.cpg/sg2_148_cif.got.tgz:294012.got - 2010.06.03 11:33:40.
