data_PCOD9005288
_publ_section_title
;
Structure prediction by ZEFSAII (Michael W. Deem and Ramdas Pophale) SiO2 
 PCOD9005288
Probable space group: P -1
;
_chemical_formula_sum "Si O2"
_cell_formula_units_Z 16
_cell_length_a 27.449972
_cell_length_b 5.062679
_cell_length_c 5.439197
_cell_angle_alpha 96.990299
_cell_angle_beta 82.255072
_cell_angle_gamma 128.027642
_cell_volume 589.266282
_symmetry_space_group_name_H-M "P -1"
_symmetry_group_IT_number 2
_symmetry_cell_setting 'triclinic'
loop_
_space_group_symop_operation_xyz
x,y,z
-x,-y,-z
loop_
_atom_site_type_symbol
_atom_site_label
_atom_site_fract_x
_atom_site_fract_y
_atom_site_fract_z
Si Si1 0.669693 0.591518 0.706117
Si Si2 0.306956 0.032778 0.761026
Si Si3 0.200714 0.106770 0.329396
Si Si4 0.933635 0.195851 0.396658
Si Si5 0.186471 0.522843 0.037906
Si Si6 0.061452 0.308758 0.865432
Si Si7 0.567496 0.723155 0.157424
Si Si8 0.462027 0.106574 0.307673
O O1 0.676890 0.824145 0.506014
O O2 0.728482 0.589766 0.605868
O O3 0.597922 0.276250 0.706193
O O4 0.682064 0.717157 0.995214
O O5 0.360295 0.005386 0.801652
O O6 0.235962 0.719101 0.810183
O O7 0.190902 0.240339 0.100990
O O8 0.135793 0.950805 0.490662
O O9 0.204130 0.799606 0.261591
O O10 0.937415 0.377560 0.159577
O O11 0.000000 0.500000 0.500000
O O12 0.933490 0.875634 0.389352
O O13 0.119503 0.400801 0.991197
O O14 0.000000 0.000000 0.000000
O O15 0.534734 0.329243 0.200826
O O16 0.536033 0.801851 0.397528
O O17 0.557310 0.752315 0.883616
#
# Coordination Sequence:
#
# PCOD9005288 Si02
#       8
#     2   2   2   2   2   2   2   2
#     4  11  24  41  64  96 132 176 227 282 342 408
#     4  11  24  41  64  96 132 176 227 282 342 408
#     4  11  24  44  67  97 133 174 225 283 343 408
#     4  12  24  41  65  95 132 177 227 284 344 408
#     4  11  24  44  67  97 133 174 225 283 343 408
#     4  12  24  41  65  95 132 177 227 284 344 408
#     4  10  21  38  61  90 127 174 226 281 341 407
#     4  10  21  38  61  90 127 174 226 281 341 407
#
# _framework density 27.152411000000001
#
# number of rings (size 3 to 8) (size 9 to 14) (size 15 to 20)
#    0.000    1.000    0.000    6.750    0.000    6.000 
#    0.000    0.000    0.000    0.000    0.000    0.000 
#    0.000    0.000    0.000    0.000    0.000    0.000 
#
# Total GULP energy -89293.784198 kJ/mol
# GULP energy per Si atom -5580.861512 kJ/mol
# Density = 2.709061 g / cm^3
# Si number density = 27.152411 Si / 1000 Ang^3
#
#
#
# Elastic Constant Matrix: (Units=GPa)
#
#
# Indices 1 2 3 4 5 6 
#
# 1 78.3797 17.7518 48.5731 -2.8789 4.4877 22.2576
# 2 17.7518 118.8363 49.8354 -24.2893 5.1980 27.9418
# 3 48.5731 49.8354 107.0664 -24.7735 5.6643 5.3267
# 4 -2.8789 -24.2893 -24.7735 52.5830 12.5211 -3.1473
# 5 4.4877 5.1980 5.6643 12.5211 63.2860 -1.7247
# 6 22.2576 27.9418 5.3267 -3.1473 -1.7247 53.5002
#
#
#
# Elastic Compliance Matrix: (Units=1/GPa)
#
#
# Indices 1 2 3 4 5 6 
#
# 1 0.022043 0.003336 -0.011804 -0.003315 -0.000396 -0.009945
# 2 0.003336 0.013063 -0.006420 0.003117 -0.001554 -0.007438
# 3 -0.011804 -0.006420 0.018799 0.005959 -0.001314 0.006701
# 4 -0.003315 0.003117 0.005959 0.024386 -0.005368 0.000419
# 5 -0.000396 -0.001554 -0.001314 -0.005368 0.017173 0.001345
# 6 -0.009945 -0.007438 0.006701 0.000419 0.001345 0.026114
#
#
# Mechanical properties :
#
#
# Convention : Reuss Voigt Hill
#
# Bulk Modulus (GPa) = 41.44700 59.62254 50.53477
# Shear Modulus (GPa) = 31.36781 46.41533 38.89157
#
# Velocity S-wave (km/s) = 3.40258 4.13902 3.78874
# Velocity P-wave (km/s) = 5.54387 6.69687 6.14746
#
# Compressibility (1/GPa) = 0.02412720
#
# Stress axis : x y z
#
# Youngs Moduli (GPa) = 45.36512 76.55291 53.19542
#
# Poissons Ratio (x) = -0.25536 0.62794
# Poissons Ratio (y) = -0.15132 0.34152
# Poissons Ratio (z) = 0.53551 0.49148
#
# Static dielectric constant tensor:
#      x y z
#    x 2.190260 -0.030910 -0.092630 
#    y -0.030910 2.342830 0.175710 
#    z -0.092630 0.175710 2.188020 
# 
# From -- ./inp_files/15003.got.cif
#   From: 2010.05.17/outbox.cif.g08.bks.cpg/sg2_8_cif.got.tgz:15003.got - 2010.06.03 11:33:40.
