data_PCOD9005673
_publ_section_title
;
Structure prediction by ZEFSAII (Michael W. Deem and Ramdas Pophale) SiO2 
 PCOD9005673
Probable space group: P -1
;
_chemical_formula_sum "Si O2"
_cell_formula_units_Z 14
_cell_length_a 11.848667
_cell_length_b 9.130557
_cell_length_c 5.645452
_cell_angle_alpha 104.460792
_cell_angle_beta 104.864166
_cell_angle_gamma 85.054901
_cell_volume 571.453124
_symmetry_space_group_name_H-M "P -1"
_symmetry_group_IT_number 2
_symmetry_cell_setting 'triclinic'
loop_
_space_group_symop_operation_xyz
x,y,z
-x,-y,-z
loop_
_atom_site_type_symbol
_atom_site_label
_atom_site_fract_x
_atom_site_fract_y
_atom_site_fract_z
Si Si1 0.407710 0.453662 0.630383
Si Si2 0.603466 0.289678 0.873788
Si Si3 0.210129 0.531708 0.255907
Si Si4 0.158670 0.841359 0.515453
Si Si5 0.160344 0.230613 0.918540
Si Si6 0.360577 0.989402 0.944849
Si Si7 0.936453 0.889226 0.685701
O O1 0.500000 0.500000 0.500000
O O2 0.469913 0.307414 0.720676
O O3 0.281512 0.431642 0.445812
O O4 0.397976 0.597755 0.855789
O O5 0.693623 0.369446 0.783912
O O6 0.645864 0.120709 0.876959
O O7 0.137426 0.664601 0.393666
O O8 0.158013 0.412204 0.003755
O O9 0.289353 0.890979 0.672736
O O10 0.075156 0.887783 0.709837
O O11 0.113828 0.940568 0.310600
O O12 0.096648 0.180064 0.108429
O O13 0.113641 0.186550 0.614835
O O14 0.288992 0.147782 0.977086
O O15 0.500000 0.000000 0.000000
#
# Coordination Sequence:
#
# PCOD9005673 Si02
#       7
#     2   2   2   2   2   2   2
#     4   9  20  35  59  89 128 181 232 268 333 420
#     4  10  21  38  63  88 136 191 224 270 344 433
#     4  11  23  39  68  99 135 180 234 287 354 413
#     4  10  23  46  73  98 137 191 232 282 351 426
#     4  11  27  45  71 109 142 180 233 303 340 405
#     4  11  25  42  69 107 139 181 234 293 351 417
#     4  10  25  49  73 101 142 185 240 285 348 413
#
# _framework density 24.498949
#
# number of rings (size 3 to 8) (size 9 to 14) (size 15 to 20)
#    0.000    1.714    1.429    0.857    8.000    8.571 
#    0.000    4.286    0.000    0.000    0.000    0.000 
#    0.000    0.000    0.000    0.000    0.000    0.000 
#
# Total GULP energy -78177.260727 kJ/mol
# GULP energy per Si atom -5584.090052 kJ/mol
# Density = 2.444319 g / cm^3
# Si number density = 24.498949 Si / 1000 Ang^3
#
#
#
# Elastic Constant Matrix: (Units=GPa)
#
#
# Indices 1 2 3 4 5 6 
#
# 1 110.3500 21.2532 42.7592 2.0583 1.0946 1.7821
# 2 21.2532 97.5818 32.5484 15.5722 9.6087 -5.1613
# 3 42.7592 32.5484 107.1469 8.5189 8.9328 -1.8979
# 4 2.0583 15.5722 8.5189 32.3543 7.5325 -11.3101
# 5 1.0946 9.6087 8.9328 7.5325 37.2194 -1.7797
# 6 1.7821 -5.1613 -1.8979 -11.3101 -1.7797 29.4411
#
#
#
# Elastic Compliance Matrix: (Units=1/GPa)
#
#
# Indices 1 2 3 4 5 6 
#
# 1 0.010880 -0.001206 -0.004098 0.000454 0.000839 -0.000909
# 2 -0.001206 0.012345 -0.002763 -0.004730 -0.001524 0.000150
# 3 -0.004098 -0.002763 0.012052 -0.001164 -0.001824 -0.000017
# 4 0.000454 -0.004730 -0.001164 0.039715 -0.005882 0.013969
# 5 0.000839 -0.001524 -0.001824 -0.005882 0.028819 -0.000953
# 6 -0.000909 0.000150 -0.000017 0.013969 -0.000953 0.039355
#
#
# Mechanical properties :
#
#
# Convention : Reuss Voigt Hill
#
# Bulk Modulus (GPa) = 52.23749 56.46672 54.35211
# Shear Modulus (GPa) = 30.17853 34.37081 32.27467
#
# Velocity S-wave (km/s) = 3.51355 3.74966 3.63352
# Velocity P-wave (km/s) = 6.15050 6.46879 6.31165
#
# Compressibility (1/GPa) = 0.01914334
#
# Stress axis : x y z
#
# Youngs Moduli (GPa) = 91.91127 81.00502 82.97452
#
# Poissons Ratio (x) = 0.09770 0.34001
# Poissons Ratio (y) = 0.11085 0.22926
# Poissons Ratio (z) = 0.37663 0.22381
#
# Static dielectric constant tensor:
#      x y z
#    x 2.018630 -0.035730 0.016520 
#    y -0.035730 2.025190 0.022050 
#    z 0.016520 0.022050 2.022150 
# 
# From -- ./inp_files/60336.got.cif
#   From: 2010.05.17/outbox.cif.g08.bks.cpg/sg2_31_cif.got.tgz:60336.got - 2010.06.03 11:33:40.
