data_PCOD9005798
_publ_section_title
;
Structure prediction by ZEFSAII (Michael W. Deem and Ramdas Pophale) SiO2 
 PCOD9005798
Probable space group: P -1
;
_chemical_formula_sum "Si O2"
_cell_formula_units_Z 16
_cell_length_a 19.939088
_cell_length_b 6.617342
_cell_length_c 16.769700
_cell_angle_alpha 74.917776
_cell_angle_beta 160.565148
_cell_angle_gamma 107.054029
_cell_volume 702.923954
_symmetry_space_group_name_H-M "P -1"
_symmetry_group_IT_number 2
_symmetry_cell_setting 'triclinic'
loop_
_space_group_symop_operation_xyz
x,y,z
-x,-y,-z
loop_
_atom_site_type_symbol
_atom_site_label
_atom_site_fract_x
_atom_site_fract_y
_atom_site_fract_z
Si Si1 0.956365 0.709570 0.310015
Si Si2 0.730732 0.869424 0.402356
Si Si3 0.443331 0.151927 0.114344
Si Si4 0.692027 0.523155 0.270655
Si Si5 0.782876 0.560687 0.960809
Si Si6 0.170989 0.456888 0.318389
Si Si7 0.504913 0.871775 0.639404
Si Si8 0.426226 0.319530 0.499572
O O1 0.112633 0.565577 0.536052
O O2 0.773602 0.772277 0.152088
O O3 0.863559 0.583761 0.139609
O O4 0.089676 0.932017 0.411407
O O5 0.736493 0.751881 0.336698
O O6 0.763946 0.700707 0.524792
O O7 0.521055 0.966477 0.169902
O O8 0.613055 0.356940 0.269890
O O9 0.442584 0.090804 0.212179
O O10 0.500000 0.500000 0.000000
O O11 0.954200 0.508321 0.098279
O O12 0.696944 0.780750 0.826508
O O13 0.588515 0.382279 0.747350
O O14 0.317625 0.680604 0.449894
O O15 0.205450 0.338936 0.286167
O O16 0.450225 0.087652 0.522032
O O17 0.500000 0.500000 0.500000
#
# Coordination Sequence:
#
# PCOD9005798 Si02
#       8
#     2   2   2   2   2   2   2   2
#     4  10  23  38  64  98 124 161 223 261 304 379
#     4  11  21  38  65  92 122 164 213 261 310 373
#     4  10  21  38  63  94 121 166 215 258 310 371
#     4  11  24  42  62  93 136 167 206 267 320 366
#     4  10  23  38  64  96 122 161 217 259 307 374
#     4  11  21  38  66  92 121 167 212 257 310 374
#     4  10  21  39  63  89 124 160 210 263 306 376
#     4  11  26  43  63  95 132 165 204 263 326 369
#
# _framework density 22.762066000000001
#
# number of rings (size 3 to 8) (size 9 to 14) (size 15 to 20)
#    0.000    1.500    3.750    0.750    3.500    6.000 
#    0.000    2.500    0.000    0.000    0.000    0.000 
#    0.000    0.000    0.000    0.000    0.000    0.000 
#
# Total GULP energy -89369.218125 kJ/mol
# GULP energy per Si atom -5585.576133 kJ/mol
# Density = 2.271026 g / cm^3
# Si number density = 22.762066 Si / 1000 Ang^3
#
#
#
# Elastic Constant Matrix: (Units=GPa)
#
#
# Indices 1 2 3 4 5 6 
#
# 1 63.5133 28.6896 26.4595 -16.6895 26.8079 -11.0202
# 2 28.6896 123.8967 40.1424 -24.5143 16.0370 -22.7840
# 3 26.4595 40.1424 80.8846 -19.5419 32.7757 -6.6086
# 4 -16.6895 -24.5143 -19.5419 38.2287 -21.5224 8.2549
# 5 26.8079 16.0370 32.7757 -21.5224 52.5240 -12.4363
# 6 -11.0202 -22.7840 -6.6086 8.2549 -12.4363 18.9958
#
#
#
# Elastic Compliance Matrix: (Units=1/GPa)
#
#
# Indices 1 2 3 4 5 6 
#
# 1 0.022029 -0.002403 -0.002211 0.001989 -0.007525 0.003337
# 2 -0.002403 0.013441 -0.006101 0.004890 0.006408 0.014675
# 3 -0.002211 -0.006101 0.020236 0.001077 -0.011450 -0.009524
# 4 0.001989 0.004890 0.001077 0.037718 0.012006 -0.001137
# 5 -0.007525 0.006408 -0.011450 0.012006 0.037391 0.018600
# 6 0.003337 0.014675 -0.009524 -0.001137 0.018600 0.081538
#
#
# Mechanical properties :
#
#
# Convention : Reuss Voigt Hill
#
# Bulk Modulus (GPa) = 29.17493 50.98637 40.08065
# Shear Modulus (GPa) = 20.39066 33.48326 26.93696
#
# Velocity S-wave (km/s) = 2.99627 3.83954 3.44381
# Velocity P-wave (km/s) = 4.98150 6.48879 5.78445
#
# Compressibility (1/GPa) = 0.03427601
#
# Stress axis : x y z
#
# Youngs Moduli (GPa) = 45.39395 74.39808 49.41627
#
# Poissons Ratio (x) = 0.17881 0.10927
# Poissons Ratio (y) = 0.10910 0.30148
# Poissons Ratio (z) = 0.10038 0.45388
#
# Static dielectric constant tensor:
#      x y z
#    x 1.884140 -0.022850 -0.010290 
#    y -0.022850 1.827180 -0.035510 
#    z -0.010290 -0.035510 1.881450 
# 
# From -- ./inp_files/44882.got.cif
#   From: 2010.05.17/outbox.cif.g08.bks.cpg/sg2_23_cif.got.tgz:44882.got - 2010.06.03 11:33:40.
