data_PCOD9005538
_publ_section_title
;
Structure prediction by ZEFSAII (Michael W. Deem and Ramdas Pophale) SiO2 
 PCOD9005538
Probable space group: P -1
;
_chemical_formula_sum "Si O2"
_cell_formula_units_Z 12
_cell_length_a 15.573698
_cell_length_b 7.371071
_cell_length_c 20.042339
_cell_angle_alpha 45.030362
_cell_angle_beta 18.261132
_cell_angle_gamma 48.361199
_cell_volume 509.816949
_symmetry_space_group_name_H-M "P -1"
_symmetry_group_IT_number 2
_symmetry_cell_setting 'triclinic'
loop_
_space_group_symop_operation_xyz
x,y,z
-x,-y,-z
loop_
_atom_site_type_symbol
_atom_site_label
_atom_site_fract_x
_atom_site_fract_y
_atom_site_fract_z
Si Si1 0.002712 0.480051 0.751044
Si Si2 0.993816 0.890713 0.907071
Si Si3 0.931055 0.208663 0.644541
Si Si4 0.818823 0.479992 0.246979
Si Si5 0.391928 0.184176 0.113314
Si Si6 0.361637 0.941975 0.334071
O O1 0.718317 0.558628 0.906403
O O2 0.009173 0.567169 0.800752
O O3 0.218601 0.662646 0.504979
O O4 0.084544 0.186910 0.767765
O O5 0.841133 0.264354 0.229570
O O6 0.039785 0.268874 0.957978
O O7 0.678882 0.903300 0.113865
O O8 0.000000 0.500000 0.500000
O O9 0.219778 0.068676 0.470018
O O10 0.750880 0.048973 0.763393
O O11 0.720804 0.189594 0.865723
O O12 0.500000 0.500000 0.500000
O O13 0.299275 0.129123 0.270590
#
# Coordination Sequence:
#
# PCOD9005538 Si02
#       6
#     2   2   2   2   2   2
#     4  11  23  47  69  98 136 179 219 274 338 392
#     4  11  26  45  72  98 132 177 220 283 339 383
#     4  10  21  38  62  92 130 179 216 256 322 386
#     4  11  25  50  69  98 132 168 233 285 328 404
#     4  10  24  41  61  99 141 169 217 269 319 401
#     4  11  24  44  62 101 140 168 223 270 319 409
#
# _framework density 23.537859000000001
#
# number of rings (size 3 to 8) (size 9 to 14) (size 15 to 20)
#    0.000    1.333    1.667    3.500    7.000    4.667 
#    3.000    0.000    0.000    0.000    0.000    0.000 
#    0.000    0.000    0.000    0.000    0.000    0.000 
#
# Total GULP energy -67072.754919 kJ/mol
# GULP energy per Si atom -5589.396243 kJ/mol
# Density = 2.348429 g / cm^3
# Si number density = 23.537859 Si / 1000 Ang^3
#
#
#
# Elastic Constant Matrix: (Units=GPa)
#
#
# Indices 1 2 3 4 5 6 
#
# 1 68.2950 15.9492 31.2297 -1.4621 33.2785 -15.1471
# 2 15.9492 128.5586 60.6035 -18.7604 19.4599 10.7355
# 3 31.2297 60.6035 129.5948 3.8810 17.3161 5.3921
# 4 -1.4621 -18.7604 3.8810 56.5016 -6.9933 -4.9146
# 5 33.2785 19.4599 17.3161 -6.9933 37.4908 -8.9760
# 6 -15.1471 10.7355 5.3921 -4.9146 -8.9760 32.9876
#
#
#
# Elastic Compliance Matrix: (Units=1/GPa)
#
#
# Indices 1 2 3 4 5 6 
#
# 1 0.029368 0.001456 -0.005005 -0.000582 -0.022817 0.007534
# 2 0.001456 0.011465 -0.005003 0.003288 -0.005070 -0.003135
# 3 -0.005005 -0.005003 0.011378 -0.002738 0.000610 -0.002772
# 4 -0.000582 0.003288 -0.002738 0.019815 0.004561 0.003304
# 5 -0.022817 -0.005070 0.000610 0.004561 0.051508 0.005768
# 6 0.007534 -0.003135 -0.002772 0.003304 0.005768 0.037309
#
#
# Mechanical properties :
#
#
# Convention : Reuss Voigt Hill
#
# Bulk Modulus (GPa) = 28.48514 60.22368 44.35441
# Shear Modulus (GPa) = 26.36437 39.97375 33.16906
#
# Velocity S-wave (km/s) = 3.35040 4.12548 3.75798
# Velocity P-wave (km/s) = 5.20528 6.95228 6.14122
#
# Compressibility (1/GPa) = 0.03510603
#
# Stress axis : x y z
#
# Youngs Moduli (GPa) = 34.05112 87.21831 87.88947
#
# Poissons Ratio (x) = -0.12697 0.43990
# Poissons Ratio (y) = -0.04957 0.43972
# Poissons Ratio (z) = 0.17043 0.43637
#
# Static dielectric constant tensor:
#      x y z
#    x 1.925530 0.008270 -0.022680 
#    y 0.008270 1.932100 0.002140 
#    z -0.022680 0.002140 1.895570 
# 
# From -- ./inp_files/533039.got.cif
#   From: 2010.05.17/outbox.cif.g08.bks.cpg/sg2_267_cif.got.tgz:533039.got - 2010.06.03 11:33:40.
