data_PCOD9005344
_publ_section_title
;
Structure prediction by ZEFSAII (Michael W. Deem and Ramdas Pophale) SiO2 
 PCOD9005344
Probable space group: P -1
;
_chemical_formula_sum "Si O2"
_cell_formula_units_Z 14
_cell_length_a 13.145595
_cell_length_b 9.042807
_cell_length_c 9.461521
_cell_angle_alpha 79.387283
_cell_angle_beta 76.573794
_cell_angle_gamma 39.157146
_cell_volume 690.778377
_symmetry_space_group_name_H-M "P -1"
_symmetry_group_IT_number 2
_symmetry_cell_setting 'triclinic'
loop_
_space_group_symop_operation_xyz
x,y,z
-x,-y,-z
loop_
_atom_site_type_symbol
_atom_site_label
_atom_site_fract_x
_atom_site_fract_y
_atom_site_fract_z
Si Si1 0.798636 0.160432 0.223700
Si Si2 0.331656 0.599292 0.053272
Si Si3 0.399367 0.928949 0.629608
Si Si4 0.863102 0.235638 0.655944
Si Si5 0.363033 0.524639 0.547538
Si Si6 0.587993 0.831871 0.863253
Si Si7 0.822978 0.637767 0.584095
O O1 0.709256 0.099735 0.295741
O O2 0.691977 0.413463 0.283554
O O3 0.794035 0.193386 0.053589
O O4 0.973595 0.969974 0.273134
O O5 0.276124 0.681362 0.216291
O O6 0.346676 0.403201 0.066778
O O7 0.500000 0.500000 0.000000
O O8 0.548392 0.708867 0.520064
O O9 0.465650 0.926475 0.754986
O O10 0.295700 0.158220 0.529506
O O11 0.804179 0.244844 0.520430
O O12 0.845417 0.434123 0.613739
O O13 0.500000 0.500000 0.500000
O O14 0.734416 0.761339 0.745696
O O15 0.500000 0.000000 0.000000
O O16 0.000000 0.500000 0.500000
#
# Coordination Sequence:
#
# PCOD9005344 Si02
#       7
#     2   2   2   2   2   2   2
#     4  11  22  37  65  94 131 166 217 271 331 388
#     4  11  21  41  65  91 132 176 216 271 333 393
#     4  11  21  42  65  92 129 173 221 269 325 395
#     4  11  22  41  62  96 131 169 215 274 335 388
#     4  10  21  38  61  94 122 165 216 265 317 392
#     4  11  25  43  68  98 129 175 230 271 324 398
#     4  11  23  42  70  92 133 174 214 276 339 385
#
# _framework density 20.266991999999998
#
# number of rings (size 3 to 8) (size 9 to 14) (size 15 to 20)
#    0.000    1.143    5.714    2.143    2.000    0.000 
#    0.000    0.714    0.000    0.000    0.000    0.000 
#    0.000    0.000    0.000    0.000    0.000    0.000 
#
# Total GULP energy -77946.213126 kJ/mol
# GULP energy per Si atom -5567.586652 kJ/mol
# Density = 2.022086 g / cm^3
# Si number density = 20.266992 Si / 1000 Ang^3
#
#
#
# Elastic Constant Matrix: (Units=GPa)
#
#
# Indices 1 2 3 4 5 6 
#
# 1 82.4059 32.2719 42.8172 5.9875 -10.8314 -21.7550
# 2 32.2719 74.9706 34.0209 -21.8382 -0.4552 -11.4221
# 3 42.8172 34.0209 119.4286 -2.3186 -13.8370 7.9307
# 4 5.9875 -21.8382 -2.3186 42.9519 -0.9927 2.7813
# 5 -10.8314 -0.4552 -13.8370 -0.9927 38.2568 2.3862
# 6 -21.7550 -11.4221 7.9307 2.7813 2.3862 28.3041
#
#
#
# Elastic Compliance Matrix: (Units=1/GPa)
#
#
# Indices 1 2 3 4 5 6 
#
# 1 0.025164 -0.006505 -0.008340 -0.008480 0.002584 0.019669
# 2 -0.006505 0.022143 -0.004399 0.011577 -0.003137 0.004295
# 3 -0.008340 -0.004399 0.013843 0.000554 0.003381 -0.012404
# 4 -0.008480 0.011577 0.000554 0.030677 -0.000959 -0.004935
# 5 0.002584 -0.003137 0.003381 -0.000959 0.028188 -0.002510
# 6 0.019669 0.004295 -0.012404 -0.004935 -0.002510 0.056354
#
#
# Mechanical properties :
#
#
# Convention : Reuss Voigt Hill
#
# Bulk Modulus (GPa) = 44.12997 55.00278 49.56638
# Shear Modulus (GPa) = 22.48086 33.08224 27.78155
#
# Velocity S-wave (km/s) = 3.33413 4.04458 3.70642
# Velocity P-wave (km/s) = 6.05339 7.00068 6.54420
#
# Compressibility (1/GPa) = 0.02266034
#
# Stress axis : x y z
#
# Youngs Moduli (GPa) = 39.73883 45.16136 72.24044
#
# Poissons Ratio (x) = 0.29379 0.60249
# Poissons Ratio (y) = 0.25851 0.31781
# Poissons Ratio (z) = 0.33142 0.19868
#
# Static dielectric constant tensor:
#      x y z
#    x 1.751250 -0.024570 -0.001820 
#    y -0.024570 1.789140 0.035200 
#    z -0.001820 0.035200 1.707830 
# 
# From -- ./inp_files/154593.got.cif
#   From: 2010.05.17/outbox.cif.g08.bks.cpg/sg2_78_cif.got.tgz:154593.got - 2010.06.03 11:33:40.
