data_PCOD9005323
_publ_section_title
;
Structure prediction by ZEFSAII (Michael W. Deem and Ramdas Pophale) SiO2 
 PCOD9005323
Probable space group: P -1
;
_chemical_formula_sum "Si O2"
_cell_formula_units_Z 16
_cell_length_a 9.389369
_cell_length_b 14.516967
_cell_length_c 16.559142
_cell_angle_alpha 36.381879
_cell_angle_beta 46.274238
_cell_angle_gamma 74.453986
_cell_volume 715.651108
_symmetry_space_group_name_H-M "P -1"
_symmetry_group_IT_number 2
_symmetry_cell_setting 'triclinic'
loop_
_space_group_symop_operation_xyz
x,y,z
-x,-y,-z
loop_
_atom_site_type_symbol
_atom_site_label
_atom_site_fract_x
_atom_site_fract_y
_atom_site_fract_z
Si Si1 0.055162 0.774573 0.733639
Si Si2 0.642705 0.073940 0.018457
Si Si3 0.624460 0.364719 0.279177
Si Si4 0.739901 0.468901 0.339518
Si Si5 0.045848 0.054319 0.662446
Si Si6 0.531353 0.254830 0.811560
Si Si7 0.858853 0.185546 0.509956
Si Si8 0.795148 0.690346 0.314491
O O1 0.284114 0.766264 0.663725
O O2 0.064776 0.831056 0.597089
O O3 0.083036 0.928163 0.677246
O O4 0.778537 0.537773 0.026640
O O5 0.686876 0.258409 0.822683
O O6 0.918108 0.136065 0.883655
O O7 0.471562 0.873826 0.167607
O O8 0.456275 0.009872 0.212857
O O9 0.743046 0.495376 0.224084
O O10 0.308546 0.212727 0.501955
O O11 0.889373 0.388035 0.355476
O O12 0.832218 0.650797 0.236059
O O13 0.422649 0.290250 0.609550
O O14 0.007235 0.179777 0.528857
O O15 0.772785 0.889981 0.935745
O O16 0.657812 0.476853 0.569493
#
# Coordination Sequence:
#
# PCOD9005323 Si02
#       8
#     2   2   2   2   2   2   2   2
#     4  10  22  43  63  89 124 153 207 249 294 367
#     4  10  21  39  61  91 121 163 194 248 309 348
#     4  10  22  43  64  89 122 159 198 255 301 351
#     4  10  22  41  57  90 125 156 203 253 290 356
#     4  11  22  40  66  91 118 163 199 245 312 352
#     4  10  21  38  61  92 127 147 205 253 289 369
#     4  10  22  43  59  91 129 150 203 259 290 361
#     4  11  21  39  62  86 123 168 202 238 303 361
#
# _framework density 22.357265000000002
#
# number of rings (size 3 to 8) (size 9 to 14) (size 15 to 20)
#    0.000    1.750    1.250    2.625    0.000    1.000 
#   27.000    0.000    0.000    0.000    0.000    0.000 
#    0.000    0.000    0.000    0.000    0.000    0.000 
#
# Total GULP energy -89451.992043 kJ/mol
# GULP energy per Si atom -5590.749503 kJ/mol
# Density = 2.230638 g / cm^3
# Si number density = 22.357265 Si / 1000 Ang^3
#
#
#
# Elastic Constant Matrix: (Units=GPa)
#
#
# Indices 1 2 3 4 5 6 
#
# 1 56.0697 13.1440 11.0967 -1.1957 -1.9886 -8.9424
# 2 13.1440 74.8928 9.6908 24.3051 18.8101 -3.0360
# 3 11.0967 9.6908 67.2558 13.0102 15.5378 8.0016
# 4 -1.1957 24.3051 13.0102 28.5741 2.1836 8.5548
# 5 -1.9886 18.8101 15.5378 2.1836 35.9078 4.7263
# 6 -8.9424 -3.0360 8.0016 8.5548 4.7263 27.1126
#
#
#
# Elastic Compliance Matrix: (Units=1/GPa)
#
#
# Indices 1 2 3 4 5 6 
#
# 1 0.021823 -0.006982 -0.006137 0.007761 0.006437 0.004656
# 2 -0.006982 0.027837 0.005226 -0.028404 -0.016976 0.011193
# 3 -0.006137 0.005226 0.020269 -0.012639 -0.010877 -0.001537
# 4 0.007761 -0.028404 -0.012639 0.070493 0.019456 -0.022525
# 5 0.006437 -0.016976 -0.010877 0.019456 0.041941 -0.010018
# 6 0.004656 0.011193 -0.001537 -0.022525 -0.010018 0.048979
#
#
# Mechanical properties :
#
#
# Convention : Reuss Voigt Hill
#
# Bulk Modulus (GPa) = 18.47007 29.56459 24.01733
# Shear Modulus (GPa) = 18.85538 29.27137 24.06337
#
# Velocity S-wave (km/s) = 2.90723 3.62229 3.28428
# Velocity P-wave (km/s) = 4.42138 5.54500 5.01476
#
# Compressibility (1/GPa) = 0.05414166
#
# Stress axis : x y z
#
# Youngs Moduli (GPa) = 45.82379 35.92330 49.33683
#
# Poissons Ratio (x) = 0.25083 0.30277
# Poissons Ratio (y) = 0.31996 -0.25782
# Poissons Ratio (z) = 0.28121 -0.18773
#
# Static dielectric constant tensor:
#      x y z
#    x 1.852490 -0.020190 0.037860 
#    y -0.020190 1.816520 0.003540 
#    z 0.037860 0.003540 1.842250 
# 
# From -- ./inp_files/505238.got.cif
#   From: 2010.05.17/outbox.cif.g08.bks.cpg/sg2_253_cif.got.tgz:505238.got - 2010.06.03 11:33:40.
