data_PCOD9005640
_publ_section_title
;
Structure prediction by ZEFSAII (Michael W. Deem and Ramdas Pophale) SiO2 
 PCOD9005640
Probable space group: P -1
;
_chemical_formula_sum "Si O2"
_cell_formula_units_Z 16
_cell_length_a 13.874442
_cell_length_b 24.674261
_cell_length_c 15.723613
_cell_angle_alpha 157.686670
_cell_angle_beta 145.318731
_cell_angle_gamma 22.135866
_cell_volume 747.213599
_symmetry_space_group_name_H-M "P -1"
_symmetry_group_IT_number 2
_symmetry_cell_setting 'triclinic'
loop_
_space_group_symop_operation_xyz
x,y,z
-x,-y,-z
loop_
_atom_site_type_symbol
_atom_site_label
_atom_site_fract_x
_atom_site_fract_y
_atom_site_fract_z
Si Si1 0.497563 0.255553 0.634778
Si Si2 0.705760 0.243175 0.299939
Si Si3 0.631588 0.030611 0.230665
Si Si4 0.876366 0.836811 0.576650
Si Si5 0.012719 0.066860 0.800333
Si Si6 0.640723 0.880442 0.292147
Si Si7 0.954816 0.656492 0.758440
Si Si8 0.240322 0.333210 0.098128
O O1 0.576549 0.177087 0.480240
O O2 0.194332 0.498899 0.770361
O O3 0.718324 0.211984 0.773996
O O4 0.521788 0.088661 0.455456
O O5 0.500000 0.500000 0.500000
O O6 0.530937 0.214307 0.125445
O O7 0.951399 0.130567 0.256374
O O8 0.827203 0.157382 0.358767
O O9 0.347392 0.177001 0.195499
O O10 0.826358 0.980432 0.233061
O O11 0.743863 0.815157 0.045155
O O12 0.790430 0.849035 0.436151
O O13 0.051297 0.582217 0.357210
O O14 0.616053 0.029756 0.723574
O O15 0.013291 0.208664 0.064684
O O16 0.815217 0.683475 0.063173
O O17 0.000000 0.500000 0.500000
#
# Coordination Sequence:
#
# PCOD9005640 Si02
#       8
#     2   2   2   2   2   2   2   2
#     4  10  22  39  59  91 127 158 200 261 310 371
#     4  10  22  38  61  88 121 158 208 254 310 365
#     4  10  22  38  62  93 120 162 208 246 318 375
#     4  10  21  39  62  88 118 163 210 251 312 369
#     4  12  21  39  65  88 126 161 201 261 308 369
#     4  10  21  38  63  86 122 161 206 257 309 368
#     4  10  22  38  58  87 122 162 203 248 308 373
#     4  10  21  39  61  90 121 159 206 260 303 372
#
# _framework density 21.412887000000001
#
# number of rings (size 3 to 8) (size 9 to 14) (size 15 to 20)
#    0.000    1.750    2.500    1.500    1.750    1.500 
#    0.000    0.000   11.000    0.000    0.000    0.000 
#    0.000    0.000    0.000    0.000    0.000    0.000 
#
# Total GULP energy -89155.697359 kJ/mol
# GULP energy per Si atom -5572.231085 kJ/mol
# Density = 2.136415 g / cm^3
# Si number density = 21.412887 Si / 1000 Ang^3
#
#
#
# Elastic Constant Matrix: (Units=GPa)
#
#
# Indices 1 2 3 4 5 6 
#
# 1 94.0468 22.0384 23.4110 1.7173 9.6477 -2.7768
# 2 22.0384 112.2144 10.4005 0.6247 5.7069 11.4218
# 3 23.4110 10.4005 46.7701 6.4888 -2.3258 4.9895
# 4 1.7173 0.6247 6.4888 32.9018 -0.3483 9.8616
# 5 9.6477 5.7069 -2.3258 -0.3483 28.2425 0.1098
# 6 -2.7768 11.4218 4.9895 9.8616 0.1098 28.6590
#
#
#
# Elastic Compliance Matrix: (Units=1/GPa)
#
#
# Indices 1 2 3 4 5 6 
#
# 1 0.013417 -0.002117 -0.006795 -0.000416 -0.004734 0.003488
# 2 -0.002117 0.009930 -0.000935 0.001438 -0.001325 -0.004490
# 3 -0.006795 -0.000935 0.026110 -0.003651 0.004629 -0.003593
# 4 -0.000416 0.001438 -0.003651 0.034678 0.000025 -0.011911
# 5 -0.004734 -0.001325 0.004629 0.000025 0.037677 -0.000889
# 6 0.003488 -0.004490 -0.003593 -0.011911 -0.000889 0.041748
#
#
# Mechanical properties :
#
#
# Convention : Reuss Voigt Hill
#
# Bulk Modulus (GPa) = 33.59819 40.52569 37.06194
# Shear Modulus (GPa) = 25.88316 31.10607 28.49462
#
# Velocity S-wave (km/s) = 3.48050 3.81554 3.65186
# Velocity P-wave (km/s) = 5.64593 6.19500 5.92683
#
# Compressibility (1/GPa) = 0.02976350
#
# Stress axis : x y z
#
# Youngs Moduli (GPa) = 74.53381 100.70138 38.29902
#
# Poissons Ratio (x) = 0.21320 0.26024
# Poissons Ratio (y) = 0.15780 0.03581
# Poissons Ratio (z) = 0.50645 0.09415
#
# Static dielectric constant tensor:
#      x y z
#    x 1.800400 0.009430 -0.029680 
#    y 0.009430 1.824130 0.021610 
#    z -0.029680 0.021610 1.850980 
# 
# From -- ./inp_files/179210.got.cif
#   From: 2010.05.17/outbox.cif.g08.bks.cpg/sg2_90_cif.got.tgz:179210.got - 2010.06.03 11:33:40.
