data_PCOD9005734
_publ_section_title
;
Structure prediction by ZEFSAII (Michael W. Deem and Ramdas Pophale) SiO2 
 PCOD9005734
Probable space group: P -1
;
_chemical_formula_sum "Si O2"
_cell_formula_units_Z 14
_cell_length_a 7.578642
_cell_length_b 13.602432
_cell_length_c 15.716362
_cell_angle_alpha 138.095853
_cell_angle_beta 45.253729
_cell_angle_gamma 146.516313
_cell_volume 581.562008
_symmetry_space_group_name_H-M "P -1"
_symmetry_group_IT_number 2
_symmetry_cell_setting 'triclinic'
loop_
_space_group_symop_operation_xyz
x,y,z
-x,-y,-z
loop_
_atom_site_type_symbol
_atom_site_label
_atom_site_fract_x
_atom_site_fract_y
_atom_site_fract_z
Si Si1 0.670980 0.207567 0.717412
Si Si2 0.162129 0.025586 0.210903
Si Si3 0.747426 0.921360 0.454801
Si Si4 0.312615 0.471028 0.293626
Si Si5 0.865018 0.048549 0.152550
Si Si6 0.334863 0.374490 0.890244
Si Si7 0.415816 0.556823 0.650578
O O1 0.511605 0.283243 0.772931
O O2 0.053301 0.383632 0.694316
O O3 0.600368 0.026285 0.579689
O O4 0.519060 0.127709 0.811571
O O5 0.976512 0.996011 0.342398
O O6 0.053685 0.812876 0.097727
O O7 0.509844 0.239678 0.244945
O O8 0.025100 0.044013 0.181825
O O9 0.445698 0.688751 0.403191
O O10 0.000000 0.000000 0.500000
O O11 0.554472 0.508281 0.159528
O O12 0.360692 0.425288 0.340865
O O13 0.969977 0.260948 0.246315
O O14 0.000000 0.000000 0.000000
O O15 0.500000 0.500000 0.000000
O O16 0.500000 0.500000 0.500000
#
# Coordination Sequence:
#
# PCOD9005734 Si02
#       7
#     2   2   2   2   2   2   2
#     4  11  23  40  68  89 128 167 203 256 324 359
#     4   9  20  37  67  86 132 159 198 256 325 352
#     4  11  20  39  64  98 128 156 200 264 316 379
#     4  10  21  38  63  91 131 162 202 256 319 364
#     4  10  22  42  62  90 126 167 214 257 294 362
#     4  10  22  43  63  89 126 166 214 261 295 363
#     4  11  20  41  63  95 130 161 196 259 318 377
#
# _framework density 24.0731
#
# number of rings (size 3 to 8) (size 9 to 14) (size 15 to 20)
#    0.000    1.714    2.857    1.714    0.000    5.714 
#    5.143    7.143    0.000    0.000    0.000    0.000 
#    0.000    0.000    0.000    0.000    0.000    0.000 
#
# Total GULP energy -77969.286885 kJ/mol
# GULP energy per Si atom -5569.234778 kJ/mol
# Density = 2.401831 g / cm^3
# Si number density = 24.073100 Si / 1000 Ang^3
#
#
#
# Elastic Constant Matrix: (Units=GPa)
#
#
# Indices 1 2 3 4 5 6 
#
# 1 57.5409 -3.3091 46.9029 7.1155 25.3783 -8.4218
# 2 -3.3091 171.4916 64.9338 -0.3332 14.6308 11.7915
# 3 46.9029 64.9338 129.4185 0.5876 42.9640 1.3149
# 4 7.1155 -0.3332 0.5876 32.0583 -1.7659 5.3364
# 5 25.3783 14.6308 42.9640 -1.7659 36.4221 -6.4460
# 6 -8.4218 11.7915 1.3149 5.3364 -6.4460 22.7339
#
#
#
# Elastic Compliance Matrix: (Units=1/GPa)
#
#
# Indices 1 2 3 4 5 6 
#
# 1 0.034786 0.005316 -0.011495 -0.009723 -0.011551 0.009801
# 2 0.005316 0.008361 -0.005961 -0.000677 -0.000415 -0.001981
# 3 -0.011495 -0.005961 0.019466 0.002505 -0.013630 -0.006745
# 4 -0.009723 -0.000677 0.002505 0.035273 0.003933 -0.010560
# 5 -0.011551 -0.000415 -0.013630 0.003933 0.053902 0.011085
# 6 0.009801 -0.001981 -0.006745 -0.010560 0.011085 0.054657
#
#
# Mechanical properties :
#
#
# Convention : Reuss Voigt Hill
#
# Bulk Modulus (GPa) = 26.08671 63.94513 45.01592
# Shear Modulus (GPa) = 20.53378 34.90444 27.71911
#
# Velocity S-wave (km/s) = 2.92374 3.81193 3.39699
# Velocity P-wave (km/s) = 4.71781 6.78196 5.84178
#
# Compressibility (1/GPa) = 0.03833370
#
# Stress axis : x y z
#
# Youngs Moduli (GPa) = 28.74736 119.60143 51.37251
#
# Poissons Ratio (x) = -0.63585 0.59053
# Poissons Ratio (y) = -0.15283 0.30622
# Poissons Ratio (z) = 0.33045 0.71292
#
# Static dielectric constant tensor:
#      x y z
#    x 2.071000 0.079420 -0.000630 
#    y 0.079420 2.161960 0.041890 
#    z -0.000630 0.041890 1.947840 
# 
# From -- ./inp_files/258082.got.cif
#   From: 2010.05.17/outbox.cif.g08.bks.cpg/sg2_130_cif.got.tgz:258082.got - 2010.06.03 11:33:40.
