data_PCOD9005217
_publ_section_title
;
Structure prediction by ZEFSAII (Michael W. Deem and Ramdas Pophale) SiO2 
 PCOD9005217
Probable space group: P -1
;
_chemical_formula_sum "Si O2"
_cell_formula_units_Z 12
_cell_length_a 23.893738
_cell_length_b 5.359745
_cell_length_c 26.256771
_cell_angle_alpha 62.482768
_cell_angle_beta 169.498445
_cell_angle_gamma 118.952640
_cell_volume 534.211705
_symmetry_space_group_name_H-M "P -1"
_symmetry_group_IT_number 2
_symmetry_cell_setting 'triclinic'
loop_
_space_group_symop_operation_xyz
x,y,z
-x,-y,-z
loop_
_atom_site_type_symbol
_atom_site_label
_atom_site_fract_x
_atom_site_fract_y
_atom_site_fract_z
Si Si1 0.268256 0.819198 0.268259
Si Si2 0.128674 0.902882 0.677206
Si Si3 0.903697 0.222890 0.542220
Si Si4 0.637060 0.121377 0.490208
Si Si5 0.902742 0.533999 0.049598
Si Si6 0.823035 0.958453 0.093818
O O1 0.080844 0.533154 0.154579
O O2 0.500000 0.000000 0.500000
O O3 0.449513 0.828052 0.375789
O O4 0.000000 0.000000 0.000000
O O5 0.052808 0.558656 0.646750
O O6 0.000000 0.000000 0.500000
O O7 0.977422 0.065318 0.571396
O O8 0.500000 0.000000 0.000000
O O9 0.060696 0.057614 0.742717
O O10 0.529223 0.214287 0.211233
O O11 0.847592 0.278032 0.708565
O O12 0.879472 0.116568 0.662712
O O13 0.385165 0.308095 0.231109
O O14 0.795595 0.249560 0.012363
#
# Coordination Sequence:
#
# PCOD9005217 Si02
#       6
#     2   2   2   2   2   2
#     4   8  16  33  56  85 116 177 235 296 338 397
#     4  12  26  52  80 108 142 181 228 279 336 412
#     4  12  28  45  76 111 146 181 230 279 346 419
#     4  10  21  38  61  87 134 178 237 290 350 404
#     4  10  21  38  61  87 134 178 237 290 350 404
#     4  12  26  40  64 104 140 187 224 285 352 424
#
# _framework density 22.463006
#
# number of rings (size 3 to 8) (size 9 to 14) (size 15 to 20)
#    0.000    1.333    0.000    5.000    7.000    0.667 
#    0.000    0.000    0.000   14.000    0.000    0.000 
#    0.000    0.000    0.000    0.000    0.000    0.000 
#
# Total GULP energy -66986.610255 kJ/mol
# GULP energy per Si atom -5582.217521 kJ/mol
# Density = 2.241188 g / cm^3
# Si number density = 22.463006 Si / 1000 Ang^3
#
#
#
# Elastic Constant Matrix: (Units=GPa)
#
#
# Indices 1 2 3 4 5 6 
#
# 1 140.2669 68.6048 63.2358 5.4755 1.7825 27.9366
# 2 68.6048 118.0246 62.7008 -0.5721 14.6486 19.7486
# 3 63.2358 62.7008 208.5424 -12.1169 -13.2379 21.5450
# 4 5.4755 -0.5721 -12.1169 49.5097 7.9441 0.0797
# 5 1.7825 14.6486 -13.2379 7.9441 45.5587 -4.4100
# 6 27.9366 19.7486 21.5450 0.0797 -4.4100 31.2019
#
#
#
# Elastic Compliance Matrix: (Units=1/GPa)
#
#
# Indices 1 2 3 4 5 6 
#
# 1 0.011471 -0.004952 -0.001434 -0.001738 0.000441 -0.006079
# 2 -0.004952 0.014035 -0.002666 0.000960 -0.005590 -0.003401
# 3 -0.001434 -0.002666 0.006374 0.001299 0.002434 -0.001089
# 4 -0.001738 0.000960 0.001299 0.021302 -0.003628 -0.000516
# 5 0.000441 -0.005590 0.002434 -0.003628 0.025562 0.005085
# 6 -0.006079 -0.003401 -0.001089 -0.000516 0.005085 0.041117
#
#
# Mechanical properties :
#
#
# Convention : Reuss Voigt Hill
#
# Bulk Modulus (GPa) = 72.59075 95.10185 83.84630
# Shear Modulus (GPa) = 35.07366 43.40688 39.24027
#
# Velocity S-wave (km/s) = 3.95574 4.40064 4.18411
# Velocity P-wave (km/s) = 7.29724 8.26135 7.79421
#
# Compressibility (1/GPa) = 0.01377586
#
# Stress axis : x y z
#
# Youngs Moduli (GPa) = 87.17805 71.25038 156.88282
#
# Poissons Ratio (x) = 0.35281 0.22504
# Poissons Ratio (y) = 0.43167 0.41825
# Poissons Ratio (z) = 0.12505 0.18995
#
# Static dielectric constant tensor:
#      x y z
#    x 1.912790 -0.019450 0.061540 
#    y -0.019450 1.945820 0.011800 
#    z 0.061540 0.011800 1.795060 
# 
# From -- ./inp_files/6507.got.cif
#   From: 2010.05.17/outbox.cif.g08.bks.cpg/sg2_4_cif.got.tgz:6507.got - 2010.06.03 11:33:40.
