data_PCOD9005970
_publ_section_title
;
Structure prediction by ZEFSAII (Michael W. Deem and Ramdas Pophale) SiO2 
 PCOD9005970
Probable space group: P -1
;
_chemical_formula_sum "Si O2"
_cell_formula_units_Z 16
_cell_length_a 8.390693
_cell_length_b 16.848021
_cell_length_c 11.680423
_cell_angle_alpha 68.727096
_cell_angle_beta 124.522625
_cell_angle_gamma 140.473323
_cell_volume 857.096169
_symmetry_space_group_name_H-M "P -1"
_symmetry_group_IT_number 2
_symmetry_cell_setting 'triclinic'
loop_
_space_group_symop_operation_xyz
x,y,z
-x,-y,-z
loop_
_atom_site_type_symbol
_atom_site_label
_atom_site_fract_x
_atom_site_fract_y
_atom_site_fract_z
Si Si1 0.657213 0.799322 0.767989
Si Si2 0.983160 0.661745 0.177753
Si Si3 0.193748 0.577702 0.872856
Si Si4 0.641053 0.685913 0.167781
Si Si5 0.132988 0.974225 0.154818
Si Si6 0.729035 0.362454 0.519563
Si Si7 0.241764 0.899408 0.033029
Si Si8 0.593788 0.443686 0.625867
O O1 0.441274 0.695288 0.831116
O O2 0.507619 0.730733 0.623502
O O3 0.702482 0.914816 0.745352
O O4 0.956583 0.848122 0.887075
O O5 0.877031 0.541127 0.136609
O O6 0.738022 0.643063 0.141150
O O7 0.158698 0.686176 0.347108
O O8 0.164347 0.778042 0.102334
O O9 0.913942 0.544054 0.756623
O O10 0.335740 0.621214 0.032636
O O11 0.611072 0.644009 0.305900
O O12 0.878765 0.836103 0.176330
O O13 0.303768 0.967267 0.143438
O O14 0.000000 0.000000 0.000000
O O15 0.602681 0.377744 0.562774
O O16 0.000000 0.500000 0.500000
O O17 0.500000 0.000000 0.000000
O O18 0.500000 0.500000 0.500000
#
# Coordination Sequence:
#
# PCOD9005970 Si02
#       8
#     2   2   2   2   2   2   2   2
#     4  11  21  41  64  88 122 167 207 240 309 372
#     4  10  21  38  64  90 126 158 201 249 315 364
#     4  11  21  38  65  93 119 162 201 255 313 358
#     4  11  21  39  62  93 123 156 207 254 302 363
#     4   9  19  39  62  83 123 162 199 248 300 357
#     4  11  22  41  61  87 128 166 196 247 315 369
#     4  10  22  41  62  94 122 159 208 260 297 353
#     4  11  25  39  58  93 127 159 200 256 310 360
#
# _framework density 18.667683
#
# number of rings (size 3 to 8) (size 9 to 14) (size 15 to 20)
#    0.000    1.500    6.250    1.500    0.000    4.000 
#    4.500    5.000    0.000    0.000    0.000    0.000 
#    0.000    0.000    0.000    0.000    0.000    0.000 
#
# Total GULP energy -89276.260847 kJ/mol
# GULP energy per Si atom -5579.766303 kJ/mol
# Density = 1.862519 g / cm^3
# Si number density = 18.667683 Si / 1000 Ang^3
#
#
#
# Elastic Constant Matrix: (Units=GPa)
#
#
# Indices 1 2 3 4 5 6 
#
# 1 55.0453 61.7774 32.5638 -6.4089 3.4157 9.4654
# 2 61.7774 143.8742 58.6562 -16.0636 0.0458 12.2462
# 3 32.5638 58.6562 124.2315 -7.8604 -4.8334 2.4867
# 4 -6.4089 -16.0636 -7.8604 30.4264 -1.5809 -7.9447
# 5 3.4157 0.0458 -4.8334 -1.5809 34.0377 -3.5195
# 6 9.4654 12.2462 2.4867 -7.9447 -3.5195 33.4340
#
#
#
# Elastic Compliance Matrix: (Units=1/GPa)
#
#
# Indices 1 2 3 4 5 6 
#
# 1 0.037423 -0.014525 -0.003177 -0.002467 -0.004937 -0.006144
# 2 -0.014525 0.014818 -0.002884 0.004081 0.001217 -0.000003
# 3 -0.003177 -0.002884 0.010353 0.001015 0.002009 0.001638
# 4 -0.002467 0.004081 0.001015 0.037071 0.002961 0.008249
# 5 -0.004937 0.001217 0.002009 0.002961 0.030787 0.004747
# 6 -0.006144 -0.000003 0.001638 0.008249 0.004747 0.033988
#
#
# Mechanical properties :
#
#
# Convention : Reuss Voigt Hill
#
# Bulk Modulus (GPa) = 46.67537 69.90508 58.29023
# Shear Modulus (GPa) = 23.50154 30.92319 27.21236
#
# Velocity S-wave (km/s) = 3.55201 4.07444 3.82216
# Velocity P-wave (km/s) = 6.47147 7.72419 7.12541
#
# Compressibility (1/GPa) = 0.02142458
#
# Stress axis : x y z
#
# Youngs Moduli (GPa) = 26.72173 67.48389 96.58730
#
# Poissons Ratio (x) = 0.98017 0.30683
# Poissons Ratio (y) = 0.38812 0.27852
# Poissons Ratio (z) = 0.08489 0.19460
#
# Static dielectric constant tensor:
#      x y z
#    x 1.668650 -0.011030 -0.021980 
#    y -0.011030 1.638410 0.006460 
#    z -0.021980 0.006460 1.608600 
# 
# From -- ./inp_files/271918.got.cif
#   From: 2010.05.17/outbox.cif.g08.bks.cpg/sg2_136_cif.got.tgz:271918.got - 2010.06.03 11:33:40.
