data_PCOD9005985
_publ_section_title
;
Structure prediction by ZEFSAII (Michael W. Deem and Ramdas Pophale) SiO2 
 PCOD9005985
Probable space group: P -1
;
_chemical_formula_sum "Si O2"
_cell_formula_units_Z 16
_cell_length_a 9.330798
_cell_length_b 11.037521
_cell_length_c 19.356160
_cell_angle_alpha 30.705894
_cell_angle_beta 133.570425
_cell_angle_gamma 131.092919
_cell_volume 726.162618
_symmetry_space_group_name_H-M "P -1"
_symmetry_group_IT_number 2
_symmetry_cell_setting 'triclinic'
loop_
_space_group_symop_operation_xyz
x,y,z
-x,-y,-z
loop_
_atom_site_type_symbol
_atom_site_label
_atom_site_fract_x
_atom_site_fract_y
_atom_site_fract_z
Si Si1 0.480240 0.264457 0.885121
Si Si2 0.652267 0.651650 0.846593
Si Si3 0.068264 0.494959 0.875921
Si Si4 0.717850 0.622487 0.370115
Si Si5 0.789861 0.229907 0.341190
Si Si6 0.866914 0.162664 0.673518
Si Si7 0.083536 0.025928 0.938562
Si Si8 0.116394 0.037809 0.625262
O O1 0.651467 0.432531 0.901491
O O2 0.438455 0.384480 0.740130
O O3 0.288643 0.206255 0.902089
O O4 0.500000 0.000000 0.000000
O O5 0.429931 0.719087 0.740966
O O6 0.788155 0.899362 0.747153
O O7 0.736667 0.568653 0.987999
O O8 0.104265 0.548976 0.779898
O O9 0.040974 0.761697 0.761367
O O10 0.908515 0.248714 0.950031
O O11 0.719462 0.352226 0.526764
O O12 0.727099 0.805925 0.347456
O O13 0.929246 0.726015 0.352019
O O14 0.930067 0.174320 0.478324
O O15 0.783578 0.007969 0.393299
O O16 0.919891 0.121423 0.790157
O O17 0.000000 0.000000 0.000000
#
# Coordination Sequence:
#
# PCOD9005985 Si02
#       8
#     2   2   2   2   2   2   2   2
#     4  11  25  41  61  94 127 161 205 260 316 357
#     4  11  21  39  62  89 121 155 210 254 305 367
#     4   9  19  37  59  87 117 161 198 248 307 363
#     4  10  21  43  60  83 126 163 203 247 303 379
#     4   9  20  35  60  95 118 161 203 251 310 362
#     4   9  23  38  62  89 114 166 206 243 311 365
#     4  10  21  38  64  91 119 163 210 253 299 378
#     4   9  20  36  62  85 123 162 200 249 303 369
#
# _framework density 22.033632999999998
#
# number of rings (size 3 to 8) (size 9 to 14) (size 15 to 20)
#    0.750    1.500    0.000    1.875    7.000    2.500 
#    2.250    4.375    0.000    0.000    0.000    0.000 
#    0.000    0.000    0.000    0.000    0.000    0.000 
#
# Total GULP energy -89185.091752 kJ/mol
# GULP energy per Si atom -5574.068235 kJ/mol
# Density = 2.198348 g / cm^3
# Si number density = 22.033633 Si / 1000 Ang^3
#
#
#
# Elastic Constant Matrix: (Units=GPa)
#
#
# Indices 1 2 3 4 5 6 
#
# 1 36.8909 7.1095 14.5482 10.9222 0.0692 -18.7827
# 2 7.1095 83.7927 28.5479 -18.1896 -12.6871 -12.1800
# 3 14.5482 28.5479 138.7760 -14.4206 -9.2218 4.9483
# 4 10.9222 -18.1896 -14.4206 20.2185 -3.3975 6.5045
# 5 0.0692 -12.6871 -9.2218 -3.3975 22.3219 1.8253
# 6 -18.7827 -12.1800 4.9483 6.5045 1.8253 22.1273
#
#
#
# Elastic Compliance Matrix: (Units=1/GPa)
#
#
# Indices 1 2 3 4 5 6 
#
# 1 -0.119411 0.023069 0.035348 0.170613 0.066499 -0.152207
# 2 0.023069 0.013945 -0.008343 -0.017040 -0.000984 0.034214
# 3 0.035348 -0.008343 -0.001713 -0.043200 -0.015386 0.039764
# 4 0.170613 -0.017040 -0.043200 -0.164601 -0.069404 0.199217
# 5 0.066499 -0.000984 -0.015386 -0.069404 0.020733 0.078039
# 6 -0.152207 0.034214 0.039764 0.199217 0.078039 -0.139065
#
#
# Mechanical properties :
#
#
# Convention : Reuss Voigt Hill
#
# Bulk Modulus (GPa) = -142.22011 39.98566 -51.11723
# Shear Modulus (GPa) = -10.15013 26.88379 8.36683
#
# Velocity S-wave (km/s) = -2.14864 3.49682 1.95078
# Velocity P-wave (km/s) = 8.41680 5.87287 4.26333
#
# Compressibility (1/GPa) = -0.00703135
#
# Stress axis : x y z
#
# Youngs Moduli (GPa) = -8.37443 71.71145 -583.85921
#
# Poissons Ratio (x) = -1.65433 20.63799
# Poissons Ratio (y) = 0.19319 -4.87113
# Poissons Ratio (z) = 0.29602 0.59829
#
# Static dielectric constant tensor:
#      x y z
#    x 1.848860 -0.027810 0.049570 
#    y -0.027810 1.811590 -0.026790 
#    z 0.049570 -0.026790 1.761990 
# 
# From -- ./inp_files/588895.got.cif
#   From: 2010.05.17/outbox.cif.g08.bks.cpg/sg2_295_cif.got.tgz:588895.got - 2010.06.03 11:33:40.
