data_PCOD9005680
_publ_section_title
;
Structure prediction by ZEFSAII (Michael W. Deem and Ramdas Pophale) SiO2 
 PCOD9005680
Probable space group: P -1
;
_chemical_formula_sum "Si O2"
_cell_formula_units_Z 14
_cell_length_a 12.738708
_cell_length_b 8.626572
_cell_length_c 9.997127
_cell_angle_alpha 41.024623
_cell_angle_beta 82.857969
_cell_angle_gamma 82.771820
_cell_volume 714.640984
_symmetry_space_group_name_H-M "P -1"
_symmetry_group_IT_number 2
_symmetry_cell_setting 'triclinic'
loop_
_space_group_symop_operation_xyz
x,y,z
-x,-y,-z
loop_
_atom_site_type_symbol
_atom_site_label
_atom_site_fract_x
_atom_site_fract_y
_atom_site_fract_z
Si Si1 0.386351 0.074665 0.096293
Si Si2 0.782629 0.978846 0.237492
Si Si3 0.449046 0.077247 0.596463
Si Si4 0.170460 0.012642 0.089927
Si Si5 0.035939 0.669592 0.002553
Si Si6 0.101819 0.500016 0.389492
Si Si7 0.526713 0.403166 0.707358
O O1 0.261157 0.096781 0.120178
O O2 0.462417 0.004722 0.253539
O O3 0.401618 0.838480 0.154873
O O4 0.426415 0.306617 0.865023
O O5 0.661129 0.024559 0.271095
O O6 0.825943 0.734578 0.453326
O O7 0.860013 0.182462 0.137768
O O8 0.797381 0.938122 0.101509
O O9 0.428473 0.360786 0.395331
O O10 0.500000 0.000000 0.500000
O O11 0.059376 0.143069 0.062225
O O12 0.160105 0.732134 0.274865
O O13 0.064068 0.526203 0.226140
O O14 0.000000 0.500000 0.000000
O O15 0.000000 0.500000 0.500000
O O16 0.500000 0.500000 0.500000
#
# Coordination Sequence:
#
# PCOD9005680 Si02
#       7
#     2   2   2   2   2   2   2
#     4  10  21  38  63  89 123 159 207 262 304 362
#     4  11  22  42  66  88 125 170 209 257 306 376
#     4  11  25  41  59  92 130 167 210 253 315 375
#     4  11  21  39  67  94 123 161 211 256 313 376
#     4  11  25  41  61  98 131 158 204 264 322 371
#     4  11  20  42  67  91 122 168 214 252 306 374
#     4   9  18  37  58  86 114 155 207 249 296 363
#
# _framework density 19.590254000000002
#
# number of rings (size 3 to 8) (size 9 to 14) (size 15 to 20)
#    0.000    1.429    2.857    4.286    0.000    5.714 
#    2.571    0.000    0.000    0.000    0.000    0.000 
#    0.000    0.000    0.000    0.000    0.000    0.000 
#
# Total GULP energy -78084.577962 kJ/mol
# GULP energy per Si atom -5577.469854 kJ/mol
# Density = 1.954567 g / cm^3
# Si number density = 19.590254 Si / 1000 Ang^3
#
#
#
# Elastic Constant Matrix: (Units=GPa)
#
#
# Indices 1 2 3 4 5 6 
#
# 1 149.1287 47.0138 52.1336 10.6023 -13.8355 21.6004
# 2 47.0138 95.2111 39.3462 6.5266 -16.0013 11.7831
# 3 52.1336 39.3462 121.2212 -6.4839 -9.7082 19.4003
# 4 10.6023 6.5266 -6.4839 15.9535 -3.4863 -3.2508
# 5 -13.8355 -16.0013 -9.7082 -3.4863 30.9989 0.9166
# 6 21.6004 11.7831 19.4003 -3.2508 0.9166 21.3069
#
#
#
# Elastic Compliance Matrix: (Units=1/GPa)
#
#
# Indices 1 2 3 4 5 6 
#
# 1 0.010255 -0.002021 -0.002738 -0.008327 0.001980 -0.008141
# 2 -0.002021 0.014541 -0.003051 -0.005595 0.005146 -0.004289
# 3 -0.002738 -0.003051 0.011793 0.007197 0.001861 -0.005256
# 4 -0.008327 -0.005595 0.007197 0.077677 0.003892 0.016668
# 5 0.001980 0.005146 0.001861 0.003892 0.037043 -0.007547
# 6 -0.008141 -0.004289 -0.005256 0.016668 -0.007547 0.065212
#
#
# Mechanical properties :
#
#
# Convention : Reuss Voigt Hill
#
# Bulk Modulus (GPa) = 47.69287 71.39422 59.54355
# Shear Modulus (GPa) = 20.90909 28.78970 24.84939
#
# Velocity S-wave (km/s) = 3.27053 3.83769 3.56540
# Velocity P-wave (km/s) = 6.21771 7.49400 6.88549
#
# Compressibility (1/GPa) = 0.02096750
#
# Stress axis : x y z
#
# Youngs Moduli (GPa) = 97.51373 68.77065 84.79926
#
# Poissons Ratio (x) = 0.13898 0.23221
# Poissons Ratio (y) = 0.19707 0.25875
# Poissons Ratio (z) = 0.26702 0.20984
#
# Static dielectric constant tensor:
#      x y z
#    x 1.041850 0.743530 -0.349040 
#    y 0.743530 0.948210 0.349400 
#    z -0.349040 0.349400 1.517780 
# 
# From -- ./inp_files/37268.got.cif
#   From: 2010.05.17/outbox.cif.g08.bks.cpg/sg2_19_cif.got.tgz:37268.got - 2010.06.03 11:33:40.
