data_PCOD9005992
_publ_section_title
;
Structure prediction by ZEFSAII (Michael W. Deem and Ramdas Pophale) SiO2 
 PCOD9005992
Probable space group: P -1
;
_chemical_formula_sum "Si O2"
_cell_formula_units_Z 14
_cell_length_a 13.268491
_cell_length_b 4.994439
_cell_length_c 14.028675
_cell_angle_alpha 122.488332
_cell_angle_beta 44.749126
_cell_angle_gamma 106.302413
_cell_volume 544.053975
_symmetry_space_group_name_H-M "P -1"
_symmetry_group_IT_number 2
_symmetry_cell_setting 'triclinic'
loop_
_space_group_symop_operation_xyz
x,y,z
-x,-y,-z
loop_
_atom_site_type_symbol
_atom_site_label
_atom_site_fract_x
_atom_site_fract_y
_atom_site_fract_z
Si Si1 0.299970 0.772607 0.623212
Si Si2 0.691661 0.261059 0.075585
Si Si3 0.243617 0.839978 0.458769
Si Si4 0.637371 0.559242 0.975884
Si Si5 0.902141 0.344253 0.650335
Si Si6 0.507625 0.850471 0.641109
Si Si7 0.010866 0.981071 0.776364
O O1 0.316414 0.723150 0.488371
O O2 0.397784 0.987049 0.655124
O O3 0.370172 0.418527 0.543472
O O4 0.129040 0.905818 0.767701
O O5 0.667457 0.906633 0.990487
O O6 0.630873 0.519691 0.086194
O O7 0.601418 0.279814 0.237015
O O8 0.867180 0.216219 0.951234
O O9 0.183964 0.594866 0.381357
O O10 0.376020 0.975127 0.346785
O O11 0.103720 0.083619 0.643250
O O12 0.500000 0.500000 0.000000
O O13 0.779218 0.307798 0.802695
O O14 0.974932 0.640272 0.695084
O O15 0.000000 0.000000 0.500000
#
# Coordination Sequence:
#
# PCOD9005992 Si02
#       7
#     2   2   2   2   2   2   2
#     4   9  23  40  66  92 130 161 235 267 325 385
#     4  11  25  43  66  94 137 171 219 271 334 391
#     4  10  21  38  64  91 126 165 214 268 322 386
#     4  11  25  42  62  98 135 173 217 270 326 398
#     4  11  21  37  67  94 129 172 214 266 330 393
#     4  11  22  41  68  93 124 177 221 276 325 385
#     4   9  22  41  62  96 135 165 219 268 330 392
#
# _framework density 25.732741000000001
#
# number of rings (size 3 to 8) (size 9 to 14) (size 15 to 20)
#    0.857    0.857    0.000    3.857    4.000    2.857 
#    0.000    0.000    0.000    4.286    0.000    0.000 
#    0.000    0.000    0.000    0.000    0.000    0.000 
#
# Total GULP energy -78031.742542 kJ/mol
# GULP energy per Si atom -5573.695896 kJ/mol
# Density = 2.567417 g / cm^3
# Si number density = 25.732741 Si / 1000 Ang^3
#
#
#
# Elastic Constant Matrix: (Units=GPa)
#
#
# Indices 1 2 3 4 5 6 
#
# 1 155.7606 25.7769 26.3438 -5.4738 -23.8584 -2.7236
# 2 25.7769 50.8360 4.7417 -11.9909 -9.1080 -0.6300
# 3 26.3438 4.7417 124.3095 -18.4532 -27.6679 4.8192
# 4 -5.4738 -11.9909 -18.4532 38.1207 -0.5136 7.3000
# 5 -23.8584 -9.1080 -27.6679 -0.5136 45.7628 -6.3197
# 6 -2.7236 -0.6300 4.8192 7.3000 -6.3197 25.0743
#
#
#
# Elastic Compliance Matrix: (Units=1/GPa)
#
#
# Indices 1 2 3 4 5 6 
#
# 1 0.007610 -0.003404 -0.001025 -0.000800 0.002925 0.001908
# 2 -0.003404 0.023892 0.002019 0.008358 0.004079 -0.001563
# 3 -0.001025 0.002019 0.010510 0.006107 0.005965 -0.002355
# 4 -0.000800 0.008358 0.006107 0.033642 0.003956 -0.009848
# 5 0.002925 0.004079 0.005965 0.003956 0.028575 0.005324
# 6 0.001908 -0.001563 -0.002355 -0.009848 0.005324 0.044711
#
#
# Mechanical properties :
#
#
# Convention : Reuss Voigt Hill
#
# Bulk Modulus (GPa) = 26.88675 49.40346 38.14510
# Shear Modulus (GPa) = 30.09210 40.06114 35.07662
#
# Velocity S-wave (km/s) = 3.42337 3.94993 3.69604
# Velocity P-wave (km/s) = 5.10853 6.32795 5.75066
#
# Compressibility (1/GPa) = 0.03719304
#
# Stress axis : x y z
#
# Youngs Moduli (GPa) = 131.40523 41.85538 95.14608
#
# Poissons Ratio (x) = 0.14248 0.09748
# Poissons Ratio (y) = 0.44733 -0.19213
# Poissons Ratio (z) = 0.13464 -0.08452
#
# Static dielectric constant tensor:
#      x y z
#    x 2.081880 0.011510 0.007660 
#    y 0.011510 2.119760 0.011740 
#    z 0.007660 0.011740 2.121340 
# 
# From -- ./inp_files/509993.got.cif
#   From: 2010.05.17/outbox.cif.g08.bks.cpg/sg2_255_cif.got.tgz:509993.got - 2010.06.03 11:33:40.
