data_PCOD9005612
_publ_section_title
;
Structure prediction by ZEFSAII (Michael W. Deem and Ramdas Pophale) SiO2 
 PCOD9005612
Probable space group: P -1
;
_chemical_formula_sum "Si O2"
_cell_formula_units_Z 16
_cell_length_a 11.183917
_cell_length_b 5.704426
_cell_length_c 13.456408
_cell_angle_alpha 95.160000
_cell_angle_beta 64.833778
_cell_angle_gamma 125.952347
_cell_volume 613.856273
_symmetry_space_group_name_H-M "P -1"
_symmetry_group_IT_number 2
_symmetry_cell_setting 'triclinic'
loop_
_space_group_symop_operation_xyz
x,y,z
-x,-y,-z
loop_
_atom_site_type_symbol
_atom_site_label
_atom_site_fract_x
_atom_site_fract_y
_atom_site_fract_z
Si Si1 0.862786 0.701038 0.758216
Si Si2 0.835908 0.287986 0.279757
Si Si3 0.021553 0.854084 0.122575
Si Si4 0.087779 0.888444 0.405775
Si Si5 0.234359 0.656436 0.420106
Si Si6 0.466738 0.320027 0.602841
Si Si7 0.709962 0.098288 0.090786
Si Si8 0.333556 0.430278 0.847278
O O1 0.783859 0.436266 0.695318
O O2 0.037192 0.761736 0.721672
O O3 0.849587 0.799662 0.876989
O O4 0.847031 0.921951 0.708036
O O5 0.921101 0.633127 0.244534
O O6 0.787868 0.184930 0.177203
O O7 0.664079 0.036042 0.383251
O O8 0.869281 0.769452 0.102203
O O9 0.139033 0.776748 0.034317
O O10 0.926110 0.543806 0.456600
O O11 0.238946 0.940142 0.415201
O O12 0.000000 0.000000 0.500000
O O13 0.374236 0.642653 0.410529
O O14 0.500000 0.500000 0.500000
O O15 0.399393 0.429082 0.714683
O O16 0.619599 0.254030 0.121164
O O17 0.613937 0.742320 0.112910
#
# Coordination Sequence:
#
# PCOD9005612 Si02
#       8
#     2   2   2   2   2   2   2   2
#     4  11  20  37  63  93 131 164 224 281 334 401
#     4  10  21  38  62  97 134 169 224 284 330 410
#     4  11  21  36  66 100 134 171 226 287 348 394
#     4   9  20  41  59  89 119 175 227 278 318 399
#     4  10  22  40  66  89 130 177 222 276 346 403
#     4  11  23  44  67 100 136 183 220 276 353 414
#     4  10  21  38  66 103 137 175 227 295 354 394
#     4  10  21  40  61  99 140 175 224 289 336 420
#
# _framework density 26.064730999999998
#
# number of rings (size 3 to 8) (size 9 to 14) (size 15 to 20)
#    0.000    1.750    2.500    3.375    1.750    0.000 
#   18.000    5.625    0.000    3.750    0.000    0.875 
#    0.000    0.000    0.000    0.000    0.000    0.000 
#
# Total GULP energy -89084.138912 kJ/mol
# GULP energy per Si atom -5567.758682 kJ/mol
# Density = 2.600541 g / cm^3
# Si number density = 26.064731 Si / 1000 Ang^3
#
#
#
# Elastic Constant Matrix: (Units=GPa)
#
#
# Indices 1 2 3 4 5 6 
#
# 1 127.5059 19.8326 12.4992 -4.1621 -2.0931 -34.4534
# 2 19.8326 93.3141 23.5012 7.4503 -6.7663 -35.8676
# 3 12.4992 23.5012 84.9952 2.2378 -15.1460 -6.0198
# 4 -4.1621 7.4503 2.2378 47.9959 -13.1313 0.2562
# 5 -2.0931 -6.7663 -15.1460 -13.1313 30.3991 6.2283
# 6 -34.4534 -35.8676 -6.0198 0.2562 6.2283 41.6831
#
#
#
# Elastic Compliance Matrix: (Units=1/GPa)
#
#
# Indices 1 2 3 4 5 6 
#
# 1 0.010493 0.002090 -0.001693 0.000130 -0.001748 0.010488
# 2 0.002090 0.018011 -0.004533 -0.003324 -0.003034 0.017045
# 3 -0.001693 -0.004533 0.014288 0.002043 0.007779 -0.004412
# 4 0.000130 -0.003324 0.002043 0.024510 0.011769 -0.004367
# 5 -0.001748 -0.003034 0.007779 0.011769 0.042992 -0.009429
# 6 0.010488 0.017045 -0.004412 -0.004367 -0.009429 0.048125
#
#
# Mechanical properties :
#
#
# Convention : Reuss Voigt Hill
#
# Bulk Modulus (GPa) = 28.96916 46.38681 37.67798
# Shear Modulus (GPa) = 28.05868 40.68108 34.36988
#
# Velocity S-wave (km/s) = 3.28457 3.95495 3.63524
# Velocity P-wave (km/s) = 5.05202 6.22020 5.66630
#
# Compressibility (1/GPa) = 0.03451947
#
# Stress axis : x y z
#
# Youngs Moduli (GPa) = 95.30108 55.52135 69.98938
#
# Poissons Ratio (x) = -0.11606 0.11851
# Poissons Ratio (y) = -0.19921 0.31729
# Poissons Ratio (z) = 0.16137 0.25170
#
# Static dielectric constant tensor:
#      x y z
#    x 2.001180 -0.152290 0.155400 
#    y -0.152290 2.363160 0.065900 
#    z 0.155400 0.065900 2.030010 
# 
# From -- ./inp_files/510967.got.cif
#   From: 2010.05.17/outbox.cif.g08.bks.cpg/sg2_256_cif.got.tgz:510967.got - 2010.06.03 11:33:40.
