data_PCOD9005156
_publ_section_title
;
Structure prediction by ZEFSAII (Michael W. Deem and Ramdas Pophale) SiO2 
 PCOD9005156
Probable space group: P -1
;
_chemical_formula_sum "Si O2"
_cell_formula_units_Z 16
_cell_length_a 13.098561
_cell_length_b 8.534688
_cell_length_c 22.591093
_cell_angle_alpha 138.129359
_cell_angle_beta 153.003227
_cell_angle_gamma 48.696025
_cell_volume 765.135599
_symmetry_space_group_name_H-M "P -1"
_symmetry_group_IT_number 2
_symmetry_cell_setting 'triclinic'
loop_
_space_group_symop_operation_xyz
x,y,z
-x,-y,-z
loop_
_atom_site_type_symbol
_atom_site_label
_atom_site_fract_x
_atom_site_fract_y
_atom_site_fract_z
Si Si1 0.851866 0.264691 0.852215
Si Si2 0.423466 0.246889 0.553841
Si Si3 0.097442 0.515680 0.857705
Si Si4 0.952632 0.303024 0.372013
Si Si5 0.748336 0.077246 0.874765
Si Si6 0.402114 0.064608 0.902794
Si Si7 0.882316 0.210547 0.173388
Si Si8 0.420989 0.430234 0.373409
O O1 0.629839 0.338861 0.724552
O O2 0.768955 0.178999 0.848841
O O3 0.974689 0.033057 0.823003
O O4 0.000000 0.500000 0.000000
O O5 0.199594 0.197376 0.461000
O O6 0.414484 0.428574 0.546057
O O7 0.500000 0.000000 0.500000
O O8 0.226040 0.274866 0.866299
O O9 0.051992 0.608742 0.793800
O O10 0.845165 0.500833 0.751284
O O11 0.271460 0.705422 0.030104
O O12 0.000000 0.500000 0.500000
O O13 0.888894 0.327318 0.275372
O O14 0.748957 0.157060 0.254286
O O15 0.588008 0.848470 0.724871
O O16 0.000000 0.000000 0.000000
O O17 0.627941 0.129826 0.003720
O O18 0.500000 0.000000 0.000000
O O19 0.500000 0.500000 0.500000
#
# Coordination Sequence:
#
# PCOD9005156 Si02
#       8
#     2   2   2   2   2   2   2   2
#     4  12  24  37  69 107 135 171 229 284 340 400
#     4  12  24  41  68  99 140 180 226 281 346 400
#     4  11  22  43  68  98 137 171 227 279 345 410
#     4  11  26  46  65  97 138 183 231 278 337 411
#     4  10  21  38  60  98 135 167 214 278 337 404
#     4  10  25  43  68  93 131 183 226 277 333 401
#     4  11  23  45  68  97 138 176 228 280 344 402
#     4  11  22  39  65 101 141 174 216 287 344 405
#
# _framework density 20.911325000000001
#
# number of rings (size 3 to 8) (size 9 to 14) (size 15 to 20)
#    0.000    1.000    3.750    4.125    7.000    1.000 
#    0.000    0.625    0.000    0.000    0.000    0.000 
#    0.000    0.000    0.000    0.000    0.000    0.000 
#
# Total GULP energy -89164.764485 kJ/mol
# GULP energy per Si atom -5572.797780 kJ/mol
# Density = 2.086373 g / cm^3
# Si number density = 20.911325 Si / 1000 Ang^3
#
#
#
# Elastic Constant Matrix: (Units=GPa)
#
#
# Indices 1 2 3 4 5 6 
#
# 1 60.5027 4.0017 7.4561 0.2795 -6.2233 4.6881
# 2 4.0017 60.2036 18.1360 3.1503 -9.0773 6.4993
# 3 7.4561 18.1360 133.5362 12.2517 -6.5721 -2.2727
# 4 0.2795 3.1503 12.2517 39.3969 -8.7243 8.6387
# 5 -6.2233 -9.0773 -6.5721 -8.7243 43.6572 -1.2053
# 6 4.6881 6.4993 -2.2727 8.6387 -1.2053 28.8703
#
#
#
# Elastic Compliance Matrix: (Units=1/GPa)
#
#
# Indices 1 2 3 4 5 6 
#
# 1 0.017154 -0.000206 -0.000994 0.001437 0.002453 -0.003145
# 2 -0.000206 0.018323 -0.002478 0.001058 0.003496 -0.004457
# 3 -0.000994 -0.002478 0.008179 -0.002806 0.000075 0.002206
# 4 0.001437 0.001058 -0.002806 0.029439 0.005630 -0.009266
# 5 0.002453 0.003496 0.000075 0.005630 0.025068 -0.001817
# 6 -0.003145 -0.004457 0.002206 -0.009266 -0.001817 0.039022
#
#
# Mechanical properties :
#
#
# Convention : Reuss Voigt Hill
#
# Bulk Modulus (GPa) = 27.54910 34.82555 31.18732
# Shear Modulus (GPa) = 31.91969 37.36145 34.64057
#
# Velocity S-wave (km/s) = 3.91120 4.23148 4.07448
# Velocity P-wave (km/s) = 5.79650 6.36898 6.08947
#
# Compressibility (1/GPa) = 0.03629883
#
# Stress axis : x y z
#
# Youngs Moduli (GPa) = 58.29628 54.57501 122.26005
#
# Poissons Ratio (x) = 0.01127 0.12157
# Poissons Ratio (y) = 0.01204 0.30295
# Poissons Ratio (z) = 0.05797 0.13523
#
# Static dielectric constant tensor:
#      x y z
#    x 1.894920 0.164290 -0.040590 
#    y 0.164290 1.964940 -0.038770 
#    z -0.040590 -0.038770 1.801810 
# 
# From -- ./inp_files/590531.got.cif
#   From: 2010.05.17/outbox.cif.g08.bks.cpg/sg2_296_cif.got.tgz:590531.got - 2010.06.03 11:33:40.
