data_PCOD9005983
_publ_section_title
;
Structure prediction by ZEFSAII (Michael W. Deem and Ramdas Pophale) SiO2 
 PCOD9005983
Probable space group: P -1
;
_chemical_formula_sum "Si O2"
_cell_formula_units_Z 16
_cell_length_a 15.472016
_cell_length_b 9.087543
_cell_length_c 11.361721
_cell_angle_alpha 79.491360
_cell_angle_beta 153.663372
_cell_angle_gamma 92.532406
_cell_volume 670.275460
_symmetry_space_group_name_H-M "P -1"
_symmetry_group_IT_number 2
_symmetry_cell_setting 'triclinic'
loop_
_space_group_symop_operation_xyz
x,y,z
-x,-y,-z
loop_
_atom_site_type_symbol
_atom_site_label
_atom_site_fract_x
_atom_site_fract_y
_atom_site_fract_z
Si Si1 0.811171 0.127775 0.098856
Si Si2 0.186879 0.250333 0.229937
Si Si3 0.309556 0.125096 0.140652
Si Si4 0.240708 0.900340 0.710372
Si Si5 0.488974 0.571694 0.347381
Si Si6 0.051639 0.623439 0.457812
Si Si7 0.795996 0.370052 0.599387
Si Si8 0.297089 0.937655 0.523902
O O1 0.691572 0.093113 0.074388
O O2 0.731650 0.311026 0.956128
O O3 0.043180 0.046347 0.425536
O O4 0.753320 0.034006 0.933743
O O5 0.289270 0.178500 0.242036
O O6 0.344770 0.330750 0.468386
O O7 0.166895 0.111872 0.310741
O O8 0.970779 0.361689 0.910061
O O9 0.525221 0.099033 0.348252
O O10 0.154812 0.259219 0.858256
O O11 0.173335 0.738997 0.644985
O O12 0.371973 0.907956 0.754588
O O13 0.500000 0.500000 0.500000
O O14 0.574376 0.442357 0.372055
O O15 0.168224 0.550581 0.490760
O O16 0.000000 0.500000 0.500000
O O17 0.825228 0.189504 0.627967
#
# Coordination Sequence:
#
# PCOD9005983 Si02
#       8
#     2   2   2   2   2   2   2   2
#     4  10  22  43  58  90 126 162 210 253 310 367
#     4  11  23  42  63  89 129 164 208 254 312 373
#     4  10  21  38  64  91 118 164 213 249 306 373
#     4   9  22  41  64  91 120 164 213 255 306 371
#     4  12  26  40  62  95 132 165 203 263 314 368
#     4   9  20  41  64  87 123 166 203 258 314 369
#     4  10  24  40  60  96 126 161 211 250 320 373
#     4  11  21  39  68  90 118 165 211 258 304 370
#
# _framework density 23.870782999999999
#
# number of rings (size 3 to 8) (size 9 to 14) (size 15 to 20)
#    0.000    1.750    1.250    2.625    3.500    4.500 
#    6.750    2.500    0.000    0.000    0.000    0.000 
#    0.000    0.000    0.000    0.000    0.000    0.000 
#
# Total GULP energy -89470.259319 kJ/mol
# GULP energy per Si atom -5591.891207 kJ/mol
# Density = 2.381645 g / cm^3
# Si number density = 23.870783 Si / 1000 Ang^3
#
#
#
# Elastic Constant Matrix: (Units=GPa)
#
#
# Indices 1 2 3 4 5 6 
#
# 1 89.2038 27.8629 1.9333 -28.6280 1.8289 16.5060
# 2 27.8629 79.7359 7.9374 -16.9039 -4.9482 11.9158
# 3 1.9333 7.9374 32.5293 -18.9944 3.9854 2.8422
# 4 -28.6280 -16.9039 -18.9944 34.8363 -0.1345 -3.0536
# 5 1.8289 -4.9482 3.9854 -0.1345 30.0853 -4.0158
# 6 16.5060 11.9158 2.8422 -3.0536 -4.0158 41.1217
#
#
#
# Elastic Compliance Matrix: (Units=1/GPa)
#
#
# Indices 1 2 3 4 5 6 
#
# 1 0.020274 -0.003003 0.013470 0.021918 -0.004347 -0.006996
# 2 -0.003003 0.015090 -0.001290 0.003938 0.002514 -0.002540
# 3 0.013470 -0.001290 0.055296 0.039965 -0.009082 -0.006774
# 4 0.021918 0.003938 0.039965 0.069675 -0.006760 -0.008188
# 5 -0.004347 0.002514 -0.009082 -0.006760 0.035707 0.004629
# 6 -0.006996 -0.002540 -0.006774 -0.008188 0.004629 0.028174
#
#
# Mechanical properties :
#
#
# Convention : Reuss Voigt Hill
#
# Bulk Modulus (GPa) = 9.17318 30.77069 19.97193
# Shear Modulus (GPa) = 20.64393 32.12435 26.38414
#
# Velocity S-wave (km/s) = 2.94397 3.67244 3.32820
# Velocity P-wave (km/s) = 3.92519 5.55886 4.81186
#
# Compressibility (1/GPa) = 0.10901350
#
# Stress axis : x y z
#
# Youngs Moduli (GPa) = 49.32380 66.27075 18.08434
#
# Poissons Ratio (x) = 0.19902 -0.24360
# Poissons Ratio (y) = 0.14813 0.02333
# Poissons Ratio (z) = -0.66440 0.08551
#
# Static dielectric constant tensor:
#      x y z
#    x 1.911200 -0.034890 0.014280 
#    y -0.034890 1.939980 0.001760 
#    z 0.014280 0.001760 1.922590 
# 
# From -- ./inp_files/188431.got.cif
#   From: 2010.05.17/outbox.cif.g08.bks.cpg/sg2_95_cif.got.tgz:188431.got - 2010.06.03 11:33:40.
