data_PCOD9005610
_publ_section_title
;
Structure prediction by ZEFSAII (Michael W. Deem and Ramdas Pophale) SiO2 
 PCOD9005610
Probable space group: P -1
;
_chemical_formula_sum "Si O2"
_cell_formula_units_Z 16
_cell_length_a 10.107593
_cell_length_b 13.639759
_cell_length_c 9.489782
_cell_angle_alpha 75.457706
_cell_angle_beta 87.701094
_cell_angle_gamma 142.323730
_cell_volume 708.137128
_symmetry_space_group_name_H-M "P -1"
_symmetry_group_IT_number 2
_symmetry_cell_setting 'triclinic'
loop_
_space_group_symop_operation_xyz
x,y,z
-x,-y,-z
loop_
_atom_site_type_symbol
_atom_site_label
_atom_site_fract_x
_atom_site_fract_y
_atom_site_fract_z
Si Si1 0.513522 0.248531 0.000864
Si Si2 0.689156 0.673542 0.024871
Si Si3 0.334678 0.986005 0.569236
Si Si4 0.225954 0.996886 0.861907
Si Si5 0.704862 0.725282 0.317813
Si Si6 0.679705 0.334886 0.273856
Si Si7 0.054658 0.406626 0.335127
Si Si8 0.777782 0.561782 0.396656
O O1 0.326036 0.217904 0.055996
O O2 0.710766 0.420588 0.825631
O O3 0.369321 0.078192 0.972205
O O4 0.640749 0.299802 0.121505
O O5 0.613701 0.624316 0.208494
O O6 0.500000 0.500000 0.000000
O O7 0.951315 0.795492 0.958000
O O8 0.353976 0.019256 0.722442
O O9 0.068791 0.778707 0.629915
O O10 0.500000 0.000000 0.500000
O O11 0.431636 0.145557 0.426174
O O12 0.217158 0.111283 0.779164
O O13 0.875945 0.739229 0.342232
O O14 0.494295 0.601530 0.481887
O O15 0.769437 0.499335 0.270505
O O16 0.872204 0.377351 0.306647
O O17 0.103521 0.432889 0.490365
#
# Coordination Sequence:
#
# PCOD9005610 Si02
#       8
#     2   2   2   2   2   2   2   2
#     4  11  22  41  64  96 131 171 224 271 324 392
#     4  11  22  39  66  97 134 173 214 267 330 399
#     4  10  23  42  62  92 131 171 224 271 322 393
#     4  11  22  42  68  93 134 179 211 268 338 389
#     4  10  21  38  62  97 131 167 215 262 329 392
#     4  11  23  42  65  96 130 178 224 271 326 389
#     4  11  22  41  66  93 130 177 223 272 325 389
#     4  11  21  39  65  92 132 169 216 272 323 388
#
# _framework density 22.594494999999998
#
# number of rings (size 3 to 8) (size 9 to 14) (size 15 to 20)
#    0.000    1.250    3.750    3.750    0.000    3.000 
#    0.000    3.750    0.000    0.000    0.000    0.000 
#    0.000    0.000    0.000    0.000    0.000    0.000 
#
# Total GULP energy -89274.870231 kJ/mol
# GULP energy per Si atom -5579.679389 kJ/mol
# Density = 2.254307 g / cm^3
# Si number density = 22.594495 Si / 1000 Ang^3
#
#
#
# Elastic Constant Matrix: (Units=GPa)
#
#
# Indices 1 2 3 4 5 6 
#
# 1 82.0921 31.4853 27.3722 15.4286 5.5436 -0.5765
# 2 31.4853 102.6345 58.0485 30.6774 -11.1863 5.6181
# 3 27.3722 58.0485 92.3598 28.0366 -4.4705 2.6175
# 4 15.4286 30.6774 28.0366 43.2340 0.1249 -5.9514
# 5 5.5436 -11.1863 -4.4705 0.1249 32.2090 3.9955
# 6 -0.5765 5.6181 2.6175 -5.9514 3.9955 31.8343
#
#
#
# Elastic Compliance Matrix: (Units=1/GPa)
#
#
# Indices 1 2 3 4 5 6 
#
# 1 0.014738 -0.003551 -0.002001 -0.001244 -0.004211 0.001354
# 2 -0.003551 0.018482 -0.007844 -0.007454 0.006578 -0.004900
# 3 -0.002001 -0.007844 0.018111 -0.005636 0.000309 -0.001233
# 4 -0.001244 -0.007454 -0.005636 0.033715 -0.004355 0.008606
# 5 -0.004211 0.006578 0.000309 -0.004355 0.034918 -0.006459
# 6 0.001354 -0.004900 -0.001233 0.008606 -0.006459 0.034823
#
#
# Mechanical properties :
#
#
# Convention : Reuss Voigt Hill
#
# Bulk Modulus (GPa) = 40.74940 56.76651 48.75795
# Shear Modulus (GPa) = 26.34952 32.13415 29.24183
#
# Velocity S-wave (km/s) = 3.41866 3.77531 3.60140
# Velocity P-wave (km/s) = 5.80149 6.64700 6.23858
#
# Compressibility (1/GPa) = 0.02454024
#
# Stress axis : x y z
#
# Youngs Moduli (GPa) = 67.85153 54.10625 55.21647
#
# Poissons Ratio (x) = 0.19213 0.11047
# Poissons Ratio (y) = 0.24093 0.43310
# Poissons Ratio (z) = 0.13575 0.42439
#
# Static dielectric constant tensor:
#      x y z
#    x 1.920120 -0.023000 0.054440 
#    y -0.023000 1.906150 -0.033150 
#    z 0.054440 -0.033150 1.855550 
# 
# From -- ./inp_files/272926.got.cif
#   From: 2010.05.17/outbox.cif.g08.bks.cpg/sg2_137_cif.got.tgz:272926.got - 2010.06.03 11:33:40.
