data_PCOD9005304
_publ_section_title
;
Structure prediction by ZEFSAII (Michael W. Deem and Ramdas Pophale) SiO2 
 PCOD9005304
Probable space group: P -1
;
_chemical_formula_sum "Si O2"
_cell_formula_units_Z 12
_cell_length_a 8.097041
_cell_length_b 10.245618
_cell_length_c 7.730175
_cell_angle_alpha 112.124623
_cell_angle_beta 61.114297
_cell_angle_gamma 125.606558
_cell_volume 452.405481
_symmetry_space_group_name_H-M "P -1"
_symmetry_group_IT_number 2
_symmetry_cell_setting 'triclinic'
loop_
_space_group_symop_operation_xyz
x,y,z
-x,-y,-z
loop_
_atom_site_type_symbol
_atom_site_label
_atom_site_fract_x
_atom_site_fract_y
_atom_site_fract_z
Si Si1 0.766494 0.324766 0.303240
Si Si2 0.755212 0.881445 0.004949
Si Si3 0.154296 0.844037 0.134738
Si Si4 0.635204 0.544170 0.781797
Si Si5 0.122691 0.658857 0.376391
Si Si6 0.335209 0.241722 0.629337
O O1 0.839335 0.268173 0.413695
O O2 0.503773 0.230529 0.406115
O O3 0.882211 0.522786 0.363017
O O4 0.861453 0.284992 0.066585
O O5 0.741879 0.735606 0.822065
O O6 0.702906 0.988697 0.954889
O O7 0.641881 0.820787 0.220386
O O8 0.000000 0.000000 0.000000
O O9 0.226705 0.795497 0.248988
O O10 0.921252 0.829777 0.297413
O O11 0.779292 0.460641 0.708456
O O12 0.452688 0.436924 0.683216
O O13 0.500000 0.500000 0.000000
#
# Coordination Sequence:
#
# PCOD9005304 Si02
#       6
#     2   2   2   2   2   2
#     4  10  21  38  61  91 128 165 206 257 314 374
#     4   9  18  34  61  90 124 167 201 252 326 371
#     4  11  22  40  66  95 126 161 208 267 315 364
#     4   9  17  36  61  85 122 168 203 246 311 372
#     4  10  21  38  64  94 123 164 216 259 305 374
#     4   9  20  38  63  90 125 169 209 253 315 378
#
# _framework density 26.524878000000001
#
# number of rings (size 3 to 8) (size 9 to 14) (size 15 to 20)
#    0.000    2.333    0.000    3.500    0.000    2.667 
#    0.000   14.167    0.000   46.000    0.000    0.000 
#    0.000    0.000    0.000    0.000    0.000    0.000 
#
# Total GULP energy -66894.904419 kJ/mol
# GULP energy per Si atom -5574.575368 kJ/mol
# Density = 2.646451 g / cm^3
# Si number density = 26.524878 Si / 1000 Ang^3
#
#
#
# Elastic Constant Matrix: (Units=GPa)
#
#
# Indices 1 2 3 4 5 6 
#
# 1 102.9245 25.3997 36.7425 -13.9990 12.0971 -15.7588
# 2 25.3997 100.1560 -2.9569 -19.5803 10.0887 -9.1263
# 3 36.7425 -2.9569 82.5194 -28.4256 2.3936 4.1259
# 4 -13.9990 -19.5803 -28.4256 34.9134 2.5878 0.4474
# 5 12.0971 10.0887 2.3936 2.5878 55.0106 -20.0122
# 6 -15.7588 -9.1263 4.1259 0.4474 -20.0122 35.1107
#
#
#
# Elastic Compliance Matrix: (Units=1/GPa)
#
#
# Indices 1 2 3 4 5 6 
#
# 1 0.013931 -0.003783 -0.007674 -0.002900 0.000453 0.006466
# 2 -0.003783 0.013555 0.006173 0.011315 -0.002658 -0.000559
# 3 -0.007674 0.006173 0.022908 0.019415 -0.003902 -0.007003
# 4 -0.002900 0.011315 0.019415 0.050173 -0.006445 -0.004955
# 5 0.000453 -0.002658 -0.003902 -0.006445 0.024044 0.013758
# 6 0.006466 -0.000559 -0.007003 -0.004955 0.013758 0.039966
#
#
# Mechanical properties :
#
#
# Convention : Reuss Voigt Hill
#
# Bulk Modulus (GPa) = 25.10933 44.88561 34.99747
# Shear Modulus (GPa) = 26.53639 40.10125 33.31882
#
# Velocity S-wave (km/s) = 3.16639 3.89245 3.54804
# Velocity P-wave (km/s) = 4.78069 6.09593 5.47793
#
# Compressibility (1/GPa) = 0.03982583
#
# Stress axis : x y z
#
# Youngs Moduli (GPa) = 71.78067 73.77401 43.65348
#
# Poissons Ratio (x) = 0.27908 0.33500
# Poissons Ratio (y) = 0.27154 -0.26947
# Poissons Ratio (z) = 0.55085 -0.45540
#
# Static dielectric constant tensor:
#      x y z
#    x 2.193140 0.045950 -0.079360 
#    y 0.045950 2.188070 0.052660 
#    z -0.079360 0.052660 2.184050 
# 
# From -- ./inp_files/172059.got.cif
#   From: 2010.05.17/outbox.cif.g08.bks.cpg/sg2_87_cif.got.tgz:172059.got - 2010.06.03 11:33:40.
