data_PCOD9005018
_publ_section_title
;
Structure prediction by ZEFSAII (Michael W. Deem and Ramdas Pophale) SiO2 
 PCOD9005018
Probable space group: P -1
;
_chemical_formula_sum "Si O2"
_cell_formula_units_Z 16
_cell_length_a 5.455352
_cell_length_b 15.326520
_cell_length_c 9.546136
_cell_angle_alpha 60.890716
_cell_angle_beta 70.776827
_cell_angle_gamma 65.220279
_cell_volume 625.190188
_symmetry_space_group_name_H-M "P -1"
_symmetry_group_IT_number 2
_symmetry_cell_setting 'triclinic'
loop_
_space_group_symop_operation_xyz
x,y,z
-x,-y,-z
loop_
_atom_site_type_symbol
_atom_site_label
_atom_site_fract_x
_atom_site_fract_y
_atom_site_fract_z
Si Si1 0.476039 0.296178 0.541615
Si Si2 0.173482 0.486409 0.665533
Si Si3 0.186354 0.736925 0.993113
Si Si4 0.259397 0.250360 0.123493
Si Si5 0.251674 0.043748 0.410550
Si Si6 0.687441 0.925594 0.916113
Si Si7 0.076539 0.712083 0.357514
Si Si8 0.532422 0.534011 0.806848
O O1 0.319746 0.388986 0.612010
O O2 0.750276 0.234475 0.619694
O O3 0.536286 0.349956 0.345629
O O4 0.248697 0.240212 0.603167
O O5 0.151004 0.594045 0.501414
O O6 0.349442 0.485449 0.774304
O O7 0.861368 0.494732 0.749552
O O8 0.153521 0.710219 0.181413
O O9 0.498986 0.708494 0.907133
O O10 0.019180 0.688415 0.949906
O O11 0.011120 0.862557 0.920414
O O12 0.188672 0.170797 0.307971
O O13 0.409697 0.174909 0.023876
O O14 0.361056 0.007071 0.265479
O O15 0.500000 0.000000 0.500000
O O16 0.000000 0.000000 0.500000
O O17 0.500000 0.000000 0.000000
O O18 0.500000 0.500000 0.000000
#
# Coordination Sequence:
#
# PCOD9005018 Si02
#       8
#     2   2   2   2   2   2   2   2
#     4  10  19  31  49  73  97 118 161 205 236 273
#     4  10  19  32  47  74  99 118 162 204 236 273
#     4   9  17  30  43  73  96 124 151 196 239 278
#     4   8  18  28  46  66 103 111 158 188 235 267
#     4   9  16  29  46  70  96 122 149 187 237 274
#     4   8  19  31  49  73  98 116 157 200 233 269
#     4  10  17  28  49  68  98 123 157 193 243 279
#     4  10  18  29  46  70 100 125 152 195 243 284
#
# _framework density 25.592210999999999
#
# number of rings (size 3 to 8) (size 9 to 14) (size 15 to 20)
#    1.500    1.000    0.000    6.375    0.000    0.500 
#    0.000    0.000    0.000    0.000    0.000   73.500 
#    0.000    0.000    0.000    0.000    0.000    0.000 
#
# Total GULP energy -89183.784826 kJ/mol
# GULP energy per Si atom -5573.986552 kJ/mol
# Density = 2.553396 g / cm^3
# Si number density = 25.592211 Si / 1000 Ang^3
#
#
#
# Elastic Constant Matrix: (Units=GPa)
#
#
# Indices 1 2 3 4 5 6 
#
# 1 266.5131 23.2035 98.8271 -9.7883 18.6885 -23.0455
# 2 23.2035 38.0732 16.1627 -11.7622 3.4328 -7.2117
# 3 98.8271 16.1627 210.1739 -1.2863 25.9692 -11.9239
# 4 -9.7883 -11.7622 -1.2863 38.4173 -6.7936 6.7040
# 5 18.6885 3.4328 25.9692 -6.7936 43.9176 -5.1509
# 6 -23.0455 -7.2117 -11.9239 6.7040 -5.1509 17.7815
#
#
#
# Elastic Compliance Matrix: (Units=1/GPa)
#
#
# Indices 1 2 3 4 5 6 
#
# 1 0.005009 -0.001348 -0.001951 -0.000059 -0.000347 0.004559
# 2 -0.001348 0.031516 -0.001461 0.008178 0.001094 0.007288
# 3 -0.001951 -0.001461 0.006169 -0.001362 -0.002831 0.000710
# 4 -0.000059 0.008178 -0.001362 0.030582 0.003978 -0.008050
# 5 -0.000347 0.001094 -0.002831 0.003978 0.025592 0.004009
# 6 0.004559 0.007288 0.000710 -0.008050 0.004009 0.069775
#
#
# Mechanical properties :
#
#
# Convention : Reuss Voigt Hill
#
# Bulk Modulus (GPa) = 30.14401 87.90517 59.02459
# Shear Modulus (GPa) = 26.42412 45.12773 35.77592
#
# Velocity S-wave (km/s) = 3.21675 4.20377 3.74294
# Velocity P-wave (km/s) = 5.05972 7.61480 6.46475
#
# Compressibility (1/GPa) = 0.03317409
#
# Stress axis : x y z
#
# Youngs Moduli (GPa) = 199.63126 31.73029 162.09310
#
# Poissons Ratio (x) = 0.04278 0.31617
# Poissons Ratio (y) = 0.26912 0.23688
# Poissons Ratio (z) = 0.38939 0.04637
#
# Static dielectric constant tensor:
#      x y z
#    x 2.003120 0.092280 -0.101170 
#    y 0.092280 2.053720 0.038970 
#    z -0.101170 0.038970 1.940900 
# 
# From -- ./inp_files/140539.got.cif
#   From: 2010.05.17/outbox.cif.g08.bks.cpg/sg2_71_cif.got.tgz:140539.got - 2010.06.03 11:33:40.
