data_PCOD9005271
_publ_section_title
;
Structure prediction by ZEFSAII (Michael W. Deem and Ramdas Pophale) SiO2 
 PCOD9005271
Probable space group: P -1
;
_chemical_formula_sum "Si O2"
_cell_formula_units_Z 16
_cell_length_a 13.817842
_cell_length_b 12.735690
_cell_length_c 11.362467
_cell_angle_alpha 79.016007
_cell_angle_beta 74.646927
_cell_angle_gamma 146.165408
_cell_volume 692.122555
_symmetry_space_group_name_H-M "P -1"
_symmetry_group_IT_number 2
_symmetry_cell_setting 'triclinic'
loop_
_space_group_symop_operation_xyz
x,y,z
-x,-y,-z
loop_
_atom_site_type_symbol
_atom_site_label
_atom_site_fract_x
_atom_site_fract_y
_atom_site_fract_z
Si Si1 0.247954 0.535391 0.745881
Si Si2 0.874521 0.279145 0.757183
Si Si3 0.838896 0.622169 0.810916
Si Si4 0.168110 0.141849 0.299031
Si Si5 0.339097 0.447863 0.540667
Si Si6 0.619927 0.876581 0.753016
Si Si7 0.743369 0.000452 0.202853
Si Si8 0.626441 0.251236 0.781906
O O1 0.313721 0.501371 0.647510
O O2 0.508566 0.818749 0.682547
O O3 0.140646 0.523318 0.699085
O O4 0.994283 0.251071 0.975587
O O5 0.816062 0.335748 0.708382
O O6 0.862243 0.177780 0.679284
O O7 0.624107 0.013572 0.987494
O O8 0.755328 0.664283 0.813979
O O9 0.802303 0.525217 0.719649
O O10 0.623867 0.355394 0.025023
O O11 0.121433 0.882517 0.736448
O O12 0.357633 0.229009 0.251801
O O13 0.000000 0.000000 0.500000
O O14 0.963934 0.886523 0.326087
O O15 0.500000 0.500000 0.500000
O O16 0.524080 0.687210 0.329616
O O17 0.540986 0.896892 0.253976
#
# Coordination Sequence:
#
# PCOD9005271 Si02
#       8
#     2   2   2   2   2   2   2   2
#     4  10  22  40  63  89 126 163 200 258 307 364
#     4   9  18  38  63  92 123 157 208 255 306 365
#     4  10  21  39  59  88 125 157 204 252 302 370
#     4  12  23  38  59  88 123 164 201 255 308 361
#     4  12  23  40  61  90 127 163 205 254 302 369
#     4  10  21  38  61  90 120 160 205 248 308 368
#     4  10  22  40  61  91 124 163 206 250 310 364
#     4   9  19  36  65  92 120 162 204 256 306 365
#
# _framework density 23.117294000000001
#
# number of rings (size 3 to 8) (size 9 to 14) (size 15 to 20)
#    0.000    1.750    2.500    1.875    0.000    1.500 
#    2.250    5.625    0.000    1.500    0.000    0.000 
#    0.000    0.000    0.000    0.000    0.000    0.000 
#
# Total GULP energy -89235.791794 kJ/mol
# GULP energy per Si atom -5577.236987 kJ/mol
# Density = 2.306468 g / cm^3
# Si number density = 23.117294 Si / 1000 Ang^3
#
#
#
# Elastic Constant Matrix: (Units=GPa)
#
#
# Indices 1 2 3 4 5 6 
#
# 1 157.1793 44.6889 -10.4777 6.6969 -3.7787 33.2607
# 2 44.6889 77.7939 -8.4278 5.1262 -10.0969 23.4893
# 3 -10.4777 -8.4278 50.1296 9.7910 -9.5485 2.1052
# 4 6.6969 5.1262 9.7910 25.1740 -7.7788 -0.7257
# 5 -3.7787 -10.0969 -9.5485 -7.7788 14.3923 -2.0543
# 6 33.2607 23.4893 2.1052 -0.7257 -2.0543 38.2558
#
#
#
# Elastic Compliance Matrix: (Units=1/GPa)
#
#
# Indices 1 2 3 4 5 6 
#
# 1 0.008688 -0.002883 0.001992 -0.002939 -0.000864 -0.005995
# 2 -0.002883 0.020152 0.006400 -0.001279 0.015594 -0.009406
# 3 0.001992 0.006400 0.026453 -0.006732 0.018029 -0.006277
# 4 -0.002939 -0.001279 -0.006732 0.050318 0.021895 0.005841
# 5 -0.000864 0.015594 0.018029 0.021895 0.103441 -0.003846
# 6 -0.005995 -0.009406 -0.006277 0.005841 -0.003846 0.037377
#
#
# Mechanical properties :
#
#
# Convention : Reuss Voigt Hill
#
# Bulk Modulus (GPa) = 15.08023 37.40773 26.24398
# Shear Modulus (GPa) = 19.41640 32.85239 26.13440
#
# Velocity S-wave (km/s) = 2.90126 3.77386 3.36596
# Velocity P-wave (km/s) = 4.21433 5.93348 5.14620
#
# Compressibility (1/GPa) = 0.06631197
#
# Stress axis : x y z
#
# Youngs Moduli (GPa) = 115.10497 49.62191 37.80252
#
# Poissons Ratio (x) = 0.14307 -0.07531
# Poissons Ratio (y) = 0.33188 -0.24195
# Poissons Ratio (z) = -0.22932 -0.31760
#
# Static dielectric constant tensor:
#      x y z
#    x 2.070980 0.167220 -0.050910 
#    y 0.167220 1.774340 0.029140 
#    z -0.050910 0.029140 1.888760 
# 
# From -- ./inp_files/221001.got.cif
#   From: 2010.05.17/outbox.cif.g08.bks.cpg/sg2_111_cif.got.tgz:221001.got - 2010.06.03 11:33:40.
