data_PCOD9005870
_publ_section_title
;
Structure prediction by ZEFSAII (Michael W. Deem and Ramdas Pophale) SiO2 
 PCOD9005870
Probable space group: P -1
;
_chemical_formula_sum "Si O2"
_cell_formula_units_Z 14
_cell_length_a 11.718563
_cell_length_b 15.311219
_cell_length_c 12.158564
_cell_angle_alpha 17.723747
_cell_angle_beta 117.867151
_cell_angle_gamma 119.308691
_cell_volume 579.109670
_symmetry_space_group_name_H-M "P -1"
_symmetry_group_IT_number 2
_symmetry_cell_setting 'triclinic'
loop_
_space_group_symop_operation_xyz
x,y,z
-x,-y,-z
loop_
_atom_site_type_symbol
_atom_site_label
_atom_site_fract_x
_atom_site_fract_y
_atom_site_fract_z
Si Si1 0.687385 0.306913 0.512806
Si Si2 0.152422 0.117885 0.174032
Si Si3 0.619167 0.191054 0.391931
Si Si4 0.865717 0.122996 0.309657
Si Si5 0.499381 0.656677 0.427579
Si Si6 0.063069 0.844077 0.117028
Si Si7 0.264826 0.383375 0.263524
O O1 0.582511 0.242499 0.441965
O O2 0.619880 0.438145 0.427955
O O3 0.780855 0.102151 0.858373
O O4 0.795876 0.544152 0.219719
O O5 0.256410 0.967196 0.335421
O O6 0.179122 0.026065 0.417425
O O7 0.003417 0.041980 0.158203
O O8 0.500000 0.000000 0.500000
O O9 0.678134 0.449729 0.023603
O O10 0.776307 0.957157 0.373444
O O11 0.849566 0.454003 0.931053
O O12 0.000000 0.000000 0.500000
O O13 0.500000 0.500000 0.500000
O O14 0.623755 0.587114 0.632042
O O15 0.500000 0.000000 0.000000
O O16 0.000000 0.500000 0.500000
O O17 0.000000 0.000000 0.000000
#
# Coordination Sequence:
#
# PCOD9005870 Si02
#       7
#     2   2   2   2   2   2   2
#     4  11  24  44  71 101 142 187 240 295 362 419
#     4  10  22  40  66 102 141 174 234 291 353 426
#     4  11  23  38  74 107 138 181 234 302 359 421
#     4  11  24  44  72 106 141 186 231 295 367 429
#     4  12  30  48  69  99 144 194 245 292 358 437
#     4  10  21  38  63  97 135 174 224 283 344 415
#     4  11  25  47  71 103 144 181 243 298 357 430
#
# _framework density 24.175041
#
# number of rings (size 3 to 8) (size 9 to 14) (size 15 to 20)
#    0.000    1.143    2.857    2.143    8.000    3.429 
#    0.000    1.429    0.000    0.000    0.000    0.000 
#    0.000    0.000    0.000    0.000    0.000    0.000 
#
# Total GULP energy -78060.057582 kJ/mol
# GULP energy per Si atom -5575.718399 kJ/mol
# Density = 2.412002 g / cm^3
# Si number density = 24.175041 Si / 1000 Ang^3
#
#
#
# Elastic Constant Matrix: (Units=GPa)
#
#
# Indices 1 2 3 4 5 6 
#
# 1 83.4523 39.0555 9.9298 -1.3716 27.8342 -15.5759
# 2 39.0555 190.7905 27.4528 10.2250 19.3204 -12.3725
# 3 9.9298 27.4528 71.7008 -5.6587 15.4827 -5.3770
# 4 -1.3716 10.2250 -5.6587 38.8095 3.6308 19.1945
# 5 27.8342 19.3204 15.4827 3.6308 36.9414 0.8187
# 6 -15.5759 -12.3725 -5.3770 19.1945 0.8187 36.3070
#
#
#
# Elastic Compliance Matrix: (Units=1/GPa)
#
#
# Indices 1 2 3 4 5 6 
#
# 1 0.019063 -0.002064 0.001722 -0.001621 -0.014044 0.008904
# 2 -0.002064 0.006390 -0.002079 -0.003376 -0.000645 0.002784
# 3 0.001722 -0.002079 0.016436 0.003248 -0.007438 0.000915
# 4 -0.001621 -0.003376 0.003248 0.037752 -0.001613 -0.021287
# 5 -0.014044 -0.000645 -0.007438 -0.001613 0.041430 -0.007428
# 6 0.008904 0.002784 0.000915 -0.021287 -0.007428 0.043868
#
#
# Mechanical properties :
#
#
# Convention : Reuss Voigt Hill
#
# Bulk Modulus (GPa) = 26.99206 55.42443 41.20824
# Shear Modulus (GPa) = 27.45330 40.37861 33.91595
#
# Velocity S-wave (km/s) = 3.37353 4.09132 3.74964
# Velocity P-wave (km/s) = 5.13457 6.73012 5.98575
#
# Compressibility (1/GPa) = 0.03704793
#
# Stress axis : x y z
#
# Youngs Moduli (GPa) = 52.45733 156.50109 60.84385
#
# Poissons Ratio (x) = 0.32297 -0.10480
# Poissons Ratio (y) = 0.10826 0.12649
# Poissons Ratio (z) = -0.09036 0.32537
#
# Static dielectric constant tensor:
#      x y z
#    x 1.481140 0.246730 -0.045870 
#    y 0.246730 1.874100 0.019740 
#    z -0.045870 0.019740 1.993480 
# 
# From -- ./inp_files/118156.got.cif
#   From: 2010.05.17/outbox.cif.g08.bks.cpg/sg2_60_cif.got.tgz:118156.got - 2010.06.03 11:33:40.
