data_PCOD9005256
_publ_section_title
;
Structure prediction by ZEFSAII (Michael W. Deem and Ramdas Pophale) SiO2 
 PCOD9005256
Probable space group: P -1
;
_chemical_formula_sum "Si O2"
_cell_formula_units_Z 14
_cell_length_a 18.601056
_cell_length_b 17.442584
_cell_length_c 11.208725
_cell_angle_alpha 29.951157
_cell_angle_beta 157.891595
_cell_angle_gamma 151.130152
_cell_volume 629.701089
_symmetry_space_group_name_H-M "P -1"
_symmetry_group_IT_number 2
_symmetry_cell_setting 'triclinic'
loop_
_space_group_symop_operation_xyz
x,y,z
-x,-y,-z
loop_
_atom_site_type_symbol
_atom_site_label
_atom_site_fract_x
_atom_site_fract_y
_atom_site_fract_z
Si Si1 0.633848 0.904279 0.557133
Si Si2 0.554527 0.786931 0.349056
Si Si3 0.237921 0.765561 0.537525
Si Si4 0.867723 0.508470 0.898665
Si Si5 0.579623 0.665815 0.316400
Si Si6 0.224585 0.356072 0.935470
Si Si7 0.744011 0.330597 0.561279
O O1 0.614247 0.929708 0.350145
O O2 0.409745 0.776162 0.429719
O O3 0.702108 0.063929 0.528309
O O4 0.785217 0.804538 0.938907
O O5 0.310412 0.675889 0.109877
O O6 0.647069 0.812461 0.323663
O O7 0.644431 0.665085 0.722681
O O8 0.257255 0.781937 0.402643
O O9 0.999574 0.660050 0.344870
O O10 0.395928 0.685068 0.934070
O O11 0.756000 0.640380 0.542806
O O12 0.000000 0.500000 0.000000
O O13 0.027106 0.573193 0.165119
O O14 0.500000 0.500000 0.500000
O O15 0.325209 0.525186 0.789556
#
# Coordination Sequence:
#
# PCOD9005256 Si02
#       7
#     2   2   2   2   2   2   2
#     4  10  24  40  64  94 136 162 206 263 321 372
#     4   9  20  39  62  90 129 157 214 254 311 361
#     4  12  24  41  64  97 130 167 208 261 325 370
#     4  11  20  38  62  91 119 161 214 262 301 367
#     4  10  21  38  61  89 123 162 209 261 300 370
#     4  10  21  40  67  95 119 169 218 254 305 375
#     4  12  22  39  67  93 125 168 213 262 313 375
#
# _framework density 22.232769999999999
#
# number of rings (size 3 to 8) (size 9 to 14) (size 15 to 20)
#    0.857    0.571    1.429    6.000    0.000    1.714 
#    0.000    0.714    0.000    0.000    0.000    0.000 
#    0.000    0.000    0.000    0.000    0.000    0.000 
#
# Total GULP energy -78124.478935 kJ/mol
# GULP energy per Si atom -5580.319924 kJ/mol
# Density = 2.218217 g / cm^3
# Si number density = 22.232770 Si / 1000 Ang^3
#
#
#
# Elastic Constant Matrix: (Units=GPa)
#
#
# Indices 1 2 3 4 5 6 
#
# 1 114.6899 28.7214 41.3180 2.7272 24.5470 -36.6283
# 2 28.7214 70.6069 21.4294 4.6444 1.5250 -30.2643
# 3 41.3180 21.4294 94.2715 17.5135 6.0722 -13.9201
# 4 2.7272 4.6444 17.5135 27.5596 -9.6175 0.5568
# 5 24.5470 1.5250 6.0722 -9.6175 36.0465 2.8521
# 6 -36.6283 -30.2643 -13.9201 0.5568 2.8521 43.5733
#
#
#
# Elastic Compliance Matrix: (Units=1/GPa)
#
#
# Indices 1 2 3 4 5 6 
#
# 1 0.018026 0.001247 -0.004097 -0.004634 -0.014116 0.015694
# 2 0.001247 0.021248 -0.002134 -0.003937 -0.003659 0.015415
# 3 -0.004097 -0.002134 0.014770 -0.009358 -0.002109 0.000050
# 4 -0.004634 -0.003937 -0.009358 0.050297 0.019230 -0.011521
# 5 -0.014116 -0.003659 -0.002109 0.019230 0.044439 -0.018236
# 6 0.015694 0.015415 0.000050 -0.011521 -0.018236 0.048206
#
#
# Mechanical properties :
#
#
# Convention : Reuss Voigt Hill
#
# Bulk Modulus (GPa) = 22.68668 51.38955 37.03811
# Shear Modulus (GPa) = 22.55853 33.97584 28.26719
#
# Velocity S-wave (km/s) = 3.18882 3.91345 3.56957
# Velocity P-wave (km/s) = 4.87692 6.60186 5.80383
#
# Compressibility (1/GPa) = 0.04407874
#
# Stress axis : x y z
#
# Youngs Moduli (GPa) = 55.47429 47.06222 67.70489
#
# Poissons Ratio (x) = -0.05870 0.27737
# Poissons Ratio (y) = -0.06919 0.14445
# Poissons Ratio (z) = 0.22726 0.10041
#
# Static dielectric constant tensor:
#      x y z
#    x 1.886040 -0.071550 0.025840 
#    y -0.071550 1.882510 -0.039200 
#    z 0.025840 -0.039200 1.832340 
# 
# From -- ./inp_files/472372.got.cif
#   From: 2010.05.17/outbox.cif.g08.bks.cpg/sg2_237_cif.got.tgz:472372.got - 2010.06.03 11:33:40.
