data_PCOD9005441
_publ_section_title
;
Structure prediction by ZEFSAII (Michael W. Deem and Ramdas Pophale) SiO2 
 PCOD9005441
Probable space group: P -1
;
_chemical_formula_sum "Si O2"
_cell_formula_units_Z 14
_cell_length_a 16.352444
_cell_length_b 8.344233
_cell_length_c 7.162575
_cell_angle_alpha 143.228952
_cell_angle_beta 111.557678
_cell_angle_gamma 67.295879
_cell_volume 536.697378
_symmetry_space_group_name_H-M "P -1"
_symmetry_group_IT_number 2
_symmetry_cell_setting 'triclinic'
loop_
_space_group_symop_operation_xyz
x,y,z
-x,-y,-z
loop_
_atom_site_type_symbol
_atom_site_label
_atom_site_fract_x
_atom_site_fract_y
_atom_site_fract_z
Si Si1 0.619513 0.185212 0.646724
Si Si2 0.810526 0.448571 0.583713
Si Si3 0.080863 0.848896 0.056137
Si Si4 0.248926 0.974508 0.094069
Si Si5 0.692608 0.678007 0.984651
Si Si6 0.015294 0.340078 0.670277
Si Si7 0.536646 0.747776 0.666112
O O1 0.653932 0.098144 0.799745
O O2 0.651418 0.465305 0.878945
O O3 0.514265 0.213144 0.537420
O O4 0.672453 0.956976 0.339581
O O5 0.790284 0.555508 0.878453
O O6 0.913062 0.337421 0.527213
O O7 0.785053 0.710527 0.674624
O O8 0.757418 0.204097 0.262531
O O9 0.177252 0.871863 0.076615
O O10 0.067460 0.034788 0.406926
O O11 0.063556 0.543740 0.778931
O O12 0.000000 0.000000 0.000000
O O13 0.640086 0.703304 0.763918
O O14 0.000000 0.500000 0.000000
O O15 0.500000 0.500000 0.500000
O O16 0.500000 0.000000 0.000000
#
# Coordination Sequence:
#
# PCOD9005441 Si02
#       7
#     2   2   2   2   2   2   2
#     4  10  21  38  62  89 112 153 200 233 276 351
#     4  12  24  41  56  88 122 151 187 243 299 333
#     4  12  23  44  62  82 115 161 192 229 295 347
#     4  12  25  39  61  85 121 154 193 235 288 351
#     4  10  21  38  63  86 118 152 191 241 287 332
#     4  12  26  41  62  87 115 149 199 246 283 340
#     4   8  16  34  58  85 113 147 190 234 280 335
#
# _framework density 26.085463000000001
#
# number of rings (size 3 to 8) (size 9 to 14) (size 15 to 20)
#    0.000    1.143    2.857    3.429    4.000    0.000 
#    0.000    1.429    0.000    0.000    0.000    0.000 
#    0.000    0.000    0.000    0.000    0.000    0.000 
#
# Total GULP energy -78380.928802 kJ/mol
# GULP energy per Si atom -5598.637772 kJ/mol
# Density = 2.602609 g / cm^3
# Si number density = 26.085463 Si / 1000 Ang^3
#
#
#
# Elastic Constant Matrix: (Units=GPa)
#
#
# Indices 1 2 3 4 5 6 
#
# 1 61.9040 -15.8658 4.6257 7.3671 3.2359 -3.8581
# 2 -15.8658 82.2007 12.4139 -6.0437 16.7643 -14.5239
# 3 4.6257 12.4139 122.5790 13.3466 -0.7121 -6.1823
# 4 7.3671 -6.0437 13.3466 44.7874 -2.3366 3.9649
# 5 3.2359 16.7643 -0.7121 -2.3366 37.3068 -1.3486
# 6 -3.8581 -14.5239 -6.1823 3.9649 -1.3486 32.2995
#
#
#
# Elastic Compliance Matrix: (Units=1/GPa)
#
#
# Indices 1 2 3 4 5 6 
#
# 1 0.018297 0.005016 -0.000698 -0.002723 -0.003863 0.004480
# 2 0.005016 0.016222 -0.001603 0.000818 -0.007445 0.007176
# 3 -0.000698 -0.001603 0.008715 -0.002765 0.000819 0.001238
# 4 -0.002723 0.000818 -0.002765 0.024073 0.001201 -0.003392
# 5 -0.003863 -0.007445 0.000819 0.001201 0.030485 -0.002527
# 6 0.004480 0.007176 0.001238 -0.003392 -0.002527 0.035270
#
#
# Mechanical properties :
#
#
# Convention : Reuss Voigt Hill
#
# Bulk Modulus (GPa) = 20.54879 29.89235 25.22057
# Shear Modulus (GPa) = 34.75792 40.57939 37.66866
#
# Velocity S-wave (km/s) = 3.65425 3.94843 3.80419
# Velocity P-wave (km/s) = 5.06945 5.68076 5.38379
#
# Compressibility (1/GPa) = 0.04866468
#
# Stress axis : x y z
#
# Youngs Moduli (GPa) = 54.65333 61.64526 114.74580
#
# Poissons Ratio (x) = -0.30924 0.08015
# Poissons Ratio (y) = -0.27416 0.18388
# Poissons Ratio (z) = 0.03817 0.09879
#
# Static dielectric constant tensor:
#      x y z
#    x 2.029460 -0.008720 0.013840 
#    y -0.008720 2.167320 -0.110490 
#    z 0.013840 -0.110490 2.016720 
# 
# From -- ./inp_files/44900.got.cif
#   From: 2010.05.17/outbox.cif.g08.bks.cpg/sg2_23_cif.got.tgz:44900.got - 2010.06.03 11:33:40.
