data_PCOD9005925
_publ_section_title
;
Structure prediction by ZEFSAII (Michael W. Deem and Ramdas Pophale) SiO2 
 PCOD9005925
Probable space group: P -1
;
_chemical_formula_sum "Si O2"
_cell_formula_units_Z 16
_cell_length_a 14.866413
_cell_length_b 12.307749
_cell_length_c 15.754475
_cell_angle_alpha 151.901964
_cell_angle_beta 137.010900
_cell_angle_gamma 33.992064
_cell_volume 759.040893
_symmetry_space_group_name_H-M "P -1"
_symmetry_group_IT_number 2
_symmetry_cell_setting 'triclinic'
loop_
_space_group_symop_operation_xyz
x,y,z
-x,-y,-z
loop_
_atom_site_type_symbol
_atom_site_label
_atom_site_fract_x
_atom_site_fract_y
_atom_site_fract_z
Si Si1 0.808666 0.387767 0.798055
Si Si2 0.682039 0.873503 0.515015
Si Si3 0.086670 0.332505 0.056973
Si Si4 0.034038 0.155335 0.558608
Si Si5 0.693353 0.129305 0.973966
Si Si6 0.156271 0.372968 0.377975
Si Si7 0.337913 0.566664 0.100690
Si Si8 0.825974 0.438374 0.179688
O O1 0.798708 0.599951 0.867361
O O2 0.682687 0.513920 0.874742
O O3 0.823301 0.117930 0.581426
O O4 0.980405 0.283393 0.887501
O O5 0.795754 0.629712 0.494110
O O6 0.723136 0.746102 0.362249
O O7 0.500000 0.000000 0.500000
O O8 0.709170 0.117792 0.710419
O O9 0.968390 0.610437 0.224718
O O10 0.194006 0.066488 0.007077
O O11 0.902427 0.355350 0.533301
O O12 0.000000 0.000000 0.500000
O O13 0.516680 0.364456 0.047307
O O14 0.771988 0.268231 0.077405
O O15 0.696811 0.910848 0.760202
O O16 0.007957 0.340306 0.249850
O O17 0.220120 0.566779 0.951866
#
# Coordination Sequence:
#
# PCOD9005925 Si02
#       8
#     2   2   2   2   2   2   2   2
#     4  10  21  38  64  88 119 157 204 252 307 357
#     4  12  25  40  59  90 127 162 203 246 308 369
#     4   9  21  39  62  92 116 155 206 256 297 359
#     4   9  19  38  61  88 118 149 200 257 299 350
#     4  11  22  39  61  85 126 162 198 252 308 356
#     4  11  23  39  64  92 118 162 210 257 303 362
#     4  12  24  40  61  89 127 169 196 251 312 366
#     4  12  24  41  62  88 124 160 211 255 298 363
#
# _framework density 21.079232999999999
#
# number of rings (size 3 to 8) (size 9 to 14) (size 15 to 20)
#    0.000    1.250    2.500    4.125    3.500    0.500 
#    0.000    0.000    0.000    0.000    0.000   17.500 
#    0.000    0.000    0.000    0.000    0.000    0.000 
#
# Total GULP energy -89331.040629 kJ/mol
# GULP energy per Si atom -5583.190039 kJ/mol
# Density = 2.103126 g / cm^3
# Si number density = 21.079233 Si / 1000 Ang^3
#
#
#
# Elastic Constant Matrix: (Units=GPa)
#
#
# Indices 1 2 3 4 5 6 
#
# 1 120.3555 36.0971 33.9133 8.9461 3.8602 21.6573
# 2 36.0971 46.4791 13.2106 4.6820 18.3456 8.4767
# 3 33.9133 13.2106 92.3773 8.2230 -11.6800 0.8248
# 4 8.9461 4.6820 8.2230 30.1113 2.5257 2.1997
# 5 3.8602 18.3456 -11.6800 2.5257 29.9106 8.0666
# 6 21.6573 8.4767 0.8248 2.1997 8.0666 30.1593
#
#
#
# Elastic Compliance Matrix: (Units=1/GPa)
#
#
# Indices 1 2 3 4 5 6 
#
# 1 0.013597 -0.010616 -0.002478 -0.001626 0.006148 -0.008238
# 2 -0.010616 0.041371 -0.005495 0.000247 -0.027080 0.003371
# 3 -0.002478 -0.005495 0.013949 -0.003042 0.009205 0.000702
# 4 -0.001626 0.000247 -0.003042 0.034842 -0.003993 -0.000292
# 5 0.006148 -0.027080 0.009205 -0.003993 0.056375 -0.011842
# 6 -0.008238 0.003371 0.000702 -0.000292 -0.011842 0.041295
#
#
# Mechanical properties :
#
#
# Convention : Reuss Voigt Hill
#
# Bulk Modulus (GPa) = 31.50712 47.29489 39.40101
# Shear Modulus (GPa) = 20.06532 29.76894 24.91713
#
# Velocity S-wave (km/s) = 3.08863 3.76206 3.44185
# Velocity P-wave (km/s) = 5.26298 6.43088 5.87602
#
# Compressibility (1/GPa) = 0.03173886
#
# Stress axis : x y z
#
# Youngs Moduli (GPa) = 73.54574 24.17169 71.68940
#
# Poissons Ratio (x) = 0.25660 0.17764
# Poissons Ratio (y) = 0.78076 0.39394
# Poissons Ratio (z) = 0.18224 0.13283
#
# Static dielectric constant tensor:
#      x y z
#    x 1.803860 0.023080 -0.029940 
#    y 0.023080 1.731450 0.004650 
#    z -0.029940 0.004650 1.790840 
# 
# From -- ./inp_files/274183.got.cif
#   From: 2010.05.17/outbox.cif.g08.bks.cpg/sg2_138_cif.got.tgz:274183.got - 2010.06.03 11:33:40.
