data_PCOD9005131
_publ_section_title
;
Structure prediction by ZEFSAII (Michael W. Deem and Ramdas Pophale) SiO2 
 PCOD9005131
Probable space group: P -1
;
_chemical_formula_sum "Si O2"
_cell_formula_units_Z 16
_cell_length_a 6.661647
_cell_length_b 14.187564
_cell_length_c 11.898241
_cell_angle_alpha 54.361781
_cell_angle_beta 125.629084
_cell_angle_gamma 126.260674
_cell_volume 686.646124
_symmetry_space_group_name_H-M "P -1"
_symmetry_group_IT_number 2
_symmetry_cell_setting 'triclinic'
loop_
_space_group_symop_operation_xyz
x,y,z
-x,-y,-z
loop_
_atom_site_type_symbol
_atom_site_label
_atom_site_fract_x
_atom_site_fract_y
_atom_site_fract_z
Si Si1 0.962146 0.842959 0.881807
Si Si2 0.947321 0.162583 0.455139
Si Si3 0.332270 0.026587 0.704981
Si Si4 0.197016 0.431803 0.335682
Si Si5 0.249870 0.221416 0.893272
Si Si6 0.226783 0.448437 0.596620
Si Si7 0.832170 0.059294 0.718537
Si Si8 0.121475 0.623943 0.031381
O O1 0.230604 0.940256 0.841830
O O2 0.773352 0.921472 0.742108
O O3 0.898577 0.820811 0.008124
O O4 0.944642 0.708381 0.923739
O O5 0.984371 0.297487 0.325182
O O6 0.799433 0.061583 0.383708
O O7 0.812747 0.139531 0.549633
O O8 0.220900 0.138192 0.586927
O O9 0.639846 0.065384 0.750803
O O10 0.231420 0.414735 0.490754
O O11 0.475231 0.453725 0.349913
O O12 0.137912 0.555008 0.202683
O O13 0.174849 0.331418 0.739945
O O14 0.573656 0.283372 0.963977
O O15 0.123606 0.111404 0.836846
O O16 0.000000 0.500000 0.500000
O O17 0.000000 0.500000 0.000000
#
# Coordination Sequence:
#
# PCOD9005131 Si02
#       8
#     2   2   2   2   2   2   2   2
#     4  11  24  42  65  92 131 174 216 264 324 383
#     4  10  21  40  64  94 127 171 212 264 323 382
#     4  10  23  40  63  95 130 171 213 263 322 382
#     4  10  21  38  63  89 123 162 211 258 313 378
#     4  11  24  41  65  99 132 167 221 266 324 390
#     4  10  21  38  60  93 124 161 205 262 321 371
#     4  11  23  41  66  98 130 168 218 272 322 386
#     4  11  25  45  65  93 133 176 218 267 320 388
#
# _framework density 23.301666999999998
#
# number of rings (size 3 to 8) (size 9 to 14) (size 15 to 20)
#    0.000    1.500    1.250    3.000    1.750    3.500 
#    0.000    3.750    0.000    0.000    0.000    0.000 
#    0.000    0.000    0.000    0.000    0.000    0.000 
#
# Total GULP energy -89232.278652 kJ/mol
# GULP energy per Si atom -5577.017416 kJ/mol
# Density = 2.324863 g / cm^3
# Si number density = 23.301667 Si / 1000 Ang^3
#
#
#
# Elastic Constant Matrix: (Units=GPa)
#
#
# Indices 1 2 3 4 5 6 
#
# 1 81.3348 30.7424 34.9537 -16.8359 -18.2695 4.2002
# 2 30.7424 77.2742 32.2407 -7.6406 -9.0387 1.7911
# 3 34.9537 32.2407 78.1425 -19.1162 -21.3796 13.5574
# 4 -16.8359 -7.6406 -19.1162 46.9148 0.3931 -1.4299
# 5 -18.2695 -9.0387 -21.3796 0.3931 47.8848 -9.9645
# 6 4.2002 1.7911 13.5574 -1.4299 -9.9645 21.7985
#
#
#
# Elastic Compliance Matrix: (Units=1/GPa)
#
#
# Indices 1 2 3 4 5 6 
#
# 1 0.017404 -0.004332 -0.004198 0.003849 0.004297 0.001830
# 2 -0.004332 0.016908 -0.005950 -0.001134 -0.000518 0.002834
# 3 -0.004198 -0.005950 0.021578 0.005987 0.004884 -0.009497
# 4 0.003849 -0.001134 0.005987 0.024887 0.003485 -0.001147
# 5 0.004297 -0.000518 0.004884 0.003485 0.026334 0.008443
# 6 0.001830 0.002834 -0.009497 -0.001147 0.008443 0.054980
#
#
# Mechanical properties :
#
#
# Convention : Reuss Voigt Hill
#
# Bulk Modulus (GPa) = 37.13038 48.06945 42.59992
# Shear Modulus (GPa) = 24.99672 32.57394 28.78533
#
# Velocity S-wave (km/s) = 3.27883 3.74294 3.51854
# Velocity P-wave (km/s) = 5.50487 6.27323 5.90157
#
# Compressibility (1/GPa) = 0.02693212
#
# Stress axis : x y z
#
# Youngs Moduli (GPa) = 57.45928 59.14369 46.34340
#
# Poissons Ratio (x) = 0.25618 0.19453
# Poissons Ratio (y) = 0.24889 0.27572
# Poissons Ratio (z) = 0.24120 0.35188
#
# Static dielectric constant tensor:
#      x y z
#    x 1.907990 0.036490 0.001160 
#    y 0.036490 1.970300 0.000260 
#    z 0.001160 0.000260 1.915090 
# 
# From -- ./inp_files/367649.got.cif
#   From: 2010.05.17/outbox.cif.g08.bks.cpg/sg2_184_cif.got.tgz:367649.got - 2010.06.03 11:33:40.
