data_PCOD9005820
_publ_section_title
;
Structure prediction by ZEFSAII (Michael W. Deem and Ramdas Pophale) SiO2 
 PCOD9005820
Probable space group: P -1
;
_chemical_formula_sum "Si O2"
_cell_formula_units_Z 16
_cell_length_a 12.329440
_cell_length_b 14.151270
_cell_length_c 14.151165
_cell_angle_alpha 157.874453
_cell_angle_beta 47.245445
_cell_angle_gamma 132.755318
_cell_volume 671.571894
_symmetry_space_group_name_H-M "P -1"
_symmetry_group_IT_number 2
_symmetry_cell_setting 'triclinic'
loop_
_space_group_symop_operation_xyz
x,y,z
-x,-y,-z
loop_
_atom_site_type_symbol
_atom_site_label
_atom_site_fract_x
_atom_site_fract_y
_atom_site_fract_z
Si Si1 0.329670 0.043857 0.956143
Si Si2 0.072078 0.577155 0.422846
Si Si3 0.673483 0.623089 0.376919
Si Si4 0.038322 0.902338 0.097681
Si Si5 0.612424 0.409158 0.590852
Si Si6 0.377323 0.921828 0.078152
Si Si7 0.949628 0.763009 0.236981
Si Si8 0.437143 0.706892 0.293108
O O1 0.510342 0.090750 0.909265
O O2 0.296767 0.812860 0.689310
O O3 0.296772 0.310672 0.187104
O O4 0.219760 0.964747 0.035302
O O5 0.255109 0.642552 0.357451
O O6 0.000000 0.500000 0.500000
O O7 0.017803 0.838844 0.663232
O O8 0.017800 0.336762 0.161151
O O9 0.493925 0.576248 0.423742
O O10 0.770505 0.700602 0.299360
O O11 0.710373 0.854166 0.641101
O O12 0.710371 0.358927 0.145875
O O13 0.990147 0.831696 0.168311
O O14 0.508237 0.331196 0.668777
O O15 0.500000 0.000000 0.000000
O O16 0.000000 0.000000 0.500000
O O17 0.000000 0.500000 0.000000
O O18 0.500000 0.000000 0.500000
O O19 0.500000 0.500000 0.000000
#
# Coordination Sequence:
#
# PCOD9005820 Si02
#       8
#     2   2   2   2   2   2   2   2
#     4  10  21  39  67  93 127 171 222 272 346 403
#     4  12  27  48  77 109 148 187 238 301 367 433
#     4  10  23  40  66  89 132 168 222 283 345 400
#     4  12  26  46  73 104 145 189 235 291 352 431
#     4  10  22  43  64  97 130 172 213 288 348 410
#     4  10  21  38  63  95 121 166 215 287 338 397
#     4  12  28  47  68  99 140 196 239 287 344 418
#     4  12  26  43  71 103 138 179 230 284 351 439
#
# _framework density 23.824703
#
# number of rings (size 3 to 8) (size 9 to 14) (size 15 to 20)
#    0.000    1.000    0.000    6.000    7.000    0.000 
#    0.000    0.000    0.000    0.000    0.000    0.000 
#    0.000    0.000    0.000    0.000    0.000    0.000 
#
# Total GULP energy -89262.478243 kJ/mol
# GULP energy per Si atom -5578.904890 kJ/mol
# Density = 2.377048 g / cm^3
# Si number density = 23.824703 Si / 1000 Ang^3
#
#
#
# Elastic Constant Matrix: (Units=GPa)
#
#
# Indices 1 2 3 4 5 6 
#
# 1 77.8839 42.0675 51.2058 2.7798 -1.6477 5.8721
# 2 42.0675 208.9082 111.4773 -1.8187 1.2470 -21.9457
# 3 51.2058 111.4773 276.8892 22.5114 11.4342 -23.3990
# 4 2.7798 -1.8187 22.5114 53.1492 -7.1063 -3.3078
# 5 -1.6477 1.2470 11.4342 -7.1063 11.5560 -12.2626
# 6 5.8721 -21.9457 -23.3990 -3.3078 -12.2626 51.8347
#
#
#
# Elastic Compliance Matrix: (Units=1/GPa)
#
#
# Indices 1 2 3 4 5 6 
#
# 1 0.015946 -0.002342 -0.002353 -0.000009 0.001004 -0.003623
# 2 -0.002342 0.007036 -0.002585 0.002689 0.007349 0.003988
# 3 -0.002353 -0.002585 0.005678 -0.003511 -0.008318 -0.000457
# 4 -0.000009 0.002689 -0.003511 0.024286 0.025754 0.007197
# 5 0.001004 0.007349 -0.008318 0.025754 0.148062 0.035913
# 6 -0.003623 0.003988 -0.000457 0.007197 0.035913 0.030140
#
#
# Mechanical properties :
#
#
# Convention : Reuss Voigt Hill
#
# Bulk Modulus (GPa) = 70.92013 108.13140 89.52576
# Shear Modulus (GPa) = 19.96743 47.23668 33.60205
#
# Velocity S-wave (km/s) = 2.89813 4.45756 3.75959
# Velocity P-wave (km/s) = 6.40554 8.48398 7.51694
#
# Compressibility (1/GPa) = 0.01410037
#
# Stress axis : x y z
#
# Youngs Moduli (GPa) = 62.70983 142.12290 176.12877
#
# Poissons Ratio (x) = 0.33288 0.41443
# Poissons Ratio (y) = 0.14688 0.45525
# Poissons Ratio (z) = 0.14756 0.36735
#
# Static dielectric constant tensor:
#      x y z
#    x 2.050180 0.017240 -0.004850 
#    y 0.017240 1.877620 0.021840 
#    z -0.004850 0.021840 1.949270 
# 
# From -- ./inp_files/534666.got.cif
#   From: 2010.05.17/outbox.cif.g08.bks.cpg/sg2_268_cif.got.tgz:534666.got - 2010.06.03 11:33:40.
