data_PCOD9005939
_publ_section_title
;
Structure prediction by ZEFSAII (Michael W. Deem and Ramdas Pophale) SiO2 
 PCOD9005939
Probable space group: P -1
;
_chemical_formula_sum "Si O2"
_cell_formula_units_Z 16
_cell_length_a 14.093541
_cell_length_b 6.845825
_cell_length_c 14.326917
_cell_angle_alpha 70.683746
_cell_angle_beta 39.152528
_cell_angle_gamma 55.960340
_cell_volume 708.975927
_symmetry_space_group_name_H-M "P -1"
_symmetry_group_IT_number 2
_symmetry_cell_setting 'triclinic'
loop_
_space_group_symop_operation_xyz
x,y,z
-x,-y,-z
loop_
_atom_site_type_symbol
_atom_site_label
_atom_site_fract_x
_atom_site_fract_y
_atom_site_fract_z
Si Si1 0.986410 0.253175 0.095826
Si Si2 0.219585 0.606659 0.145070
Si Si3 0.088523 0.236123 0.517720
Si Si4 0.319739 0.985653 0.015023
Si Si5 0.973555 0.770042 0.144242
Si Si6 0.655670 0.848972 0.500665
Si Si7 0.616571 0.614476 0.413802
Si Si8 0.665544 0.923367 0.794656
O O1 0.990328 0.683743 0.038576
O O2 0.806270 0.440712 0.253692
O O3 0.977071 0.013978 0.117632
O O4 0.149679 0.164701 0.055752
O O5 0.337583 0.725843 0.020119
O O6 0.299488 0.347691 0.172389
O O7 0.054860 0.785162 0.309336
O O8 0.132550 0.588877 0.118034
O O9 0.236382 0.214585 0.478208
O O10 0.193724 0.062994 0.380080
O O11 0.000000 0.500000 0.500000
O O12 0.316547 0.995261 0.129026
O O13 0.477428 0.037938 0.870075
O O14 0.792590 0.829546 0.319950
O O15 0.614240 0.654039 0.521380
O O16 0.488436 0.113753 0.589573
O O17 0.500000 0.500000 0.500000
#
# Coordination Sequence:
#
# PCOD9005939 Si02
#       8
#     2   2   2   2   2   2   2   2
#     4  10  21  38  64  89 121 161 199 246 306 363
#     4   9  19  39  62  84 118 156 195 247 306 352
#     4   9  20  39  64  88 117 158 204 252 300 357
#     4  10  22  37  61  87 119 157 196 248 298 361
#     4   9  19  39  62  90 120 154 202 247 298 369
#     4  10  22  41  62  87 125 162 197 253 305 360
#     4  11  23  40  61  90 125 161 201 251 305 361
#     4  10  21  40  59  86 121 153 202 248 299 354
#
# _framework density 22.567762999999999
#
# number of rings (size 3 to 8) (size 9 to 14) (size 15 to 20)
#    0.000    2.250    1.250    0.375    5.250    3.000 
#    6.750    2.500    0.000    0.000    0.000    0.000 
#    0.000    0.000    0.000    0.000    0.000    0.000 
#
# Total GULP energy -89237.280014 kJ/mol
# GULP energy per Si atom -5577.330001 kJ/mol
# Density = 2.251640 g / cm^3
# Si number density = 22.567763 Si / 1000 Ang^3
#
#
#
# Elastic Constant Matrix: (Units=GPa)
#
#
# Indices 1 2 3 4 5 6 
#
# 1 141.1659 27.8551 49.1056 16.6828 -13.3097 -1.7622
# 2 27.8551 41.9997 11.3456 10.0822 -8.6298 6.4965
# 3 49.1056 11.3456 79.5267 22.2974 5.0217 -3.8183
# 4 16.6828 10.0822 22.2974 30.2067 -0.4540 -3.7546
# 5 -13.3097 -8.6298 5.0217 -0.4540 36.1882 1.1811
# 6 -1.7622 6.4965 -3.8183 -3.7546 1.1811 35.6165
#
#
#
# Elastic Compliance Matrix: (Units=1/GPa)
#
#
# Indices 1 2 3 4 5 6 
#
# 1 0.010423 -0.004758 -0.006074 0.000451 0.003526 0.000663
# 2 -0.004758 0.031289 0.000230 -0.008773 0.005799 -0.007035
# 3 -0.006074 0.000230 0.019831 -0.011343 -0.005098 0.000757
# 4 0.000451 -0.008773 -0.011343 0.044795 0.000042 0.005127
# 5 0.003526 0.005799 -0.005098 0.000042 0.031101 -0.002457
# 6 0.000663 -0.007035 0.000757 0.005127 -0.002457 0.030096
#
#
# Mechanical properties :
#
#
# Convention : Reuss Voigt Hill
#
# Bulk Modulus (GPa) = 24.79074 48.81164 36.80119
# Shear Modulus (GPa) = 24.72958 32.02799 28.37879
#
# Velocity S-wave (km/s) = 3.31387 3.77130 3.54996
# Velocity P-wave (km/s) = 5.06470 6.37491 5.75720
#
# Compressibility (1/GPa) = 0.04033764
#
# Stress axis : x y z
#
# Youngs Moduli (GPa) = 95.93926 31.96012 50.42619
#
# Poissons Ratio (x) = 0.15208 0.30631
# Poissons Ratio (y) = 0.45651 -0.01160
# Poissons Ratio (z) = 0.58278 -0.00735
#
# Static dielectric constant tensor:
#      x y z
#    x 1.761550 0.011090 -0.007020 
#    y 0.011090 1.897340 0.006250 
#    z -0.007020 0.006250 1.893100 
# 
# From -- ./inp_files/124523.got.cif
#   From: 2010.05.17/outbox.cif.g08.bks.cpg/sg2_63_cif.got.tgz:124523.got - 2010.06.03 11:33:40.
