data_PCOD9005889
_publ_section_title
;
Structure prediction by ZEFSAII (Michael W. Deem and Ramdas Pophale) SiO2 
 PCOD9005889
Probable space group: P -1
;
_chemical_formula_sum "Si O2"
_cell_formula_units_Z 16
_cell_length_a 19.427945
_cell_length_b 8.709389
_cell_length_c 10.802937
_cell_angle_alpha 67.703565
_cell_angle_beta 157.432749
_cell_angle_gamma 113.200437
_cell_volume 644.134833
_symmetry_space_group_name_H-M "P -1"
_symmetry_group_IT_number 2
_symmetry_cell_setting 'triclinic'
loop_
_space_group_symop_operation_xyz
x,y,z
-x,-y,-z
loop_
_atom_site_type_symbol
_atom_site_label
_atom_site_fract_x
_atom_site_fract_y
_atom_site_fract_z
Si Si1 0.332736 0.328386 0.660345
Si Si2 0.533004 0.880749 0.706974
Si Si3 0.144440 0.890902 0.717614
Si Si4 0.801477 0.081026 0.730060
Si Si5 0.163103 0.981524 0.454081
Si Si6 0.702853 0.559669 0.164790
Si Si7 0.241124 0.557369 0.959032
Si Si8 0.672910 0.684847 0.619039
O O1 0.326569 0.126878 0.706194
O O2 0.239302 0.371623 0.622059
O O3 0.263066 0.368962 0.394306
O O4 0.535594 0.421073 0.964854
O O5 0.500000 0.000000 0.500000
O O6 0.337803 0.824542 0.457230
O O7 0.630340 0.713875 0.920011
O O8 0.662457 0.005673 0.968730
O O9 0.116594 0.878970 0.529620
O O10 0.146041 0.703338 0.821688
O O11 0.000000 0.000000 0.500000
O O12 0.815546 0.129994 0.595527
O O13 0.721841 0.883907 0.654064
O O14 0.994626 0.083511 0.112346
O O15 0.814789 0.485042 0.263243
O O16 0.456131 0.632685 0.282699
O O17 0.237101 0.403714 0.092524
#
# Coordination Sequence:
#
# PCOD9005889 Si02
#       8
#     2   2   2   2   2   2   2   2
#     4   9  19  37  64  93 137 167 215 278 332 402
#     4  12  24  40  68 102 134 178 229 274 332 406
#     4  12  26  44  67  98 137 175 225 282 337 398
#     4  10  21  40  70  96 135 178 228 276 330 401
#     4  10  22  43  64  96 137 175 225 281 335 395
#     4  10  21  38  64 100 134 170 221 275 336 399
#     4  10  21  39  67  96 133 172 222 276 334 404
#     4   9  18  37  67 100 127 172 225 271 333 400
#
# _framework density 24.839518999999999
#
# number of rings (size 3 to 8) (size 9 to 14) (size 15 to 20)
#    0.000    1.750    2.500    1.500    3.500    3.500 
#    0.000    3.125    5.500    0.000    0.000    0.000 
#    0.000    0.000    0.000    0.000    0.000    0.000 
#
# Total GULP energy -89398.834459 kJ/mol
# GULP energy per Si atom -5587.427154 kJ/mol
# Density = 2.478298 g / cm^3
# Si number density = 24.839519 Si / 1000 Ang^3
#
#
#
# Elastic Constant Matrix: (Units=GPa)
#
#
# Indices 1 2 3 4 5 6 
#
# 1 142.2446 13.2214 33.9538 -36.0759 -18.4388 -1.9076
# 2 13.2214 73.8104 22.8922 -11.8132 -0.6316 -8.2569
# 3 33.9538 22.8922 53.7660 3.8147 -6.0522 -0.7522
# 4 -36.0759 -11.8132 3.8147 31.2355 -1.0277 8.3370
# 5 -18.4388 -0.6316 -6.0522 -1.0277 33.0232 -3.4616
# 6 -1.9076 -8.2569 -0.7522 8.3370 -3.4616 27.7865
#
#
#
# Elastic Compliance Matrix: (Units=1/GPa)
#
#
# Indices 1 2 3 4 5 6 
#
# 1 0.016923 0.004690 -0.013642 0.024349 0.007356 -0.004203
# 2 0.004690 0.018700 -0.011698 0.013514 0.001429 0.001685
# 3 -0.013642 -0.011698 0.033824 -0.025412 -0.002027 0.003875
# 4 0.024349 0.013514 -0.025412 0.072848 0.009825 -0.015634
# 5 0.007356 0.001429 -0.002027 0.009825 0.034585 0.002235
# 6 -0.004203 0.001685 0.003875 -0.015634 0.002235 0.041275
#
#
# Mechanical properties :
#
#
# Convention : Reuss Voigt Hill
#
# Bulk Modulus (GPa) = 35.52879 45.55064 40.53972
# Shear Modulus (GPa) = 18.59853 31.72597 25.16225
#
# Velocity S-wave (km/s) = 2.73929 3.57772 3.18621
# Velocity P-wave (km/s) = 4.93349 5.95354 5.46736
#
# Compressibility (1/GPa) = 0.02814619
#
# Stress axis : x y z
#
# Youngs Moduli (GPa) = 59.09019 53.47606 29.56473
#
# Poissons Ratio (x) = -0.25078 0.40333
# Poissons Ratio (y) = -0.27711 0.34584
# Poissons Ratio (z) = 0.80613 0.62555
#
# Static dielectric constant tensor:
#      x y z
#    x 2.267270 0.345890 0.131630 
#    y 0.345890 2.453000 0.127150 
#    z 0.131630 0.127150 2.034320 
# 
# From -- ./inp_files/469964.got.cif
#   From: 2010.05.17/outbox.cif.g08.bks.cpg/sg2_235_cif.got.tgz:469964.got - 2010.06.03 11:33:40.
