data_PCOD9005389
_publ_section_title
;
Structure prediction by ZEFSAII (Michael W. Deem and Ramdas Pophale) SiO2 
 PCOD9005389
Probable space group: P -1
;
_chemical_formula_sum "Si O2"
_cell_formula_units_Z 16
_cell_length_a 15.658681
_cell_length_b 9.535159
_cell_length_c 9.396811
_cell_angle_alpha 43.605337
_cell_angle_beta 101.132151
_cell_angle_gamma 113.602528
_cell_volume 876.221780
_symmetry_space_group_name_H-M "P -1"
_symmetry_group_IT_number 2
_symmetry_cell_setting 'triclinic'
loop_
_space_group_symop_operation_xyz
x,y,z
-x,-y,-z
loop_
_atom_site_type_symbol
_atom_site_label
_atom_site_fract_x
_atom_site_fract_y
_atom_site_fract_z
Si Si1 0.895378 0.941865 0.456112
Si Si2 0.368006 0.278614 0.536676
Si Si3 0.497360 0.049629 0.796887
Si Si4 0.332317 0.675377 0.844118
Si Si5 0.685139 0.191923 0.572648
Si Si6 0.211979 0.828331 0.890000
Si Si7 0.274961 0.181451 0.286113
Si Si8 0.769153 0.487138 0.627872
O O1 0.823036 0.888596 0.606581
O O2 0.854070 0.718268 0.515068
O O3 0.880198 0.130498 0.217270
O O4 0.000000 0.000000 0.500000
O O5 0.350474 0.211281 0.414730
O O6 0.327386 0.470217 0.400460
O O7 0.466181 0.259198 0.618678
O O8 0.292441 0.074007 0.750636
O O9 0.419466 0.839654 0.845073
O O10 0.595535 0.095718 0.717817
O O11 0.500000 0.000000 0.000000
O O12 0.345256 0.733093 0.640399
O O13 0.243862 0.721837 0.843888
O O14 0.307691 0.419357 0.050527
O O15 0.759458 0.393787 0.535217
O O16 0.724243 0.005852 0.682176
O O17 0.216206 0.685138 0.131205
#
# Coordination Sequence:
#
# PCOD9005389 Si02
#       8
#     2   2   2   2   2   2   2   2
#     4  10  21  39  67  96 116 150 203 246 294 379
#     4   9  19  37  57  79 118 159 202 243 283 352
#     4  11  24  38  59  88 124 160 214 253 283 347
#     4  11  20  39  59  84 122 166 198 239 304 348
#     4  12  23  38  59  89 124 160 201 254 296 346
#     4   9  16  37  63  82 117 155 193 240 293 356
#     4  10  21  38  62  83 122 159 199 241 308 356
#     4  10  21  38  62  87 118 159 198 244 308 350
#
# _framework density 18.260218999999999
#
# number of rings (size 3 to 8) (size 9 to 14) (size 15 to 20)
#    0.000    2.000    6.250    1.875    0.000    4.500 
#    0.000    0.625    0.000    1.500    0.000    0.000 
#    0.000    0.000    0.000    0.000    0.000    0.000 
#
# Total GULP energy -89188.423588 kJ/mol
# GULP energy per Si atom -5574.276474 kJ/mol
# Density = 1.821866 g / cm^3
# Si number density = 18.260219 Si / 1000 Ang^3
#
#
#
# Elastic Constant Matrix: (Units=GPa)
#
#
# Indices 1 2 3 4 5 6 
#
# 1 75.5827 49.6342 37.6755 3.7675 16.3643 9.4820
# 2 49.6342 145.8813 53.0214 6.9281 9.7654 -9.1170
# 3 37.6755 53.0214 116.0897 6.9930 11.5824 -5.0422
# 4 3.7675 6.9281 6.9930 33.9073 -7.6879 3.1724
# 5 16.3643 9.7654 11.5824 -7.6879 22.0412 2.1626
# 6 9.4820 -9.1170 -5.0422 3.1724 2.1626 22.1001
#
#
#
# Elastic Compliance Matrix: (Units=1/GPa)
#
#
# Indices 1 2 3 4 5 6 
#
# 1 0.023746 -0.006501 -0.003922 -0.002126 -0.012228 -0.012263
# 2 -0.006501 0.010367 -0.002265 -0.001506 0.000237 0.006742
# 3 -0.003922 -0.002265 0.011614 -0.002683 -0.003529 0.004129
# 4 -0.002126 -0.001506 -0.002683 0.034992 0.016544 -0.006963
# 5 -0.012228 0.000237 -0.003529 0.016544 0.062354 -0.003938
# 6 -0.012263 0.006742 0.004129 -0.006963 -0.003938 0.055618
#
#
# Mechanical properties :
#
#
# Convention : Reuss Voigt Hill
#
# Bulk Modulus (GPa) = 49.13617 68.69066 58.91342
# Shear Modulus (GPa) = 21.65886 28.75788 25.20837
#
# Velocity S-wave (km/s) = 3.44775 3.97280 3.71955
# Velocity P-wave (km/s) = 6.54344 7.66443 7.12601
#
# Compressibility (1/GPa) = 0.02035161
#
# Stress axis : x y z
#
# Youngs Moduli (GPa) = 42.11173 96.45977 86.09929
#
# Poissons Ratio (x) = 0.62706 0.33769
# Poissons Ratio (y) = 0.27376 0.19504
# Poissons Ratio (z) = 0.16517 0.21851
#
# Static dielectric constant tensor:
#      x y z
#    x 1.639120 0.005070 0.027290 
#    y 0.005070 1.656030 -0.031420 
#    z 0.027290 -0.031420 1.666710 
# 
# From -- ./inp_files/297512.got.cif
#   From: 2010.05.17/outbox.cif.g08.bks.cpg/sg2_149_cif.got.tgz:297512.got - 2010.06.03 11:33:40.
