data_PCOD9005251
_publ_section_title
;
Structure prediction by ZEFSAII (Michael W. Deem and Ramdas Pophale) SiO2 
 PCOD9005251
Probable space group: P -1
;
_chemical_formula_sum "Si O2"
_cell_formula_units_Z 16
_cell_length_a 26.703319
_cell_length_b 26.704032
_cell_length_c 8.740761
_cell_angle_alpha 134.623609
_cell_angle_beta 134.625056
_cell_angle_gamma 11.298789
_cell_volume 865.000243
_symmetry_space_group_name_H-M "P -1"
_symmetry_group_IT_number 2
_symmetry_cell_setting 'triclinic'
loop_
_space_group_symop_operation_xyz
x,y,z
-x,-y,-z
loop_
_atom_site_type_symbol
_atom_site_label
_atom_site_fract_x
_atom_site_fract_y
_atom_site_fract_z
Si Si1 0.391233 0.391059 0.197142
Si Si2 0.846075 0.845825 0.499919
Si Si3 0.022155 0.022808 0.249528
Si Si4 0.106426 0.106590 0.592162
Si Si5 0.340888 0.340658 0.685534
Si Si6 0.741521 0.741542 0.562040
Si Si7 0.523692 0.524355 0.453358
Si Si8 0.769127 0.769077 0.016813
O O1 0.433412 0.433064 0.334187
O O2 0.134448 0.633563 0.268999
O O3 0.633625 0.134380 0.269063
O O4 0.366720 0.366465 0.942576
O O5 0.875699 0.875395 0.495907
O O6 0.808947 0.808796 0.249347
O O7 0.097162 0.597579 0.611814
O O8 0.597840 0.096901 0.611822
O O9 0.265044 0.765826 0.318861
O O10 0.064049 0.064309 0.390280
O O11 0.764714 0.266160 0.318464
O O12 0.000000 0.000000 0.000000
O O13 0.299757 0.299642 0.563674
O O14 0.000000 0.500000 0.500000
O O15 0.500000 0.000000 0.500000
O O16 0.765032 0.764995 0.816744
O O17 0.500000 0.500000 0.500000
O O18 0.000000 0.500000 0.000000
O O19 0.500000 0.000000 0.000000
#
# Coordination Sequence:
#
# PCOD9005251 Si02
#       8
#     2   2   2   2   2   2   2   2
#     4  10  23  41  60  87 124 157 194 247 287 349
#     4  12  24  41  63  88 117 158 196 243 298 352
#     4  10  21  38  61  90 123 153 198 247 284 346
#     4  10  23  41  61  89 119 160 198 235 300 349
#     4  12  25  42  60  90 121 151 201 246 290 352
#     4  12  26  41  62  90 116 152 200 243 296 351
#     4  10  21  38  61  89 121 159 198 235 297 346
#     4  12  23  44  62  85 121 152 193 250 296 343
#
# _framework density 18.497105999999999
#
# number of rings (size 3 to 8) (size 9 to 14) (size 15 to 20)
#    0.000    1.000    2.500    3.750    3.500    2.000 
#    0.000    0.000    0.000    0.000    0.000    0.000 
#    0.000    0.000    0.000    0.000    0.000    0.000 
#
# Total GULP energy -89492.738691 kJ/mol
# GULP energy per Si atom -5593.296168 kJ/mol
# Density = 1.845501 g / cm^3
# Si number density = 18.497106 Si / 1000 Ang^3
#
#
#
# Elastic Constant Matrix: (Units=GPa)
#
#
# Indices 1 2 3 4 5 6 
#
# 1 176.2884 108.0074 64.9071 -0.7506 -24.9178 1.5762
# 2 108.0074 219.1945 83.8470 -3.7496 -24.2281 -5.3346
# 3 64.9071 83.8470 166.3841 -3.1709 -36.2574 -1.7525
# 4 -0.7506 -3.7496 -3.1709 23.8808 -0.1937 -8.6870
# 5 -24.9178 -24.2281 -36.2574 -0.1937 21.7265 0.7260
# 6 1.5762 -5.3346 -1.7525 -8.6870 0.7260 26.0066
#
#
#
# Elastic Compliance Matrix: (Units=1/GPa)
#
#
# Indices 1 2 3 4 5 6 
#
# 1 0.008850 -0.003644 -0.000496 -0.000968 0.005309 -0.001789
# 2 -0.003644 0.007284 -0.002124 0.001501 0.000343 0.002064
# 3 -0.000496 -0.002124 0.010469 0.001275 0.014533 0.000320
# 4 -0.000968 0.001501 0.001275 0.048274 0.002571 0.016506
# 5 0.005309 0.000343 0.014533 0.002571 0.076794 -0.000557
# 6 -0.001789 0.002064 0.000320 0.016506 -0.000557 0.044534
#
#
# Mechanical properties :
#
#
# Convention : Reuss Voigt Hill
#
# Bulk Modulus (GPa) = 71.05287 119.48778 95.27033
# Shear Modulus (GPa) = 23.42727 34.66313 29.04520
#
# Velocity S-wave (km/s) = 3.56270 4.33364 3.96695
# Velocity P-wave (km/s) = 7.44447 9.47517 8.52054
#
# Compressibility (1/GPa) = 0.01407403
#
# Stress axis : x y z
#
# Youngs Moduli (GPa) = 112.98903 137.28319 95.52098
#
# Poissons Ratio (x) = 0.50031 0.04741
# Poissons Ratio (y) = 0.41178 0.20289
# Poissons Ratio (z) = 0.05609 0.29159
#
# Static dielectric constant tensor:
#      x y z
#    x 1.567300 -0.004640 -0.005330 
#    y -0.004640 1.620480 -0.000470 
#    z -0.005330 -0.000470 1.597020 
# 
# From -- ./inp_files/53369.got.cif
#   From: 2010.05.17/outbox.cif.g08.bks.cpg/sg2_27_cif.got.tgz:53369.got - 2010.06.03 11:33:40.
