data_PCOD9005045
_publ_section_title
;
Structure prediction by ZEFSAII (Michael W. Deem and Ramdas Pophale) SiO2 
 PCOD9005045
Probable space group: P -1
;
_chemical_formula_sum "Si O2"
_cell_formula_units_Z 15
_cell_length_a 12.221821
_cell_length_b 7.856114
_cell_length_c 12.035669
_cell_angle_alpha 70.100312
_cell_angle_beta 133.819851
_cell_angle_gamma 86.677636
_cell_volume 706.782437
_symmetry_space_group_name_H-M "P -1"
_symmetry_group_IT_number 2
_symmetry_cell_setting 'triclinic'
loop_
_space_group_symop_operation_xyz
x,y,z
-x,-y,-z
loop_
_atom_site_type_symbol
_atom_site_label
_atom_site_fract_x
_atom_site_fract_y
_atom_site_fract_z
Si Si1 0.749947 0.617884 0.891005
Si Si2 0.666983 0.395201 0.068547
Si Si3 0.781263 0.932144 0.220058
Si Si4 0.115236 0.619886 0.572953
Si Si5 0.329756 0.315501 0.631823
Si Si6 0.871801 0.481143 0.772448
Si Si7 0.690635 0.996064 0.902384
Si Si8 0.000000 0.000000 0.000000
O O1 0.748433 0.588085 0.765158
O O2 0.681329 0.847176 0.833837
O O3 0.662587 0.511930 0.927342
O O4 0.949558 0.512556 0.083226
O O5 0.819290 0.386259 0.256116
O O6 0.699125 0.169747 0.116103
O O7 0.500000 0.500000 0.000000
O O8 0.710723 0.842721 0.288494
O O9 0.983065 0.840931 0.394873
O O10 0.733413 0.880060 0.076687
O O11 0.276529 0.506972 0.633292
O O12 0.000000 0.500000 0.500000
O O13 0.210370 0.404053 0.422879
O O14 0.519388 0.194867 0.751964
O O15 0.919706 0.244515 0.856900
O O16 0.844357 0.044335 0.966849
#
# Coordination Sequence:
#
# PCOD9005045 Si02
#       8
#     2   2   2   2   2   2   2   1
#     4  10  21  40  61  85 122 169 209 254 322 382
#     4  12  23  38  63  97 130 163 214 270 316 373
#     4  11  22  39  64  93 127 165 211 260 321 381
#     4  10  21  38  60  88 125 165 207 255 317 382
#     4  11  22  39  63  93 125 164 211 264 323 378
#     4  10  22  40  64  87 119 165 215 262 312 383
#     4  11  22  40  64  89 126 167 211 264 320 383
#     4  10  22  42  60  86 118 164 210 252 316 376
#
# _framework density 21.222939
#
# number of rings (size 3 to 8) (size 9 to 14) (size 15 to 20)
#    0.000    1.333    0.000    8.000    0.000    1.067 
#    0.000    4.000    0.000    0.000    0.000    0.000 
#    0.000    0.000    0.000    0.000    0.000    0.000 
#
# Total GULP energy -83562.656573 kJ/mol
# GULP energy per Si atom -5570.843772 kJ/mol
# Density = 2.117464 g / cm^3
# Si number density = 21.222939 Si / 1000 Ang^3
#
#
#
# Elastic Constant Matrix: (Units=GPa)
#
#
# Indices 1 2 3 4 5 6 
#
# 1 138.6493 21.7386 27.6773 -15.9814 -2.9412 -17.0787
# 2 21.7386 33.9546 1.8363 -4.0178 3.0443 -14.0958
# 3 27.6773 1.8363 51.8869 -1.0415 -0.0145 3.5936
# 4 -15.9814 -4.0178 -1.0415 28.4078 -9.4614 1.1017
# 5 -2.9412 3.0443 -0.0145 -9.4614 36.5007 -15.4157
# 6 -17.0787 -14.0958 3.5936 1.1017 -15.4157 34.7871
#
#
#
# Elastic Compliance Matrix: (Units=1/GPa)
#
#
# Indices 1 2 3 4 5 6 
#
# 1 0.010704 -0.003374 -0.005924 0.007014 0.005864 0.006876
# 2 -0.003374 0.038270 -0.000552 0.004308 0.004268 0.015663
# 3 -0.005924 -0.000552 0.022886 -0.003792 -0.004522 -0.007380
# 4 0.007014 0.004308 -0.003792 0.044724 0.016677 0.011555
# 5 0.005864 0.004268 -0.004522 0.016677 0.041527 0.022949
# 6 0.006876 0.015663 -0.007380 0.011555 0.022949 0.049035
#
#
# Mechanical properties :
#
#
# Convention : Reuss Voigt Hill
#
# Bulk Modulus (GPa) = 19.17154 36.33281 27.75217
# Shear Modulus (GPa) = 20.47235 31.48837 25.98036
#
# Velocity S-wave (km/s) = 3.10922 3.85605 3.50260
# Velocity P-wave (km/s) = 4.68430 6.08131 5.42794
#
# Compressibility (1/GPa) = 0.05216066
#
# Stress axis : x y z
#
# Youngs Moduli (GPa) = 93.42518 26.12999 43.69499
#
# Poissons Ratio (x) = 0.08815 0.25885
# Poissons Ratio (y) = 0.31518 0.02412
# Poissons Ratio (z) = 0.55345 0.01442
#
# Static dielectric constant tensor:
#      x y z
#    x 1.765990 -0.009400 0.041010 
#    y -0.009400 1.805320 0.022890 
#    z 0.041010 0.022890 1.802190 
# 
# From -- ./inp_files/293100.got.cif
#   From: 2010.05.17/outbox.cif.g08.bks.cpg/sg2_147_cif.got.tgz:293100.got - 2010.06.03 11:33:40.
