data_PCOD9005696
_publ_section_title
;
Structure prediction by ZEFSAII (Michael W. Deem and Ramdas Pophale) SiO2 
 PCOD9005696
Probable space group: P -1
;
_chemical_formula_sum "Si O2"
_cell_formula_units_Z 12
_cell_length_a 14.527180
_cell_length_b 13.629056
_cell_length_c 7.837622
_cell_angle_alpha 140.932345
_cell_angle_beta 136.882123
_cell_angle_gamma 28.533090
_cell_volume 461.215930
_symmetry_space_group_name_H-M "P -1"
_symmetry_group_IT_number 2
_symmetry_cell_setting 'triclinic'
loop_
_space_group_symop_operation_xyz
x,y,z
-x,-y,-z
loop_
_atom_site_type_symbol
_atom_site_label
_atom_site_fract_x
_atom_site_fract_y
_atom_site_fract_z
Si Si1 0.423526 0.253907 0.044502
Si Si2 0.064501 0.378667 0.600556
Si Si3 0.072290 0.118664 0.648740
Si Si4 0.711142 0.233458 0.245912
Si Si5 0.705079 0.764640 0.818667
Si Si6 0.800239 0.078818 0.797001
O O1 0.207529 0.391532 0.883262
O O2 0.564557 0.991610 0.821650
O O3 0.514501 0.336726 0.210874
O O4 0.423837 0.223756 0.207491
O O5 0.856446 0.528700 0.611871
O O6 0.000000 0.500000 0.500000
O O7 0.175372 0.123592 0.402011
O O8 0.199114 0.917802 0.405058
O O9 0.843309 0.276622 0.518068
O O10 0.133688 0.013631 0.780458
O O11 0.152078 0.227343 0.886855
O O12 0.670766 0.250720 0.011762
O O13 0.000000 0.000000 0.000000
#
# Coordination Sequence:
#
# PCOD9005696 Si02
#       6
#     2   2   2   2   2   2
#     4  10  21  39  61  96 123 165 213 263 318 375
#     4  12  24  39  65  97 129 165 213 270 318 379
#     4   9  17  36  61  88 122 169 201 254 321 371
#     4   9  19  35  60  93 120 163 217 250 311 385
#     4  10  21  39  64  90 125 164 216 258 317 384
#     4  10  21  38  63  90 124 173 210 253 322 383
#
# _framework density 26.018180000000001
#
# number of rings (size 3 to 8) (size 9 to 14) (size 15 to 20)
#    0.000    2.000    1.667    2.500    0.000    2.667 
#    0.000    0.833    0.000    5.000    0.000    0.000 
#    0.000    0.000    0.000    0.000    0.000    0.000 
#
# Total GULP energy -66912.185459 kJ/mol
# GULP energy per Si atom -5576.015455 kJ/mol
# Density = 2.595896 g / cm^3
# Si number density = 26.018180 Si / 1000 Ang^3
#
#
#
# Elastic Constant Matrix: (Units=GPa)
#
#
# Indices 1 2 3 4 5 6 
#
# 1 167.3291 19.0453 35.6463 -18.2421 27.4215 -19.8729
# 2 19.0453 63.6078 8.2612 -11.8785 4.0688 -10.7109
# 3 35.6463 8.2612 78.2104 -5.9322 21.6139 -13.6302
# 4 -18.2421 -11.8785 -5.9322 15.1818 0.9490 12.1807
# 5 27.4215 4.0688 21.6139 0.9490 40.4333 -15.0540
# 6 -19.8729 -10.7109 -13.6302 12.1807 -15.0540 41.7621
#
#
#
# Elastic Compliance Matrix: (Units=1/GPa)
#
#
# Indices 1 2 3 4 5 6 
#
# 1 0.008254 -0.000154 -0.001680 0.011032 -0.005657 -0.001917
# 2 -0.000154 0.018623 -0.000262 0.014800 -0.002154 -0.000476
# 3 -0.001680 -0.000262 0.015991 0.004035 -0.007271 0.000555
# 4 0.011032 0.014800 0.004035 0.122021 -0.027010 -0.034963
# 5 -0.005657 -0.002154 -0.007271 -0.027010 0.039441 0.016478
# 6 -0.001917 -0.000476 0.000555 -0.034963 0.016478 0.039230
#
#
# Mechanical properties :
#
#
# Convention : Reuss Voigt Hill
#
# Bulk Modulus (GPa) = 25.85500 48.33920 37.09710
# Shear Modulus (GPa) = 19.18334 35.88840 27.53587
#
# Velocity S-wave (km/s) = 2.71828 3.71800 3.25673
# Velocity P-wave (km/s) = 4.45095 6.08693 5.33206
#
# Compressibility (1/GPa) = 0.03867724
#
# Stress axis : x y z
#
# Youngs Moduli (GPa) = 121.15820 53.69712 62.53398
#
# Poissons Ratio (x) = 0.00826 0.10503
# Poissons Ratio (y) = 0.01864 0.01638
# Poissons Ratio (z) = 0.20349 0.01407
#
# Static dielectric constant tensor:
#      x y z
#    x 2.265220 0.130060 -0.041560 
#    y 0.130060 2.179960 0.058810 
#    z -0.041560 0.058810 2.147470 
# 
# From -- ./inp_files/167950.got.cif
#   From: 2010.05.17/outbox.cif.g08.bks.cpg/sg2_84_cif.got.tgz:167950.got - 2010.06.03 11:33:40.
