data_PCOD9005684
_publ_section_title
;
Structure prediction by ZEFSAII (Michael W. Deem and Ramdas Pophale) SiO2 
 PCOD9005684
Probable space group: P -1
;
_chemical_formula_sum "Si O2"
_cell_formula_units_Z 16
_cell_length_a 12.573411
_cell_length_b 15.268372
_cell_length_c 15.102960
_cell_angle_alpha 38.261831
_cell_angle_beta 138.472446
_cell_angle_gamma 153.056732
_cell_volume 801.207070
_symmetry_space_group_name_H-M "P -1"
_symmetry_group_IT_number 2
_symmetry_cell_setting 'triclinic'
loop_
_space_group_symop_operation_xyz
x,y,z
-x,-y,-z
loop_
_atom_site_type_symbol
_atom_site_label
_atom_site_fract_x
_atom_site_fract_y
_atom_site_fract_z
Si Si1 0.102182 0.365448 0.155603
Si Si2 0.708239 0.214804 0.286284
Si Si3 0.202738 0.958516 0.386569
Si Si4 0.340428 0.224722 0.410914
Si Si5 0.436936 0.615258 0.839501
Si Si6 0.850006 0.545850 0.380443
Si Si7 0.387560 0.039397 0.734258
Si Si8 0.142459 0.594421 0.158574
O O1 0.274354 0.344992 0.269559
O O2 0.202468 0.538328 0.154806
O O3 0.847077 0.149835 0.206442
O O4 0.035924 0.404132 0.993918
O O5 0.671554 0.096157 0.445565
O O6 0.625182 0.318029 0.173519
O O7 0.987881 0.405411 0.283447
O O8 0.588015 0.059051 0.251813
O O9 0.997676 0.758999 0.356896
O O10 0.150400 0.016466 0.396268
O O11 0.357647 0.166001 0.259190
O O12 0.601265 0.363846 0.422166
O O13 0.343499 0.159539 0.561726
O O14 0.220402 0.459597 0.758784
O O15 0.500000 0.500000 0.000000
O O16 0.000000 0.500000 0.500000
O O17 0.621317 0.194407 0.816557
#
# Coordination Sequence:
#
# PCOD9005684 Si02
#       8
#     2   2   2   2   2   2   2   2
#     4  10  22  41  58  89 129 160 198 265 311 359
#     4  10  21  38  63  89 124 162 208 252 308 369
#     4  10  22  41  62  90 121 167 207 250 307 371
#     4  10  23  38  62  93 127 157 208 262 305 358
#     4  11  25  40  62  93 131 159 205 269 308 355
#     4  11  23  40  67  91 123 172 213 246 309 378
#     4  10  21  38  63  92 113 170 210 244 310 377
#     4  10  22  38  64  87 124 163 205 249 314 376
#
# _framework density 19.969868000000002
#
# number of rings (size 3 to 8) (size 9 to 14) (size 15 to 20)
#    0.000    1.750    1.250    1.875    7.000    2.000 
#    2.250    0.000    0.000    0.000    0.000    0.000 
#    0.000    0.000    0.000    0.000    0.000    0.000 
#
# Total GULP energy -89294.226541 kJ/mol
# GULP energy per Si atom -5580.889159 kJ/mol
# Density = 1.992442 g / cm^3
# Si number density = 19.969868 Si / 1000 Ang^3
#
#
#
# Elastic Constant Matrix: (Units=GPa)
#
#
# Indices 1 2 3 4 5 6 
#
# 1 49.5620 31.5136 54.8391 -0.9455 3.2014 1.1457
# 2 31.5136 123.3938 38.3240 11.7122 -8.6461 -21.1675
# 3 54.8391 38.3240 131.7745 -1.4603 14.6098 -6.2873
# 4 -0.9455 11.7122 -1.4603 26.1820 -3.1970 -8.9852
# 5 3.2014 -8.6461 14.6098 -3.1970 32.0279 -9.0847
# 6 1.1457 -21.1675 -6.2873 -8.9852 -9.0847 19.7778
#
#
#
# Elastic Compliance Matrix: (Units=1/GPa)
#
#
# Indices 1 2 3 4 5 6 
#
# 1 0.046675 -0.011324 -0.016523 -0.003830 -0.007768 -0.025384
# 2 -0.011324 0.015911 -0.000123 0.002461 0.012707 0.024601
# 3 -0.016523 -0.000123 0.015161 0.001366 -0.003891 0.004479
# 4 -0.003830 0.002461 0.001366 0.050091 0.014732 0.032813
# 5 -0.007768 0.012707 -0.003891 0.014732 0.050830 0.042854
# 6 -0.025384 0.024601 0.004479 0.032813 0.042854 0.114377
#
#
# Mechanical properties :
#
#
# Convention : Reuss Voigt Hill
#
# Bulk Modulus (GPa) = 45.85581 61.56487 53.71034
# Shear Modulus (GPa) = 14.03497 27.60113 20.81805
#
# Velocity S-wave (km/s) = 2.65393 3.72175 3.23224
# Velocity P-wave (km/s) = 5.69240 7.02598 6.39405
#
# Compressibility (1/GPa) = 0.02180749
#
# Stress axis : x y z
#
# Youngs Moduli (GPa) = 21.42485 62.84916 65.95920
#
# Poissons Ratio (x) = 0.71168 1.08986
# Poissons Ratio (y) = 0.24261 0.00810
# Poissons Ratio (z) = 0.35401 0.00772
#
# Static dielectric constant tensor:
#      x y z
#    x 1.733420 0.000460 -0.015700 
#    y 0.000460 1.703580 -0.018120 
#    z -0.015700 -0.018120 1.725300 
# 
# From -- ./inp_files/335329.got.cif
#   From: 2010.05.17/outbox.cif.g08.bks.cpg/sg2_168_cif.got.tgz:335329.got - 2010.06.03 11:33:40.
