data_PCOD9005742
_publ_section_title
;
Structure prediction by ZEFSAII (Michael W. Deem and Ramdas Pophale) SiO2 
 PCOD9005742
Probable space group: P -1
;
_chemical_formula_sum "Si O2"
_cell_formula_units_Z 16
_cell_length_a 8.222693
_cell_length_b 12.209930
_cell_length_c 24.517566
_cell_angle_alpha 27.938801
_cell_angle_beta 47.452965
_cell_angle_gamma 63.303389
_cell_volume 767.456420
_symmetry_space_group_name_H-M "P -1"
_symmetry_group_IT_number 2
_symmetry_cell_setting 'triclinic'
loop_
_space_group_symop_operation_xyz
x,y,z
-x,-y,-z
loop_
_atom_site_type_symbol
_atom_site_label
_atom_site_fract_x
_atom_site_fract_y
_atom_site_fract_z
Si Si1 0.778410 0.647032 0.855177
Si Si2 0.267744 0.261243 0.778133
Si Si3 0.355189 0.622160 0.190232
Si Si4 0.493154 0.154257 0.517896
Si Si5 0.942247 0.211723 0.158672
Si Si6 0.797663 0.243391 0.949752
Si Si7 0.122552 0.990429 0.115342
Si Si8 0.171686 0.047887 0.526501
O O1 0.914339 0.760255 0.830296
O O2 0.500000 0.500000 0.000000
O O3 0.833155 0.421521 0.915251
O O4 0.892430 0.877089 0.683573
O O5 0.450008 0.559154 0.600348
O O6 0.112060 0.130575 0.817206
O O7 0.364416 0.058896 0.867594
O O8 0.062510 0.267388 0.862957
O O9 0.235341 0.779790 0.182548
O O10 0.231744 0.323399 0.365221
O O11 0.307909 0.666976 0.117769
O O12 0.648634 0.756636 0.072021
O O13 0.334433 0.102851 0.520792
O O14 0.338650 0.951372 0.688444
O O15 0.730922 0.112304 0.465198
O O16 0.036927 0.070745 0.154877
O O17 0.000000 0.500000 0.000000
#
# Coordination Sequence:
#
# PCOD9005742 Si02
#       8
#     2   2   2   2   2   2   2   2
#     4  11  23  42  61  90 123 163 201 249 311 365
#     4  10  21  38  64  92 120 161 203 256 294 362
#     4  10  22  39  64  91 124 163 196 259 302 364
#     4  10  22  39  65  93 121 162 207 256 301 360
#     4  11  23  42  64  88 123 166 206 252 304 362
#     4  10  21  38  63  92 122 154 208 245 306 360
#     4  10  22  39  59  93 125 159 208 240 311 365
#     4  10  22  41  63  92 124 157 212 250 306 366
#
# _framework density 20.848089000000002
#
# number of rings (size 3 to 8) (size 9 to 14) (size 15 to 20)
#    0.000    1.750    1.250    2.250    7.000    1.000 
#    6.750    1.250    0.000    0.000    0.000    0.000 
#    0.000    0.000    0.000    0.000    0.000    0.000 
#
# Total GULP energy -89342.200439 kJ/mol
# GULP energy per Si atom -5583.887527 kJ/mol
# Density = 2.080064 g / cm^3
# Si number density = 20.848089 Si / 1000 Ang^3
#
#
#
# Elastic Constant Matrix: (Units=GPa)
#
#
# Indices 1 2 3 4 5 6 
#
# 1 43.9648 30.6224 31.2711 5.6562 3.4931 7.8992
# 2 30.6224 157.5718 45.6445 -0.1419 7.9630 24.6680
# 3 31.2711 45.6445 187.9686 -5.6546 15.8898 -6.0403
# 4 5.6562 -0.1419 -5.6546 30.6794 -5.4950 -1.5955
# 5 3.4931 7.9630 15.8898 -5.4950 28.3990 -4.2498
# 6 7.8992 24.6680 -6.0403 -1.5955 -4.2498 16.2915
#
#
#
# Elastic Compliance Matrix: (Units=1/GPa)
#
#
# Indices 1 2 3 4 5 6 
#
# 1 0.032374 -0.001866 -0.005342 -0.008681 -0.004682 -0.016924
# 2 -0.001866 0.010232 -0.002414 -0.001659 -0.004112 -0.016718
# 3 -0.005342 -0.002414 0.007235 0.002618 -0.000867 0.008957
# 4 -0.008681 -0.001659 0.002618 0.037050 0.009294 0.013745
# 5 -0.004682 -0.004112 -0.000867 0.009294 0.042233 0.020102
# 6 -0.016924 -0.016718 0.008957 0.013745 0.020102 0.104812
#
#
# Mechanical properties :
#
#
# Convention : Reuss Voigt Hill
#
# Bulk Modulus (GPa) = 32.68240 67.17570 49.92905
# Shear Modulus (GPa) = 18.98418 33.87179 26.42798
#
# Velocity S-wave (km/s) = 3.02088 4.03512 3.56426
# Velocity P-wave (km/s) = 5.27997 7.34854 6.39841
#
# Compressibility (1/GPa) = 0.03059750
#
# Stress axis : x y z
#
# Youngs Moduli (GPa) = 30.88875 97.73701 138.22164
#
# Poissons Ratio (x) = 0.18236 0.73838
# Poissons Ratio (y) = 0.05763 0.33362
# Poissons Ratio (z) = 0.16501 0.23591
#
# Static dielectric constant tensor:
#      x y z
#    x 1.786360 0.002780 -0.016050 
#    y 0.002780 1.720060 -0.004360 
#    z -0.016050 -0.004360 1.803120 
# 
# From -- ./inp_files/607461.got.cif
#   From: 2010.05.17/outbox.cif.g08.bks.cpg/sg2_304_cif.got.tgz:607461.got - 2010.06.03 11:33:40.
