data_PCOD9005426
_publ_section_title
;
Structure prediction by ZEFSAII (Michael W. Deem and Ramdas Pophale) SiO2 
 PCOD9005426
Probable space group: P -1
;
_chemical_formula_sum "Si O2"
_cell_formula_units_Z 16
_cell_length_a 11.660432
_cell_length_b 11.046218
_cell_length_c 15.121360
_cell_angle_alpha 44.496038
_cell_angle_beta 117.062247
_cell_angle_gamma 144.270991
_cell_volume 759.604780
_symmetry_space_group_name_H-M "P -1"
_symmetry_group_IT_number 2
_symmetry_cell_setting 'triclinic'
loop_
_space_group_symop_operation_xyz
x,y,z
-x,-y,-z
loop_
_atom_site_type_symbol
_atom_site_label
_atom_site_fract_x
_atom_site_fract_y
_atom_site_fract_z
Si Si1 0.793265 0.448744 0.344409
Si Si2 0.483339 0.139164 0.991071
Si Si3 0.184632 0.016623 0.850434
Si Si4 0.628626 0.885079 0.569676
Si Si5 0.959157 0.295847 0.877859
Si Si6 0.771469 0.229034 0.142539
Si Si7 0.944756 0.777006 0.399612
Si Si8 0.538496 0.342267 0.568607
O O1 0.722865 0.176538 0.458379
O O2 0.913003 0.615130 0.390236
O O3 0.933724 0.631398 0.213992
O O4 0.580328 0.335314 0.330901
O O5 0.681540 0.315450 0.028248
O O6 0.282015 0.908852 0.102548
O O7 0.500000 0.000000 0.000000
O O8 0.417378 0.233688 0.858032
O O9 0.141070 0.798552 0.891238
O O10 0.138802 0.129241 0.715616
O O11 0.047766 0.868886 0.968071
O O12 0.819852 0.967043 0.621592
O O13 0.554533 0.778782 0.499151
O O14 0.078641 0.573174 0.826937
O O15 0.582451 0.914996 0.276451
O O16 0.782537 0.558204 0.533528
O O17 0.500000 0.500000 0.500000
#
# Coordination Sequence:
#
# PCOD9005426 Si02
#       8
#     2   2   2   2   2   2   2   2
#     4  10  22  41  62  85 118 159 214 249 284 359
#     4   8  20  36  59  89 114 161 193 237 298 352
#     4   9  21  40  55  92 124 151 197 248 299 358
#     4  10  23  43  60  88 120 162 205 246 300 355
#     4  10  21  38  62  88 117 158 202 251 282 365
#     4  11  19  39  62  87 125 156 199 240 303 359
#     4  11  23  41  61  88 126 162 192 256 304 344
#     4  11  23  39  62  95 126 152 196 251 303 365
#
# _framework density 21.063585
#
# number of rings (size 3 to 8) (size 9 to 14) (size 15 to 20)
#    0.750    1.250    2.500    0.750    1.750    2.000 
#    6.750    0.625    0.000    0.000    0.000    0.000 
#    0.000    0.000    0.000    0.000    0.000    0.000 
#
# Total GULP energy -89192.479832 kJ/mol
# GULP energy per Si atom -5574.529990 kJ/mol
# Density = 2.101564 g / cm^3
# Si number density = 21.063585 Si / 1000 Ang^3
#
#
#
# Elastic Constant Matrix: (Units=GPa)
#
#
# Indices 1 2 3 4 5 6 
#
# 1 81.7264 30.0412 22.2461 10.4146 -18.1666 14.4931
# 2 30.0412 79.1951 -5.3673 6.6217 -2.0414 21.9459
# 3 22.2461 -5.3673 52.8185 -1.8062 -16.8226 24.2964
# 4 10.4146 6.6217 -1.8062 19.4985 8.2339 0.3503
# 5 -18.1666 -2.0414 -16.8226 8.2339 53.6496 -3.1974
# 6 14.4931 21.9459 24.2964 0.3503 -3.1974 41.3343
#
#
#
# Elastic Compliance Matrix: (Units=1/GPa)
#
#
# Indices 1 2 3 4 5 6 
#
# 1 0.019692 -0.007953 -0.009289 -0.010989 0.005335 0.003284
# 2 -0.007953 0.021296 0.013475 -0.002163 0.001704 -0.016289
# 3 -0.009289 0.013475 0.038722 0.001156 0.007778 -0.026066
# 4 -0.010989 -0.002163 0.001156 0.063442 -0.013012 0.002778
# 5 0.005335 0.001704 0.007778 -0.013012 0.024629 -0.005332
# 6 0.003284 -0.016289 -0.026066 0.002778 -0.005332 0.046576
#
#
# Mechanical properties :
#
#
# Convention : Reuss Voigt Hill
#
# Bulk Modulus (GPa) = 13.85521 34.17557 24.01539
# Shear Modulus (GPa) = 20.32948 34.01781 27.17364
#
# Velocity S-wave (km/s) = 3.11005 4.02307 3.59566
# Velocity P-wave (km/s) = 4.41460 6.15145 5.35392
#
# Compressibility (1/GPa) = 0.07217504
#
# Stress axis : x y z
#
# Youngs Moduli (GPa) = 50.78273 46.95799 25.82526
#
# Poissons Ratio (x) = 0.37345 0.23990
# Poissons Ratio (y) = 0.40387 -0.34800
# Poissons Ratio (z) = 0.47173 -0.63276
#
# Static dielectric constant tensor:
#      x y z
#    x 1.760870 0.026890 0.014820 
#    y 0.026890 1.775140 -0.033720 
#    z 0.014820 -0.033720 1.794710 
# 
# From -- ./inp_files/518772.got.cif
#   From: 2010.05.17/outbox.cif.g08.bks.cpg/sg2_260_cif.got.tgz:518772.got - 2010.06.03 11:33:40.
