data_PCOD9005746
_publ_section_title
;
Structure prediction by ZEFSAII (Michael W. Deem and Ramdas Pophale) SiO2 
 PCOD9005746
Probable space group: P -1
;
_chemical_formula_sum "Si O2"
_cell_formula_units_Z 16
_cell_length_a 17.977629
_cell_length_b 22.315779
_cell_length_c 7.405226
_cell_angle_alpha 126.877641
_cell_angle_beta 131.539294
_cell_angle_gamma 16.142814
_cell_volume 608.474154
_symmetry_space_group_name_H-M "P -1"
_symmetry_group_IT_number 2
_symmetry_cell_setting 'triclinic'
loop_
_space_group_symop_operation_xyz
x,y,z
-x,-y,-z
loop_
_atom_site_type_symbol
_atom_site_label
_atom_site_fract_x
_atom_site_fract_y
_atom_site_fract_z
Si Si1 0.231799 0.847666 0.806256
Si Si2 0.379218 0.366855 0.669900
Si Si3 0.575425 0.596696 0.547817
Si Si4 0.165352 0.054137 0.020134
Si Si5 0.811392 0.285546 0.512902
Si Si6 0.403966 0.187269 0.273567
Si Si7 0.758399 0.627677 0.029805
Si Si8 0.251318 0.145525 0.499377
O O1 0.314523 0.780295 0.605380
O O2 0.065644 0.044260 0.918682
O O3 0.127587 0.840580 0.691103
O O4 0.533411 0.654496 0.043742
O O5 0.505591 0.332635 0.659610
O O6 0.516659 0.187761 0.529038
O O7 0.033904 0.601084 0.505672
O O8 0.769212 0.385600 0.496279
O O9 0.738163 0.558248 0.791748
O O10 0.513256 0.808769 0.112436
O O11 0.041129 0.143694 0.779440
O O12 0.105145 0.171959 0.240373
O O13 0.500000 0.500000 0.500000
O O14 0.336565 0.248320 0.061770
O O15 0.602999 0.980776 0.303302
O O16 0.079449 0.406443 0.222325
O O17 0.500000 0.000000 0.500000
#
# Coordination Sequence:
#
# PCOD9005746 Si02
#       8
#     2   2   2   2   2   2   2   2
#     4  10  21  42  66  87 127 167 208 266 316 371
#     4  11  23  43  64  93 130 169 208 259 313 371
#     4   9  21  39  64  89 124 162 207 262 310 369
#     4  11  22  39  64  90 123 170 211 252 323 374
#     4  10  21  38  63  92 123 161 213 265 313 374
#     4  10  22  43  60  92 131 161 210 255 310 373
#     4   9  21  40  65  85 124 171 200 261 312 369
#     4  12  26  36  63  97 126 166 209 254 312 379
#
# _framework density 26.295282
#
# number of rings (size 3 to 8) (size 9 to 14) (size 15 to 20)
#    0.000    1.750    1.250    2.625    7.000    1.500 
#    0.000    2.500    0.000    6.000    0.000    0.000 
#    0.000    0.000    0.000    0.000    0.000    0.000 
#
# Total GULP energy -89510.635359 kJ/mol
# GULP energy per Si atom -5594.414710 kJ/mol
# Density = 2.623543 g / cm^3
# Si number density = 26.295282 Si / 1000 Ang^3
#
#
#
# Elastic Constant Matrix: (Units=GPa)
#
#
# Indices 1 2 3 4 5 6 
#
# 1 103.2018 32.8511 9.6016 -3.5731 -1.6767 22.1240
# 2 32.8511 80.6987 2.7280 -5.9041 10.3650 22.3830
# 3 9.6016 2.7280 77.1799 -6.8586 7.3530 3.0670
# 4 -3.5731 -5.9041 -6.8586 40.1507 6.9967 8.4284
# 5 -1.6767 10.3650 7.3530 6.9967 36.4419 4.1602
# 6 22.1240 22.3830 3.0670 8.4284 4.1602 50.1196
#
#
#
# Elastic Compliance Matrix: (Units=1/GPa)
#
#
# Indices 1 2 3 4 5 6 
#
# 1 0.011951 -0.004047 -0.001360 0.000611 0.002278 -0.003677
# 2 -0.004047 0.016689 0.001057 0.004469 -0.005315 -0.006042
# 3 -0.001360 0.001057 0.013760 0.003221 -0.003649 -0.000952
# 4 0.000611 0.004469 0.003221 0.028741 -0.006641 -0.006744
# 5 0.002278 -0.005315 -0.003649 -0.006641 0.031054 0.000130
# 6 -0.003677 -0.006042 -0.000952 -0.006744 0.000130 0.025455
#
#
# Mechanical properties :
#
#
# Convention : Reuss Voigt Hill
#
# Bulk Modulus (GPa) = 29.67415 39.04909 34.36162
# Shear Modulus (GPa) = 33.87908 39.73576 36.80742
#
# Velocity S-wave (km/s) = 3.59334 3.89155 3.74541
# Velocity P-wave (km/s) = 5.34093 5.92239 5.63916
#
# Compressibility (1/GPa) = 0.03369936
#
# Stress axis : x y z
#
# Youngs Moduli (GPa) = 83.67548 59.92026 72.67255
#
# Poissons Ratio (x) = 0.24251 0.09886
# Poissons Ratio (y) = 0.33865 -0.07682
# Poissons Ratio (z) = 0.11383 -0.06334
#
# Static dielectric constant tensor:
#      x y z
#    x 2.108220 0.030110 -0.011550 
#    y 0.030110 2.097580 -0.027460 
#    z -0.011550 -0.027460 2.021640 
# 
# From -- ./inp_files/258347.got.cif
#   From: 2010.05.17/outbox.cif.g08.bks.cpg/sg2_130_cif.got.tgz:258347.got - 2010.06.03 11:33:40.
