data_PCOD9005836
_publ_section_title
;
Structure prediction by ZEFSAII (Michael W. Deem and Ramdas Pophale) SiO2 
 PCOD9005836
Probable space group: P -1
;
_chemical_formula_sum "Si O2"
_cell_formula_units_Z 16
_cell_length_a 11.743031
_cell_length_b 11.432443
_cell_length_c 8.907592
_cell_angle_alpha 73.962761
_cell_angle_beta 137.370640
_cell_angle_gamma 121.130472
_cell_volume 681.995360
_symmetry_space_group_name_H-M "P -1"
_symmetry_group_IT_number 2
_symmetry_cell_setting 'triclinic'
loop_
_space_group_symop_operation_xyz
x,y,z
-x,-y,-z
loop_
_atom_site_type_symbol
_atom_site_label
_atom_site_fract_x
_atom_site_fract_y
_atom_site_fract_z
Si Si1 0.189289 0.507388 0.494602
Si Si2 0.926350 0.907590 0.606705
Si Si3 0.439192 0.900684 0.830833
Si Si4 0.201672 0.961502 0.337808
Si Si5 0.790613 0.134843 0.938051
Si Si6 0.443657 0.737891 0.451226
Si Si7 0.244377 0.582786 0.856502
Si Si8 0.577362 0.630425 0.369806
O O1 0.321550 0.663546 0.505328
O O2 0.211638 0.500134 0.697613
O O3 0.281548 0.425767 0.527526
O O4 0.965712 0.458400 0.268305
O O5 0.947304 0.000720 0.740400
O O6 0.705504 0.796724 0.404404
O O7 0.000000 0.000000 0.500000
O O8 0.044228 0.829228 0.794423
O O9 0.359063 0.744663 0.863517
O O10 0.275890 0.904926 0.567256
O O11 0.628767 0.980208 0.884169
O O12 0.500000 0.000000 0.000000
O O13 0.380511 0.109187 0.409533
O O14 0.142451 0.867327 0.166896
O O15 0.694320 0.234388 0.805493
O O16 0.520680 0.641141 0.482860
O O17 0.382474 0.559383 0.111294
#
# Coordination Sequence:
#
# PCOD9005836 Si02
#       8
#     2   2   2   2   2   2   2   2
#     4  11  25  44  69  93 133 177 221 273 323 403
#     4  11  24  39  62  99 134 169 219 278 334 400
#     4  11  21  38  69  97 131 171 217 277 334 388
#     4  10  21  38  63  95 134 172 218 273 334 398
#     4  11  21  39  66  94 131 178 217 271 338 398
#     4  10  22  43  64  94 130 172 222 268 328 390
#     4  11  24  44  67 100 130 173 223 270 337 389
#     4  11  25  43  65  94 132 169 225 275 327 393
#
# _framework density 23.460571000000002
#
# number of rings (size 3 to 8) (size 9 to 14) (size 15 to 20)
#    0.000    1.250    0.000    7.875    5.250    0.500 
#    4.500    0.000    0.000    0.000    0.000    0.000 
#    0.000    0.000    0.000    0.000    0.000    0.000 
#
# Total GULP energy -89435.594885 kJ/mol
# GULP energy per Si atom -5589.724680 kJ/mol
# Density = 2.340717 g / cm^3
# Si number density = 23.460571 Si / 1000 Ang^3
#
#
#
# Elastic Constant Matrix: (Units=GPa)
#
#
# Indices 1 2 3 4 5 6 
#
# 1 140.3434 23.1408 24.8150 -5.6190 -1.6167 -0.8715
# 2 23.1408 33.2834 -11.9243 -1.8651 -5.6017 -9.8526
# 3 24.8150 -11.9243 76.3685 -11.1742 5.8558 -4.7889
# 4 -5.6190 -1.8651 -11.1742 22.4239 1.1721 0.7413
# 5 -1.6167 -5.6017 5.8558 1.1721 33.5026 -6.7432
# 6 -0.8715 -9.8526 -4.7889 0.7413 -6.7432 31.3657
#
#
#
# Elastic Compliance Matrix: (Units=1/GPa)
#
#
# Indices 1 2 3 4 5 6 
#
# 1 0.009516 -0.009666 -0.004852 -0.000660 -0.001035 -0.003720
# 2 -0.009666 0.048521 0.012155 0.006583 0.009039 0.018616
# 3 -0.004852 0.012155 0.018266 0.008718 -0.000458 0.006168
# 4 -0.000660 0.006583 0.008718 0.049356 -0.001815 0.001824
# 5 -0.001035 0.009039 -0.000458 -0.001815 0.033462 0.009977
# 6 -0.003720 0.018616 0.006168 0.001824 0.009977 0.040670
#
#
# Mechanical properties :
#
#
# Convention : Reuss Voigt Hill
#
# Bulk Modulus (GPa) = 13.97114 35.78425 24.87769
# Shear Modulus (GPa) = 21.89364 31.72268 26.80816
#
# Velocity S-wave (km/s) = 3.05816 3.68118 3.38404
# Velocity P-wave (km/s) = 4.29394 5.77530 5.08881
#
# Compressibility (1/GPa) = 0.07157612
#
# Stress axis : x y z
#
# Youngs Moduli (GPa) = 105.08964 20.60947 54.74576
#
# Poissons Ratio (x) = 0.19922 0.26562
# Poissons Ratio (y) = 1.01584 -0.66542
# Poissons Ratio (z) = 0.50988 -0.25050
#
# Static dielectric constant tensor:
#      x y z
#    x 1.920470 -0.028780 0.011520 
#    y -0.028780 1.914860 -0.016970 
#    z 0.011520 -0.016970 1.899490 
# 
# From -- ./inp_files/262426.got.cif
#   From: 2010.05.17/outbox.cif.g08.bks.cpg/sg2_132_cif.got.tgz:262426.got - 2010.06.03 11:33:40.
