data_PCOD9005840
_publ_section_title
;
Structure prediction by ZEFSAII (Michael W. Deem and Ramdas Pophale) SiO2 
 PCOD9005840
Probable space group: P -1
;
_chemical_formula_sum "Si O2"
_cell_formula_units_Z 16
_cell_length_a 11.653882
_cell_length_b 12.194703
_cell_length_c 8.314816
_cell_angle_alpha 62.136327
_cell_angle_beta 134.211752
_cell_angle_gamma 127.875091
_cell_volume 666.952551
_symmetry_space_group_name_H-M "P -1"
_symmetry_group_IT_number 2
_symmetry_cell_setting 'triclinic'
loop_
_space_group_symop_operation_xyz
x,y,z
-x,-y,-z
loop_
_atom_site_type_symbol
_atom_site_label
_atom_site_fract_x
_atom_site_fract_y
_atom_site_fract_z
Si Si1 0.176186 0.268582 0.667518
Si Si2 0.366143 0.334634 0.503971
Si Si3 0.423767 0.830800 0.024415
Si Si4 0.203589 0.768471 0.138064
Si Si5 0.577969 0.360775 0.095442
Si Si6 0.857280 0.975670 0.015318
Si Si7 0.940990 0.593750 0.270595
Si Si8 0.459713 0.227699 0.372687
O O1 0.198612 0.309979 0.472919
O O2 0.062481 0.298688 0.672609
O O3 0.384273 0.348303 0.874611
O O4 0.121456 0.107338 0.755330
O O5 0.500000 0.500000 0.500000
O O6 0.454607 0.241704 0.738443
O O7 0.339908 0.268969 0.346195
O O8 0.238414 0.754355 0.994821
O O9 0.399139 0.771372 0.860902
O O10 0.500000 0.000000 0.000000
O O11 0.404773 0.815690 0.373644
O O12 0.065046 0.648699 0.198472
O O13 0.144698 0.887577 0.018787
O O14 0.736717 0.497235 0.084138
O O15 0.587990 0.358334 0.299092
O O16 0.670551 0.883646 0.803783
O O17 0.000000 0.000000 0.000000
O O18 0.000000 0.500000 0.500000
#
# Coordination Sequence:
#
# PCOD9005840 Si02
#       8
#     2   2   2   2   2   2   2   2
#     4  10  22  41  65  86 128 162 210 253 309 368
#     4  10  21  38  63  96 120 157 209 259 304 368
#     4  10  22  41  63  92 124 162 212 258 305 371
#     4  11  22  40  63  92 128 162 204 257 312 370
#     4  10  21  40  66  90 120 171 207 252 311 368
#     4  11  22  41  62  93 121 164 209 255 306 365
#     4  12  23  38  61  93 131 157 205 261 309 367
#     4  10  21  39  67  90 120 164 209 254 308 376
#
# _framework density 23.989711
#
# number of rings (size 3 to 8) (size 9 to 14) (size 15 to 20)
#    0.000    1.500    2.500    3.750    1.750    4.500 
#    0.000    1.875    0.000    0.000    0.000    0.000 
#    0.000    0.000    0.000    0.000    0.000    0.000 
#
# Total GULP energy -89284.003869 kJ/mol
# GULP energy per Si atom -5580.250242 kJ/mol
# Density = 2.393511 g / cm^3
# Si number density = 23.989711 Si / 1000 Ang^3
#
#
#
# Elastic Constant Matrix: (Units=GPa)
#
#
# Indices 1 2 3 4 5 6 
#
# 1 178.1645 20.4709 17.7868 -7.1261 -27.0319 17.4408
# 2 20.4709 70.3789 15.0269 -30.8952 -4.2269 2.2570
# 3 17.7868 15.0269 27.7475 -16.6332 -2.3274 0.6985
# 4 -7.1261 -30.8952 -16.6332 29.2927 2.1018 -0.4864
# 5 -27.0319 -4.2269 -2.3274 2.1018 40.0935 -5.2327
# 6 17.4408 2.2570 0.6985 -0.4864 -5.2327 46.6073
#
#
#
# Elastic Compliance Matrix: (Units=1/GPa)
#
#
# Indices 1 2 3 4 5 6 
#
# 1 0.007093 -0.002473 -0.005360 -0.004259 0.004169 -0.002031
# 2 -0.002473 0.027686 0.005660 0.031818 -0.000111 -0.000181
# 3 -0.005360 0.005660 0.059324 0.038473 -0.001449 0.001081
# 4 -0.004259 0.031818 0.038473 0.088647 -0.001906 0.000187
# 5 0.004169 -0.000111 -0.001449 -0.001906 0.027963 0.001587
# 6 -0.002031 -0.000181 0.001081 0.000187 0.001587 0.022388
#
#
# Mechanical properties :
#
#
# Convention : Reuss Voigt Hill
#
# Bulk Modulus (GPa) = 11.14107 42.54002 26.84055
# Shear Modulus (GPa) = 18.70094 38.06581 28.38338
#
# Velocity S-wave (km/s) = 2.79505 3.98773 3.44342
# Velocity P-wave (km/s) = 3.88209 6.24290 5.19829
#
# Compressibility (1/GPa) = 0.08975796
#
# Stress axis : x y z
#
# Youngs Moduli (GPa) = 140.98608 36.11882 16.85667
#
# Poissons Ratio (x) = 0.08931 0.09035
# Poissons Ratio (y) = 0.34862 -0.09541
# Poissons Ratio (z) = 0.75564 -0.20443
#
# Static dielectric constant tensor:
#      x y z
#    x 2.038480 0.040170 -0.063810 
#    y 0.040170 1.991050 0.007250 
#    z -0.063810 0.007250 2.072240 
# 
# From -- ./inp_files/262196.got.cif
#   From: 2010.05.17/outbox.cif.g08.bks.cpg/sg2_132_cif.got.tgz:262196.got - 2010.06.03 11:33:40.
