data_PCOD9005789
_publ_section_title
;
Structure prediction by ZEFSAII (Michael W. Deem and Ramdas Pophale) SiO2 
 PCOD9005789
Probable space group: P -1
;
_chemical_formula_sum "Si O2"
_cell_formula_units_Z 15
_cell_length_a 22.496763
_cell_length_b 8.250824
_cell_length_c 5.697835
_cell_angle_alpha 56.158167
_cell_angle_beta 73.514007
_cell_angle_gamma 41.166478
_cell_volume 560.198776
_symmetry_space_group_name_H-M "P -1"
_symmetry_group_IT_number 2
_symmetry_cell_setting 'triclinic'
loop_
_space_group_symop_operation_xyz
x,y,z
-x,-y,-z
loop_
_atom_site_type_symbol
_atom_site_label
_atom_site_fract_x
_atom_site_fract_y
_atom_site_fract_z
Si Si1 0.214191 0.447768 0.498597
Si Si2 0.627815 0.171841 0.939355
Si Si3 0.283987 0.660943 0.058777
Si Si4 0.461509 0.019851 0.274957
Si Si5 0.500000 0.500000 0.500000
Si Si6 0.921416 0.696659 0.732962
Si Si7 0.023035 0.767360 0.330311
Si Si8 0.251299 0.038103 0.412343
O O1 0.221707 0.663033 0.285222
O O2 0.107627 0.632997 0.514710
O O3 0.232728 0.283354 0.367060
O O4 0.295997 0.169633 0.797975
O O5 0.656401 0.302949 0.925935
O O6 0.527129 0.328541 0.875124
O O7 0.644127 0.199977 0.617874
O O8 0.355074 0.339130 0.132832
O O9 0.233783 0.901465 0.719208
O O10 0.500000 0.000000 0.500000
O O11 0.476806 0.754755 0.466663
O O12 0.500000 0.000000 0.000000
O O13 0.943868 0.486839 0.671652
O O14 0.935260 0.882666 0.470268
O O15 0.820618 0.853494 0.799495
O O16 0.000000 0.500000 0.000000
O O17 0.000000 0.000000 0.000000
#
# Coordination Sequence:
#
# PCOD9005789 Si02
#       8
#     2   2   2   2   1   2   2   2
#     4  10  23  41  65  95 133 176 228 286 355 426
#     4  11  24  43  68  97 135 181 234 294 362 424
#     4  11  24  44  68  98 135 181 234 288 361 435
#     4  12  28  49  75 109 146 190 248 306 369 444
#     4  12  26  46  74 102 146 186 244 308 368 436
#     4  10  21  38  63  93 131 172 225 282 349 420
#     4  10  21  39  62  95 131 173 222 282 345 420
#     4  10  22  42  63  94 133 179 224 289 358 427
#
# _framework density 26.776209999999999
#
# number of rings (size 3 to 8) (size 9 to 14) (size 15 to 20)
#    0.000    1.333    1.333    3.200    1.867    6.400 
#    0.000    0.000    0.000    0.000    0.000    0.000 
#    0.000    0.000    0.000    0.000    0.000    0.000 
#
# Total GULP energy -83656.413738 kJ/mol
# GULP energy per Si atom -5577.094249 kJ/mol
# Density = 2.671527 g / cm^3
# Si number density = 26.776210 Si / 1000 Ang^3
#
#
#
# Elastic Constant Matrix: (Units=GPa)
#
#
# Indices 1 2 3 4 5 6 
#
# 1 159.5162 34.5867 77.3950 -1.7749 2.3994 14.3580
# 2 34.5867 69.9125 -5.1686 -2.9198 -10.9247 16.7252
# 3 77.3950 -5.1686 149.8854 -16.6103 -2.8111 11.0091
# 4 -1.7749 -2.9198 -16.6103 37.4022 5.2870 -11.7241
# 5 2.3994 -10.9247 -2.8111 5.2870 60.8411 -2.1964
# 6 14.3580 16.7252 11.0091 -11.7241 -2.1964 39.7091
#
#
#
# Elastic Compliance Matrix: (Units=1/GPa)
#
#
# Indices 1 2 3 4 5 6 
#
# 1 0.010399 -0.005793 -0.005836 -0.002500 -0.001522 -0.000524
# 2 -0.005793 0.019781 0.004312 0.000438 0.003685 -0.007099
# 3 -0.005836 0.004312 0.010407 0.004116 0.001080 -0.001316
# 4 -0.002500 0.000438 0.004116 0.031520 -0.002055 0.008771
# 5 -0.001522 0.003685 0.001080 -0.002055 0.017352 -0.000948
# 6 -0.000524 -0.007099 -0.001316 0.008771 -0.000948 0.031265
#
#
# Mechanical properties :
#
#
# Convention : Reuss Voigt Hill
#
# Bulk Modulus (GPa) = 38.53072 65.88225 52.20648
# Shear Modulus (GPa) = 34.72015 45.75723 40.23869
#
# Velocity S-wave (km/s) = 3.60485 4.13834 3.88077
# Velocity P-wave (km/s) = 5.63451 6.89149 6.29446
#
# Compressibility (1/GPa) = 0.02595332
#
# Stress axis : x y z
#
# Youngs Moduli (GPa) = 96.16317 50.55436 96.08644
#
# Poissons Ratio (x) = 0.29285 0.56080
# Poissons Ratio (y) = 0.55705 -0.41436
# Poissons Ratio (z) = 0.56125 -0.21801
#
# Static dielectric constant tensor:
#      x y z
#    x -0.461480 1.262890 -1.614680 
#    y 1.262890 1.418260 0.954970 
#    z -1.614680 0.954970 1.096950 
# 
# From -- ./inp_files/112484.got.cif
#   From: 2010.05.17/outbox.cif.g08.bks.cpg/sg2_57_cif.got.tgz:112484.got - 2010.06.03 11:33:40.
