data_PCOD9005072
_publ_section_title
;
Structure prediction by ZEFSAII (Michael W. Deem and Ramdas Pophale) SiO2 
 PCOD9005072
Probable space group: P -1
;
_chemical_formula_sum "Si O2"
_cell_formula_units_Z 16
_cell_length_a 10.234638
_cell_length_b 10.619041
_cell_length_c 16.429565
_cell_angle_alpha 149.516544
_cell_angle_beta 56.135016
_cell_angle_gamma 134.524616
_cell_volume 640.311923
_symmetry_space_group_name_H-M "P -1"
_symmetry_group_IT_number 2
_symmetry_cell_setting 'triclinic'
loop_
_space_group_symop_operation_xyz
x,y,z
-x,-y,-z
loop_
_atom_site_type_symbol
_atom_site_label
_atom_site_fract_x
_atom_site_fract_y
_atom_site_fract_z
Si Si1 0.764224 0.472061 0.188514
Si Si2 0.816742 0.854098 0.037990
Si Si3 0.159306 0.616183 0.137471
Si Si4 0.072013 0.562914 0.603267
Si Si5 0.315759 0.587821 0.293475
Si Si6 0.464594 0.977975 0.111562
Si Si7 0.666946 0.594766 0.628125
Si Si8 0.686845 0.945006 0.534381
O O1 0.676546 0.243689 0.169610
O O2 0.771720 0.775037 0.365551
O O3 0.959984 0.528198 0.121875
O O4 0.603221 0.283681 0.074453
O O5 0.851092 0.677570 0.996303
O O6 0.668192 0.617388 0.893910
O O7 0.796235 0.101061 0.227140
O O8 0.000000 0.000000 0.000000
O O9 0.361742 0.811276 0.135949
O O10 0.171739 0.808802 0.317565
O O11 0.173474 0.385873 0.472026
O O12 0.000000 0.500000 0.500000
O O13 0.890021 0.461700 0.661084
O O14 0.330390 0.489671 0.324620
O O15 0.410738 0.914250 0.406061
O O16 0.344950 0.124126 0.213533
O O17 0.478470 0.322707 0.508099
#
# Coordination Sequence:
#
# PCOD9005072 Si02
#       8
#     2   2   2   2   2   2   2   2
#     4  10  23  42  64  91 128 167 206 261 310 372
#     4   9  20  39  60  92 122 159 210 252 312 375
#     4  11  23  42  67  91 127 165 206 266 310 374
#     4   9  19  34  59  87 118 157 201 249 307 364
#     4   9  19  37  61  84 123 161 203 252 311 370
#     4  10  24  42  62  98 123 164 217 250 319 374
#     4  10  21  38  60  89 127 159 201 266 302 369
#     4  10  22  41  59  93 121 162 215 249 317 371
#
# _framework density 24.987822000000001
#
# number of rings (size 3 to 8) (size 9 to 14) (size 15 to 20)
#    0.000    2.250    0.000    1.125    7.000    4.000 
#    9.000    3.750    0.000    0.000    0.000    0.000 
#    0.000    0.000    0.000    0.000    0.000    0.000 
#
# Total GULP energy -89169.831414 kJ/mol
# GULP energy per Si atom -5573.114463 kJ/mol
# Density = 2.493095 g / cm^3
# Si number density = 24.987822 Si / 1000 Ang^3
#
#
#
# Elastic Constant Matrix: (Units=GPa)
#
#
# Indices 1 2 3 4 5 6 
#
# 1 39.5054 9.8006 7.6736 -4.3272 -6.0522 10.3931
# 2 9.8006 68.2843 27.4775 -4.9120 -2.8944 -8.5359
# 3 7.6736 27.4775 129.5410 -13.4810 -5.0525 -3.1399
# 4 -4.3272 -4.9120 -13.4810 26.1126 4.1549 -11.3039
# 5 -6.0522 -2.8944 -5.0525 4.1549 19.7860 -0.6939
# 6 10.3931 -8.5359 -3.1399 -11.3039 -0.6939 29.3020
#
#
#
# Elastic Compliance Matrix: (Units=1/GPa)
#
#
# Indices 1 2 3 4 5 6 
#
# 1 0.031676 -0.005832 -0.001062 -0.004047 0.008910 -0.014398
# 2 -0.005832 0.018045 -0.002773 0.004952 -0.000579 0.008925
# 3 -0.001062 -0.002773 0.008962 0.004881 0.000618 0.002427
# 4 -0.004047 0.004952 0.004881 0.052781 -0.009525 0.023537
# 5 0.008910 -0.000579 0.000618 -0.009525 0.055142 -0.005631
# 6 -0.014398 0.008925 0.002427 0.023537 -0.005631 0.051041
#
#
# Mechanical properties :
#
#
# Convention : Reuss Voigt Hill
#
# Bulk Modulus (GPa) = 25.41436 36.35933 30.88684
# Shear Modulus (GPa) = 19.99235 27.86539 23.92887
#
# Velocity S-wave (km/s) = 2.83164 3.34302 3.09790
# Velocity P-wave (km/s) = 4.56987 5.42987 5.01833
#
# Compressibility (1/GPa) = 0.03934783
#
# Stress axis : x y z
#
# Youngs Moduli (GPa) = 31.57002 55.41737 111.58768
#
# Poissons Ratio (x) = 0.32321 0.11849
# Poissons Ratio (y) = 0.18412 0.30944
# Poissons Ratio (z) = 0.03352 0.15367
#
# Static dielectric constant tensor:
#      x y z
#    x 2.110240 -0.021200 0.036810 
#    y -0.021200 2.106120 0.036590 
#    z 0.036810 0.036590 2.027110 
# 
# From -- ./inp_files/568987.got.cif
#   From: 2010.05.17/outbox.cif.g08.bks.cpg/sg2_285_cif.got.tgz:568987.got - 2010.06.03 11:33:40.
