data_PCOD9005114
_publ_section_title
;
Structure prediction by ZEFSAII (Michael W. Deem and Ramdas Pophale) SiO2 
 PCOD9005114
Probable space group: P -1
;
_chemical_formula_sum "Si O2"
_cell_formula_units_Z 16
_cell_length_a 10.394445
_cell_length_b 11.526225
_cell_length_c 8.599941
_cell_angle_alpha 102.405809
_cell_angle_beta 54.514912
_cell_angle_gamma 70.233373
_cell_volume 666.271927
_symmetry_space_group_name_H-M "P -1"
_symmetry_group_IT_number 2
_symmetry_cell_setting 'triclinic'
loop_
_space_group_symop_operation_xyz
x,y,z
-x,-y,-z
loop_
_atom_site_type_symbol
_atom_site_label
_atom_site_fract_x
_atom_site_fract_y
_atom_site_fract_z
Si Si1 0.030691 0.652468 0.692682
Si Si2 0.321035 0.325483 0.305750
Si Si3 0.178144 0.354060 0.909214
Si Si4 0.803787 0.275953 0.137666
Si Si5 0.529241 0.220773 0.463622
Si Si6 0.797584 0.916323 0.339027
Si Si7 0.626571 0.349958 0.960230
Si Si8 0.937879 0.802979 0.528414
O O1 0.185516 0.502366 0.454088
O O2 0.131981 0.642185 0.780848
O O3 0.966849 0.801496 0.693396
O O4 0.853062 0.654472 0.889097
O O5 0.425416 0.257651 0.379487
O O6 0.164743 0.284034 0.403212
O O7 0.500308 0.282134 0.050604
O O8 0.376427 0.333997 0.728887
O O9 0.205159 0.219461 0.754789
O O10 0.000000 0.500000 0.000000
O O11 0.699481 0.236994 0.318974
O O12 0.665273 0.367148 0.117925
O O13 0.994348 0.132931 0.887533
O O14 0.627723 0.060481 0.416858
O O15 0.804941 0.920747 0.522982
O O16 0.844294 0.264860 0.708210
O O17 0.500000 0.500000 0.000000
#
# Coordination Sequence:
#
# PCOD9005114 Si02
#       8
#     2   2   2   2   2   2   2   2
#     4  11  22  40  56  93 130 167 200 268 335 366
#     4  11  22  39  64  95 128 170 217 267 322 382
#     4  11  21  38  59  96 125 158 211 269 319 373
#     4   9  23  40  63  93 126 165 211 279 320 375
#     4  11  21  40  67  95 121 169 228 255 318 397
#     4  10  21  41  69  89 122 174 219 261 316 394
#     4  10  21  38  60  92 123 167 221 259 324 391
#     4  11  22  41  62  90 133 170 212 271 319 382
#
# _framework density 24.014219000000001
#
# number of rings (size 3 to 8) (size 9 to 14) (size 15 to 20)
#    0.000    1.500    3.750    1.125    0.000    2.000 
#    6.750    1.250    0.000    0.000    0.000    0.000 
#    0.000    0.000    0.000    0.000    0.000    0.000 
#
# Total GULP energy -89141.006767 kJ/mol
# GULP energy per Si atom -5571.312923 kJ/mol
# Density = 2.395956 g / cm^3
# Si number density = 24.014219 Si / 1000 Ang^3
#
#
#
# Elastic Constant Matrix: (Units=GPa)
#
#
# Indices 1 2 3 4 5 6 
#
# 1 64.4986 16.0653 18.9855 -2.0700 -23.2658 -9.2434
# 2 16.0653 129.8284 60.8771 -18.8631 -14.8439 -24.9609
# 3 18.9855 60.8771 112.1465 -40.5521 -32.0598 2.7311
# 4 -2.0700 -18.8631 -40.5521 47.3419 2.3110 -6.0007
# 5 -23.2658 -14.8439 -32.0598 2.3110 34.6816 -8.8039
# 6 -9.2434 -24.9609 2.7311 -6.0007 -8.8039 33.4239
#
#
#
# Elastic Compliance Matrix: (Units=1/GPa)
#
#
# Indices 1 2 3 4 5 6 
#
# 1 0.025247 0.001921 0.003202 0.005394 0.024300 0.015524
# 2 0.001921 0.013484 -0.006059 0.001640 0.004545 0.012588
# 3 0.003202 -0.006059 0.024181 0.017800 0.021549 0.003257
# 4 0.005394 0.001640 0.017800 0.037947 0.021750 0.013804
# 5 0.024300 0.004545 0.021549 0.021750 0.073583 0.031640
# 6 0.015524 0.012588 0.003257 0.013804 0.031640 0.054159
#
#
# Mechanical properties :
#
#
# Convention : Reuss Voigt Hill
#
# Bulk Modulus (GPa) = 16.38259 55.36992 35.87626
# Shear Modulus (GPa) = 19.93479 37.12586 28.53032
#
# Velocity S-wave (km/s) = 2.88431 3.93618 3.45056
# Velocity P-wave (km/s) = 4.23429 6.61553 5.55403
#
# Compressibility (1/GPa) = 0.06104040
#
# Stress axis : x y z
#
# Youngs Moduli (GPa) = 39.60945 74.16250 41.35487
#
# Poissons Ratio (x) = -0.14247 -0.13243
# Poissons Ratio (y) = -0.07609 0.25056
# Poissons Ratio (z) = -0.12684 0.44933
#
# Static dielectric constant tensor:
#      x y z
#    x 2.154770 0.043340 -0.053440 
#    y 0.043340 1.937480 -0.083680 
#    z -0.053440 -0.083680 2.002250 
# 
# From -- ./inp_files/262450.got.cif
#   From: 2010.05.17/outbox.cif.g08.bks.cpg/sg2_132_cif.got.tgz:262450.got - 2010.06.03 11:33:40.
