data_PCOD9005647
_publ_section_title
;
Structure prediction by ZEFSAII (Michael W. Deem and Ramdas Pophale) SiO2 
 PCOD9005647
Probable space group: P -1
;
_chemical_formula_sum "Si O2"
_cell_formula_units_Z 14
_cell_length_a 8.935190
_cell_length_b 7.250861
_cell_length_c 14.382776
_cell_angle_alpha 141.693000
_cell_angle_beta 64.950989
_cell_angle_gamma 100.405103
_cell_volume 503.853721
_symmetry_space_group_name_H-M "P -1"
_symmetry_group_IT_number 2
_symmetry_cell_setting 'triclinic'
loop_
_space_group_symop_operation_xyz
x,y,z
-x,-y,-z
loop_
_atom_site_type_symbol
_atom_site_label
_atom_site_fract_x
_atom_site_fract_y
_atom_site_fract_z
Si Si1 0.268448 0.572008 0.326350
Si Si2 0.218243 0.017285 0.220497
Si Si3 0.897983 0.811110 0.207826
Si Si4 0.384149 0.440864 0.856202
Si Si5 0.599709 0.616867 0.600055
Si Si6 0.015087 0.503918 0.747377
Si Si7 0.256322 0.865049 0.875546
O O1 0.415224 0.636716 0.248882
O O2 0.313879 0.645808 0.449389
O O3 0.081718 0.655312 0.363870
O O4 0.285438 0.207043 0.197122
O O5 0.021916 0.036600 0.256049
O O6 0.257006 0.195423 0.372067
O O7 0.323481 0.662382 0.047592
O O8 0.292843 0.166237 0.769989
O O9 0.913328 0.730755 0.281181
O O10 0.000000 0.500000 0.000000
O O11 0.294455 0.658649 0.878016
O O12 0.500000 0.500000 0.500000
O O13 0.441148 0.862276 0.789284
O O14 0.165032 0.670279 0.753308
O O15 0.869055 0.797180 0.944248
#
# Coordination Sequence:
#
# PCOD9005647 Si02
#       7
#     2   2   2   2   2   2   2
#     4   9  17  28  53  67  91 127 171 199 226 285
#     4   9  16  28  49  70  97 123 162 198 237 284
#     4   9  19  29  44  72 110 129 143 193 262 301
#     4   9  14  29  48  69  96 126 157 188 242 300
#     4   9  18  32  51  69  95 131 170 201 235 279
#     4  10  17  28  50  76 100 124 156 203 245 295
#     4   9  16  27  48  75  95 125 163 195 238 293
#
# _framework density 27.785841999999999
#
# number of rings (size 3 to 8) (size 9 to 14) (size 15 to 20)
#    0.857    2.000    1.429    1.286    2.000    0.000 
#    0.000    7.143    0.000    8.571    0.000    0.000 
#    0.000    0.000    0.000    0.000    0.000    0.000 
#
# Total GULP energy -78145.967464 kJ/mol
# GULP energy per Si atom -5581.854819 kJ/mol
# Density = 2.772260 g / cm^3
# Si number density = 27.785842 Si / 1000 Ang^3
#
#
#
# Elastic Constant Matrix: (Units=GPa)
#
#
# Indices 1 2 3 4 5 6 
#
# 1 196.3096 75.1294 55.7531 1.9181 37.7794 31.5766
# 2 75.1294 69.9344 20.4476 10.0736 10.8520 3.8552
# 3 55.7531 20.4476 102.7338 21.3252 45.0342 13.1889
# 4 1.9181 10.0736 21.3252 27.4871 2.0842 4.7414
# 5 37.7794 10.8520 45.0342 2.0842 65.5730 -1.5113
# 6 31.5766 3.8552 13.1889 4.7414 -1.5113 76.6326
#
#
#
# Elastic Compliance Matrix: (Units=1/GPa)
#
#
# Indices 1 2 3 4 5 6 
#
# 1 0.011962 -0.012162 -0.004072 0.007679 -0.002422 -0.004139
# 2 -0.012162 0.027978 0.002576 -0.012164 0.001085 0.003935
# 3 -0.004072 0.002576 0.019449 -0.014725 -0.010995 -0.001105
# 4 0.007679 -0.012164 -0.014725 0.051809 0.005983 -0.003106
# 5 -0.002422 0.001085 -0.010995 0.005983 0.023895 0.002937
# 6 -0.004139 0.003935 -0.001105 -0.003106 0.002937 0.014997
#
#
# Mechanical properties :
#
#
# Convention : Reuss Voigt Hill
#
# Bulk Modulus (GPa) = 31.17868 74.62645 52.90256
# Shear Modulus (GPa) = 26.58207 48.44837 37.51522
#
# Velocity S-wave (km/s) = 3.09637 4.18022 3.67843
# Velocity P-wave (km/s) = 4.90192 7.08625 6.09277
#
# Compressibility (1/GPa) = 0.03207320
#
# Stress axis : x y z
#
# Youngs Moduli (GPa) = 83.59975 35.74199 51.41624
#
# Poissons Ratio (x) = 0.43469 0.20936
# Poissons Ratio (y) = 1.01673 -0.13244
# Poissons Ratio (z) = 0.34041 -0.09207
#
# Static dielectric constant tensor:
#      x y z
#    x 2.138340 -0.043560 0.041290 
#    y -0.043560 2.224220 0.003280 
#    z 0.041290 0.003280 2.369150 
# 
# From -- ./inp_files/384163.got.cif
#   From: 2010.05.17/outbox.cif.g08.bks.cpg/sg2_193_cif.got.tgz:384163.got - 2010.06.03 11:33:40.
