data_PCOD9005949
_publ_section_title
;
Structure prediction by ZEFSAII (Michael W. Deem and Ramdas Pophale) SiO2 
 PCOD9005949
Probable space group: P -1
;
_chemical_formula_sum "Si O2"
_cell_formula_units_Z 16
_cell_length_a 11.422984
_cell_length_b 12.340388
_cell_length_c 8.918675
_cell_angle_alpha 49.671770
_cell_angle_beta 74.043843
_cell_angle_gamma 100.980447
_cell_volume 796.672401
_symmetry_space_group_name_H-M "P -1"
_symmetry_group_IT_number 2
_symmetry_cell_setting 'triclinic'
loop_
_space_group_symop_operation_xyz
x,y,z
-x,-y,-z
loop_
_atom_site_type_symbol
_atom_site_label
_atom_site_fract_x
_atom_site_fract_y
_atom_site_fract_z
Si Si1 0.831051 0.980631 0.370862
Si Si2 0.543849 0.393813 0.974793
Si Si3 0.224690 0.554214 0.374513
Si Si4 0.062311 0.719949 0.160446
Si Si5 0.506528 0.850357 0.552141
Si Si6 0.267554 0.082844 0.213907
Si Si7 0.054366 0.953035 0.170274
Si Si8 0.613542 0.143915 0.727141
O O1 0.667391 0.888848 0.463166
O O2 0.830349 0.983161 0.546975
O O3 0.899327 0.157921 0.103891
O O4 0.916153 0.889196 0.377322
O O5 0.582939 0.299720 0.170473
O O6 0.407785 0.250876 0.060910
O O7 0.500000 0.500000 0.000000
O O8 0.669389 0.477826 0.734691
O O9 0.144727 0.619739 0.233615
O O10 0.310129 0.697312 0.337220
O O11 0.103261 0.402182 0.645423
O O12 0.103188 0.831796 0.196223
O O13 0.454504 0.825257 0.423523
O O14 0.500000 0.000000 0.500000
O O15 0.182533 0.094049 0.092411
O O16 0.300053 0.938356 0.294485
O O17 0.000000 0.000000 0.000000
O O18 0.500000 0.000000 0.000000
#
# Coordination Sequence:
#
# PCOD9005949 Si02
#       8
#     2   2   2   2   2   2   2   2
#     4  10  21  38  64  89 130 161 217 268 319 391
#     4  11  25  44  66  99 139 171 213 282 340 385
#     4  11  23  40  64  90 135 170 214 268 330 389
#     4  10  22  40  60  92 126 176 213 259 330 387
#     4  11  21  40  70  99 121 175 224 272 326 389
#     4  11  22  40  68  95 123 172 224 266 329 383
#     4  10  22  39  63  90 128 168 215 263 319 391
#     4  12  21  39  68  97 123 163 234 279 309 391
#
# _framework density 20.083537
#
# number of rings (size 3 to 8) (size 9 to 14) (size 15 to 20)
#    0.000    1.250    5.000    1.875    5.250    0.000 
#    4.500    1.250    0.000    0.000    0.000    0.000 
#    0.000    0.000    0.000    0.000    0.000    0.000 
#
# Total GULP energy -89192.873866 kJ/mol
# GULP energy per Si atom -5574.554617 kJ/mol
# Density = 2.003783 g / cm^3
# Si number density = 20.083537 Si / 1000 Ang^3
#
#
#
# Elastic Constant Matrix: (Units=GPa)
#
#
# Indices 1 2 3 4 5 6 
#
# 1 65.8204 22.8542 4.7760 12.3840 -4.5599 13.6311
# 2 22.8542 103.7188 28.0717 13.8609 -10.6459 11.5374
# 3 4.7760 28.0717 94.2991 11.0912 -12.4113 17.6407
# 4 12.3840 13.8609 11.0912 30.1279 -5.5512 -6.0130
# 5 -4.5599 -10.6459 -12.4113 -5.5512 29.7230 9.1365
# 6 13.6311 11.5374 17.6407 -6.0130 9.1365 50.4867
#
#
#
# Elastic Compliance Matrix: (Units=1/GPa)
#
#
# Indices 1 2 3 4 5 6 
#
# 1 0.019254 -0.002648 0.002643 -0.008415 0.003750 -0.007198
# 2 -0.002648 0.011818 -0.002190 -0.003433 0.002935 -0.002161
# 3 0.002643 -0.002190 0.013905 -0.005368 0.006545 -0.006896
# 4 -0.008415 -0.003433 -0.005368 0.042203 0.000062 0.009947
# 5 0.003750 0.002935 0.006545 0.000062 0.041544 -0.011481
# 6 -0.007198 -0.002161 -0.006896 0.009947 -0.011481 0.027916
#
#
# Mechanical properties :
#
#
# Convention : Reuss Voigt Hill
#
# Bulk Modulus (GPa) = 24.63777 41.69356 33.16566
# Shear Modulus (GPa) = 28.64357 35.94327 32.29342
#
# Velocity S-wave (km/s) = 3.78063 4.23506 4.01428
# Velocity P-wave (km/s) = 5.59927 6.68726 6.16730
#
# Compressibility (1/GPa) = 0.04058809
#
# Stress axis : x y z
#
# Youngs Moduli (GPa) = 51.93712 84.61696 71.91519
#
# Poissons Ratio (x) = 0.22405 -0.19006
# Poissons Ratio (y) = 0.13752 0.15747
# Poissons Ratio (z) = -0.13726 0.18528
#
# Static dielectric constant tensor:
#      x y z
#    x 1.786420 -0.026220 0.008300 
#    y -0.026220 1.698240 -0.037760 
#    z 0.008300 -0.037760 1.722810 
# 
# From -- ./inp_files/209267.got.cif
#   From: 2010.05.17/outbox.cif.g08.bks.cpg/sg2_105_cif.got.tgz:209267.got - 2010.06.03 11:33:40.
