data_PCOD9005543
_publ_section_title
;
Structure prediction by ZEFSAII (Michael W. Deem and Ramdas Pophale) SiO2 
 PCOD9005543
Probable space group: P -1
;
_chemical_formula_sum "Si O2"
_cell_formula_units_Z 16
_cell_length_a 10.647561
_cell_length_b 15.132185
_cell_length_c 5.017415
_cell_angle_alpha 83.935726
_cell_angle_beta 80.929215
_cell_angle_gamma 124.302767
_cell_volume 640.434976
_symmetry_space_group_name_H-M "P -1"
_symmetry_group_IT_number 2
_symmetry_cell_setting 'triclinic'
loop_
_space_group_symop_operation_xyz
x,y,z
-x,-y,-z
loop_
_atom_site_type_symbol
_atom_site_label
_atom_site_fract_x
_atom_site_fract_y
_atom_site_fract_z
Si Si1 0.199072 0.126583 0.152948
Si Si2 0.865449 0.728522 0.472101
Si Si3 0.160594 0.987232 0.686294
Si Si4 0.293189 0.626720 0.784271
Si Si5 0.819621 0.166251 0.941807
Si Si6 0.894696 0.622971 0.017770
Si Si7 0.396922 0.256548 0.626016
Si Si8 0.358889 0.762195 0.256800
O O1 0.028626 0.100112 0.271365
O O2 0.234412 0.066107 0.380331
O O3 0.333535 0.246805 0.949965
O O4 0.170812 0.059107 0.908148
O O5 0.870158 0.670572 0.748397
O O6 0.746385 0.762555 0.495882
O O7 0.044297 0.824757 0.284438
O O8 0.809019 0.639213 0.282963
O O9 0.225632 0.920395 0.785340
O O10 0.444556 0.639056 0.593107
O O11 0.241719 0.670449 0.544169
O O12 0.165373 0.501165 0.943748
O O13 0.350609 0.703735 0.001869
O O14 0.682806 0.154422 0.822840
O O15 0.922342 0.290226 0.987427
O O16 0.475250 0.189684 0.668497
#
# Coordination Sequence:
#
# PCOD9005543 Si02
#       8
#     2   2   2   2   2   2   2   2
#     4  10  21  38  62  93 118 153 199 252 304 362
#     4  10  23  37  65  89 121 159 202 259 304 345
#     4  10  22  36  64  92 118 151 203 251 305 353
#     4  10  24  41  60  91 123 170 202 246 303 369
#     4  10  24  42  63  92 127 156 208 256 301 354
#     4  10  23  38  63  93 121 159 210 256 300 350
#     4  10  24  42  64  88 131 159 202 248 314 361
#     4  10  25  40  63  85 130 167 201 242 309 366
#
# _framework density 24.983021999999998
#
# number of rings (size 3 to 8) (size 9 to 14) (size 15 to 20)
#    1.500    0.500    1.250    0.750    7.000    3.000 
#    0.000    1.250    0.000    0.000    0.000    0.000 
#    0.000    0.000    0.000    0.000    0.000    0.000 
#
# Total GULP energy -89196.690210 kJ/mol
# GULP energy per Si atom -5574.793138 kJ/mol
# Density = 2.492616 g / cm^3
# Si number density = 24.983022 Si / 1000 Ang^3
#
#
#
# Elastic Constant Matrix: (Units=GPa)
#
#
# Indices 1 2 3 4 5 6 
#
# 1 115.1943 6.0389 27.9068 -10.0526 31.1928 -15.7531
# 2 6.0389 37.8724 13.3814 -7.0281 -4.8511 -0.5667
# 3 27.9068 13.3814 180.7388 -2.3805 18.4338 0.4299
# 4 -10.0526 -7.0281 -2.3805 31.7026 -8.6482 2.9011
# 5 31.1928 -4.8511 18.4338 -8.6482 52.1163 -3.5538
# 6 -15.7531 -0.5667 0.4299 2.9011 -3.5538 11.8022
#
#
#
# Elastic Compliance Matrix: (Units=1/GPa)
#
#
# Indices 1 2 3 4 5 6 
#
# 1 0.012934 -0.002154 -0.001215 0.000395 -0.006412 0.015177
# 2 -0.002154 0.029738 -0.002384 0.007508 0.006052 -0.001384
# 3 -0.001215 -0.002384 0.006090 -0.000770 -0.001937 -0.002352
# 4 0.000395 0.007508 -0.000770 0.035516 0.006223 -0.005941
# 5 -0.006412 0.006052 -0.001937 0.006223 0.025160 -0.002151
# 6 0.015177 -0.001384 -0.002352 -0.005941 -0.002151 0.105820
#
#
# Mechanical properties :
#
#
# Convention : Reuss Voigt Hill
#
# Bulk Modulus (GPa) = 26.84102 47.60664 37.22383
# Shear Modulus (GPa) = 20.90438 38.22277 29.56357
#
# Velocity S-wave (km/s) = 2.89579 3.91570 3.44371
# Velocity P-wave (km/s) = 4.68485 6.28813 5.54475
#
# Compressibility (1/GPa) = 0.03725640
#
# Stress axis : x y z
#
# Youngs Moduli (GPa) = 77.31306 33.62676 164.20571
#
# Poissons Ratio (x) = 0.07244 0.19944
# Poissons Ratio (y) = 0.16656 0.39150
# Poissons Ratio (z) = 0.09390 0.08017
#
# Static dielectric constant tensor:
#      x y z
#    x 2.044210 0.020010 -0.051400 
#    y 0.020010 2.141250 0.096290 
#    z -0.051400 0.096290 2.071490 
# 
# From -- ./inp_files/75779.got.cif
#   From: 2010.05.17/outbox.cif.g08.bks.cpg/sg2_38_cif.got.tgz:75779.got - 2010.06.03 11:33:40.
