data_PCOD9005969
_publ_section_title
;
Structure prediction by ZEFSAII (Michael W. Deem and Ramdas Pophale) SiO2 
 PCOD9005969
Probable space group: P -1
;
_chemical_formula_sum "Si O2"
_cell_formula_units_Z 14
_cell_length_a 8.080566
_cell_length_b 9.452478
_cell_length_c 8.208362
_cell_angle_alpha 102.457445
_cell_angle_beta 109.663398
_cell_angle_gamma 79.425717
_cell_volume 572.294579
_symmetry_space_group_name_H-M "P -1"
_symmetry_group_IT_number 2
_symmetry_cell_setting 'triclinic'
loop_
_space_group_symop_operation_xyz
x,y,z
-x,-y,-z
loop_
_atom_site_type_symbol
_atom_site_label
_atom_site_fract_x
_atom_site_fract_y
_atom_site_fract_z
Si Si1 0.489964 0.560025 0.328772
Si Si2 0.607110 0.269234 0.154982
Si Si3 0.958323 0.155541 0.432842
Si Si4 0.463521 0.162459 0.756283
Si Si5 0.894896 0.299824 0.775497
Si Si6 0.787226 0.983447 0.765238
Si Si7 0.766085 0.807035 0.012359
O O1 0.500000 0.500000 0.500000
O O2 0.599516 0.441407 0.220472
O O3 0.563195 0.713586 0.357104
O O4 0.280255 0.590547 0.229561
O O5 0.770532 0.184610 0.283625
O O6 0.594284 0.223562 0.951602
O O7 0.410687 0.238834 0.139842
O O8 0.944648 0.281406 0.596361
O O9 0.000000 0.000000 0.500000
O O10 0.113643 0.141727 0.346897
O O11 0.574388 0.017129 0.692144
O O12 0.299405 0.142562 0.814529
O O13 0.849034 0.137217 0.769096
O O14 0.070445 0.316203 0.939482
O O15 0.823290 0.933864 0.950373
#
# Coordination Sequence:
#
# PCOD9005969 Si02
#       7
#     2   2   2   2   2   2   2
#     4  11  21  43  68  87 121 167 207 250 308 372
#     4  10  23  41  63  90 124 161 207 253 307 356
#     4  10  22  38  60  93 123 161 204 248 305 370
#     4   9  23  39  63  92 121 161 209 252 305 358
#     4  10  22  40  63  92 123 164 207 249 305 366
#     4  10  21  38  64  90 125 164 201 247 309 371
#     4  10  23  39  61  96 126 155 204 261 304 359
#
# _framework density 24.462926
#
# number of rings (size 3 to 8) (size 9 to 14) (size 15 to 20)
#    0.857    1.143    1.429    1.286    8.000    0.571 
#    2.571    4.286    0.000    0.000    0.000    0.000 
#    0.000    0.000    0.000    0.000    0.000    0.000 
#
# Total GULP energy -78126.263471 kJ/mol
# GULP energy per Si atom -5580.447391 kJ/mol
# Density = 2.440725 g / cm^3
# Si number density = 24.462926 Si / 1000 Ang^3
#
#
#
# Elastic Constant Matrix: (Units=GPa)
#
#
# Indices 1 2 3 4 5 6 
#
# 1 106.6544 44.2127 46.7983 -19.9221 -10.3179 -25.5443
# 2 44.2127 91.5626 41.8107 -22.5933 8.1161 -28.0369
# 3 46.7983 41.8107 114.2776 -29.9199 3.0964 -6.4783
# 4 -19.9221 -22.5933 -29.9199 36.7286 -4.3664 1.8907
# 5 -10.3179 8.1161 3.0964 -4.3664 46.3225 -7.6015
# 6 -25.5443 -28.0369 -6.4783 1.8907 -7.6015 39.0466
#
#
#
# Elastic Compliance Matrix: (Units=1/GPa)
#
#
# Indices 1 2 3 4 5 6 
#
# 1 0.015624 -0.002613 -0.004127 0.003772 0.005988 0.008643
# 2 -0.002613 0.018741 -0.003414 0.006632 -0.001271 0.010612
# 3 -0.004127 -0.003414 0.013217 0.006469 -0.001169 -0.003499
# 4 0.003772 0.006632 0.006469 0.038736 0.004082 0.007223
# 5 0.005988 -0.001271 -0.001169 0.004082 0.024829 0.007447
# 6 0.008643 0.010612 -0.003499 0.007223 0.007447 0.039404
#
#
# Mechanical properties :
#
#
# Convention : Reuss Voigt Hill
#
# Bulk Modulus (GPa) = 36.66543 64.23756 50.45150
# Shear Modulus (GPa) = 27.78530 36.39773 32.09152
#
# Velocity S-wave (km/s) = 3.37384 3.86148 3.62587
# Velocity P-wave (km/s) = 5.49525 6.79688 6.18042
#
# Compressibility (1/GPa) = 0.02727364
#
# Stress axis : x y z
#
# Youngs Moduli (GPa) = 64.00331 53.35869 75.66138
#
# Poissons Ratio (x) = 0.13944 0.31224
# Poissons Ratio (y) = 0.16726 0.25831
# Poissons Ratio (z) = 0.26413 0.18217
#
# Static dielectric constant tensor:
#      x y z
#    x 2.033820 0.014370 0.025240 
#    y 0.014370 1.929090 0.037470 
#    z 0.025240 0.037470 1.983970 
# 
# From -- ./inp_files/179319.got.cif
#   From: 2010.05.17/outbox.cif.g08.bks.cpg/sg2_90_cif.got.tgz:179319.got - 2010.06.03 11:33:40.
