data_PCOD9005005
_publ_section_title
;
Structure prediction by ZEFSAII (Michael W. Deem and Ramdas Pophale) SiO2 
 PCOD9005005
Probable space group: P -1
;
_chemical_formula_sum "Si O2"
_cell_formula_units_Z 16
_cell_length_a 14.127886
_cell_length_b 13.706235
_cell_length_c 13.789768
_cell_angle_alpha 39.386146
_cell_angle_beta 152.445072
_cell_angle_gamma 146.486855
_cell_volume 676.055728
_symmetry_space_group_name_H-M "P -1"
_symmetry_group_IT_number 2
_symmetry_cell_setting 'triclinic'
loop_
_space_group_symop_operation_xyz
x,y,z
-x,-y,-z
loop_
_atom_site_type_symbol
_atom_site_label
_atom_site_fract_x
_atom_site_fract_y
_atom_site_fract_z
Si Si1 0.115884 0.321429 0.218593
Si Si2 0.503308 0.670971 0.574786
Si Si3 0.274497 0.318647 0.759876
Si Si4 0.100615 0.164158 0.040455
Si Si5 0.032918 0.468479 0.212622
Si Si6 0.781872 0.506910 0.243859
Si Si7 0.719401 0.034603 0.964920
Si Si8 0.753270 0.207107 0.332683
O O1 0.315868 0.289303 0.379615
O O2 0.140005 0.380574 0.305523
O O3 0.854774 0.153888 0.088423
O O4 0.113935 0.472855 0.033570
O O5 0.398869 0.469101 0.676088
O O6 0.658486 0.790424 0.716046
O O7 0.253359 0.640558 0.331270
O O8 0.338318 0.433951 0.828275
O O9 0.330291 0.164591 0.909234
O O10 0.986792 0.215225 0.580859
O O11 0.136029 0.339957 0.881275
O O12 0.903949 0.108345 0.987538
O O13 0.000000 0.000000 0.000000
O O14 0.863618 0.331317 0.243602
O O15 0.661558 0.309331 0.240880
O O16 0.000000 0.500000 0.500000
O O17 0.457010 0.989023 0.731847
#
# Coordination Sequence:
#
# PCOD9005005 Si02
#       8
#     2   2   2   2   2   2   2   2
#     4  10  22  39  64  91 122 156 210 264 317 366
#     4  10  22  39  65  87 122 165 210 250 311 380
#     4  10  21  38  60  86 123 166 204 252 300 375
#     4  11  22  37  60  93 126 161 206 258 311 358
#     4  10  21  43  64  87 119 166 210 259 309 377
#     4  10  21  40  60  86 124 172 208 241 304 379
#     4  11  22  37  59  91 127 155 198 264 313 357
#     4  10  22  38  60  88 123 163 211 243 308 377
#
# _framework density 23.666688000000001
#
# number of rings (size 3 to 8) (size 9 to 14) (size 15 to 20)
#    0.000    1.750    1.250    3.375    1.750    3.500 
#    0.000    5.000    0.000    0.000    0.000    0.000 
#    0.000    0.000    0.000    0.000    0.000    0.000 
#
# Total GULP energy -89371.540724 kJ/mol
# GULP energy per Si atom -5585.721295 kJ/mol
# Density = 2.361282 g / cm^3
# Si number density = 23.666688 Si / 1000 Ang^3
#
#
#
# Elastic Constant Matrix: (Units=GPa)
#
#
# Indices 1 2 3 4 5 6 
#
# 1 72.9935 18.9415 26.7949 11.6653 -3.0990 -14.7365
# 2 18.9415 100.6209 11.0070 39.0794 -8.2571 -7.6301
# 3 26.7949 11.0070 63.3782 29.8747 -4.9531 -7.3889
# 4 11.6653 39.0794 29.8747 46.9918 -3.2679 4.2250
# 5 -3.0990 -8.2571 -4.9531 -3.2679 30.4090 5.8783
# 6 -14.7365 -7.6301 -7.3889 4.2250 5.8783 34.2464
#
#
#
# Elastic Compliance Matrix: (Units=1/GPa)
#
#
# Indices 1 2 3 4 5 6 
#
# 1 0.017971 -0.003246 -0.007746 0.002624 -0.001033 0.005192
# 2 -0.003246 0.018188 0.008754 -0.020300 0.002575 0.006607
# 3 -0.007746 0.008754 0.030595 -0.025362 0.002308 0.007951
# 4 0.002624 -0.020300 -0.025362 0.055003 -0.000454 -0.015574
# 5 -0.001033 0.002575 0.002308 -0.000454 0.034830 -0.005295
# 6 0.005192 0.006607 0.007951 -0.015574 -0.005295 0.037452
#
#
# Mechanical properties :
#
#
# Convention : Reuss Voigt Hill
#
# Bulk Modulus (GPa) = 16.05710 38.94216 27.49963
# Shear Modulus (GPa) = 22.80244 34.34607 28.57426
#
# Velocity S-wave (km/s) = 3.10737 3.81365 3.47848
# Velocity P-wave (km/s) = 4.43551 5.99016 5.27047
#
# Compressibility (1/GPa) = 0.06227774
#
# Stress axis : x y z
#
# Youngs Moduli (GPa) = 55.64636 54.98048 32.68481
#
# Poissons Ratio (x) = 0.17846 0.25319
# Poissons Ratio (y) = 0.18062 -0.28612
# Poissons Ratio (z) = 0.43105 -0.48129
#
# Static dielectric constant tensor:
#      x y z
#    x 1.851970 -0.040560 -0.012740 
#    y -0.040560 1.902280 0.012690 
#    z -0.012740 0.012690 2.080470 
# 
# From -- ./inp_files/534291.got.cif
#   From: 2010.05.17/outbox.cif.g08.bks.cpg/sg2_268_cif.got.tgz:534291.got - 2010.06.03 11:33:40.
