data_PCOD9005637
_publ_section_title
;
Structure prediction by ZEFSAII (Michael W. Deem and Ramdas Pophale) SiO2 
 PCOD9005637
Probable space group: P -1
;
_chemical_formula_sum "Si O2"
_cell_formula_units_Z 16
_cell_length_a 29.349705
_cell_length_b 15.344099
_cell_length_c 18.721662
_cell_angle_alpha 160.515548
_cell_angle_beta 19.076493
_cell_angle_gamma 161.142107
_cell_volume 791.774996
_symmetry_space_group_name_H-M "P -1"
_symmetry_group_IT_number 2
_symmetry_cell_setting 'triclinic'
loop_
_space_group_symop_operation_xyz
x,y,z
-x,-y,-z
loop_
_atom_site_type_symbol
_atom_site_label
_atom_site_fract_x
_atom_site_fract_y
_atom_site_fract_z
Si Si1 0.085405 0.949731 0.053751
Si Si2 0.671788 0.289388 0.490305
Si Si3 0.931741 0.146825 0.160106
Si Si4 0.275881 0.666830 0.040497
Si Si5 0.524446 0.624116 0.728669
Si Si6 0.276019 0.577623 0.810362
Si Si7 0.703815 0.383797 0.684890
Si Si8 0.392523 0.247924 0.132540
O O1 0.189860 0.790255 0.792135
O O2 0.097505 0.998972 0.987862
O O3 0.899061 0.717909 0.169589
O O4 0.166264 0.270007 0.220490
O O5 0.674100 0.347688 0.616385
O O6 0.689741 0.576025 0.642673
O O7 0.500000 0.000000 0.500000
O O8 0.779094 0.173101 0.430572
O O9 0.083081 0.489864 0.191708
O O10 0.000000 0.000000 0.000000
O O11 0.355620 0.026779 0.204008
O O12 0.351369 0.556412 0.904544
O O13 0.321206 0.591588 0.837788
O O14 0.591071 0.431681 0.443030
O O15 0.536287 0.616281 0.789974
O O16 0.276099 0.887700 0.035441
O O17 0.541082 0.302169 0.904343
#
# Coordination Sequence:
#
# PCOD9005637 Si02
#       8
#     2   2   2   2   2   2   2   2
#     4  10  23  43  64  91 124 168 201 253 318 361
#     4  11  24  43  68  89 126 159 205 262 315 364
#     4  10  23  38  61  92 129 158 206 256 302 364
#     4   9  20  39  57  89 122 169 201 246 311 360
#     4  10  21  38  63  85 128 160 210 253 298 362
#     4  10  22  40  62  90 126 162 205 253 307 363
#     4  11  24  42  65  91 126 161 208 251 316 374
#     4  11  25  38  64  97 118 161 217 252 303 369
#
# _framework density 20.207761999999999
#
# number of rings (size 3 to 8) (size 9 to 14) (size 15 to 20)
#    0.000    1.750    1.250    1.500    5.250    2.000 
#    4.500    1.250    0.000    0.000    0.000    0.000 
#    0.000    0.000    0.000    0.000    0.000    0.000 
#
# Total GULP energy -89436.524799 kJ/mol
# GULP energy per Si atom -5589.782800 kJ/mol
# Density = 2.016177 g / cm^3
# Si number density = 20.207762 Si / 1000 Ang^3
#
#
#
# Elastic Constant Matrix: (Units=GPa)
#
#
# Indices 1 2 3 4 5 6 
#
# 1 108.7108 18.1860 60.9682 14.4340 -22.5412 6.4070
# 2 18.1860 61.4187 2.3710 12.3398 5.7093 16.7220
# 3 60.9682 2.3710 97.1536 3.9515 -6.8642 1.3644
# 4 14.4340 12.3398 3.9515 25.9520 -1.7619 1.3486
# 5 -22.5412 5.7093 -6.8642 -1.7619 28.4545 3.7866
# 6 6.4070 16.7220 1.3644 1.3486 3.7866 27.4815
#
#
#
# Elastic Compliance Matrix: (Units=1/GPa)
#
#
# Indices 1 2 3 4 5 6 
#
# 1 0.020342 -0.004908 -0.011341 -0.006129 0.014366 -0.002872
# 2 -0.004908 0.023185 0.002539 -0.008540 -0.006896 -0.011720
# 3 -0.011341 0.002539 0.016867 0.002118 -0.005414 0.000904
# 4 -0.006129 -0.008540 0.002118 0.045427 -0.000396 0.004346
# 5 0.014366 -0.006896 -0.005414 -0.000396 0.047294 -0.005381
# 6 -0.002872 -0.011720 0.000904 0.004346 -0.005381 0.044672
#
#
# Mechanical properties :
#
#
# Convention : Reuss Voigt Hill
#
# Bulk Modulus (GPa) = 30.32767 47.81484 39.07125
# Shear Modulus (GPa) = 21.16873 28.76146 24.96509
#
# Velocity S-wave (km/s) = 3.24011 3.77674 3.51867
# Velocity P-wave (km/s) = 5.38871 6.53692 5.99039
#
# Compressibility (1/GPa) = 0.03297319
#
# Stress axis : x y z
#
# Youngs Moduli (GPa) = 49.15960 43.13205 59.28845
#
# Poissons Ratio (x) = 0.21167 0.67239
# Poissons Ratio (y) = 0.24125 -0.15051
# Poissons Ratio (z) = 0.55752 -0.10949
#
# Static dielectric constant tensor:
#      x y z
#    x 1.691860 -0.009220 -0.007670 
#    y -0.009220 1.728170 0.009080 
#    z -0.007670 0.009080 1.687390 
# 
# From -- ./inp_files/85007.got.cif
#   From: 2010.05.17/outbox.cif.g08.bks.cpg/sg2_43_cif.got.tgz:85007.got - 2010.06.03 11:33:40.
