data_PCOD9005539
_publ_section_title
;
Structure prediction by ZEFSAII (Michael W. Deem and Ramdas Pophale) SiO2 
 PCOD9005539
Probable space group: P -1
;
_chemical_formula_sum "Si O2"
_cell_formula_units_Z 16
_cell_length_a 5.003893
_cell_length_b 23.773615
_cell_length_c 11.763979
_cell_angle_alpha 30.343318
_cell_angle_beta 97.508619
_cell_angle_gamma 99.381925
_cell_volume 697.377249
_symmetry_space_group_name_H-M "P -1"
_symmetry_group_IT_number 2
_symmetry_cell_setting 'triclinic'
loop_
_space_group_symop_operation_xyz
x,y,z
-x,-y,-z
loop_
_atom_site_type_symbol
_atom_site_label
_atom_site_fract_x
_atom_site_fract_y
_atom_site_fract_z
Si Si1 0.751217 0.938288 0.974250
Si Si2 0.276978 0.860188 0.241056
Si Si3 0.816825 0.928575 0.740729
Si Si4 0.458152 0.625824 0.121099
Si Si5 0.749004 0.151029 0.247453
Si Si6 0.040515 0.362983 0.439772
Si Si7 0.439418 0.504433 0.855866
Si Si8 0.827603 0.587552 0.401169
O O1 0.713308 0.902107 0.906762
O O2 0.685437 0.064894 0.774787
O O3 0.553666 0.865007 0.177323
O O4 0.063084 0.925312 0.043097
O O5 0.124653 0.738257 0.458655
O O6 0.570599 0.887427 0.715168
O O7 0.085787 0.875428 0.810290
O O8 0.862975 0.064085 0.493519
O O9 0.530445 0.603712 0.033261
O O10 0.688012 0.656133 0.177329
O O11 0.367095 0.500842 0.381104
O O12 0.244707 0.717366 0.956730
O O13 0.865079 0.466782 0.231628
O O14 0.339712 0.397058 0.350136
O O15 0.032411 0.338781 0.617535
O O16 0.500000 0.500000 0.000000
O O17 0.000000 0.500000 0.500000
#
# Coordination Sequence:
#
# PCOD9005539 Si02
#       8
#     2   2   2   2   2   2   2   2
#     4  10  21  39  60  88 126 158 205 261 315 372
#     4  10  22  38  62  92 119 162 208 256 315 377
#     4  10  22  41  58  91 123 160 207 260 306 380
#     4  10  23  40  61  95 125 169 211 260 325 377
#     4  10  23  39  62  88 122 161 212 253 310 378
#     4  11  23  41  63  95 127 165 217 259 320 386
#     4  11  24  43  64  91 132 168 212 263 312 385
#     4  10  21  38  62  92 131 161 210 269 312 386
#
# _framework density 22.943103000000001
#
# number of rings (size 3 to 8) (size 9 to 14) (size 15 to 20)
#    0.000    1.750    1.250    1.875    3.500    2.000 
#    0.000    3.750    0.000    0.000    0.000    0.000 
#    0.000    0.000    0.000    0.000    0.000    0.000 
#
# Total GULP energy -89275.424398 kJ/mol
# GULP energy per Si atom -5579.714025 kJ/mol
# Density = 2.289088 g / cm^3
# Si number density = 22.943103 Si / 1000 Ang^3
#
#
#
# Elastic Constant Matrix: (Units=GPa)
#
#
# Indices 1 2 3 4 5 6 
#
# 1 72.0482 3.6364 7.3435 3.1312 4.1281 -7.9289
# 2 3.6364 87.7757 34.5967 14.2768 10.7532 -19.2941
# 3 7.3435 34.5967 66.0889 -17.0424 17.8321 -16.7864
# 4 3.1312 14.2768 -17.0424 35.8394 -1.6953 -1.9501
# 5 4.1281 10.7532 17.8321 -1.6953 32.2056 -6.8059
# 6 -7.9289 -19.2941 -16.7864 -1.9501 -6.8059 32.3074
#
#
#
# Elastic Compliance Matrix: (Units=1/GPa)
#
#
# Indices 1 2 3 4 5 6 
#
# 1 0.014509 0.001408 -0.002098 -0.002695 -0.000674 0.003007
# 2 0.001408 0.019661 -0.013048 -0.013874 0.000726 0.004623
# 3 -0.002098 -0.013048 0.032267 0.020631 -0.010575 0.007476
# 4 -0.002695 -0.013874 0.020631 0.043516 -0.003376 0.003688
# 5 -0.000674 0.000726 -0.010575 -0.003376 0.037075 0.002380
# 6 0.003007 0.004623 0.007476 0.003688 0.002380 0.039060
#
#
# Mechanical properties :
#
#
# Convention : Reuss Voigt Hill
#
# Bulk Modulus (GPa) = 25.66748 35.22958 30.44853
# Shear Modulus (GPa) = 22.07000 32.09290 27.08145
#
# Velocity S-wave (km/s) = 3.10489 3.74412 3.43938
# Velocity P-wave (km/s) = 4.90566 5.83779 5.39190
#
# Compressibility (1/GPa) = 0.03895981
#
# Stress axis : x y z
#
# Youngs Moduli (GPa) = 68.92262 50.86195 30.99131
#
# Poissons Ratio (x) = -0.07160 0.06503
# Poissons Ratio (y) = -0.09702 0.40438
# Poissons Ratio (z) = 0.14462 0.66365
#
# Static dielectric constant tensor:
#      x y z
#    x 1.878720 0.049700 -0.049760 
#    y 0.049700 1.940910 -0.049520 
#    z -0.049760 -0.049520 1.947340 
# 
# From -- ./inp_files/370823.got.cif
#   From: 2010.05.17/outbox.cif.g08.bks.cpg/sg2_186_cif.got.tgz:370823.got - 2010.06.03 11:33:40.
