data_PCOD9005559
_publ_section_title
;
Structure prediction by ZEFSAII (Michael W. Deem and Ramdas Pophale) SiO2 
 PCOD9005559
Probable space group: P -1
;
_chemical_formula_sum "Si O2"
_cell_formula_units_Z 16
_cell_length_a 8.601536
_cell_length_b 22.849376
_cell_length_c 14.948307
_cell_angle_alpha 161.408119
_cell_angle_beta 128.994565
_cell_angle_gamma 52.061808
_cell_volume 725.988466
_symmetry_space_group_name_H-M "P -1"
_symmetry_group_IT_number 2
_symmetry_cell_setting 'triclinic'
loop_
_space_group_symop_operation_xyz
x,y,z
-x,-y,-z
loop_
_atom_site_type_symbol
_atom_site_label
_atom_site_fract_x
_atom_site_fract_y
_atom_site_fract_z
Si Si1 0.801041 0.482832 0.635577
Si Si2 0.767607 0.138528 0.790140
Si Si3 0.775574 0.579958 0.229649
Si Si4 0.362666 0.761952 0.415762
Si Si5 0.667839 0.750390 0.255323
Si Si6 0.616603 0.380363 0.596998
Si Si7 0.854591 0.885368 0.220780
Si Si8 0.223080 0.545799 0.621680
O O1 0.706609 0.365297 0.508848
O O2 0.733984 0.461573 0.478880
O O3 0.036317 0.425179 0.645737
O O4 0.772372 0.701569 0.963762
O O5 0.574036 0.205037 0.755745
O O6 0.984380 0.179439 0.891259
O O7 0.753230 0.923482 0.489432
O O8 0.737762 0.252106 0.034932
O O9 0.579457 0.656198 0.323071
O O10 0.773992 0.708232 0.327045
O O11 0.769810 0.375925 0.888305
O O12 0.326434 0.761679 0.508944
O O13 0.318976 0.967314 0.661979
O O14 0.688742 0.568725 0.939397
O O15 0.379693 0.409839 0.535984
O O16 0.000000 0.000000 0.500000
O O17 0.000000 0.500000 0.500000
#
# Coordination Sequence:
#
# PCOD9005559 Si02
#       8
#     2   2   2   2   2   2   2   2
#     4  12  24  39  65  93 127 168 214 256 310 381
#     4  10  21  38  62  94 126 165 207 258 317 369
#     4  10  21  38  62  93 127 165 207 248 328 376
#     4  10  22  38  63  91 132 163 205 266 316 371
#     4   9  20  37  64  93 129 157 204 268 317 368
#     4  10  23  40  64  94 124 164 211 263 315 366
#     4  12  22  36  63  97 128 159 210 261 315 363
#     4  11  22  43  65  87 126 177 213 247 310 389
#
# _framework density 22.038916
#
# number of rings (size 3 to 8) (size 9 to 14) (size 15 to 20)
#    0.000    1.500    2.500    2.625    5.250    3.000 
#    0.000    1.250    0.000    0.000    0.000    0.000 
#    0.000    0.000    0.000    0.000    0.000    0.000 
#
# Total GULP energy -89394.982989 kJ/mol
# GULP energy per Si atom -5587.186437 kJ/mol
# Density = 2.198875 g / cm^3
# Si number density = 22.038916 Si / 1000 Ang^3
#
#
#
# Elastic Constant Matrix: (Units=GPa)
#
#
# Indices 1 2 3 4 5 6 
#
# 1 55.1831 5.6031 -0.0849 -4.5924 -6.4622 11.7533
# 2 5.6031 96.6635 30.1773 -0.0621 -5.2540 14.8210
# 3 -0.0849 30.1773 34.7179 -6.4481 -10.8015 2.5401
# 4 -4.5924 -0.0621 -6.4481 31.8395 4.5472 -4.8722
# 5 -6.4622 -5.2540 -10.8015 4.5472 20.4528 -10.4378
# 6 11.7533 14.8210 2.5401 -4.8722 -10.4378 34.1589
#
#
#
# Elastic Compliance Matrix: (Units=1/GPa)
#
#
# Indices 1 2 3 4 5 6 
#
# 1 0.020023 -0.001201 0.003350 0.002132 0.004847 -0.004832
# 2 -0.001201 0.016684 -0.017322 -0.003723 -0.008899 -0.008788
# 3 0.003350 -0.017322 0.053793 0.009073 0.029461 0.012659
# 4 0.002132 -0.003723 0.009073 0.034388 -0.000625 0.004921
# 5 0.004847 -0.008899 0.029461 -0.000625 0.075578 0.023007
# 6 -0.004832 -0.008788 0.012659 0.004921 0.023007 0.041541
#
#
# Mechanical properties :
#
#
# Convention : Reuss Voigt Hill
#
# Bulk Modulus (GPa) = 16.62361 28.66173 22.64267
# Shear Modulus (GPa) = 17.09973 27.34816 22.22395
#
# Velocity S-wave (km/s) = 2.78850 3.52647 3.17897
# Velocity P-wave (km/s) = 4.23401 5.44193 4.87552
#
# Compressibility (1/GPa) = 0.06015542
#
# Stress axis : x y z
#
# Youngs Moduli (GPa) = 49.94285 59.93873 18.58982
#
# Poissons Ratio (x) = 0.07198 -0.06228
# Poissons Ratio (y) = 0.05997 0.32201
# Poissons Ratio (z) = -0.16733 1.03823
#
# Static dielectric constant tensor:
#      x y z
#    x 1.901950 -0.005960 -0.029760 
#    y -0.005960 1.782820 -0.010380 
#    z -0.029760 -0.010380 1.815690 
# 
# From -- ./inp_files/508770.got.cif
#   From: 2010.05.17/outbox.cif.g08.bks.cpg/sg2_255_cif.got.tgz:508770.got - 2010.06.03 11:33:40.
