data_PCOD9005432
_publ_section_title
;
Structure prediction by ZEFSAII (Michael W. Deem and Ramdas Pophale) SiO2 
 PCOD9005432
Probable space group: P -1
;
_chemical_formula_sum "Si O2"
_cell_formula_units_Z 16
_cell_length_a 9.899599
_cell_length_b 11.985714
_cell_length_c 14.165819
_cell_angle_alpha 100.669633
_cell_angle_beta 125.707348
_cell_angle_gamma 38.328567
_cell_volume 711.584945
_symmetry_space_group_name_H-M "P -1"
_symmetry_group_IT_number 2
_symmetry_cell_setting 'triclinic'
loop_
_space_group_symop_operation_xyz
x,y,z
-x,-y,-z
loop_
_atom_site_type_symbol
_atom_site_label
_atom_site_fract_x
_atom_site_fract_y
_atom_site_fract_z
Si Si1 0.648574 0.611524 0.449121
Si Si2 0.376894 0.685925 0.165588
Si Si3 0.354707 0.275860 0.987698
Si Si4 0.312606 0.914835 0.513018
Si Si5 0.345807 0.701126 0.796042
Si Si6 0.334826 0.150400 0.602050
Si Si7 0.661507 0.045899 0.893178
Si Si8 0.356884 0.301828 0.200662
O O1 0.420453 0.679112 0.294409
O O2 0.541120 0.690345 0.524118
O O3 0.646890 0.743200 0.431975
O O4 0.983995 0.359363 0.534431
O O5 0.617913 0.451283 0.192597
O O6 0.443528 0.767893 0.157225
O O7 0.031081 0.842670 0.026409
O O8 0.481629 0.129166 0.930615
O O9 0.985176 0.517281 0.865934
O O10 0.572442 0.263907 0.078103
O O11 0.385730 0.216314 0.100185
O O12 0.363780 0.875906 0.639721
O O13 0.381244 0.008664 0.541449
O O14 0.983610 0.084559 0.353994
O O15 0.607557 0.590581 0.809303
O O16 0.573644 0.015960 0.766023
#
# Coordination Sequence:
#
# PCOD9005432 Si02
#       8
#     2   2   2   2   2   2   2   2
#     4  10  21  40  58  86 127 153 197 246 299 357
#     4  10  21  39  59  91 124 153 194 252 302 356
#     4   9  20  41  62  81 116 160 196 250 299 337
#     4  12  21  38  64  87 118 166 198 238 309 347
#     4  10  21  39  61  83 125 154 198 249 293 349
#     4  10  22  37  59  91 121 154 196 250 292 364
#     4  10  21  38  62  88 122 155 194 250 303 359
#     4   9  22  39  60  86 118 157 204 254 281 351
#
# _framework density 22.485019000000001
#
# number of rings (size 3 to 8) (size 9 to 14) (size 15 to 20)
#    0.750    1.250    1.250    2.250    1.750    0.500 
#    2.250    4.375    0.000    0.000    0.000    0.000 
#    0.000    0.000    0.000    0.000    0.000    0.000 
#
# Total GULP energy -89233.399302 kJ/mol
# GULP energy per Si atom -5577.087456 kJ/mol
# Density = 2.243384 g / cm^3
# Si number density = 22.485019 Si / 1000 Ang^3
#
#
#
# Elastic Constant Matrix: (Units=GPa)
#
#
# Indices 1 2 3 4 5 6 
#
# 1 18.0077 -2.2866 3.9228 3.9367 -1.1509 0.2616
# 2 -2.2866 62.6093 22.0579 17.4129 2.6871 -1.1481
# 3 3.9228 22.0579 101.7066 12.3108 21.7828 -1.3990
# 4 3.9367 17.4129 12.3108 19.8507 8.1058 -2.7541
# 5 -1.1509 2.6871 21.7828 8.1058 22.4252 1.7099
# 6 0.2616 -1.1481 -1.3990 -2.7541 1.7099 29.1885
#
#
#
# Elastic Compliance Matrix: (Units=1/GPa)
#
#
# Indices 1 2 3 4 5 6 
#
# 1 0.065078 0.010885 -0.005380 -0.026692 0.017210 -0.003940
# 2 0.010885 0.024952 -0.005363 -0.026151 0.012426 -0.002569
# 3 -0.005380 -0.005363 0.013929 0.003273 -0.014474 0.001662
# 4 -0.026692 -0.026151 0.003273 0.092548 -0.035645 0.010188
# 5 0.017210 0.012426 -0.014474 -0.035645 0.071533 -0.007913
# 6 -0.003940 -0.002569 0.001662 0.010188 -0.007913 0.035699
#
#
# Mechanical properties :
#
#
# Convention : Reuss Voigt Hill
#
# Bulk Modulus (GPa) = 9.59291 25.52354 17.55823
# Shear Modulus (GPa) = 14.78406 24.86818 19.82612
#
# Velocity S-wave (km/s) = 2.56697 3.32925 2.97265
# Velocity P-wave (km/s) = 3.61406 5.11415 4.42809
#
# Compressibility (1/GPa) = 0.10424361
#
# Stress axis : x y z
#
# Youngs Moduli (GPa) = 15.36613 40.07767 71.79145
#
# Poissons Ratio (x) = -0.43624 0.38624
# Poissons Ratio (y) = -0.16726 0.38499
# Poissons Ratio (z) = 0.08267 0.21492
#
# Static dielectric constant tensor:
#      x y z
#    x 1.904350 -0.003470 -0.007060 
#    y -0.003470 1.793700 0.005470 
#    z -0.007060 0.005470 1.824640 
# 
# From -- ./inp_files/522387.got.cif
#   From: 2010.05.17/outbox.cif.g08.bks.cpg/sg2_262_cif.got.tgz:522387.got - 2010.06.03 11:33:40.
