data_PCOD9005439
_publ_section_title
;
Structure prediction by ZEFSAII (Michael W. Deem and Ramdas Pophale) SiO2 
 PCOD9005439
Probable space group: P -1
;
_chemical_formula_sum "Si O2"
_cell_formula_units_Z 12
_cell_length_a 17.128747
_cell_length_b 6.349921
_cell_length_c 13.934816
_cell_angle_alpha 74.621940
_cell_angle_beta 157.566897
_cell_angle_gamma 110.950437
_cell_volume 530.988461
_symmetry_space_group_name_H-M "P -1"
_symmetry_group_IT_number 2
_symmetry_cell_setting 'triclinic'
loop_
_space_group_symop_operation_xyz
x,y,z
-x,-y,-z
loop_
_atom_site_type_symbol
_atom_site_label
_atom_site_fract_x
_atom_site_fract_y
_atom_site_fract_z
Si Si1 0.184711 0.876061 0.231480
Si Si2 0.997833 0.466879 0.213892
Si Si3 0.867122 0.919626 0.504976
Si Si4 0.750614 0.684861 0.192753
Si Si5 0.585800 0.294871 0.663202
Si Si6 0.708704 0.295456 0.314086
O O1 0.268051 0.790099 0.238304
O O2 0.097958 0.649638 0.223637
O O3 0.386663 0.070244 0.482714
O O4 0.000000 0.000000 0.000000
O O5 0.080412 0.245025 0.337246
O O6 0.091820 0.592980 0.403454
O O7 0.742496 0.388097 0.919390
O O8 0.801977 0.789852 0.345968
O O9 0.683727 0.029700 0.310092
O O10 0.077823 0.136485 0.698727
O O11 0.752151 0.425158 0.244814
O O12 0.508455 0.672689 0.894444
O O13 0.500000 0.500000 0.500000
#
# Coordination Sequence:
#
# PCOD9005439 Si02
#       6
#     2   2   2   2   2   2
#     4  11  25  45  68  91 128 170 210 264 319 385
#     4  11  25  40  62 101 122 161 217 257 313 376
#     4  10  21  38  62  88 128 160 205 260 303 373
#     4   9  20  40  58  90 121 167 205 242 320 368
#     4  11  25  45  68  92 126 172 210 260 326 380
#     4  10  21  38  63  89 126 160 206 259 303 374
#
# _framework density 22.599360999999998
#
# number of rings (size 3 to 8) (size 9 to 14) (size 15 to 20)
#    0.000    1.667    1.667    1.500    4.667    0.000 
#    0.000    0.000    0.000    0.000    0.000    0.000 
#    0.000    0.000    0.000    0.000    0.000    0.000 
#
# Total GULP energy -67041.186400 kJ/mol
# GULP energy per Si atom -5586.765533 kJ/mol
# Density = 2.254792 g / cm^3
# Si number density = 22.599361 Si / 1000 Ang^3
#
#
#
# Elastic Constant Matrix: (Units=GPa)
#
#
# Indices 1 2 3 4 5 6 
#
# 1 37.0075 24.0409 36.1876 -6.2555 6.5568 7.8890
# 2 24.0409 118.7690 57.7765 -19.0227 0.2741 22.5927
# 3 36.1876 57.7765 146.9180 -1.0317 -5.9590 3.0803
# 4 -6.2555 -19.0227 -1.0317 58.0935 1.3972 3.7982
# 5 6.5568 0.2741 -5.9590 1.3972 23.8330 -2.1099
# 6 7.8890 22.5927 3.0803 3.7982 -2.1099 27.7660
#
#
#
# Elastic Compliance Matrix: (Units=1/GPa)
#
#
# Indices 1 2 3 4 5 6 
#
# 1 0.045142 0.000056 -0.011496 0.005976 -0.016857 -0.013694
# 2 0.000056 0.014185 -0.005422 0.005404 -0.002906 -0.011916
# 3 -0.011496 -0.005422 0.011877 -0.003454 0.007049 0.007369
# 4 0.005976 0.005404 -0.003454 0.020251 -0.004538 -0.008827
# 5 -0.016857 -0.002906 0.007049 -0.004538 0.049611 0.010762
# 6 -0.013694 -0.011916 0.007369 -0.008827 0.010762 0.050810
#
#
# Mechanical properties :
#
#
# Convention : Reuss Voigt Hill
#
# Bulk Modulus (GPa) = 26.68049 59.85607 43.26828
# Shear Modulus (GPa) = 21.00001 34.25114 27.62558
#
# Velocity S-wave (km/s) = 3.05164 3.89727 3.50008
# Velocity P-wave (km/s) = 4.92424 6.84068 5.95999
#
# Compressibility (1/GPa) = 0.03748056
#
# Stress axis : x y z
#
# Youngs Moduli (GPa) = 22.15217 70.49662 84.19291
#
# Poissons Ratio (x) = -0.00392 0.96784
# Poissons Ratio (y) = -0.00123 0.45651
# Poissons Ratio (z) = 0.25465 0.38224
#
# Static dielectric constant tensor:
#      x y z
#    x 1.869830 -0.031190 0.020910 
#    y -0.031190 1.880150 -0.013150 
#    z 0.020910 -0.013150 1.844380 
# 
# From -- ./inp_files/74517.got.cif
#   From: 2010.05.17/outbox.cif.g08.bks.cpg/sg2_38_cif.got.tgz:74517.got - 2010.06.03 11:33:40.
