data_PCOD9005692
_publ_section_title
;
Structure prediction by ZEFSAII (Michael W. Deem and Ramdas Pophale) SiO2 
 PCOD9005692
Probable space group: P -1
;
_chemical_formula_sum "Si O2"
_cell_formula_units_Z 16
_cell_length_a 12.577893
_cell_length_b 10.290828
_cell_length_c 8.004100
_cell_angle_alpha 136.622195
_cell_angle_beta 90.436202
_cell_angle_gamma 103.259208
_cell_volume 668.619596
_symmetry_space_group_name_H-M "P -1"
_symmetry_group_IT_number 2
_symmetry_cell_setting 'triclinic'
loop_
_space_group_symop_operation_xyz
x,y,z
-x,-y,-z
loop_
_atom_site_type_symbol
_atom_site_label
_atom_site_fract_x
_atom_site_fract_y
_atom_site_fract_z
Si Si1 0.343389 0.295457 0.737950
Si Si2 0.256662 0.568350 0.181987
Si Si3 0.008572 0.414307 0.145718
Si Si4 0.423699 0.007151 0.663614
Si Si5 0.323044 0.405738 0.360390
Si Si6 0.912224 0.696708 0.598891
Si Si7 0.463751 0.213292 0.331772
Si Si8 0.094065 0.998501 0.365093
O O1 0.423767 0.294837 0.580678
O O2 0.392700 0.204718 0.810345
O O3 0.218687 0.134914 0.550159
O O4 0.321906 0.503393 0.971169
O O5 0.121392 0.496518 0.112375
O O6 0.314481 0.801172 0.453371
O O7 0.277628 0.430304 0.201771
O O8 0.040746 0.336382 0.251808
O O9 0.961296 0.586470 0.358533
O O10 0.916329 0.228230 0.883040
O O11 0.496740 0.972399 0.788552
O O12 0.500000 0.000000 0.500000
O O13 0.222923 0.397572 0.476357
O O14 0.360801 0.211333 0.208504
O O15 0.428273 0.610701 0.574060
O O16 0.935764 0.916109 0.729778
O O17 0.000000 0.000000 0.500000
#
# Coordination Sequence:
#
# PCOD9005692 Si02
#       8
#     2   2   2   2   2   2   2   2
#     4  11  22  39  61  91 126 163 200 249 309 368
#     4  10  21  38  63  90 122 164 200 247 313 365
#     4  10  23  41  64  91 123 166 209 250 307 368
#     4   9  21  37  59  86 121 156 198 249 299 363
#     4   9  18  37  64  88 115 158 205 253 303 361
#     4  10  22  42  64  88 124 165 204 255 309 367
#     4   9  18  38  63  84 119 154 202 257 302 355
#     4  12  24  39  61  95 127 163 206 256 305 367
#
# _framework density 23.929901000000001
#
# number of rings (size 3 to 8) (size 9 to 14) (size 15 to 20)
#    0.000    2.000    2.500    0.375    1.750    6.000 
#    0.000    0.625    2.750    0.000    0.000    0.000 
#    0.000    0.000    0.000    0.000    0.000    0.000 
#
# Total GULP energy -89372.866024 kJ/mol
# GULP energy per Si atom -5585.804126 kJ/mol
# Density = 2.387544 g / cm^3
# Si number density = 23.929901 Si / 1000 Ang^3
#
#
#
# Elastic Constant Matrix: (Units=GPa)
#
#
# Indices 1 2 3 4 5 6 
#
# 1 85.9176 18.3856 15.1086 7.7103 -10.6397 8.8019
# 2 18.3856 114.7647 3.4820 -10.0715 -6.0937 -11.5139
# 3 15.1086 3.4820 49.0135 5.2302 -11.0263 6.2055
# 4 7.7103 -10.0715 5.2302 29.1912 -5.1952 -0.0417
# 5 -10.6397 -6.0937 -11.0263 -5.1952 30.1613 -2.0297
# 6 8.8019 -11.5139 6.2055 -0.0417 -2.0297 39.2194
#
#
#
# Elastic Compliance Matrix: (Units=1/GPa)
#
#
# Indices 1 2 3 4 5 6 
#
# 1 0.013631 -0.002616 -0.002662 -0.003592 0.002467 -0.003282
# 2 -0.002616 0.010025 -0.000416 0.004584 0.001989 0.003704
# 3 -0.002662 -0.000416 0.023434 -0.002409 0.006935 -0.002876
# 4 -0.003592 0.004584 -0.002409 0.038211 0.005553 0.002861
# 5 0.002467 0.001989 0.006935 0.005553 0.037980 0.000904
# 6 -0.003282 0.003704 -0.002876 0.002861 0.000904 0.027827
#
#
# Mechanical properties :
#
#
# Convention : Reuss Voigt Hill
#
# Bulk Modulus (GPa) = 28.01094 35.96090 31.98592
# Shear Modulus (GPa) = 28.67019 33.89570 31.28295
#
# Velocity S-wave (km/s) = 3.46510 3.76767 3.61955
# Velocity P-wave (km/s) = 5.26688 5.82987 5.55551
#
# Compressibility (1/GPa) = 0.03570034
#
# Stress axis : x y z
#
# Youngs Moduli (GPa) = 73.36108 99.75326 42.67282
#
# Poissons Ratio (x) = 0.26100 0.11360
# Poissons Ratio (y) = 0.19195 0.01776
# Poissons Ratio (z) = 0.19530 0.04152
#
# Static dielectric constant tensor:
#      x y z
#    x 1.921620 -0.068990 0.021910 
#    y -0.068990 1.925500 -0.045500 
#    z 0.021910 -0.045500 1.918190 
# 
# From -- ./inp_files/260979.got.cif
#   From: 2010.05.17/outbox.cif.g08.bks.cpg/sg2_131_cif.got.tgz:260979.got - 2010.06.03 11:33:40.
