data_PCOD9005316
_publ_section_title
;
Structure prediction by ZEFSAII (Michael W. Deem and Ramdas Pophale) SiO2 
 PCOD9005316
Probable space group: P -1
;
_chemical_formula_sum "Si O2"
_cell_formula_units_Z 14
_cell_length_a 7.912891
_cell_length_b 14.069522
_cell_length_c 9.882260
_cell_angle_alpha 122.910673
_cell_angle_beta 140.943768
_cell_angle_gamma 70.738276
_cell_volume 573.092443
_symmetry_space_group_name_H-M "P -1"
_symmetry_group_IT_number 2
_symmetry_cell_setting 'triclinic'
loop_
_space_group_symop_operation_xyz
x,y,z
-x,-y,-z
loop_
_atom_site_type_symbol
_atom_site_label
_atom_site_fract_x
_atom_site_fract_y
_atom_site_fract_z
Si Si1 0.154327 0.128662 0.726416
Si Si2 0.830312 0.819530 0.906469
Si Si3 0.279984 0.681660 0.067326
Si Si4 0.396341 0.604706 0.367029
Si Si5 0.858970 0.472843 0.570031
Si Si6 0.670648 0.047476 0.004788
Si Si7 0.078933 0.250774 0.523341
O O1 0.149172 0.161986 0.904826
O O2 0.036771 0.218948 0.630653
O O3 0.461408 0.120434 0.866973
O O4 0.000000 0.000000 0.500000
O O5 0.114745 0.784581 0.013994
O O6 0.740386 0.936055 0.887624
O O7 0.600081 0.712958 0.641219
O O8 0.248631 0.647084 0.179877
O O9 0.601964 0.711572 0.271827
O O10 0.124839 0.571238 0.804356
O O11 0.597595 0.516818 0.379705
O O12 0.213066 0.546702 0.330452
O O13 0.922514 0.352632 0.465109
O O14 0.946033 0.133204 0.277343
O O15 0.500000 0.000000 0.000000
#
# Coordination Sequence:
#
# PCOD9005316 Si02
#       7
#     2   2   2   2   2   2   2
#     4  11  22  40  68  92 120 162 213 260 302 371
#     4  10  22  40  65  92 125 162 212 257 305 374
#     4  11  25  40  62  95 131 168 203 254 321 367
#     4  10  22  41  66  91 125 166 211 258 309 366
#     4  10  22  41  64  92 123 165 219 255 300 373
#     4  10  21  38  61  92 119 160 210 252 310 358
#     4  12  24  40  64  95 130 165 206 261 314 367
#
# _framework density 24.428868999999999
#
# number of rings (size 3 to 8) (size 9 to 14) (size 15 to 20)
#    0.000    1.429    2.857    3.429    2.000    6.857 
#    0.000    1.429    0.000    0.000    0.000    0.000 
#    0.000    0.000    0.000    0.000    0.000    0.000 
#
# Total GULP energy -78378.054953 kJ/mol
# GULP energy per Si atom -5598.432497 kJ/mol
# Density = 2.437327 g / cm^3
# Si number density = 24.428869 Si / 1000 Ang^3
#
#
#
# Elastic Constant Matrix: (Units=GPa)
#
#
# Indices 1 2 3 4 5 6 
#
# 1 69.8048 21.6430 15.0842 7.8945 11.7186 4.1223
# 2 21.6430 128.4394 20.0559 11.9908 6.8368 -33.0210
# 3 15.0842 20.0559 71.2523 13.6622 26.1086 -4.2283
# 4 7.8945 11.9908 13.6622 30.1411 6.0704 -9.0577
# 5 11.7186 6.8368 26.1086 6.0704 44.7660 -11.8036
# 6 4.1223 -33.0210 -4.2283 -9.0577 -11.8036 29.4076
#
#
#
# Elastic Compliance Matrix: (Units=1/GPa)
#
#
# Indices 1 2 3 4 5 6 
#
# 1 0.018651 -0.005854 0.000571 -0.005478 -0.007185 -0.013677
# 2 -0.005854 0.013798 -0.004445 0.002453 0.006730 0.019131
# 3 0.000571 -0.004445 0.020991 -0.008206 -0.013206 -0.009881
# 4 -0.005478 0.002453 -0.008206 0.041523 0.004702 0.017019
# 5 -0.007185 0.006730 -0.013206 0.004702 0.036229 0.022655
# 6 -0.013677 0.019131 -0.009881 0.017019 0.022655 0.070318
#
#
# Mechanical properties :
#
#
# Convention : Reuss Voigt Hill
#
# Bulk Modulus (GPa) = 29.42772 42.56252 35.99512
# Shear Modulus (GPa) = 21.52435 35.04383 28.28409
#
# Velocity S-wave (km/s) = 2.97156 3.79162 3.40636
# Velocity P-wave (km/s) = 4.88324 6.05222 5.49888
#
# Compressibility (1/GPa) = 0.03398157
#
# Stress axis : x y z
#
# Youngs Moduli (GPa) = 53.61706 72.47561 47.63959
#
# Poissons Ratio (x) = 0.42430 -0.02719
# Poissons Ratio (y) = 0.31389 0.21178
# Poissons Ratio (z) = -0.03060 0.32218
#
# Static dielectric constant tensor:
#      x y z
#    x 1.986680 0.027970 0.007590 
#    y 0.027970 1.947770 -0.028170 
#    z 0.007590 -0.028170 1.893940 
# 
# From -- ./inp_files/27485.got.cif
#   From: 2010.05.17/outbox.cif.g08.bks.cpg/sg2_14_cif.got.tgz:27485.got - 2010.06.03 11:33:40.
