data_PCOD9005434
_publ_section_title
;
Structure prediction by ZEFSAII (Michael W. Deem and Ramdas Pophale) SiO2 
 PCOD9005434
Probable space group: P -1
;
_chemical_formula_sum "Si O2"
_cell_formula_units_Z 14
_cell_length_a 5.206305
_cell_length_b 15.209198
_cell_length_c 26.893753
_cell_angle_alpha 18.464338
_cell_angle_beta 123.739876
_cell_angle_gamma 122.865541
_cell_volume 559.842586
_symmetry_space_group_name_H-M "P -1"
_symmetry_group_IT_number 2
_symmetry_cell_setting 'triclinic'
loop_
_space_group_symop_operation_xyz
x,y,z
-x,-y,-z
loop_
_atom_site_type_symbol
_atom_site_label
_atom_site_fract_x
_atom_site_fract_y
_atom_site_fract_z
Si Si1 0.701743 0.148993 0.170950
Si Si2 0.504687 0.368993 0.625811
Si Si3 0.837062 0.599277 0.180472
Si Si4 0.402704 0.217788 0.202942
Si Si5 0.510201 0.486717 0.349988
Si Si6 0.342601 0.948874 0.583640
Si Si7 0.901105 0.910445 0.117252
O O1 0.480386 0.094029 0.223985
O O2 0.060162 0.148003 0.224976
O O3 0.676103 0.925936 0.244079
O O4 0.605528 0.449512 0.981886
O O5 0.500000 0.500000 0.500000
O O6 0.398207 0.556279 0.559662
O O7 0.833923 0.276184 0.731064
O O8 0.593436 0.342975 0.279805
O O9 0.748529 0.794521 0.111432
O O10 0.149592 0.490200 0.296352
O O11 0.945561 0.788491 0.042827
O O12 0.658062 0.130925 0.315654
O O13 0.637409 0.803601 0.184479
O O14 0.579346 0.224847 0.461916
O O15 0.000000 0.000000 0.500000
#
# Coordination Sequence:
#
# PCOD9005434 Si02
#       7
#     2   2   2   2   2   2   2
#     4  10  23  42  68  92 130 173 217 272 320 387
#     4  11  24  38  60  88 126 166 209 260 328 383
#     4   9  20  41  60  88 122 160 210 260 328 378
#     4  10  22  44  65  97 129 168 222 268 323 391
#     4  10  22  38  61  93 120 162 213 261 322 385
#     4  10  21  41  63  91 130 169 212 266 330 389
#     4  10  21  38  62  88 122 160 210 268 311 394
#
# _framework density 25.007028999999999
#
# number of rings (size 3 to 8) (size 9 to 14) (size 15 to 20)
#    0.000    2.000    0.000    2.143    4.000    1.143 
#    7.714    0.000    0.000    0.000    0.000    0.000 
#    0.000    0.000    0.000    0.000    0.000    0.000 
#
# Total GULP energy -77949.078736 kJ/mol
# GULP energy per Si atom -5567.791338 kJ/mol
# Density = 2.495011 g / cm^3
# Si number density = 25.007029 Si / 1000 Ang^3
#
#
#
# Elastic Constant Matrix: (Units=GPa)
#
#
# Indices 1 2 3 4 5 6 
#
# 1 47.4394 18.0288 23.7279 5.1665 -10.9899 -7.2658
# 2 18.0288 125.7312 61.1612 -0.3610 -3.5662 -16.9230
# 3 23.7279 61.1612 113.6589 8.7031 -3.2274 -3.0865
# 4 5.1665 -0.3610 8.7031 44.8121 0.2715 10.6195
# 5 -10.9899 -3.5662 -3.2274 0.2715 11.2821 5.2602
# 6 -7.2658 -16.9230 -3.0865 10.6195 5.2602 16.8597
#
#
#
# Elastic Compliance Matrix: (Units=1/GPa)
#
#
# Indices 1 2 3 4 5 6 
#
# 1 0.031267 -0.000366 -0.005072 -0.004419 0.025769 0.006922
# 2 -0.000366 0.012960 -0.006491 -0.001976 -0.004783 0.014400
# 3 -0.005072 -0.006491 0.013233 -0.000690 -0.000545 -0.005675
# 4 -0.004419 -0.001976 -0.000690 0.028500 0.005183 -0.023583
# 5 0.025769 -0.004783 -0.000545 0.005183 0.129397 -0.037432
# 6 0.006922 0.014400 -0.005675 -0.023583 -0.037432 0.102245
#
#
# Mechanical properties :
#
#
# Convention : Reuss Voigt Hill
#
# Bulk Modulus (GPa) = 29.76045 54.74058 42.25051
# Shear Modulus (GPa) = 14.17786 26.85157 20.51471
#
# Velocity S-wave (km/s) = 2.38366 3.28038 2.86730
# Velocity P-wave (km/s) = 4.41616 6.02374 5.28148
#
# Compressibility (1/GPa) = 0.03360165
#
# Stress axis : x y z
#
# Youngs Moduli (GPa) = 31.98261 77.15785 75.56643
#
# Poissons Ratio (x) = 0.02824 0.38330
# Poissons Ratio (y) = 0.01171 0.49052
# Poissons Ratio (z) = 0.16223 0.50085
#
# Static dielectric constant tensor:
#      x y z
#    x 1.630510 -0.102220 -0.845690 
#    y -0.102220 1.950090 -0.212000 
#    z -0.845690 -0.212000 0.531290 
# 
# From -- ./inp_files/64143.got.cif
#   From: 2010.05.17/outbox.cif.g08.bks.cpg/sg2_33_cif.got.tgz:64143.got - 2010.06.03 11:33:40.
