data_PCOD9005339
_publ_section_title
;
Structure prediction by ZEFSAII (Michael W. Deem and Ramdas Pophale) SiO2 
 PCOD9005339
Probable space group: P -1
;
_chemical_formula_sum "Si O2"
_cell_formula_units_Z 14
_cell_length_a 16.165573
_cell_length_b 28.899660
_cell_length_c 16.842122
_cell_angle_alpha 16.124379
_cell_angle_beta 25.607838
_cell_angle_gamma 18.400867
_cell_volume 685.493651
_symmetry_space_group_name_H-M "P -1"
_symmetry_group_IT_number 2
_symmetry_cell_setting 'triclinic'
loop_
_space_group_symop_operation_xyz
x,y,z
-x,-y,-z
loop_
_atom_site_type_symbol
_atom_site_label
_atom_site_fract_x
_atom_site_fract_y
_atom_site_fract_z
Si Si1 0.668827 0.659406 0.742190
Si Si2 0.415565 0.808905 0.438317
Si Si3 0.930534 0.689617 0.152383
Si Si4 0.339663 0.122924 0.353880
Si Si5 0.285625 0.547715 0.666306
Si Si6 0.760024 0.318355 0.340037
Si Si7 0.236088 0.787890 0.795931
O O1 0.448271 0.677036 0.862895
O O2 0.893076 0.533044 0.689127
O O3 0.516823 0.914296 0.481340
O O4 0.777995 0.489220 0.002634
O O5 0.692381 0.735001 0.322503
O O6 0.396262 0.708307 0.541602
O O7 0.355081 0.748414 0.670806
O O8 0.195641 0.086510 0.161496
O O9 0.088682 0.700977 0.061746
O O10 0.030736 0.245666 0.421637
O O11 0.500000 0.000000 0.500000
O O12 0.330164 0.322618 0.008873
O O13 0.500000 0.500000 0.500000
O O14 0.339458 0.598350 0.622213
O O15 0.036441 0.059065 0.534528
#
# Coordination Sequence:
#
# PCOD9005339 Si02
#       7
#     2   2   2   2   2   2   2
#     4  12  22  40  68  96 130 178 215 275 332 391
#     4  10  21  39  63  95 132 179 212 262 320 398
#     4  10  21  38  61  93 133 174 218 262 318 391
#     4  11  25  47  73 100 133 173 232 286 347 403
#     4  11  26  50  72  98 135 180 225 290 347 409
#     4  11  21  43  67  93 135 172 216 274 338 388
#     4  11  21  41  62  91 136 177 213 259 328 394
#
# _framework density 20.423238999999999
#
# number of rings (size 3 to 8) (size 9 to 14) (size 15 to 20)
#    0.000    1.143    5.714    1.286    0.000    2.286 
#   10.286    0.000    0.000    0.000    0.000    0.000 
#    0.000    0.000    0.000    0.000    0.000    0.000 
#
# Total GULP energy -78184.908885 kJ/mol
# GULP energy per Si atom -5584.636349 kJ/mol
# Density = 2.037676 g / cm^3
# Si number density = 20.423239 Si / 1000 Ang^3
#
#
#
# Elastic Constant Matrix: (Units=GPa)
#
#
# Indices 1 2 3 4 5 6 
#
# 1 81.0214 42.7769 23.5894 -7.0867 -3.2153 16.7842
# 2 42.7769 106.9412 35.9813 -24.0834 -15.7697 5.5880
# 3 23.5894 35.9813 84.1547 -32.5247 1.0118 2.5524
# 4 -7.0867 -24.0834 -32.5247 36.9407 4.3731 -7.8798
# 5 -3.2153 -15.7697 1.0118 4.3731 31.4883 -8.8590
# 6 16.7842 5.5880 2.5524 -7.8798 -8.8590 36.4253
#
#
#
# Elastic Compliance Matrix: (Units=1/GPa)
#
#
# Indices 1 2 3 4 5 6 
#
# 1 0.018880 -0.007647 -0.004312 -0.006780 -0.003507 -0.009544
# 2 -0.007647 0.015506 -0.002021 0.006969 0.007373 0.004587
# 3 -0.004312 -0.002021 0.020493 0.017100 -0.003438 0.003724
# 4 -0.006780 0.006969 0.017100 0.047848 -0.001335 0.010883
# 5 -0.003507 0.007373 -0.003438 -0.001335 0.038119 0.009708
# 6 -0.009544 0.004587 0.003724 0.010883 0.009708 0.035602
#
#
# Mechanical properties :
#
#
# Convention : Reuss Voigt Hill
#
# Bulk Modulus (GPa) = 37.14635 52.97918 45.06277
# Shear Modulus (GPa) = 23.43240 32.28886 27.86063
#
# Velocity S-wave (km/s) = 3.39092 3.98048 3.69746
# Velocity P-wave (km/s) = 5.79300 6.86458 6.35143
#
# Compressibility (1/GPa) = 0.02692054
#
# Stress axis : x y z
#
# Youngs Moduli (GPa) = 52.96657 64.48919 48.79777
#
# Poissons Ratio (x) = 0.49313 0.21040
# Poissons Ratio (y) = 0.40502 0.09862
# Poissons Ratio (z) = 0.22837 0.13033
#
# Static dielectric constant tensor:
#      x y z
#    x 1.736190 -0.025880 0.010910 
#    y -0.025880 1.722750 -0.047000 
#    z 0.010910 -0.047000 1.745720 
# 
# From -- ./inp_files/535360.got.cif
#   From: 2010.05.17/outbox.cif.g08.bks.cpg/sg2_268_cif.got.tgz:535360.got - 2010.06.03 11:33:40.
