data_PCOD9005747
_publ_section_title
;
Structure prediction by ZEFSAII (Michael W. Deem and Ramdas Pophale) SiO2 
 PCOD9005747
Probable space group: P -1
;
_chemical_formula_sum "Si O2"
_cell_formula_units_Z 16
_cell_length_a 14.380701
_cell_length_b 7.416039
_cell_length_c 22.139086
_cell_angle_alpha 104.689289
_cell_angle_beta 21.843256
_cell_angle_gamma 108.983314
_cell_volume 822.823058
_symmetry_space_group_name_H-M "P -1"
_symmetry_group_IT_number 2
_symmetry_cell_setting 'triclinic'
loop_
_space_group_symop_operation_xyz
x,y,z
-x,-y,-z
loop_
_atom_site_type_symbol
_atom_site_label
_atom_site_fract_x
_atom_site_fract_y
_atom_site_fract_z
Si Si1 0.224932 0.879924 0.231627
Si Si2 0.507425 0.831781 0.528545
Si Si3 0.639332 0.918849 0.593020
Si Si4 0.283442 0.518178 0.805135
Si Si5 0.853950 0.562391 0.257278
Si Si6 0.399208 0.717501 0.989460
Si Si7 0.662673 0.344954 0.637573
Si Si8 0.237455 0.538275 0.277339
O O1 0.269575 0.748396 0.248509
O O2 0.933073 0.900640 0.411713
O O3 0.423360 0.087839 0.129069
O O4 0.279637 0.773402 0.128454
O O5 0.536554 0.914684 0.585752
O O6 0.743606 0.732356 0.366721
O O7 0.263817 0.643894 0.657008
O O8 0.500000 0.000000 0.500000
O O9 0.461248 0.735343 0.718241
O O10 0.629268 0.118531 0.646006
O O11 0.250944 0.461424 0.749585
O O12 0.432886 0.388453 0.741004
O O13 0.000000 0.500000 0.000000
O O14 0.160250 0.619767 0.082751
O O15 0.584504 0.575543 0.874293
O O16 0.685043 0.447099 0.697759
O O17 0.936028 0.428433 0.446302
#
# Coordination Sequence:
#
# PCOD9005747 Si02
#       8
#     2   2   2   2   2   2   2   2
#     4  11  23  41  65  95 128 168 206 263 318 367
#     4  10  21  38  63  92 123 165 207 257 314 369
#     4  11  22  42  66  92 128 164 211 260 318 375
#     4  11  24  43  66  91 128 170 208 264 312 374
#     4  10  22  39  62  94 124 164 208 254 315 374
#     4  11  23  42  64  96 132 159 216 260 313 377
#     4  11  24  41  65  93 127 167 216 256 312 379
#     4  11  24  40  63  95 126 172 211 257 313 371
#
# _framework density 19.445250000000001
#
# number of rings (size 3 to 8) (size 9 to 14) (size 15 to 20)
#    0.000    1.250    3.750    1.875    0.000    5.000 
#    0.000    0.000    0.000    0.000    0.000    0.000 
#    0.000    0.000    0.000    0.000    0.000    0.000 
#
# Total GULP energy -89424.266810 kJ/mol
# GULP energy per Si atom -5589.016676 kJ/mol
# Density = 1.940099 g / cm^3
# Si number density = 19.445250 Si / 1000 Ang^3
#
#
#
# Elastic Constant Matrix: (Units=GPa)
#
#
# Indices 1 2 3 4 5 6 
#
# 1 38.7598 24.9185 25.5627 -2.5963 -18.7043 -12.5070
# 2 24.9185 94.6909 52.5879 6.4135 -8.5097 -14.2927
# 3 25.5627 52.5879 135.4627 -3.8377 -22.9546 -3.3169
# 4 -2.5963 6.4135 -3.8377 25.9452 -1.7365 3.3031
# 5 -18.7043 -8.5097 -22.9546 -1.7365 24.5941 3.9382
# 6 -12.5070 -14.2927 -3.3169 3.3031 3.9382 28.9035
#
#
#
# Elastic Compliance Matrix: (Units=1/GPa)
#
#
# Indices 1 2 3 4 5 6 
#
# 1 0.054382 -0.009901 0.000393 0.008807 0.036896 0.012647
# 2 -0.009901 0.017296 -0.006446 -0.007536 -0.008993 0.005615
# 3 0.000393 -0.006446 0.011488 0.004427 0.009667 -0.003522
# 4 0.008807 -0.007536 0.004427 0.043534 0.012265 -0.006054
# 5 0.036896 -0.008993 0.009667 0.012265 0.075343 0.000960
# 6 0.012647 0.005615 -0.003522 -0.006054 0.000960 0.043004
#
#
# Mechanical properties :
#
#
# Convention : Reuss Voigt Hill
#
# Bulk Modulus (GPa) = 19.50948 52.78352 36.14650
# Shear Modulus (GPa) = 17.00452 26.94485 21.97468
#
# Velocity S-wave (km/s) = 2.96037 3.72651 3.36531
# Velocity P-wave (km/s) = 4.66260 6.76161 5.80772
#
# Compressibility (1/GPa) = 0.05125713
#
# Stress axis : x y z
#
# Youngs Moduli (GPa) = 18.38855 57.81746 87.05019
#
# Poissons Ratio (x) = 0.57243 -0.03418
# Poissons Ratio (y) = 0.18206 0.56112
# Poissons Ratio (z) = -0.00722 0.37269
#
# Static dielectric constant tensor:
#      x y z
#    x 1.677290 0.013300 0.017570 
#    y 0.013300 1.661840 -0.007490 
#    z 0.017570 -0.007490 1.663710 
# 
# From -- ./inp_files/69008.got.cif
#   From: 2010.05.17/outbox.cif.g08.bks.cpg/sg2_35_cif.got.tgz:69008.got - 2010.06.03 11:33:40.
