data_PCOD9005842
_publ_section_title
;
Structure prediction by ZEFSAII (Michael W. Deem and Ramdas Pophale) SiO2 
 PCOD9005842
Probable space group: P -1
;
_chemical_formula_sum "Si O2"
_cell_formula_units_Z 14
_cell_length_a 6.579592
_cell_length_b 14.606745
_cell_length_c 10.201367
_cell_angle_alpha 134.089983
_cell_angle_beta 59.305199
_cell_angle_gamma 128.936814
_cell_volume 543.020537
_symmetry_space_group_name_H-M "P -1"
_symmetry_group_IT_number 2
_symmetry_cell_setting 'triclinic'
loop_
_space_group_symop_operation_xyz
x,y,z
-x,-y,-z
loop_
_atom_site_type_symbol
_atom_site_label
_atom_site_fract_x
_atom_site_fract_y
_atom_site_fract_z
Si Si1 0.581173 0.143880 0.203663
Si Si2 0.430114 0.253709 0.611005
Si Si3 0.898723 0.115712 0.602005
Si Si4 0.360825 0.076695 0.724752
Si Si5 0.861343 0.764823 0.904174
Si Si6 0.622209 0.410919 0.284720
Si Si7 0.208575 0.472155 0.131247
O O1 0.427714 0.154007 0.392494
O O2 0.583006 0.271912 0.242910
O O3 0.871756 0.190237 0.214921
O O4 0.500000 0.000000 0.000000
O O5 0.432283 0.188260 0.689346
O O6 0.677765 0.405182 0.672847
O O7 0.152377 0.260883 0.689769
O O8 0.630007 0.107028 0.740173
O O9 0.797235 0.072859 0.444334
O O10 0.000000 0.000000 0.500000
O O11 0.166073 0.098117 0.906816
O O12 0.586981 0.653857 0.826891
O O13 0.898377 0.687886 0.943921
O O14 0.500000 0.500000 0.500000
O O15 0.927756 0.479051 0.197836
O O16 0.500000 0.500000 0.000000
#
# Coordination Sequence:
#
# PCOD9005842 Si02
#       7
#     2   2   2   2   2   2   2
#     4  11  26  46  71 102 140 187 234 286 350 425
#     4  11  22  40  66  94 135 170 225 283 343 403
#     4   9  21  37  60  88 131 167 211 271 348 398
#     4  10  21  38  63  96 122 169 220 278 341 404
#     4  11  24  43  69  96 136 175 230 288 345 413
#     4  11  26  46  70 102 145 189 235 289 357 419
#     4  11  24  43  68 103 138 181 237 290 350 418
#
# _framework density 25.781713
#
# number of rings (size 3 to 8) (size 9 to 14) (size 15 to 20)
#    0.000    1.429    1.429    2.571    2.000   11.429 
#    0.000    1.429    0.000    0.000    0.000    0.000 
#    0.000    0.000    0.000    0.000    0.000    0.000 
#
# Total GULP energy -77949.852680 kJ/mol
# GULP energy per Si atom -5567.846620 kJ/mol
# Density = 2.572303 g / cm^3
# Si number density = 25.781713 Si / 1000 Ang^3
#
#
#
# Elastic Constant Matrix: (Units=GPa)
#
#
# Indices 1 2 3 4 5 6 
#
# 1 151.5563 44.1305 33.6404 -5.4598 -28.8873 41.7299
# 2 44.1305 73.5541 15.9062 -11.3338 -10.5334 22.4883
# 3 33.6404 15.9062 111.2204 -6.0705 -21.8070 5.6064
# 4 -5.4598 -11.3338 -6.0705 45.3567 8.3074 -4.3157
# 5 -28.8873 -10.5334 -21.8070 8.3074 30.6998 3.4918
# 6 41.7299 22.4883 5.6064 -4.3157 3.4918 62.9608
#
#
#
# Elastic Compliance Matrix: (Units=1/GPa)
#
#
# Indices 1 2 3 4 5 6 
#
# 1 0.011723 -0.003476 -0.000695 -0.002208 0.010762 -0.007215
# 2 -0.003476 0.017789 -0.000757 0.003216 0.001864 -0.003865
# 3 -0.000695 -0.000757 0.010659 -0.000143 0.006764 -0.000603
# 4 -0.002208 0.003216 -0.000143 0.024247 -0.007913 0.002428
# 5 0.010762 0.001864 0.006764 -0.007913 0.051629 -0.011807
# 6 -0.007215 -0.003865 -0.000603 0.002428 -0.011807 0.022920
#
#
# Mechanical properties :
#
#
# Convention : Reuss Voigt Hill
#
# Bulk Modulus (GPa) = 32.98808 58.18723 45.58765
# Shear Modulus (GPa) = 31.46064 43.98037 37.72051
#
# Velocity S-wave (km/s) = 3.49703 4.13470 3.82916
# Velocity P-wave (km/s) = 5.39708 6.73888 6.10496
#
# Compressibility (1/GPa) = 0.03031398
#
# Stress axis : x y z
#
# Youngs Moduli (GPa) = 85.30144 56.21394 93.82107
#
# Poissons Ratio (x) = 0.19542 0.06524
# Poissons Ratio (y) = 0.29654 0.07099
# Poissons Ratio (z) = 0.05931 0.04254
#
# Static dielectric constant tensor:
#      x y z
#    x 2.108240 -0.006630 -0.032090 
#    y -0.006630 2.156880 0.049340 
#    z -0.032090 0.049340 2.118830 
# 
# From -- ./inp_files/68311.got.cif
#   From: 2010.05.17/outbox.cif.g08.bks.cpg/sg2_35_cif.got.tgz:68311.got - 2010.06.03 11:33:40.
