data_PCOD9005068
_publ_section_title
;
Structure prediction by ZEFSAII (Michael W. Deem and Ramdas Pophale) SiO2 
 PCOD9005068
Probable space group: P -1
;
_chemical_formula_sum "Si O2"
_cell_formula_units_Z 16
_cell_length_a 8.189271
_cell_length_b 5.012824
_cell_length_c 23.397697
_cell_angle_alpha 58.083030
_cell_angle_beta 49.511259
_cell_angle_gamma 60.388484
_cell_volume 602.893943
_symmetry_space_group_name_H-M "P -1"
_symmetry_group_IT_number 2
_symmetry_cell_setting 'triclinic'
loop_
_space_group_symop_operation_xyz
x,y,z
-x,-y,-z
loop_
_atom_site_type_symbol
_atom_site_label
_atom_site_fract_x
_atom_site_fract_y
_atom_site_fract_z
Si Si1 0.513485 0.307866 0.229075
Si Si2 0.794522 0.215468 0.837564
Si Si3 0.996500 0.233400 0.255582
Si Si4 0.369261 0.041819 0.595967
Si Si5 0.706752 0.203340 0.984219
Si Si6 0.331829 0.550442 0.464342
Si Si7 0.718090 0.230117 0.670416
Si Si8 0.117140 0.394747 0.924561
O O1 0.393112 0.491617 0.178934
O O2 0.373202 0.495769 0.292911
O O3 0.758997 0.359928 0.160877
O O4 0.481094 0.947173 0.276070
O O5 0.844119 0.935533 0.811664
O O6 0.729638 0.087618 0.926796
O O7 0.993395 0.398322 0.781345
O O8 0.091464 0.046022 0.313500
O O9 0.772886 0.115187 0.310509
O O10 0.231958 0.363747 0.557795
O O11 0.572283 0.161348 0.564331
O O12 0.459941 0.739737 0.567930
O O13 0.933154 0.304682 0.936922
O O14 0.500000 0.500000 0.000000
O O15 0.700478 0.929266 0.063228
O O16 0.213785 0.653590 0.419554
O O17 0.000000 0.500000 0.000000
#
# Coordination Sequence:
#
# PCOD9005068 Si02
#       8
#     2   2   2   2   2   2   2   2
#     4  10  23  41  66  88 132 164 211 270 327 392
#     4  10  23  41  65  92 126 170 211 267 333 388
#     4  10  22  40  62  94 125 161 214 262 318 387
#     4  10  21  38  60  89 126 165 209 262 310 391
#     4  11  27  45  71  97 134 180 224 279 343 400
#     4  10  21  38  60  89 125 167 209 256 323 376
#     4  10  22  40  63  93 123 167 205 265 322 379
#     4  11  27  45  67 101 131 175 230 277 334 412
#
# _framework density 26.538664000000001
#
# number of rings (size 3 to 8) (size 9 to 14) (size 15 to 20)
#    0.000    1.750    0.000    2.250   10.500    4.500 
#    0.000    0.000    0.000    9.000    0.000    0.000 
#    0.000    0.000    0.000    0.000    0.000    0.000 
#
# Total GULP energy -89662.899749 kJ/mol
# GULP energy per Si atom -5603.931234 kJ/mol
# Density = 2.647826 g / cm^3
# Si number density = 26.538664 Si / 1000 Ang^3
#
#
#
# Elastic Constant Matrix: (Units=GPa)
#
#
# Indices 1 2 3 4 5 6 
#
# 1 81.3153 22.0175 35.1977 -14.3784 13.9215 8.6846
# 2 22.0175 86.1429 10.8116 -14.4985 4.2771 11.4351
# 3 35.1977 10.8116 110.2572 -28.8536 4.8171 5.4962
# 4 -14.3784 -14.4985 -28.8536 40.6739 3.9026 8.1626
# 5 13.9215 4.2771 4.8171 3.9026 62.9597 -10.9867
# 6 8.6846 11.4351 5.4962 8.1626 -10.9867 49.2326
#
#
#
# Elastic Compliance Matrix: (Units=1/GPa)
#
#
# Indices 1 2 3 4 5 6 
#
# 1 0.016175 -0.002503 -0.003752 0.003189 -0.003884 -0.003249
# 2 -0.002503 0.013722 0.001280 0.005914 -0.001580 -0.004222
# 3 -0.003752 0.001280 0.012629 0.008767 -0.001252 -0.002778
# 4 0.003189 0.005914 0.008767 0.036668 -0.005848 -0.010299
# 5 -0.003884 -0.001580 -0.001252 -0.005848 0.018401 0.006268
# 6 -0.003249 -0.004222 -0.002778 -0.010299 0.006268 0.025282
#
#
# Mechanical properties :
#
#
# Convention : Reuss Voigt Hill
#
# Bulk Modulus (GPa) = 30.69571 45.97434 38.33502
# Shear Modulus (GPa) = 34.79819 44.55248 39.67534
#
# Velocity S-wave (km/s) = 3.62501 4.10173 3.87072
# Velocity P-wave (km/s) = 5.39560 6.30820 5.86966
#
# Compressibility (1/GPa) = 0.03257785
#
# Stress axis : x y z
#
# Youngs Moduli (GPa) = 61.82244 72.87712 79.18052
#
# Poissons Ratio (x) = 0.18238 0.29710
# Poissons Ratio (y) = 0.15471 -0.10138
# Poissons Ratio (z) = 0.23197 -0.09331
#
# Static dielectric constant tensor:
#      x y z
#    x 2.142970 -0.040970 -0.013190 
#    y -0.040970 2.010720 -0.028820 
#    z -0.013190 -0.028820 2.154510 
# 
# From -- ./inp_files/582342.got.cif
#   From: 2010.05.17/outbox.cif.g08.bks.cpg/sg2_292_cif.got.tgz:582342.got - 2010.06.03 11:33:40.
