data_PCOD9005600
_publ_section_title
;
Structure prediction by ZEFSAII (Michael W. Deem and Ramdas Pophale) SiO2 
 PCOD9005600
Probable space group: P -1
;
_chemical_formula_sum "Si O2"
_cell_formula_units_Z 16
_cell_length_a 11.801490
_cell_length_b 8.553092
_cell_length_c 16.954812
_cell_angle_alpha 56.389788
_cell_angle_beta 30.601247
_cell_angle_gamma 65.888508
_cell_volume 716.186232
_symmetry_space_group_name_H-M "P -1"
_symmetry_group_IT_number 2
_symmetry_cell_setting 'triclinic'
loop_
_space_group_symop_operation_xyz
x,y,z
-x,-y,-z
loop_
_atom_site_type_symbol
_atom_site_label
_atom_site_fract_x
_atom_site_fract_y
_atom_site_fract_z
Si Si1 0.702576 0.599298 0.796359
Si Si2 0.953943 0.113710 0.682242
Si Si3 0.470565 0.051190 0.270565
Si Si4 0.269961 0.055138 0.998248
Si Si5 0.935191 0.258166 0.344450
Si Si6 0.909138 0.328991 0.162630
Si Si7 0.451927 0.263879 0.376789
Si Si8 0.678318 0.370113 0.713294
O O1 0.670848 0.813686 0.731749
O O2 0.676053 0.478507 0.766535
O O3 0.935112 0.613344 0.701219
O O4 0.500000 0.500000 0.000000
O O5 0.907203 0.278254 0.604834
O O6 0.205158 0.139846 0.559448
O O7 0.921889 0.912130 0.714023
O O8 0.791560 0.111711 0.854840
O O9 0.553653 0.182523 0.259232
O O10 0.666294 0.005839 0.109134
O O11 0.305305 0.858819 0.450187
O O12 0.485418 0.191239 0.866166
O O13 0.061337 0.170083 0.094211
O O14 0.934083 0.366460 0.231205
O O15 0.643345 0.260940 0.326942
O O16 0.000000 0.500000 0.000000
O O17 0.386468 0.474552 0.351923
#
# Coordination Sequence:
#
# PCOD9005600 Si02
#       8
#     2   2   2   2   2   2   2   2
#     4  11  21  36  63  97 132 167 204 265 319 377
#     4  10  21  38  62  96 121 162 208 260 312 379
#     4  10  23  40  61  99 129 161 207 267 320 372
#     4  11  22  39  66  92 128 167 206 259 316 373
#     4  10  23  41  66  89 128 173 208 259 321 371
#     4  11  23  45  68  88 123 173 220 257 307 385
#     4  10  23  41  65  89 128 165 214 255 314 370
#     4  11  21  37  64  96 127 164 206 260 315 376
#
# _framework density 22.340558999999999
#
# number of rings (size 3 to 8) (size 9 to 14) (size 15 to 20)
#    0.000    1.500    1.250    4.125    1.750    8.000 
#    0.000    0.625    0.000    0.000    0.000    0.000 
#    0.000    0.000    0.000    0.000    0.000    0.000 
#
# Total GULP energy -89360.243487 kJ/mol
# GULP energy per Si atom -5585.015218 kJ/mol
# Density = 2.228971 g / cm^3
# Si number density = 22.340559 Si / 1000 Ang^3
#
#
#
# Elastic Constant Matrix: (Units=GPa)
#
#
# Indices 1 2 3 4 5 6 
#
# 1 89.1859 7.4843 -0.0195 -4.6655 -2.7948 -5.1132
# 2 7.4843 43.6346 11.8134 1.9821 5.3568 -11.7671
# 3 -0.0195 11.8134 57.5218 2.6533 11.3756 -0.6143
# 4 -4.6655 1.9821 2.6533 27.1289 1.9987 -0.0696
# 5 -2.7948 5.3568 11.3756 1.9987 34.4770 -0.1798
# 6 -5.1132 -11.7671 -0.6143 -0.0696 -0.1798 30.1096
#
#
#
# Elastic Compliance Matrix: (Units=1/GPa)
#
#
# Indices 1 2 3 4 5 6 
#
# 1 0.011585 -0.001908 0.000099 0.002045 0.001091 0.001235
# 2 -0.001908 0.027812 -0.004996 -0.001647 -0.002678 0.010423
# 3 0.000099 -0.004996 0.019555 -0.001121 -0.005611 -0.001573
# 4 0.002045 -0.001647 -0.001121 0.037544 -0.001386 -0.000241
# 5 0.001091 -0.002678 -0.005611 -0.001386 0.031437 -0.000791
# 6 0.001235 0.010423 -0.001573 -0.000241 -0.000791 0.037458
#
#
# Mechanical properties :
#
#
# Convention : Reuss Voigt Hill
#
# Bulk Modulus (GPa) = 22.05403 25.43320 23.74362
# Shear Modulus (GPa) = 25.75813 29.74739 27.75276
#
# Velocity S-wave (km/s) = 3.39923 3.65299 3.52839
# Velocity P-wave (km/s) = 5.02987 5.40384 5.22020
#
# Compressibility (1/GPa) = 0.04534318
#
# Stress axis : x y z
#
# Youngs Moduli (GPa) = 86.32164 35.95606 51.13701
#
# Poissons Ratio (x) = 0.06859 -0.00505
# Poissons Ratio (y) = 0.16466 0.25546
# Poissons Ratio (z) = -0.00853 0.17962
#
# Static dielectric constant tensor:
#      x y z
#    x 1.824730 -0.018120 0.032320 
#    y -0.018120 1.845700 -0.007370 
#    z 0.032320 -0.007370 1.878290 
# 
# From -- ./inp_files/181788.got.cif
#   From: 2010.05.17/outbox.cif.g08.bks.cpg/sg2_91_cif.got.tgz:181788.got - 2010.06.03 11:33:40.
