data_PCOD9005618
_publ_section_title
;
Structure prediction by ZEFSAII (Michael W. Deem and Ramdas Pophale) SiO2 
 PCOD9005618
Probable space group: P -1
;
_chemical_formula_sum "Si O2"
_cell_formula_units_Z 16
_cell_length_a 11.878683
_cell_length_b 7.230247
_cell_length_c 11.738492
_cell_angle_alpha 58.336051
_cell_angle_beta 127.908621
_cell_angle_gamma 110.268789
_cell_volume 676.601075
_symmetry_space_group_name_H-M "P -1"
_symmetry_group_IT_number 2
_symmetry_cell_setting 'triclinic'
loop_
_space_group_symop_operation_xyz
x,y,z
-x,-y,-z
loop_
_atom_site_type_symbol
_atom_site_label
_atom_site_fract_x
_atom_site_fract_y
_atom_site_fract_z
Si Si1 0.133605 0.347193 0.640595
Si Si2 0.653878 0.252006 0.047297
Si Si3 0.686075 0.549685 0.510939
Si Si4 0.353810 0.164914 0.985962
Si Si5 0.068319 0.897681 0.681968
Si Si6 0.424554 0.208054 0.436732
Si Si7 0.052964 0.545463 0.149073
Si Si8 0.227752 0.270774 0.094190
O O1 0.223943 0.382097 0.568081
O O2 0.248369 0.348597 0.812703
O O3 0.000000 0.500000 0.500000
O O4 0.073126 0.100325 0.703987
O O5 0.508128 0.260704 0.019386
O O6 0.710599 0.481014 0.961208
O O7 0.773342 0.163258 0.232552
O O8 0.650399 0.067928 0.005808
O O9 0.546427 0.402574 0.435814
O O10 0.627484 0.756079 0.477374
O O11 0.788734 0.422201 0.707376
O O12 0.314761 0.133259 0.102534
O O13 0.991682 0.681553 0.746231
O O14 0.000000 0.000000 0.500000
O O15 0.277991 0.216321 0.269462
O O16 0.500000 0.000000 0.500000
O O17 0.000000 0.500000 0.000000
O O18 0.938578 0.729348 0.044840
#
# Coordination Sequence:
#
# PCOD9005618 Si02
#       8
#     2   2   2   2   2   2   2   2
#     4  11  23  41  68 105 140 177 229 294 365 415
#     4   9  21  37  61  93 132 174 216 273 346 402
#     4  11  24  47  71  97 144 185 230 295 352 413
#     4  10  21  38  62  98 130 170 221 273 341 418
#     4  10  21  39  67  98 134 178 228 286 346 418
#     4  11  27  46  68 102 136 189 242 285 350 428
#     4  11  22  44  72  98 135 185 233 285 350 415
#     4  11  22  42  67  93 133 173 227 284 337 410
#
# _framework density 23.647613
#
# number of rings (size 3 to 8) (size 9 to 14) (size 15 to 20)
#    0.000    1.500    2.500    1.875    1.750    6.000 
#    2.250    1.875    0.000    0.000    0.000    0.000 
#    0.000    0.000    0.000    0.000    0.000    0.000 
#
# Total GULP energy -89222.855509 kJ/mol
# GULP energy per Si atom -5576.428469 kJ/mol
# Density = 2.359379 g / cm^3
# Si number density = 23.647613 Si / 1000 Ang^3
#
#
#
# Elastic Constant Matrix: (Units=GPa)
#
#
# Indices 1 2 3 4 5 6 
#
# 1 79.4191 24.5634 1.3862 3.4186 2.3280 -23.8843
# 2 24.5634 63.5806 12.8833 -3.7435 8.2305 -17.1697
# 3 1.3862 12.8833 91.2788 9.2498 14.5575 1.7541
# 4 3.4186 -3.7435 9.2498 25.6212 -6.9983 1.9247
# 5 2.3280 8.2305 14.5575 -6.9983 45.8555 4.8008
# 6 -23.8843 -17.1697 1.7541 1.9247 4.8008 32.7240
#
#
#
# Elastic Compliance Matrix: (Units=1/GPa)
#
#
# Indices 1 2 3 4 5 6 
#
# 1 0.017431 -0.003841 0.000920 -0.004719 -0.002389 0.011285
# 2 -0.003841 0.020642 -0.002850 0.003100 -0.003015 0.008439
# 3 0.000920 -0.002850 0.012708 -0.006316 -0.004484 -0.000476
# 4 -0.004719 0.003100 -0.006316 0.045313 0.009179 -0.005491
# 5 -0.002389 -0.003015 -0.004484 0.009179 0.026074 -0.007451
# 6 0.011285 0.008439 -0.000476 -0.005491 -0.007451 0.044665
#
#
# Mechanical properties :
#
#
# Convention : Reuss Voigt Hill
#
# Bulk Modulus (GPa) = 25.48669 34.66047 30.07358
# Shear Modulus (GPa) = 26.11580 33.86986 29.99283
#
# Velocity S-wave (km/s) = 3.32682 3.78865 3.56522
# Velocity P-wave (km/s) = 5.05550 5.81613 5.44910
#
# Compressibility (1/GPa) = 0.03923617
#
# Stress axis : x y z
#
# Youngs Moduli (GPa) = 57.37029 48.44580 78.69037
#
# Poissons Ratio (x) = 0.18610 -0.07239
# Poissons Ratio (y) = 0.22039 0.22431
# Poissons Ratio (z) = -0.05278 0.13809
#
# Static dielectric constant tensor:
#      x y z
#    x 1.928180 -0.025660 0.060160 
#    y -0.025660 1.460030 -0.161610 
#    z 0.060160 -0.161610 1.863980 
# 
# From -- ./inp_files/419216.got.cif
#   From: 2010.05.17/outbox.cif.g08.bks.cpg/sg2_210_cif.got.tgz:419216.got - 2010.06.03 11:33:40.
