data_PCOD9005311
_publ_section_title
;
Structure prediction by ZEFSAII (Michael W. Deem and Ramdas Pophale) SiO2 
 PCOD9005311
Probable space group: P -1
;
_chemical_formula_sum "Si O2"
_cell_formula_units_Z 16
_cell_length_a 7.468386
_cell_length_b 9.525620
_cell_length_c 18.258098
_cell_angle_alpha 134.173284
_cell_angle_beta 49.618513
_cell_angle_gamma 113.428952
_cell_volume 706.202035
_symmetry_space_group_name_H-M "P -1"
_symmetry_group_IT_number 2
_symmetry_cell_setting 'triclinic'
loop_
_space_group_symop_operation_xyz
x,y,z
-x,-y,-z
loop_
_atom_site_type_symbol
_atom_site_label
_atom_site_fract_x
_atom_site_fract_y
_atom_site_fract_z
Si Si1 0.946598 0.917493 0.561820
Si Si2 0.975794 0.733605 0.075944
Si Si3 0.535090 0.976920 0.205326
Si Si4 0.563004 0.534589 0.328158
Si Si5 0.755718 0.908293 0.337386
Si Si6 0.633537 0.251840 0.401296
Si Si7 0.778035 0.139233 0.078899
Si Si8 0.054804 0.479019 0.392724
O O1 0.727126 0.042462 0.704651
O O2 0.937422 0.685230 0.466859
O O3 0.154552 0.945640 0.573589
O O4 0.000000 0.000000 0.500000
O O5 0.951062 0.830073 0.197632
O O6 0.732768 0.810549 0.123510
O O7 0.000000 0.500000 0.000000
O O8 0.178275 0.814866 0.001201
O O9 0.574452 0.181751 0.310997
O O10 0.565911 0.027427 0.129832
O O11 0.492368 0.586399 0.450623
O O12 0.761318 0.354946 0.198417
O O13 0.338345 0.472403 0.317064
O O14 0.652210 0.726403 0.336599
O O15 0.584648 0.052504 0.385321
O O16 0.906201 0.303016 0.343234
O O17 0.000000 0.000000 0.000000
O O18 0.000000 0.500000 0.500000
#
# Coordination Sequence:
#
# PCOD9005311 Si02
#       8
#     2   2   2   2   2   2   2   2
#     4  12  25  38  60 103 142 159 202 267 331 388
#     4  10  21  43  67  85 117 177 231 258 302 378
#     4  10  23  40  66  91 135 165 201 276 329 363
#     4  11  20  35  69  90 128 170 208 260 323 380
#     4  11  22  38  66  94 130 165 218 258 316 389
#     4  10  21  38  65  98 125 167 214 249 330 403
#     4  10  22  40  65  89 122 168 220 271 314 357
#     4  10  21  38  61  91 134 162 208 253 312 406
#
# _framework density 22.656404999999999
#
# number of rings (size 3 to 8) (size 9 to 14) (size 15 to 20)
#    0.000    1.500    3.750    2.625    3.500    3.000 
#    0.000    1.250    5.500    0.000    0.000    0.000 
#    0.000    0.000    0.000    0.000    0.000    0.000 
#
# Total GULP energy -89161.725080 kJ/mol
# GULP energy per Si atom -5572.607818 kJ/mol
# Density = 2.260484 g / cm^3
# Si number density = 22.656405 Si / 1000 Ang^3
#
#
#
# Elastic Constant Matrix: (Units=GPa)
#
#
# Indices 1 2 3 4 5 6 
#
# 1 35.3139 5.8551 8.9493 -10.7042 4.2998 2.8933
# 2 5.8551 138.8709 45.2918 -7.1516 -7.1854 -23.9501
# 3 8.9493 45.2918 121.4637 -6.6266 -0.9201 -13.2595
# 4 -10.7042 -7.1516 -6.6266 60.4885 -11.5154 1.4633
# 5 4.2998 -7.1854 -0.9201 -11.5154 31.3835 0.3983
# 6 2.8933 -23.9501 -13.2595 1.4633 0.3983 31.1357
#
#
#
# Elastic Compliance Matrix: (Units=1/GPa)
#
#
# Indices 1 2 3 4 5 6 
#
# 1 0.031278 -0.001417 -0.002095 0.004713 -0.002877 -0.005073
# 2 -0.001417 0.009357 -0.002648 0.000895 0.002509 0.006127
# 3 -0.002095 -0.002648 0.009638 0.000328 0.000055 0.002246
# 4 0.004713 0.000895 0.000328 0.018751 0.006456 -0.000573
# 5 -0.002877 0.002509 0.000055 0.006456 0.035185 0.001468
# 6 -0.005073 0.006127 0.002246 -0.000573 0.001468 0.038267
#
#
# Mechanical properties :
#
#
# Convention : Reuss Voigt Hill
#
# Bulk Modulus (GPa) = 26.34748 46.20452 36.27600
# Shear Modulus (GPa) = 29.86052 40.30503 35.08277
#
# Velocity S-wave (km/s) = 3.63433 4.22236 3.93933
# Velocity P-wave (km/s) = 5.40976 6.64898 6.06112
#
# Compressibility (1/GPa) = 0.03795429
#
# Stress axis : x y z
#
# Youngs Moduli (GPa) = 31.97158 106.87260 103.75424
#
# Poissons Ratio (x) = 0.15140 0.21734
# Poissons Ratio (y) = 0.04529 0.27474
# Poissons Ratio (z) = 0.06697 0.28299
#
# Static dielectric constant tensor:
#      x y z
#    x 1.889860 -0.001180 -0.075580 
#    y -0.001180 1.877120 -0.043450 
#    z -0.075580 -0.043450 1.925520 
# 
# From -- ./inp_files/587508.got.cif
#   From: 2010.05.17/outbox.cif.g08.bks.cpg/sg2_294_cif.got.tgz:587508.got - 2010.06.03 11:33:40.
