data_PCOD9005883
_publ_section_title
;
Structure prediction by ZEFSAII (Michael W. Deem and Ramdas Pophale) SiO2 
 PCOD9005883
Probable space group: P -1
;
_chemical_formula_sum "Si O2"
_cell_formula_units_Z 14
_cell_length_a 11.260428
_cell_length_b 14.772163
_cell_length_c 19.448799
_cell_angle_alpha 20.691431
_cell_angle_beta 147.287945
_cell_angle_gamma 150.152856
_cell_volume 560.566146
_symmetry_space_group_name_H-M "P -1"
_symmetry_group_IT_number 2
_symmetry_cell_setting 'triclinic'
loop_
_space_group_symop_operation_xyz
x,y,z
-x,-y,-z
loop_
_atom_site_type_symbol
_atom_site_label
_atom_site_fract_x
_atom_site_fract_y
_atom_site_fract_z
Si Si1 0.250237 0.647616 0.422961
Si Si2 0.770788 0.843048 0.546982
Si Si3 0.032729 0.879540 0.409803
Si Si4 0.583148 0.333229 0.256624
Si Si5 0.194416 0.268582 0.801582
Si Si6 0.122079 0.314024 0.980717
Si Si7 0.920580 0.390632 0.960646
O O1 0.524040 0.863795 0.393917
O O2 0.170529 0.435336 0.471012
O O3 0.227795 0.457588 0.615441
O O4 0.052945 0.768400 0.253512
O O5 0.719847 0.510040 0.763494
O O6 0.000000 0.000000 0.500000
O O7 0.860825 0.982090 0.565111
O O8 0.269747 0.846490 0.518076
O O9 0.909118 0.076175 0.180191
O O10 0.597982 0.546257 0.175170
O O11 0.318769 0.209095 0.181728
O O12 0.753283 0.509162 0.151232
O O13 0.130220 0.948892 0.975594
O O14 0.083413 0.491139 0.899086
O O15 0.000000 0.500000 0.000000
#
# Coordination Sequence:
#
# PCOD9005883 Si02
#       7
#     2   2   2   2   2   2   2
#     4  10  22  39  66  95 126 164 210 262 323 378
#     4  11  24  42  64  90 127 174 215 260 311 377
#     4  10  21  43  62  92 125 164 213 266 312 375
#     4  10  23  36  68  94 126 167 205 268 333 369
#     4  10  21  38  64 100 125 160 211 265 322 386
#     4  11  21  41  59  95 132 163 209 267 320 377
#     4  10  23  39  62  90 125 169 220 252 306 383
#
# _framework density 24.974751999999999
#
# number of rings (size 3 to 8) (size 9 to 14) (size 15 to 20)
#    0.000    1.714    1.429    2.143    4.000    2.857 
#    0.000    0.000    0.000    0.000    0.000    0.000 
#    0.000    0.000    0.000    0.000    0.000    0.000 
#
# Total GULP energy -78105.061354 kJ/mol
# GULP energy per Si atom -5578.932954 kJ/mol
# Density = 2.491791 g / cm^3
# Si number density = 24.974752 Si / 1000 Ang^3
#
#
#
# Elastic Constant Matrix: (Units=GPa)
#
#
# Indices 1 2 3 4 5 6 
#
# 1 66.7912 19.6379 12.9107 -12.0827 16.7258 -8.0728
# 2 19.6379 101.6711 9.9969 -1.1920 17.6474 -13.9894
# 3 12.9107 9.9969 91.9019 -2.2044 1.7957 -13.2046
# 4 -12.0827 -1.1920 -2.2044 25.7561 -6.4702 6.6504
# 5 16.7258 17.6474 1.7957 -6.4702 21.4068 -1.5231
# 6 -8.0728 -13.9894 -13.2046 6.6504 -1.5231 32.2507
#
#
#
# Elastic Compliance Matrix: (Units=1/GPa)
#
#
# Indices 1 2 3 4 5 6 
#
# 1 0.020145 -0.001124 -0.002040 0.005486 -0.012843 0.001982
# 2 -0.001124 0.012556 -0.000332 -0.003933 -0.010252 0.005356
# 3 -0.002040 -0.000332 0.011797 -0.000865 0.000930 0.004397
# 4 0.005486 -0.003933 -0.000865 0.046795 0.012479 -0.009747
# 5 -0.012843 -0.010252 0.000930 0.012479 0.068423 -0.006623
# 6 0.001982 0.005356 0.004397 -0.009747 -0.006623 0.037324
#
#
# Mechanical properties :
#
#
# Convention : Reuss Voigt Hill
#
# Bulk Modulus (GPa) = 26.66416 38.38391 32.52403
# Shear Modulus (GPa) = 23.09100 30.40397 26.74749
#
# Velocity S-wave (km/s) = 3.04398 3.49289 3.27613
# Velocity P-wave (km/s) = 4.80146 5.62757 5.23085
#
# Compressibility (1/GPa) = 0.03750353
#
# Stress axis : x y z
#
# Youngs Moduli (GPa) = 49.64013 79.64465 84.76816
#
# Poissons Ratio (x) = 0.08954 0.17297
# Poissons Ratio (y) = 0.05581 0.02817
# Poissons Ratio (z) = 0.10129 0.02647
#
# Static dielectric constant tensor:
#      x y z
#    x 1.963500 0.005310 -0.058040 
#    y 0.005310 1.970680 -0.082220 
#    z -0.058040 -0.082220 2.098120 
# 
# From -- ./inp_files/346053.got.cif
#   From: 2010.05.17/outbox.cif.g08.bks.cpg/sg2_174_cif.got.tgz:346053.got - 2010.06.03 11:33:40.
