data_PCOD9005729
_publ_section_title
;
Structure prediction by ZEFSAII (Michael W. Deem and Ramdas Pophale) SiO2 
 PCOD9005729
Probable space group: P -1
;
_chemical_formula_sum "Si O2"
_cell_formula_units_Z 14
_cell_length_a 7.307700
_cell_length_b 11.894790
_cell_length_c 7.671790
_cell_angle_alpha 108.374624
_cell_angle_beta 63.665356
_cell_angle_gamma 120.088955
_cell_volume 513.398464
_symmetry_space_group_name_H-M "P -1"
_symmetry_group_IT_number 2
_symmetry_cell_setting 'triclinic'
loop_
_space_group_symop_operation_xyz
x,y,z
-x,-y,-z
loop_
_atom_site_type_symbol
_atom_site_label
_atom_site_fract_x
_atom_site_fract_y
_atom_site_fract_z
Si Si1 0.239183 0.045892 0.132583
Si Si2 0.490677 0.108337 0.682877
Si Si3 0.237234 0.494057 0.440944
Si Si4 0.648014 0.276652 0.246040
Si Si5 0.955632 0.766622 0.760232
Si Si6 0.113807 0.755693 0.187944
Si Si7 0.333341 0.319511 0.807186
O O1 0.416478 0.151294 0.240680
O O2 0.041820 0.094062 0.217832
O O3 0.156371 0.898802 0.161302
O O4 0.368477 0.061340 0.900330
O O5 0.380953 0.194412 0.680094
O O6 0.500000 0.000000 0.500000
O O7 0.745926 0.207702 0.677111
O O8 0.345517 0.593365 0.604211
O O9 0.169503 0.340644 0.385998
O O10 0.426233 0.559410 0.244525
O O11 0.000000 0.500000 0.500000
O O12 0.813139 0.235098 0.273340
O O13 0.767401 0.308875 0.022088
O O14 0.787979 0.714332 0.971747
O O15 0.150276 0.329525 0.759796
#
# Coordination Sequence:
#
# PCOD9005729 Si02
#       7
#     2   2   2   2   2   2   2
#     4  10  21  38  63  91 127 165 200 240 311 374
#     4  10  22  38  61  91 128 163 199 249 303 362
#     4  10  21  40  65  89 120 161 212 256 304 356
#     4   9  19  36  61  86 121 158 200 248 298 354
#     4   9  20  39  61  89 120 166 205 248 302 360
#     4  10  22  40  62  93 127 164 198 246 312 374
#     4  10  22  39  62  90 126 161 203 255 311 359
#
# _framework density 27.269264
#
# number of rings (size 3 to 8) (size 9 to 14) (size 15 to 20)
#    0.000    2.286    0.000    2.143    4.000    7.429 
#    2.571    2.857    0.000   14.571    0.000    0.000 
#    0.000    0.000    0.000    0.000    0.000    0.000 
#
# Total GULP energy -78519.467550 kJ/mol
# GULP energy per Si atom -5608.533396 kJ/mol
# Density = 2.720720 g / cm^3
# Si number density = 27.269264 Si / 1000 Ang^3
#
#
#
# Elastic Constant Matrix: (Units=GPa)
#
#
# Indices 1 2 3 4 5 6 
#
# 1 82.8730 8.9806 28.4305 2.0182 1.2687 29.1541
# 2 8.9806 106.9084 37.6740 6.8714 -5.0550 18.1761
# 3 28.4305 37.6740 146.3932 38.2510 18.7202 -1.5077
# 4 2.0182 6.8714 38.2510 55.8098 3.8902 -0.8945
# 5 1.2687 -5.0550 18.7202 3.8902 40.3043 5.6876
# 6 29.1541 18.1761 -1.5077 -0.8945 5.6876 42.1211
#
#
#
# Elastic Compliance Matrix: (Units=1/GPa)
#
#
# Indices 1 2 3 4 5 6 
#
# 1 0.018952 0.003101 -0.005819 0.002370 0.004412 -0.015209
# 2 0.003101 0.012323 -0.004769 0.001179 0.004713 -0.008246
# 3 -0.005819 -0.004769 0.011831 -0.006758 -0.006276 0.007213
# 4 0.002370 0.001179 -0.006758 0.022190 0.001367 -0.002104
# 5 0.004412 0.004713 -0.006276 0.001367 0.029351 -0.009247
# 6 -0.015209 -0.008246 0.007213 -0.002104 -0.009247 0.039288
#
#
# Mechanical properties :
#
#
# Convention : Reuss Voigt Hill
#
# Bulk Modulus (GPa) = 35.54690 54.03832 44.79261
# Shear Modulus (GPa) = 31.58828 45.05299 38.32063
#
# Velocity S-wave (km/s) = 3.40720 4.06908 3.75276
# Velocity P-wave (km/s) = 5.34251 6.47581 5.93627
#
# Compressibility (1/GPa) = 0.02813185
#
# Stress axis : x y z
#
# Youngs Moduli (GPa) = 52.76471 81.14979 84.52530
#
# Poissons Ratio (x) = -0.25161 0.49182
# Poissons Ratio (y) = -0.16360 0.40310
# Poissons Ratio (z) = 0.30701 0.38700
#
# Static dielectric constant tensor:
#      x y z
#    x 2.116890 0.018300 -0.007090 
#    y 0.018300 2.132780 -0.084320 
#    z -0.007090 -0.084320 2.161620 
# 
# From -- ./inp_files/172026.got.cif
#   From: 2010.05.17/outbox.cif.g08.bks.cpg/sg2_87_cif.got.tgz:172026.got - 2010.06.03 11:33:40.
