data_PCOD9005705
_publ_section_title
;
Structure prediction by ZEFSAII (Michael W. Deem and Ramdas Pophale) SiO2 
 PCOD9005705
Probable space group: P -1
;
_chemical_formula_sum "Si O2"
_cell_formula_units_Z 16
_cell_length_a 27.414132
_cell_length_b 9.444391
_cell_length_c 15.221640
_cell_angle_alpha 132.021663
_cell_angle_beta 15.995755
_cell_angle_gamma 138.635317
_cell_volume 687.754232
_symmetry_space_group_name_H-M "P -1"
_symmetry_group_IT_number 2
_symmetry_cell_setting 'triclinic'
loop_
_space_group_symop_operation_xyz
x,y,z
-x,-y,-z
loop_
_atom_site_type_symbol
_atom_site_label
_atom_site_fract_x
_atom_site_fract_y
_atom_site_fract_z
Si Si1 0.770376 0.999700 0.315092
Si Si2 0.353148 0.568165 0.089139
Si Si3 0.888629 0.667349 0.995713
Si Si4 0.118408 0.743153 0.939995
Si Si5 0.558588 0.860285 0.027814
Si Si6 0.457535 0.229734 0.788177
Si Si7 0.869392 0.277389 0.577469
Si Si8 0.081895 0.743235 0.196768
O O1 0.864877 0.083086 0.088933
O O2 0.572438 0.023537 0.673434
O O3 0.937607 0.178667 0.168838
O O4 0.733452 0.757940 0.299181
O O5 0.462761 0.715341 0.046378
O O6 0.323067 0.714236 0.129555
O O7 0.120476 0.375951 0.441441
O O8 0.465532 0.437198 0.812559
O O9 0.818863 0.413035 0.030129
O O10 0.000402 0.722773 0.730712
O O11 0.349982 0.795748 0.579536
O O12 0.015972 0.733284 0.205663
O O13 0.000000 0.500000 0.000000
O O14 0.539466 0.727964 0.094436
O O15 0.786115 0.061808 0.692920
O O16 0.247554 0.996243 0.037794
O O17 0.000000 0.500000 0.500000
#
# Coordination Sequence:
#
# PCOD9005705 Si02
#       8
#     2   2   2   2   2   2   2   2
#     4  10  21  38  63  91 115 160 207 253 298 364
#     4  11  23  41  63  92 125 166 211 254 308 376
#     4  10  21  39  62  89 121 158 204 249 310 361
#     4  11  22  41  61  90 122 163 210 256 306 373
#     4  11  21  42  62  92 124 162 211 257 302 371
#     4  11  25  39  63  92 126 166 206 256 319 367
#     4  11  24  41  63  92 131 163 203 259 316 368
#     4  11  21  42  61  88 129 159 202 263 312 367
#
# _framework density 23.264125
#
# number of rings (size 3 to 8) (size 9 to 14) (size 15 to 20)
#    0.000    1.250    3.750    3.750    0.000    4.000 
#    0.000    5.625    0.000    0.000    0.000    0.000 
#    0.000    0.000    0.000    0.000    0.000    0.000 
#
# Total GULP energy -89540.945150 kJ/mol
# GULP energy per Si atom -5596.309072 kJ/mol
# Density = 2.321117 g / cm^3
# Si number density = 23.264125 Si / 1000 Ang^3
#
#
#
# Elastic Constant Matrix: (Units=GPa)
#
#
# Indices 1 2 3 4 5 6 
#
# 1 64.2512 5.8218 -1.1407 9.1709 9.2073 -16.0334
# 2 5.8218 91.0903 1.5476 19.8582 -11.8794 -19.3686
# 3 -1.1407 1.5476 25.7174 -3.9655 4.5430 -7.1070
# 4 9.1709 19.8582 -3.9655 28.3665 0.9263 5.7753
# 5 9.2073 -11.8794 4.5430 0.9263 24.4540 -22.8163
# 6 -16.0334 -19.3686 -7.1070 5.7753 -22.8163 2.1106
#
#
#
# Elastic Compliance Matrix: (Units=1/GPa)
#
#
# Indices 1 2 3 4 5 6 
#
# 1 0.016923 -0.002729 0.001589 -0.002314 -0.010959 -0.003273
# 2 -0.002729 0.008344 -0.003472 -0.002685 -0.005929 -0.012601
# 3 0.001589 -0.003472 0.042369 0.007880 -0.009253 0.001288
# 4 -0.002314 -0.002685 0.007880 0.035296 0.011884 0.016204
# 5 -0.010959 -0.005929 -0.009253 0.011884 0.015898 -0.029485
# 6 -0.003273 -0.012601 0.001288 0.016204 -0.029485 -0.025447
#
#
# Mechanical properties :
#
#
# Convention : Reuss Voigt Hill
#
# Bulk Modulus (GPa) = 17.11950 21.50181 19.31065
# Shear Modulus (GPa) = 40.95737 22.64155 31.79946
#
# Velocity S-wave (km/s) = 4.20043 3.12306 3.70116
# Velocity P-wave (km/s) = 5.55873 4.71882 5.15591
#
# Compressibility (1/GPa) = 0.05841294
#
# Stress axis : x y z
#
# Youngs Moduli (GPa) = 59.08947 119.84230 23.60206
#
# Poissons Ratio (x) = 0.32708 -0.03751
# Poissons Ratio (y) = 0.16127 0.08195
# Poissons Ratio (z) = -0.09392 0.41611
#
# Static dielectric constant tensor:
#      x y z
#    x 1.870560 -0.029130 -0.009510 
#    y -0.029130 1.851410 0.026590 
#    z -0.009510 0.026590 1.881720 
# 
# From -- ./inp_files/186768.got.cif
#   From: 2010.05.17/outbox.cif.g08.bks.cpg/sg2_94_cif.got.tgz:186768.got - 2010.06.03 11:33:40.
