data_PCOD9005591
_publ_section_title
;
Structure prediction by ZEFSAII (Michael W. Deem and Ramdas Pophale) SiO2 
 PCOD9005591
Probable space group: P -1
;
_chemical_formula_sum "Si O2"
_cell_formula_units_Z 16
_cell_length_a 22.548005
_cell_length_b 13.527735
_cell_length_c 8.729382
_cell_angle_alpha 132.888991
_cell_angle_beta 42.751486
_cell_angle_gamma 155.418154
_cell_volume 751.118402
_symmetry_space_group_name_H-M "P -1"
_symmetry_group_IT_number 2
_symmetry_cell_setting 'triclinic'
loop_
_space_group_symop_operation_xyz
x,y,z
-x,-y,-z
loop_
_atom_site_type_symbol
_atom_site_label
_atom_site_fract_x
_atom_site_fract_y
_atom_site_fract_z
Si Si1 0.975066 0.308509 0.812358
Si Si2 0.348175 0.715378 0.995280
Si Si3 0.190022 0.375787 0.655865
Si Si4 0.475725 0.622041 0.221402
Si Si5 0.350329 0.608399 0.181324
Si Si6 0.860951 0.439928 0.523140
Si Si7 0.930183 0.950495 0.915568
Si Si8 0.791721 0.051534 0.183119
O O1 0.104397 0.375790 0.712243
O O2 0.995823 0.325150 0.604916
O O3 0.000000 0.500000 0.000000
O O4 0.831811 0.088671 0.963493
O O5 0.293272 0.588798 0.806095
O O6 0.395686 0.663558 0.975521
O O7 0.191447 0.579114 0.227871
O O8 0.500000 0.000000 0.000000
O O9 0.306153 0.428253 0.402720
O O10 0.065463 0.129352 0.723145
O O11 0.477868 0.721500 0.174392
O O12 0.608512 0.827797 0.305131
O O13 0.500000 0.500000 0.000000
O O14 0.288653 0.681984 0.406311
O O15 0.201939 0.322558 0.166730
O O16 0.862518 0.281680 0.347956
O O17 0.857120 0.007208 0.103343
O O18 0.000000 0.000000 0.000000
#
# Coordination Sequence:
#
# PCOD9005591 Si02
#       8
#     2   2   2   2   2   2   2   2
#     4   9  19  38  61  93 122 165 214 260 315 377
#     4  10  21  38  62  95 126 164 214 258 323 383
#     4  11  22  39  68  91 126 178 211 267 323 378
#     4  12  24  41  61 100 130 165 216 267 325 385
#     4  10  22  40  65  91 130 164 215 260 322 377
#     4   9  19  40  63  93 127 164 215 266 311 381
#     4  11  21  43  65  92 130 173 216 261 320 383
#     4  10  22  37  67  96 133 165 214 271 320 380
#
# _framework density 21.301568
#
# number of rings (size 3 to 8) (size 9 to 14) (size 15 to 20)
#    0.750    1.000    3.750    0.750    0.000    4.000 
#    0.000   13.750    0.000    1.500    0.000    0.000 
#    0.000    0.000    0.000    0.000    0.000    0.000 
#
# Total GULP energy -89132.901280 kJ/mol
# GULP energy per Si atom -5570.806330 kJ/mol
# Density = 2.125308 g / cm^3
# Si number density = 21.301568 Si / 1000 Ang^3
#
#
#
# Elastic Constant Matrix: (Units=GPa)
#
#
# Indices 1 2 3 4 5 6 
#
# 1 116.4484 42.2557 34.3254 -5.6605 -17.6000 -15.1946
# 2 42.2557 74.7802 13.4078 -9.9313 2.0667 -14.9898
# 3 34.3254 13.4078 89.6986 -4.0041 -11.9465 -8.3889
# 4 -5.6605 -9.9313 -4.0041 21.5996 -0.7943 -5.1187
# 5 -17.6000 2.0667 -11.9465 -0.7943 36.2070 2.9108
# 6 -15.1946 -14.9898 -8.3889 -5.1187 2.9108 28.5884
#
#
#
# Elastic Compliance Matrix: (Units=1/GPa)
#
#
# Indices 1 2 3 4 5 6 
#
# 1 0.012953 -0.006410 -0.003035 0.000604 0.005499 0.002181
# 2 -0.006410 0.020309 0.000103 0.009754 -0.004791 0.009507
# 3 -0.003035 0.000103 0.012976 0.002323 0.002659 0.002394
# 4 0.000604 0.009754 0.002323 0.055167 0.000431 0.015951
# 5 0.005499 -0.004791 0.002659 0.000431 0.031609 -0.001951
# 6 0.002181 0.009507 0.002394 0.015951 -0.001951 0.044880
#
#
# Mechanical properties :
#
#
# Convention : Reuss Voigt Hill
#
# Bulk Modulus (GPa) = 36.29049 51.21168 43.75109
# Shear Modulus (GPa) = 24.29981 30.00821 27.15401
#
# Velocity S-wave (km/s) = 3.38117 3.75738 3.57423
# Velocity P-wave (km/s) = 5.68477 6.55113 6.13327
#
# Compressibility (1/GPa) = 0.02755543
#
# Stress axis : x y z
#
# Youngs Moduli (GPa) = 77.20105 49.23839 77.06403
#
# Poissons Ratio (x) = 0.31560 0.23393
# Poissons Ratio (y) = 0.49483 -0.00797
# Poissons Ratio (z) = 0.23434 -0.00510
#
# Static dielectric constant tensor:
#      x y z
#    x 1.778270 0.030040 0.010650 
#    y 0.030040 1.348060 0.262670 
#    z 0.010650 0.262670 1.647450 
# 
# From -- ./inp_files/346284.got.cif
#   From: 2010.05.17/outbox.cif.g08.bks.cpg/sg2_174_cif.got.tgz:346284.got - 2010.06.03 11:33:40.
