data_PCOD9005313
_publ_section_title
;
Structure prediction by ZEFSAII (Michael W. Deem and Ramdas Pophale) SiO2 
 PCOD9005313
Probable space group: P -1
;
_chemical_formula_sum "Si O2"
_cell_formula_units_Z 14
_cell_length_a 7.933037
_cell_length_b 7.025777
_cell_length_c 16.908619
_cell_angle_alpha 110.899310
_cell_angle_beta 45.527298
_cell_angle_gamma 125.042427
_cell_volume 548.913249
_symmetry_space_group_name_H-M "P -1"
_symmetry_group_IT_number 2
_symmetry_cell_setting 'triclinic'
loop_
_space_group_symop_operation_xyz
x,y,z
-x,-y,-z
loop_
_atom_site_type_symbol
_atom_site_label
_atom_site_fract_x
_atom_site_fract_y
_atom_site_fract_z
Si Si1 0.137572 0.839219 0.017017
Si Si2 0.034900 0.029503 0.400374
Si Si3 0.078131 0.386580 0.263866
Si Si4 0.480843 0.712330 0.493453
Si Si5 0.815936 0.657080 0.943705
Si Si6 0.775237 0.028391 0.820675
Si Si7 0.716190 0.456562 0.626027
O O1 0.925729 0.654712 0.995853
O O2 0.450580 0.915386 0.907064
O O3 0.114344 0.802422 0.114340
O O4 0.118883 0.076087 0.047253
O O5 0.729588 0.958917 0.469406
O O6 0.103966 0.880770 0.293194
O O7 0.000000 0.000000 0.500000
O O8 0.262148 0.291816 0.351497
O O9 0.054678 0.411543 0.182078
O O10 0.289508 0.587739 0.285008
O O11 0.795041 0.315394 0.386551
O O12 0.151192 0.177479 0.216822
O O13 0.500000 0.500000 0.500000
O O14 0.497768 0.698727 0.391005
O O15 0.500000 0.500000 0.000000
O O16 0.000000 0.500000 0.500000
#
# Coordination Sequence:
#
# PCOD9005313 Si02
#       7
#     2   2   2   2   2   2   2
#     4   9  20  41  62  84 122 155 195 252 303 351
#     4  11  22  36  60  91 117 156 207 239 295 366
#     4   9  21  37  58  85 120 158 195 250 303 351
#     4  11  22  37  58  86 123 159 199 246 303 352
#     4  10  21  38  61  92 114 148 204 250 303 357
#     4   9  20  40  61  86 119 163 200 245 303 359
#     4   9  20  39  54  80 121 152 192 244 291 357
#
# _framework density 25.504940000000001
#
# number of rings (size 3 to 8) (size 9 to 14) (size 15 to 20)
#    0.000    2.286    1.429    0.000    2.000    7.429 
#    0.000    6.429    0.000    0.000    0.000    0.000 
#    0.000    0.000    0.000    0.000    0.000    0.000 
#
# Total GULP energy -78099.483913 kJ/mol
# GULP energy per Si atom -5578.534565 kJ/mol
# Density = 2.544689 g / cm^3
# Si number density = 25.504940 Si / 1000 Ang^3
#
#
#
# Elastic Constant Matrix: (Units=GPa)
#
#
# Indices 1 2 3 4 5 6 
#
# 1 174.5119 54.0403 76.5520 21.1635 53.4254 40.1483
# 2 54.0403 70.8790 22.0425 21.4389 32.1826 26.7479
# 3 76.5520 22.0425 162.3592 29.8530 43.6999 23.6883
# 4 21.1635 21.4389 29.8530 33.5400 6.0204 10.1126
# 5 53.4254 32.1826 43.6999 6.0204 49.9003 17.8937
# 6 40.1483 26.7479 23.6883 10.1126 17.8937 66.1347
#
#
#
# Elastic Compliance Matrix: (Units=1/GPa)
#
#
# Indices 1 2 3 4 5 6 
#
# 1 0.010165 -0.003424 -0.002382 -0.000378 -0.005707 -0.002331
# 2 -0.003424 0.029736 0.006130 -0.017797 -0.017004 -0.004822
# 3 -0.002382 0.006130 0.011021 -0.010264 -0.009516 -0.000836
# 4 -0.000378 -0.017797 -0.010264 0.047938 0.015210 -0.000342
# 5 -0.005707 -0.017004 -0.009516 0.015210 0.043765 -0.000417
# 6 -0.002331 -0.004822 -0.000836 -0.000342 -0.000417 0.018950
#
#
# Mechanical properties :
#
#
# Convention : Reuss Voigt Hill
#
# Bulk Modulus (GPa) = 19.39153 79.22442 49.30797
# Shear Modulus (GPa) = 28.07150 46.92268 37.49709
#
# Velocity S-wave (km/s) = 3.32117 4.29388 3.83846
# Velocity P-wave (km/s) = 4.72509 7.46412 6.24658
#
# Compressibility (1/GPa) = 0.05156891
#
# Stress axis : x y z
#
# Youngs Moduli (GPa) = 98.37963 33.62914 90.73823
#
# Poissons Ratio (x) = 0.11515 0.21616
# Poissons Ratio (y) = 0.33685 -0.55621
# Poissons Ratio (z) = 0.23436 -0.20614
#
# Static dielectric constant tensor:
#      x y z
#    x 2.321110 -0.142620 0.115390 
#    y -0.142620 2.257450 -0.034510 
#    z 0.115390 -0.034510 2.080510 
# 
# From -- ./inp_files/215568.got.cif
#   From: 2010.05.17/outbox.cif.g08.bks.cpg/sg2_108_cif.got.tgz:215568.got - 2010.06.03 11:33:40.
