data_PCOD9005719
_publ_section_title
;
Structure prediction by ZEFSAII (Michael W. Deem and Ramdas Pophale) SiO2 
 PCOD9005719
Probable space group: P -1
;
_chemical_formula_sum "Si O2"
_cell_formula_units_Z 12
_cell_length_a 9.892219
_cell_length_b 10.970484
_cell_length_c 7.432431
_cell_angle_alpha 131.630614
_cell_angle_beta 83.304349
_cell_angle_gamma 126.678413
_cell_volume 427.426503
_symmetry_space_group_name_H-M "P -1"
_symmetry_group_IT_number 2
_symmetry_cell_setting 'triclinic'
loop_
_space_group_symop_operation_xyz
x,y,z
-x,-y,-z
loop_
_atom_site_type_symbol
_atom_site_label
_atom_site_fract_x
_atom_site_fract_y
_atom_site_fract_z
Si Si1 0.121682 0.921794 0.141089
Si Si2 0.891617 0.273488 0.407550
Si Si3 0.533427 0.355355 0.452809
Si Si4 0.491163 0.152075 0.888635
Si Si5 0.248111 0.261624 0.922227
Si Si6 0.138770 0.431890 0.876422
O O1 0.125829 0.882568 0.892448
O O2 0.976915 0.950309 0.216898
O O3 0.013535 0.698257 0.064059
O O4 0.340364 0.133427 0.361512
O O5 0.015716 0.338041 0.624770
O O6 0.000000 0.500000 0.500000
O O7 0.669956 0.121476 0.341844
O O8 0.500000 0.500000 0.500000
O O9 0.687963 0.540678 0.756223
O O10 0.564190 0.261034 0.185642
O O11 0.370029 0.203302 0.875704
O O12 0.685670 0.295191 0.889787
O O13 0.249153 0.352152 0.817888
#
# Coordination Sequence:
#
# PCOD9005719 Si02
#       6
#     2   2   2   2   2   2
#     4   9  22  39  62  90 121 158 201 245 304 358
#     4  11  25  44  62  84 122 166 209 251 293 349
#     4   9  18  34  57  86 126 161 188 236 298 362
#     4  10  21  38  63  91 125 158 195 249 304 363
#     4   9  20  36  62  94 125 149 192 245 312 363
#     4  10  23  38  63  94 119 157 203 247 306 362
#
# _framework density 28.074998999999998
#
# number of rings (size 3 to 8) (size 9 to 14) (size 15 to 20)
#    1.000    1.333    0.000    1.500    2.333   10.667 
#    0.000    0.833    0.000    0.000    0.000    0.000 
#    0.000    0.000    0.000    0.000    0.000    0.000 
#
# Total GULP energy -67141.963775 kJ/mol
# GULP energy per Si atom -5595.163648 kJ/mol
# Density = 2.801110 g / cm^3
# Si number density = 28.074999 Si / 1000 Ang^3
#
#
#
# Elastic Constant Matrix: (Units=GPa)
#
#
# Indices 1 2 3 4 5 6 
#
# 1 89.3654 33.4453 26.9398 -3.2719 23.2316 -8.6203
# 2 33.4453 186.7142 79.4333 15.2923 25.4729 7.6242
# 3 26.9398 79.4333 155.1738 -3.8445 29.7604 -5.0240
# 4 -3.2719 15.2923 -3.8445 75.5788 2.3870 23.2852
# 5 23.2316 25.4729 29.7604 2.3870 43.5493 -0.4596
# 6 -8.6203 7.6242 -5.0240 23.2852 -0.4596 47.3696
#
#
#
# Elastic Compliance Matrix: (Units=1/GPa)
#
#
# Indices 1 2 3 4 5 6 
#
# 1 0.013745 -0.001631 -0.000276 0.000333 -0.006181 0.002511
# 2 -0.001631 0.007384 -0.003359 -0.001332 -0.001093 -0.001197
# 3 -0.000276 -0.003359 0.009056 0.000971 -0.004120 0.000934
# 4 0.000333 -0.001332 0.000971 0.015889 -0.001011 -0.007443
# 5 -0.006181 -0.001093 -0.004120 -0.001011 0.029764 -0.000600
# 6 0.002511 -0.001197 0.000934 -0.007443 -0.000600 0.025512
#
#
# Mechanical properties :
#
#
# Convention : Reuss Voigt Hill
#
# Bulk Modulus (GPa) = 50.88304 78.98780 64.93542
# Shear Modulus (GPa) = 42.21761 52.72853 47.47307
#
# Velocity S-wave (km/s) = 3.88202 4.33844 4.11656
# Velocity P-wave (km/s) = 6.18520 7.30012 6.76567
#
# Compressibility (1/GPa) = 0.01965292
#
# Stress axis : x y z
#
# Youngs Moduli (GPa) = 72.75367 135.42788 110.42180
#
# Poissons Ratio (x) = 0.22088 0.03051
# Poissons Ratio (y) = 0.11866 0.37088
# Poissons Ratio (z) = 0.02011 0.45487
#
# Static dielectric constant tensor:
#      x y z
#    x 2.363550 -0.004060 -0.113930 
#    y -0.004060 2.197040 0.039920 
#    z -0.113930 0.039920 2.180590 
# 
# From -- ./inp_files/260151.got.cif
#   From: 2010.05.17/outbox.cif.g08.bks.cpg/sg2_131_cif.got.tgz:260151.got - 2010.06.03 11:33:40.
