data_PCOD9005035
_publ_section_title
;
Structure prediction by ZEFSAII (Michael W. Deem and Ramdas Pophale) SiO2 
 PCOD9005035
Probable space group: P -1
;
_chemical_formula_sum "Si O2"
_cell_formula_units_Z 16
_cell_length_a 6.922526
_cell_length_b 6.997377
_cell_length_c 14.129910
_cell_angle_alpha 87.061124
_cell_angle_beta 89.075214
_cell_angle_gamma 74.893904
_cell_volume 659.923202
_symmetry_space_group_name_H-M "P -1"
_symmetry_group_IT_number 2
_symmetry_cell_setting 'triclinic'
loop_
_space_group_symop_operation_xyz
x,y,z
-x,-y,-z
loop_
_atom_site_type_symbol
_atom_site_label
_atom_site_fract_x
_atom_site_fract_y
_atom_site_fract_z
Si Si1 0.365727 0.454096 0.191656
Si Si2 0.842957 0.099623 0.578775
Si Si3 0.512519 0.716255 0.532667
Si Si4 0.100997 0.480967 0.372744
Si Si5 0.726176 0.393911 0.302883
Si Si6 0.694134 0.172166 0.929427
Si Si7 0.988494 0.042451 0.218453
Si Si8 0.624592 0.030766 0.133187
O O1 0.187280 0.470987 0.265914
O O2 0.532126 0.528500 0.250305
O O3 0.309882 0.602167 0.100587
O O4 0.464042 0.226356 0.169074
O O5 0.612483 0.132297 0.546822
O O6 0.880435 0.315107 0.589065
O O7 0.896179 0.998361 0.682339
O O8 0.000000 0.000000 0.500000
O O9 0.500000 0.500000 0.500000
O O10 0.740404 0.688949 0.564961
O O11 0.372663 0.745122 0.626792
O O12 0.873233 0.474301 0.366234
O O13 0.864664 0.270218 0.222864
O O14 0.859589 0.032592 0.864840
O O15 0.486933 0.125881 0.900590
O O16 0.722322 0.111515 0.039579
O O17 0.803570 0.942763 0.207161
#
# Coordination Sequence:
#
# PCOD9005035 Si02
#       8
#     2   2   2   2   2   2   2   2
#     4  10  21  39  64  92 125 159 203 252 307 364
#     4  11  21  38  59  86 120 160 200 254 299 356
#     4   9  20  37  56  78 118 153 201 248 294 350
#     4  10  21  39  62  82 119 162 207 248 300 366
#     4  10  21  38  60  88 117 165 201 252 309 355
#     4  11  22  41  67  93 122 164 206 244 316 370
#     4  11  22  41  61  87 129 156 201 258 306 356
#     4  10  24  41  64  95 126 158 202 258 304 372
#
# _framework density 24.245244
#
# number of rings (size 3 to 8) (size 9 to 14) (size 15 to 20)
#    0.000    1.750    2.500    1.500    1.750    2.000 
#    0.000    1.875    0.000    8.250    0.000    0.000 
#    0.000    0.000    0.000    0.000    0.000    0.000 
#
# Total GULP energy -89440.621258 kJ/mol
# GULP energy per Si atom -5590.038829 kJ/mol
# Density = 2.419006 g / cm^3
# Si number density = 24.245244 Si / 1000 Ang^3
#
#
#
# Elastic Constant Matrix: (Units=GPa)
#
#
# Indices 1 2 3 4 5 6 
#
# 1 96.6695 -7.5208 8.5016 -6.5251 16.4138 -2.6205
# 2 -7.5208 34.7409 15.9313 0.1842 -14.5580 -3.1439
# 3 8.5016 15.9313 93.5986 8.0108 -10.2671 -9.3177
# 4 -6.5251 0.1842 8.0108 38.8937 -8.9869 -0.1236
# 5 16.4138 -14.5580 -10.2671 -8.9869 43.5399 9.6748
# 6 -2.6205 -3.1439 -9.3177 -0.1236 9.6748 19.9522
#
#
#
# Elastic Compliance Matrix: (Units=1/GPa)
#
#
# Indices 1 2 3 4 5 6 
#
# 1 0.011577 0.001562 -0.001606 0.001188 -0.004711 0.003308
# 2 0.001562 0.036306 -0.005616 0.003905 0.011536 -0.002266
# 3 -0.001606 -0.005616 0.012498 -0.002789 0.000056 0.004696
# 4 0.001188 0.003905 -0.002789 0.028025 0.006797 -0.003653
# 5 -0.004711 0.011536 0.000056 0.006797 0.033326 -0.014892
# 6 0.003308 -0.002266 0.004696 -0.003653 -0.014892 0.059589
#
#
# Mechanical properties :
#
#
# Convention : Reuss Voigt Hill
#
# Bulk Modulus (GPa) = 20.38303 28.75925 24.57114
# Shear Modulus (GPa) = 23.92395 34.35029 29.13712
#
# Velocity S-wave (km/s) = 3.14466 3.76810 3.47041
# Velocity P-wave (km/s) = 4.64871 5.55149 5.12003
#
# Compressibility (1/GPa) = 0.04906041
#
# Stress axis : x y z
#
# Youngs Moduli (GPa) = 86.37787 27.54350 80.01229
#
# Poissons Ratio (x) = -0.04302 0.12854
# Poissons Ratio (y) = -0.13492 0.44934
# Poissons Ratio (z) = 0.13877 0.15468
#
# Static dielectric constant tensor:
#      x y z
#    x 1.959710 0.028910 0.032270 
#    y 0.028910 1.976170 -0.016270 
#    z 0.032270 -0.016270 1.947460 
# 
# From -- ./inp_files/99738.got.cif
#   From: 2010.05.17/outbox.cif.g08.bks.cpg/sg2_50_cif.got.tgz:99738.got - 2010.06.03 11:33:40.
