data_PCOD9005440
_publ_section_title
;
Structure prediction by ZEFSAII (Michael W. Deem and Ramdas Pophale) SiO2 
 PCOD9005440
Probable space group: P -1
;
_chemical_formula_sum "Si O2"
_cell_formula_units_Z 16
_cell_length_a 11.341028
_cell_length_b 13.513063
_cell_length_c 16.713173
_cell_angle_alpha 156.122326
_cell_angle_beta 55.555020
_cell_angle_gamma 137.464326
_cell_volume 643.831054
_symmetry_space_group_name_H-M "P -1"
_symmetry_group_IT_number 2
_symmetry_cell_setting 'triclinic'
loop_
_space_group_symop_operation_xyz
x,y,z
-x,-y,-z
loop_
_atom_site_type_symbol
_atom_site_label
_atom_site_fract_x
_atom_site_fract_y
_atom_site_fract_z
Si Si1 0.365772 0.571455 0.577978
Si Si2 0.144296 0.506081 0.343825
Si Si3 0.345539 0.970077 0.483328
Si Si4 0.469716 0.008116 0.714906
Si Si5 0.188933 0.260389 0.721606
Si Si6 0.854245 0.501018 0.240559
Si Si7 0.000950 0.867687 0.135621
Si Si8 0.786288 0.872762 0.075494
O O1 0.500000 0.500000 0.500000
O O2 0.470654 0.864575 0.690945
O O3 0.293030 0.633599 0.730034
O O4 0.182717 0.241074 0.362361
O O5 0.166108 0.737198 0.438743
O O6 0.292862 0.710079 0.508639
O O7 0.932032 0.241931 0.260480
O O8 0.200841 0.323275 0.140117
O O9 0.500000 0.000000 0.500000
O O10 0.353660 0.845407 0.302662
O O11 0.363293 0.274205 0.682398
O O12 0.415139 0.228587 0.908929
O O13 0.226766 0.492382 0.808102
O O14 0.112690 0.295114 0.857835
O O15 0.027388 0.884444 0.476216
O O16 0.924011 0.303534 0.055407
O O17 0.874759 0.867109 0.118410
#
# Coordination Sequence:
#
# PCOD9005440 Si02
#       8
#     2   2   2   2   2   2   2   2
#     4  11  25  41  60  88 126 169 214 254 309 374
#     4  10  22  38  61  95 126 158 209 258 311 368
#     4  10  21  38  62  88 128 165 198 251 317 370
#     4  11  23  40  63  90 131 171 202 256 318 366
#     4  10  21  41  63  92 124 160 210 258 311 371
#     4  10  23  40  66  89 120 164 214 263 304 365
#     4  11  22  39  67  93 122 161 210 264 314 368
#     4  11  23  37  67  98 122 159 214 259 313 372
#
# _framework density 24.851241999999999
#
# number of rings (size 3 to 8) (size 9 to 14) (size 15 to 20)
#    0.000    1.500    1.250    3.750    7.000    1.000 
#    0.000    6.250    0.000    0.000    0.000    0.000 
#    0.000    0.000    0.000    0.000    0.000    0.000 
#
# Total GULP energy -89641.212573 kJ/mol
# GULP energy per Si atom -5602.575786 kJ/mol
# Density = 2.479468 g / cm^3
# Si number density = 24.851242 Si / 1000 Ang^3
#
#
#
# Elastic Constant Matrix: (Units=GPa)
#
#
# Indices 1 2 3 4 5 6 
#
# 1 136.8272 65.3256 41.3627 -14.6243 -31.8724 -27.1125
# 2 65.3256 170.6061 38.4972 -28.1114 -17.0944 -31.1899
# 3 41.3627 38.4972 95.5162 -43.8820 -7.6983 -2.7666
# 4 -14.6243 -28.1114 -43.8820 48.2713 8.9553 -4.2402
# 5 -31.8724 -17.0944 -7.6983 8.9553 44.1058 1.9519
# 6 -27.1125 -31.1899 -2.7666 -4.2402 1.9519 44.1888
#
#
#
# Elastic Compliance Matrix: (Units=1/GPa)
#
#
# Indices 1 2 3 4 5 6 
#
# 1 0.012441 -0.002497 -0.005175 -0.003368 0.007587 0.004889
# 2 -0.002497 0.008506 -0.000142 0.004431 0.000352 0.004872
# 3 -0.005175 -0.000142 0.020640 0.017809 -0.003804 -0.000106
# 4 -0.003368 0.004431 0.017809 0.040138 -0.006036 0.006294
# 5 0.007587 0.000352 -0.003804 -0.006036 0.028729 0.002817
# 6 0.004889 0.004872 -0.000106 0.006294 0.002817 0.029541
#
#
# Mechanical properties :
#
#
# Convention : Reuss Voigt Hill
#
# Bulk Modulus (GPa) = 38.52329 77.03563 57.77946
# Shear Modulus (GPa) = 30.43656 44.49744 37.46700
#
# Velocity S-wave (km/s) = 3.50344 4.23608 3.88706
# Velocity P-wave (km/s) = 5.64807 7.41565 6.59138
#
# Compressibility (1/GPa) = 0.02595832
#
# Stress axis : x y z
#
# Youngs Moduli (GPa) = 80.37885 117.56950 48.45004
#
# Poissons Ratio (x) = 0.29356 0.25074
# Poissons Ratio (y) = 0.20070 0.00687
# Poissons Ratio (z) = 0.41598 0.01668
#
# Static dielectric constant tensor:
#      x y z
#    x 1.986230 0.054060 0.064630 
#    y 0.054060 1.971500 0.048260 
#    z 0.064630 0.048260 1.996750 
# 
# From -- ./inp_files/519366.got.cif
#   From: 2010.05.17/outbox.cif.g08.bks.cpg/sg2_260_cif.got.tgz:519366.got - 2010.06.03 11:33:40.
