data_PCOD9005770
_publ_section_title
;
Structure prediction by ZEFSAII (Michael W. Deem and Ramdas Pophale) SiO2 
 PCOD9005770
Probable space group: P -1
;
_chemical_formula_sum "Si O2"
_cell_formula_units_Z 14
_cell_length_a 7.703739
_cell_length_b 11.488588
_cell_length_c 14.701794
_cell_angle_alpha 151.984326
_cell_angle_beta 81.751082
_cell_angle_gamma 98.890801
_cell_volume 603.770028
_symmetry_space_group_name_H-M "P -1"
_symmetry_group_IT_number 2
_symmetry_cell_setting 'triclinic'
loop_
_space_group_symop_operation_xyz
x,y,z
-x,-y,-z
loop_
_atom_site_type_symbol
_atom_site_label
_atom_site_fract_x
_atom_site_fract_y
_atom_site_fract_z
Si Si1 0.257734 0.557343 0.155159
Si Si2 0.095396 0.640354 0.675272
Si Si3 0.665057 0.958516 0.847659
Si Si4 0.456799 0.787361 0.138593
Si Si5 0.604048 0.134820 0.501972
Si Si6 0.945957 0.851527 0.014701
Si Si7 0.439367 0.569935 0.699719
O O1 0.293670 0.691853 0.149216
O O2 0.233845 0.740349 0.368533
O O3 0.114167 0.337410 0.032513
O O4 0.447977 0.436713 0.069909
O O5 0.971608 0.707207 0.817476
O O6 0.257875 0.506442 0.615277
O O7 0.000000 0.500000 0.500000
O O8 0.176240 0.917687 0.831474
O O9 0.588564 0.695998 0.709897
O O10 0.603795 0.014531 0.790293
O O11 0.872627 0.002825 0.872265
O O12 0.599290 0.194165 0.071432
O O13 0.611010 0.916196 0.278317
O O14 0.508265 0.347720 0.601107
O O15 0.500000 0.000000 0.500000
#
# Coordination Sequence:
#
# PCOD9005770 Si02
#       7
#     2   2   2   2   2   2   2
#     4  10  21  40  60  87 125 165 207 255 303 365
#     4  10  23  40  61  91 127 163 202 254 312 371
#     4  10  21  38  63  93 120 159 206 256 310 370
#     4  10  21  38  64  87 119 166 213 248 306 371
#     4  10  22  38  64  92 119 159 210 256 301 366
#     4  10  23  39  59  90 129 161 201 259 311 357
#     4  10  21  39  65  89 124 158 205 260 307 364
#
# _framework density 23.187636000000001
#
# number of rings (size 3 to 8) (size 9 to 14) (size 15 to 20)
#    0.000    2.000    1.429    0.857    8.000    3.429 
#    0.000    0.000    0.000    3.429    0.000    0.000 
#    0.000    0.000    0.000    0.000    0.000    0.000 
#
# Total GULP energy -78097.407577 kJ/mol
# GULP energy per Si atom -5578.386256 kJ/mol
# Density = 2.313486 g / cm^3
# Si number density = 23.187636 Si / 1000 Ang^3
#
#
#
# Elastic Constant Matrix: (Units=GPa)
#
#
# Indices 1 2 3 4 5 6 
#
# 1 38.7889 46.2415 14.2017 2.8902 10.8300 5.2036
# 2 46.2415 151.8875 39.6734 14.6613 14.2741 0.1773
# 3 14.2017 39.6734 105.4495 -10.8696 4.3670 9.1025
# 4 2.8902 14.6613 -10.8696 47.8512 -5.0538 3.2354
# 5 10.8300 14.2741 4.3670 -5.0538 28.1792 5.0267
# 6 5.2036 0.1773 9.1025 3.2354 5.0267 24.5228
#
#
#
# Elastic Compliance Matrix: (Units=1/GPa)
#
#
# Indices 1 2 3 4 5 6 
#
# 1 0.044498 -0.012720 -0.000103 0.000727 -0.009169 -0.007529
# 2 -0.012720 0.012021 -0.003589 -0.004311 -0.002307 0.004986
# 3 -0.000103 -0.003589 0.011667 0.004293 0.001748 -0.005208
# 4 0.000727 -0.004311 0.004293 0.024285 0.006718 -0.006298
# 5 -0.009169 -0.002307 0.001748 0.006718 0.042595 -0.008304
# 6 -0.007529 0.004986 -0.005208 -0.006298 -0.008304 0.046806
#
#
# Mechanical properties :
#
#
# Convention : Reuss Voigt Hill
#
# Bulk Modulus (GPa) = 28.27832 55.15100 41.71466
# Shear Modulus (GPa) = 22.07677 33.17794 27.62736
#
# Velocity S-wave (km/s) = 3.08895 3.78676 3.45551
# Velocity P-wave (km/s) = 4.99440 6.55406 5.82665
#
# Compressibility (1/GPa) = 0.03536278
#
# Stress axis : x y z
#
# Youngs Moduli (GPa) = 22.47290 83.18864 85.71315
#
# Poissons Ratio (x) = 1.05817 0.00880
# Poissons Ratio (y) = 0.28586 0.30760
# Poissons Ratio (z) = 0.00231 0.29854
#
# Static dielectric constant tensor:
#      x y z
#    x 1.902790 -0.002680 -0.011010 
#    y -0.002680 1.899360 -0.016090 
#    z -0.011010 -0.016090 1.978960 
# 
# From -- ./inp_files/397322.got.cif
#   From: 2010.05.17/outbox.cif.g08.bks.cpg/sg2_199_cif.got.tgz:397322.got - 2010.06.03 11:33:40.
