data_PCOD9005229
_publ_section_title
;
Structure prediction by ZEFSAII (Michael W. Deem and Ramdas Pophale) SiO2 
 PCOD9005229
Probable space group: P -1
;
_chemical_formula_sum "Si O2"
_cell_formula_units_Z 16
_cell_length_a 8.780625
_cell_length_b 27.882383
_cell_length_c 9.380850
_cell_angle_alpha 142.664684
_cell_angle_beta 62.689706
_cell_angle_gamma 144.333704
_cell_volume 689.069627
_symmetry_space_group_name_H-M "P -1"
_symmetry_group_IT_number 2
_symmetry_cell_setting 'triclinic'
loop_
_space_group_symop_operation_xyz
x,y,z
-x,-y,-z
loop_
_atom_site_type_symbol
_atom_site_label
_atom_site_fract_x
_atom_site_fract_y
_atom_site_fract_z
Si Si1 0.095011 0.090854 0.886713
Si Si2 0.231546 0.642445 0.644095
Si Si3 0.873806 0.052895 0.581065
Si Si4 0.996878 0.779682 0.680727
Si Si5 0.565640 0.538586 0.858448
Si Si6 0.800501 0.239640 0.717086
Si Si7 0.976742 0.719621 0.875517
Si Si8 0.122761 0.502292 0.088191
O O1 0.003089 0.962835 0.625850
O O2 0.443235 0.230096 0.117208
O O3 0.932269 0.099777 0.063207
O O4 0.053149 0.101069 0.764436
O O5 0.114294 0.686931 0.776369
O O6 0.254843 0.611277 0.406203
O O7 0.000000 0.500000 0.500000
O O8 0.516497 0.896531 0.390092
O O9 0.892598 0.153896 0.796587
O O10 0.640826 0.619693 0.419903
O O11 0.188592 0.808742 0.545612
O O12 0.028533 0.757832 0.776470
O O13 0.635906 0.585618 0.774979
O O14 0.366587 0.530647 0.997634
O O15 0.889362 0.656158 0.078799
O O16 0.837412 0.344575 0.904287
O O17 0.000000 0.500000 0.000000
#
# Coordination Sequence:
#
# PCOD9005229 Si02
#       8
#     2   2   2   2   2   2   2   2
#     4  10  21  38  61  88 122 162 210 254 298 369
#     4  12  23  40  67  98 125 161 213 266 314 366
#     4  10  24  42  61  89 128 174 210 250 314 375
#     4  10  21  40  64  92 121 158 208 261 315 366
#     4  11  22  39  64  91 124 161 204 259 317 370
#     4  11  22  41  65  89 124 167 207 252 312 380
#     4  11  24  40  62  91 127 165 207 255 309 378
#     4  11  24  41  64  97 131 159 201 265 326 368
#
# _framework density 23.219715999999998
#
# number of rings (size 3 to 8) (size 9 to 14) (size 15 to 20)
#    0.000    1.250    0.000    7.875    0.000   10.000 
#    0.000    1.250    0.000    6.000    0.000    0.000 
#    0.000    0.000    0.000    0.000    0.000    0.000 
#
# Total GULP energy -89452.962718 kJ/mol
# GULP energy per Si atom -5590.810170 kJ/mol
# Density = 2.316687 g / cm^3
# Si number density = 23.219716 Si / 1000 Ang^3
#
#
#
# Elastic Constant Matrix: (Units=GPa)
#
#
# Indices 1 2 3 4 5 6 
#
# 1 121.0281 19.1812 68.8156 -3.6307 -17.2195 -11.4352
# 2 19.1812 47.3269 18.2472 -17.5738 -3.3474 -3.6519
# 3 68.8156 18.2472 152.9664 -26.5322 -23.4110 4.1384
# 4 -3.6307 -17.5738 -26.5322 39.0734 4.7869 -4.9329
# 5 -17.2195 -3.3474 -23.4110 4.7869 55.2697 -4.0997
# 6 -11.4352 -3.6519 4.1384 -4.9329 -4.0997 22.6424
#
#
#
# Elastic Compliance Matrix: (Units=1/GPa)
#
#
# Indices 1 2 3 4 5 6 
#
# 1 0.013068 -0.003814 -0.005964 -0.003982 0.002148 0.006596
# 2 -0.003814 0.027769 0.000541 0.013177 -0.000024 0.005320
# 3 -0.005964 0.000541 0.010619 0.006269 0.001895 -0.003157
# 4 -0.003982 0.013177 0.006269 0.036318 -0.000428 0.006803
# 5 0.002148 -0.000024 0.001895 -0.000428 0.019916 0.004247
# 6 0.006596 0.005320 -0.003157 0.006803 0.004247 0.051182
#
#
# Mechanical properties :
#
#
# Convention : Reuss Voigt Hill
#
# Bulk Modulus (GPa) = 30.32027 59.31214 44.81620
# Shear Modulus (GPa) = 26.54797 37.73558 32.14178
#
# Velocity S-wave (km/s) = 3.38500 4.03569 3.72458
# Velocity P-wave (km/s) = 5.32578 6.87859 6.15138
#
# Compressibility (1/GPa) = 0.03298123
#
# Stress axis : x y z
#
# Youngs Moduli (GPa) = 76.52550 36.01188 94.17317
#
# Poissons Ratio (x) = 0.13736 0.56165
# Poissons Ratio (y) = 0.29189 -0.05099
# Poissons Ratio (z) = 0.45640 -0.01950
#
# Static dielectric constant tensor:
#      x y z
#    x 1.928730 -0.020530 -0.019360 
#    y -0.020530 1.879260 -0.017770 
#    z -0.019360 -0.017770 1.908100 
# 
# From -- ./inp_files/227739.got.cif
#   From: 2010.05.17/outbox.cif.g08.bks.cpg/sg2_114_cif.got.tgz:227739.got - 2010.06.03 11:33:40.
