data_PCOD9005794
_publ_section_title
;
Structure prediction by ZEFSAII (Michael W. Deem and Ramdas Pophale) SiO2 
 PCOD9005794
Probable space group: P -1
;
_chemical_formula_sum "Si O2"
_cell_formula_units_Z 14
_cell_length_a 14.824876
_cell_length_b 8.029992
_cell_length_c 7.997669
_cell_angle_alpha 79.444776
_cell_angle_beta 136.090619
_cell_angle_gamma 92.520712
_cell_volume 643.679090
_symmetry_space_group_name_H-M "P -1"
_symmetry_group_IT_number 2
_symmetry_cell_setting 'triclinic'
loop_
_space_group_symop_operation_xyz
x,y,z
-x,-y,-z
loop_
_atom_site_type_symbol
_atom_site_label
_atom_site_fract_x
_atom_site_fract_y
_atom_site_fract_z
Si Si1 0.877266 0.991253 0.585281
Si Si2 0.110706 0.342391 0.174237
Si Si3 0.575879 0.988353 0.279150
Si Si4 0.009311 0.239471 0.518307
Si Si5 0.374126 0.376693 0.660341
Si Si6 0.529541 0.664513 0.820835
Si Si7 0.810442 0.537693 0.091284
O O1 0.933974 0.841796 0.816833
O O2 0.724508 0.025274 0.427293
O O3 0.905930 0.899705 0.459588
O O4 0.947604 0.157755 0.614586
O O5 0.218784 0.372382 0.452989
O O6 0.177722 0.363404 0.083244
O O7 0.000000 0.500000 0.000000
O O8 0.577502 0.787988 0.360514
O O9 0.509203 0.132279 0.289332
O O10 0.500000 0.000000 0.000000
O O11 0.887747 0.345440 0.235415
O O12 0.109562 0.365477 0.686226
O O13 0.412677 0.559626 0.628897
O O14 0.438438 0.348139 0.934660
O O15 0.658984 0.564360 0.930720
#
# Coordination Sequence:
#
# PCOD9005794 Si02
#       7
#     2   2   2   2   2   2   2
#     4  10  21  40  61  87 122 159 207 246 310 356
#     4  11  22  40  60  89 128 164 190 254 316 364
#     4   9  18  34  60  89 117 154 200 256 292 358
#     4  10  22  38  62  89 118 161 209 255 286 370
#     4   9  21  38  62  88 122 162 205 247 305 361
#     4  10  21  38  63  94 113 164 211 250 294 367
#     4  11  23  37  61  90 124 156 205 253 305 359
#
# _framework density 21.749967000000002
#
# number of rings (size 3 to 8) (size 9 to 14) (size 15 to 20)
#    0.000    2.000    1.429    2.571    8.000    1.143 
#    0.000    4.286    0.000    0.000    0.000    0.000 
#    0.000    0.000    0.000    0.000    0.000    0.000 
#
# Total GULP energy -77997.387536 kJ/mol
# GULP energy per Si atom -5571.241967 kJ/mol
# Density = 2.170046 g / cm^3
# Si number density = 21.749967 Si / 1000 Ang^3
#
#
#
# Elastic Constant Matrix: (Units=GPa)
#
#
# Indices 1 2 3 4 5 6 
#
# 1 40.6449 0.7239 -1.8353 -0.2319 1.8686 2.9554
# 2 0.7239 64.8805 15.1267 -8.9534 -0.4412 3.6640
# 3 -1.8353 15.1267 46.3774 -17.0823 7.3447 -1.7243
# 4 -0.2319 -8.9534 -17.0823 25.6847 2.7718 -2.0592
# 5 1.8686 -0.4412 7.3447 2.7718 26.1585 -11.9797
# 6 2.9554 3.6640 -1.7243 -2.0592 -11.9797 28.1353
#
#
#
# Elastic Compliance Matrix: (Units=1/GPa)
#
#
# Indices 1 2 3 4 5 6 
#
# 1 0.025253 -0.000370 0.002369 0.001830 -0.004639 -0.004300
# 2 -0.000370 0.017001 -0.004770 0.002536 0.000421 -0.002103
# 3 0.002369 -0.004770 0.033088 0.021601 -0.012429 -0.001311
# 4 0.001830 0.002536 0.021601 0.055489 -0.012181 -0.000324
# 5 -0.004639 0.000421 -0.012429 -0.012181 0.053153 0.021411
# 6 -0.004300 -0.002103 -0.001311 -0.000324 0.021411 0.045281
#
#
# Mechanical properties :
#
#
# Convention : Reuss Voigt Hill
#
# Bulk Modulus (GPa) = 14.32689 19.99259 17.15974
# Shear Modulus (GPa) = 19.37428 25.18819 22.28124
#
# Velocity S-wave (km/s) = 2.98782 3.40675 3.20414
# Velocity P-wave (km/s) = 4.30164 4.96856 4.64708
#
# Compressibility (1/GPa) = 0.06979884
#
# Stress axis : x y z
#
# Youngs Moduli (GPa) = 39.59879 58.82047 30.22262
#
# Poissons Ratio (x) = 0.02177 -0.07160
# Poissons Ratio (y) = 0.01466 0.14417
# Poissons Ratio (z) = -0.09381 0.28060
#
# Static dielectric constant tensor:
#      x y z
#    x 1.820250 -0.044500 -0.001830 
#    y -0.044500 1.738910 0.001120 
#    z -0.001830 0.001120 1.802700 
# 
# From -- ./inp_files/225969.got.cif
#   From: 2010.05.17/outbox.cif.g08.bks.cpg/sg2_113_cif.got.tgz:225969.got - 2010.06.03 11:33:40.
