data_PCOD9005476
_publ_section_title
;
Structure prediction by ZEFSAII (Michael W. Deem and Ramdas Pophale) SiO2 
 PCOD9005476
Probable space group: P -1
;
_chemical_formula_sum "Si O2"
_cell_formula_units_Z 14
_cell_length_a 12.193300
_cell_length_b 22.199237
_cell_length_c 15.200238
_cell_angle_alpha 159.537273
_cell_angle_beta 140.030573
_cell_angle_gamma 28.881707
_cell_volume 658.293528
_symmetry_space_group_name_H-M "P -1"
_symmetry_group_IT_number 2
_symmetry_cell_setting 'triclinic'
loop_
_space_group_symop_operation_xyz
x,y,z
-x,-y,-z
loop_
_atom_site_type_symbol
_atom_site_label
_atom_site_fract_x
_atom_site_fract_y
_atom_site_fract_z
Si Si1 0.191572 0.336557 0.649957
Si Si2 0.191585 0.632781 0.641587
Si Si3 0.944198 0.861446 0.226037
Si Si4 0.192274 0.875710 0.818046
Si Si5 0.605376 0.112935 0.205237
Si Si6 0.973806 0.329251 0.671617
Si Si7 0.309682 0.138459 0.775893
O O1 0.970471 0.400011 0.549681
O O2 0.162789 0.287494 0.664602
O O3 0.435520 0.098764 0.430106
O O4 0.153928 0.569120 0.946833
O O5 0.288218 0.694337 0.710085
O O6 0.409335 0.391193 0.494551
O O7 0.018548 0.861748 0.911212
O O8 0.744501 0.904655 0.221787
O O9 0.000000 0.000000 0.500000
O O10 0.839196 0.966916 0.208917
O O11 0.357523 0.878476 0.863945
O O12 0.090218 0.807368 0.594751
O O13 0.500000 0.000000 0.000000
O O14 0.097466 0.224620 0.698432
O O15 0.743928 0.618867 0.925957
#
# Coordination Sequence:
#
# PCOD9005476 Si02
#       7
#     2   2   2   2   2   2   2
#     4  10  21  38  62  90 125 159 214 262 317 368
#     4  10  23  42  64  96 123 169 214 265 316 374
#     4  11  25  42  60  91 126 167 214 256 312 382
#     4  10  23  40  66  93 127 159 219 268 306 376
#     4  12  25  42  65  92 131 174 209 259 321 379
#     4   9  20  39  61  96 120 161 212 260 317 372
#     4  10  21  38  65  87 127 166 202 265 320 369
#
# _framework density 21.267109000000001
#
# number of rings (size 3 to 8) (size 9 to 14) (size 15 to 20)
#    0.000    1.714    1.429    1.714    2.000    6.857 
#    0.000    0.000    0.000    0.000    0.000    0.000 
#    0.000    0.000    0.000    0.000    0.000    0.000 
#
# Total GULP energy -78249.486096 kJ/mol
# GULP energy per Si atom -5589.249007 kJ/mol
# Density = 2.121870 g / cm^3
# Si number density = 21.267109 Si / 1000 Ang^3
#
#
#
# Elastic Constant Matrix: (Units=GPa)
#
#
# Indices 1 2 3 4 5 6 
#
# 1 73.6236 20.3542 58.8203 16.6248 0.3691 -5.5612
# 2 20.3542 43.2650 26.9759 2.1451 7.6225 1.7086
# 3 58.8203 26.9759 136.9749 3.1279 0.2172 -1.6010
# 4 16.6248 2.1451 3.1279 43.9067 -3.1342 -1.2622
# 5 0.3691 7.6225 0.2172 -3.1342 35.5997 2.1123
# 6 -5.5612 1.7086 -1.6010 -1.2622 2.1123 19.6450
#
#
#
# Elastic Compliance Matrix: (Units=1/GPa)
#
#
# Indices 1 2 3 4 5 6 
#
# 1 0.024990 -0.005759 -0.009333 -0.008341 -0.000076 0.006287
# 2 -0.005759 0.029034 -0.003290 0.000469 -0.005872 -0.003762
# 3 -0.009333 -0.003290 0.011873 0.002887 0.001061 -0.001317
# 4 -0.008341 0.000469 0.002887 0.025847 0.002289 -0.000752
# 5 -0.000076 -0.005872 0.001061 0.002289 0.029690 -0.002470
# 6 0.006287 -0.003762 -0.001317 -0.000752 -0.002470 0.053120
#
#
# Mechanical properties :
#
#
# Convention : Reuss Voigt Hill
#
# Bulk Modulus (GPa) = 34.32527 51.79603 43.06065
# Shear Modulus (GPa) = 22.62141 29.67780 26.14961
#
# Velocity S-wave (km/s) = 3.26495 3.73966 3.51034
# Velocity P-wave (km/s) = 5.51256 6.56160 6.05982
#
# Compressibility (1/GPa) = 0.02913306
#
# Stress axis : x y z
#
# Youngs Moduli (GPa) = 40.01643 34.44229 84.22137
#
# Poissons Ratio (x) = 0.19834 0.78604
# Poissons Ratio (y) = 0.23044 0.27713
# Poissons Ratio (z) = 0.37347 0.11333
#
# Static dielectric constant tensor:
#      x y z
#    x 1.770140 -0.007580 0.013210 
#    y -0.007580 1.774410 0.015510 
#    z 0.013210 0.015510 1.786140 
# 
# From -- ./inp_files/78202.got.cif
#   From: 2010.05.17/outbox.cif.g08.bks.cpg/sg2_40_cif.got.tgz:78202.got - 2010.06.03 11:33:40.
