data_PCOD9005361
_publ_section_title
;
Structure prediction by ZEFSAII (Michael W. Deem and Ramdas Pophale) SiO2 
 PCOD9005361
Probable space group: P -1
;
_chemical_formula_sum "Si O2"
_cell_formula_units_Z 14
_cell_length_a 9.861087
_cell_length_b 8.590980
_cell_length_c 11.462012
_cell_angle_alpha 118.938961
_cell_angle_beta 97.715433
_cell_angle_gamma 53.478522
_cell_volume 666.396597
_symmetry_space_group_name_H-M "P -1"
_symmetry_group_IT_number 2
_symmetry_cell_setting 'triclinic'
loop_
_space_group_symop_operation_xyz
x,y,z
-x,-y,-z
loop_
_atom_site_type_symbol
_atom_site_label
_atom_site_fract_x
_atom_site_fract_y
_atom_site_fract_z
Si Si1 0.933302 0.534249 0.687610
Si Si2 0.545430 0.237943 0.670314
Si Si3 0.693994 0.599117 0.083564
Si Si4 0.725455 0.718383 0.498762
Si Si5 0.602855 0.028429 0.122597
Si Si6 0.056514 0.156995 0.042087
Si Si7 0.689309 0.489387 0.777908
O O1 0.829526 0.575971 0.572597
O O2 0.893714 0.766604 0.810494
O O3 0.862031 0.455237 0.747316
O O4 0.134403 0.365080 0.618325
O O5 0.428015 0.377535 0.820028
O O6 0.415775 0.307246 0.573069
O O7 0.679765 0.288415 0.682016
O O8 0.637415 0.977046 0.607132
O O9 0.654378 0.841166 0.155974
O O10 0.892246 0.394427 0.058934
O O11 0.658557 0.546559 0.932674
O O12 0.467685 0.290473 0.230444
O O13 0.778324 0.966409 0.067123
O O14 0.500000 0.000000 0.000000
O O15 0.000000 0.000000 0.000000
#
# Coordination Sequence:
#
# PCOD9005361 Si02
#       7
#     2   2   2   2   2   2   2
#     4  11  23  46  62  89 132 167 213 256 310 379
#     4  11  23  42  66  96 122 166 220 255 310 379
#     4  11  22  40  66  97 131 159 203 267 325 373
#     4  10  25  43  66  84 126 181 209 257 303 369
#     4  10  21  38  61  96 126 162 196 253 337 363
#     4  12  24  38  65  97 129 164 207 258 323 377
#     4  11  24  40  69  97 127 159 211 269 324 365
#
# _framework density 21.008510000000001
#
# number of rings (size 3 to 8) (size 9 to 14) (size 15 to 20)
#    0.000    1.143    4.286    2.571    4.000    1.143 
#    0.000    0.000    0.000    0.000    0.000    0.000 
#    0.000    0.000    0.000    0.000    0.000    0.000 
#
# Total GULP energy -78225.537498 kJ/mol
# GULP energy per Si atom -5587.538393 kJ/mol
# Density = 2.096069 g / cm^3
# Si number density = 21.008510 Si / 1000 Ang^3
#
#
#
# Elastic Constant Matrix: (Units=GPa)
#
#
# Indices 1 2 3 4 5 6 
#
# 1 111.7031 -8.1248 29.3769 0.9509 5.2595 15.7233
# 2 -8.1248 46.0883 -5.2906 -10.5616 3.6797 -2.9952
# 3 29.3769 -5.2906 59.8709 1.7605 6.3287 7.1700
# 4 0.9509 -10.5616 1.7605 17.8267 -10.9181 -4.4672
# 5 5.2595 3.6797 6.3287 -10.9181 29.9789 9.0357
# 6 15.7233 -2.9952 7.1700 -4.4672 9.0357 22.8416
#
#
#
# Elastic Compliance Matrix: (Units=1/GPa)
#
#
# Indices 1 2 3 4 5 6 
#
# 1 0.011127 0.000732 -0.004642 -0.001006 0.000535 -0.006515
# 2 0.000732 0.026204 0.000629 0.017594 0.001213 0.005696
# 3 -0.004642 0.000629 0.019900 -0.004639 -0.004525 -0.002087
# 4 -0.001006 0.017594 -0.004639 0.086381 0.027272 0.010561
# 5 0.000535 0.001213 -0.004525 0.027272 0.047718 -0.012332
# 6 -0.006515 0.005696 -0.002087 0.010561 -0.012332 0.056610
#
#
# Mechanical properties :
#
#
# Convention : Reuss Voigt Hill
#
# Bulk Modulus (GPa) = 19.73606 27.73170 23.73388
# Shear Modulus (GPa) = 18.42361 27.57617 22.99989
#
# Velocity S-wave (km/s) = 2.96456 3.62694 3.31235
# Velocity P-wave (km/s) = 4.59705 5.54693 5.09418
#
# Compressibility (1/GPa) = 0.05066869
#
# Stress axis : x y z
#
# Youngs Moduli (GPa) = 89.87454 38.16243 50.25068
#
# Poissons Ratio (x) = -0.02793 0.23324
# Poissons Ratio (y) = -0.06579 -0.03159
# Poissons Ratio (z) = 0.41716 -0.02399
#
# Static dielectric constant tensor:
#      x y z
#    x 1.746310 -0.004450 -0.001160 
#    y -0.004450 1.763320 -0.018090 
#    z -0.001160 -0.018090 1.787960 
# 
# From -- ./inp_files/174764.got.cif
#   From: 2010.05.17/outbox.cif.g08.bks.cpg/sg2_88_cif.got.tgz:174764.got - 2010.06.03 11:33:40.
