data_PCOD9005896
_publ_section_title
;
Structure prediction by ZEFSAII (Michael W. Deem and Ramdas Pophale) SiO2 
 PCOD9005896
Probable space group: P -1
;
_chemical_formula_sum "Si O2"
_cell_formula_units_Z 16
_cell_length_a 8.194897
_cell_length_b 10.339075
_cell_length_c 15.720921
_cell_angle_alpha 144.751361
_cell_angle_beta 75.940370
_cell_angle_gamma 122.154263
_cell_volume 598.641687
_symmetry_space_group_name_H-M "P -1"
_symmetry_group_IT_number 2
_symmetry_cell_setting 'triclinic'
loop_
_space_group_symop_operation_xyz
x,y,z
-x,-y,-z
loop_
_atom_site_type_symbol
_atom_site_label
_atom_site_fract_x
_atom_site_fract_y
_atom_site_fract_z
Si Si1 0.510070 0.364901 0.181119
Si Si2 0.985456 0.847141 0.611104
Si Si3 0.597970 0.451546 0.542607
Si Si4 0.570939 0.855569 0.352488
Si Si5 0.867894 0.037610 0.102517
Si Si6 0.807688 0.159894 0.746900
Si Si7 0.711947 0.557242 0.971352
Si Si8 0.088712 0.466174 0.710146
O O1 0.393287 0.377648 0.285052
O O2 0.633930 0.682980 0.303798
O O3 0.365647 0.158732 0.013384
O O4 0.682353 0.326041 0.167139
O O5 0.833600 0.592402 0.557478
O O6 0.905256 0.730680 0.462321
O O7 0.927990 0.067685 0.738353
O O8 0.226758 0.957264 0.633199
O O9 0.500000 0.500000 0.500000
O O10 0.429306 0.116857 0.393636
O O11 0.364616 0.609383 0.197766
O O12 0.500000 0.000000 0.500000
O O13 0.862051 0.886618 0.108330
O O14 0.953587 0.354521 0.249140
O O15 0.000000 0.000000 0.000000
O O16 0.784758 0.387014 0.915836
O O17 0.936894 0.299361 0.718298
O O18 0.500000 0.500000 0.000000
#
# Coordination Sequence:
#
# PCOD9005896 Si02
#       8
#     2   2   2   2   2   2   2   2
#     4  11  22  41  65  93 133 175 224 272 330 402
#     4  11  23  38  71 101 130 170 226 282 336 382
#     4  10  21  38  64 103 132 162 215 286 333 385
#     4  11  24  43  68 103 133 177 230 273 330 405
#     4  11  26  43  62  95 130 178 225 266 333 406
#     4  11  21  42  67  96 130 173 222 271 333 398
#     4  11  26  45  68  93 141 181 213 279 343 401
#     4  12  21  41  68  95 130 176 227 274 325 404
#
# _framework density 26.727174000000002
#
# number of rings (size 3 to 8) (size 9 to 14) (size 15 to 20)
#    0.000    1.000    5.000    3.000    3.500    1.000 
#    0.000    3.125    0.000    0.000    0.000    0.000 
#    0.000    0.000    0.000    0.000    0.000    0.000 
#
# Total GULP energy -89472.174452 kJ/mol
# GULP energy per Si atom -5592.010903 kJ/mol
# Density = 2.666634 g / cm^3
# Si number density = 26.727174 Si / 1000 Ang^3
#
#
#
# Elastic Constant Matrix: (Units=GPa)
#
#
# Indices 1 2 3 4 5 6 
#
# 1 116.0643 35.6544 22.2731 16.4892 -20.4439 2.5075
# 2 35.6544 176.1924 33.7300 21.5615 -23.6088 24.9826
# 3 22.2731 33.7300 96.0601 22.7771 -11.5854 -3.4289
# 4 16.4892 21.5615 22.7771 41.4078 -3.5192 -4.1636
# 5 -20.4439 -23.6088 -11.5854 -3.5192 55.9562 4.9228
# 6 2.5075 24.9826 -3.4289 -4.1636 4.9228 52.4104
#
#
#
# Elastic Compliance Matrix: (Units=1/GPa)
#
#
# Indices 1 2 3 4 5 6 
#
# 1 0.010034 -0.001046 -0.000985 -0.002717 0.002897 -0.000534
# 2 -0.001046 0.007455 -0.001539 -0.002805 0.002627 -0.004074
# 3 -0.000985 -0.001539 0.012680 -0.005576 0.001173 0.001057
# 4 -0.002717 -0.002805 -0.005576 0.029977 -0.001767 0.003650
# 5 0.002897 0.002627 0.001173 -0.001767 0.020467 -0.003377
# 6 -0.000534 -0.004074 0.001057 0.003650 -0.003377 0.021724
#
#
# Mechanical properties :
#
#
# Convention : Reuss Voigt Hill
#
# Bulk Modulus (GPa) = 43.42053 63.51466 53.46759
# Shear Modulus (GPa) = 42.68027 49.73215 46.20621
#
# Velocity S-wave (km/s) = 4.00044 4.31830 4.16241
# Velocity P-wave (km/s) = 6.13345 6.97706 6.56881
#
# Compressibility (1/GPa) = 0.02303058
#
# Stress axis : x y z
#
# Youngs Moduli (GPa) = 99.66196 134.14533 78.86470
#
# Poissons Ratio (x) = 0.14025 0.07767
# Poissons Ratio (y) = 0.10420 0.12134
# Poissons Ratio (z) = 0.09815 0.20639
#
# Static dielectric constant tensor:
#      x y z
#    x 2.213330 -0.018460 0.009070 
#    y -0.018460 2.121830 0.055820 
#    z 0.009070 0.055820 2.108330 
# 
# From -- ./inp_files/392144.got.cif
#   From: 2010.05.17/outbox.cif.g08.bks.cpg/sg2_197_cif.got.tgz:392144.got - 2010.06.03 11:33:40.
