data_PCOD9005728
_publ_section_title
;
Structure prediction by ZEFSAII (Michael W. Deem and Ramdas Pophale) SiO2 
 PCOD9005728
Probable space group: P -1
;
_chemical_formula_sum "Si O2"
_cell_formula_units_Z 16
_cell_length_a 20.820982
_cell_length_b 6.168756
_cell_length_c 26.406666
_cell_angle_alpha 85.604860
_cell_angle_beta 168.121022
_cell_angle_gamma 94.440662
_cell_volume 696.054851
_symmetry_space_group_name_H-M "P -1"
_symmetry_group_IT_number 2
_symmetry_cell_setting 'triclinic'
loop_
_space_group_symop_operation_xyz
x,y,z
-x,-y,-z
loop_
_atom_site_type_symbol
_atom_site_label
_atom_site_fract_x
_atom_site_fract_y
_atom_site_fract_z
Si Si1 0.268704 0.422052 0.591246
Si Si2 0.669116 0.640880 0.573199
Si Si3 0.641418 0.083246 0.821549
Si Si4 0.263516 0.263787 0.262504
Si Si5 0.751257 0.048448 0.567023
Si Si6 0.807527 0.705817 0.034028
Si Si7 0.846409 0.056469 0.326872
Si Si8 0.722205 0.700221 0.150728
O O1 0.033499 0.576537 0.376736
O O2 0.498766 0.290267 0.735266
O O3 0.486282 0.573022 0.791879
O O4 0.068488 0.241425 0.469924
O O5 0.345512 0.518596 0.311775
O O6 0.642530 0.756034 0.605017
O O7 0.928705 0.454368 0.781227
O O8 0.792415 0.804407 0.623249
O O9 0.372019 0.966128 0.583977
O O10 0.767379 0.909355 0.961824
O O11 0.915300 0.171174 0.994902
O O12 0.478206 0.138731 0.391121
O O13 0.050661 0.195124 0.807205
O O14 0.818153 0.852809 0.269989
O O15 0.000000 0.000000 0.500000
O O16 0.495924 0.153792 0.055962
O O17 0.500000 0.500000 0.000000
#
# Coordination Sequence:
#
# PCOD9005728 Si02
#       8
#     2   2   2   2   2   2   2   2
#     4  11  23  43  67  94 138 179 207 263 334 388
#     4  10  21  39  64  89 123 174 229 286 338 383
#     4  12  25  42  63  93 134 177 224 279 333 389
#     4  10  21  38  63  91 126 175 229 288 334 381
#     4  11  24  41  63  93 126 176 236 282 326 386
#     4  11  23  44  61  89 133 176 220 276 337 386
#     4  10  22  46  75 106 131 165 214 260 316 394
#     4   9  21  43  70 102 134 165 205 256 316 391
#
# _framework density 22.986694
#
# number of rings (size 3 to 8) (size 9 to 14) (size 15 to 20)
#    0.000    1.500    2.500    1.500    3.500    4.500 
#    0.000   23.750    0.000    0.000    0.000    0.000 
#    0.000    0.000    0.000    0.000    0.000    0.000 
#
# Total GULP energy -89447.176735 kJ/mol
# GULP energy per Si atom -5590.448546 kJ/mol
# Density = 2.293438 g / cm^3
# Si number density = 22.986694 Si / 1000 Ang^3
#
#
#
# Elastic Constant Matrix: (Units=GPa)
#
#
# Indices 1 2 3 4 5 6 
#
# 1 43.2203 31.8086 35.7483 -4.3056 -17.0157 1.1934
# 2 31.8086 124.1230 71.2826 9.4882 -2.6271 -5.8377
# 3 35.7483 71.2826 124.5757 23.1645 -17.5991 -4.1031
# 4 -4.3056 9.4882 23.1645 64.1888 -3.6530 3.2697
# 5 -17.0157 -2.6271 -17.5991 -3.6530 39.7522 5.6377
# 6 1.1934 -5.8377 -4.1031 3.2697 5.6377 17.6138
#
#
#
# Elastic Compliance Matrix: (Units=1/GPa)
#
#
# Indices 1 2 3 4 5 6 
#
# 1 0.043156 -0.007654 -0.007595 0.008492 0.017424 -0.014383
# 2 -0.007654 0.013776 -0.006166 -0.000959 -0.005999 0.005746
# 3 -0.007595 -0.006166 0.015056 -0.005016 0.002235 0.002194
# 4 0.008492 -0.000959 -0.005016 0.018677 0.004034 -0.006820
# 5 0.017424 -0.005999 0.002235 0.004034 0.035679 -0.014817
# 6 -0.014383 0.005746 0.002194 -0.006820 -0.014817 0.066172
#
#
# Mechanical properties :
#
#
# Convention : Reuss Voigt Hill
#
# Bulk Modulus (GPa) = 34.29825 63.28867 48.79346
# Shear Modulus (GPa) = 20.40265 34.51626 27.45946
#
# Velocity S-wave (km/s) = 2.98247 3.87922 3.46002
# Velocity P-wave (km/s) = 5.17817 6.90340 6.10207
#
# Compressibility (1/GPa) = 0.02915601
#
# Stress axis : x y z
#
# Youngs Moduli (GPa) = 23.17180 72.59181 66.42023
#
# Poissons Ratio (x) = 0.55564 0.50449
# Poissons Ratio (y) = 0.17736 0.40954
# Poissons Ratio (z) = 0.17600 0.44760
#
# Static dielectric constant tensor:
#      x y z
#    x 1.822990 0.011880 0.003360 
#    y 0.011880 1.863270 0.006030 
#    z 0.003360 0.006030 1.899180 
# 
# From -- ./inp_files/624105.got.cif
#   From: 2010.05.17/outbox.cif.g08.bks.cpg/sg2_313_cif.got.tgz:624105.got - 2010.06.03 11:33:40.
