data_PCOD9005206
_publ_section_title
;
Structure prediction by ZEFSAII (Michael W. Deem and Ramdas Pophale) SiO2 
 PCOD9005206
Probable space group: P -1
;
_chemical_formula_sum "Si O2"
_cell_formula_units_Z 14
_cell_length_a 5.277413
_cell_length_b 15.164020
_cell_length_c 10.708617
_cell_angle_alpha 91.396180
_cell_angle_beta 72.720322
_cell_angle_gamma 120.800870
_cell_volume 694.302357
_symmetry_space_group_name_H-M "P -1"
_symmetry_group_IT_number 2
_symmetry_cell_setting 'triclinic'
loop_
_space_group_symop_operation_xyz
x,y,z
-x,-y,-z
loop_
_atom_site_type_symbol
_atom_site_label
_atom_site_fract_x
_atom_site_fract_y
_atom_site_fract_z
Si Si1 0.136783 0.654774 0.586694
Si Si2 0.308862 0.814992 0.362584
Si Si3 0.717885 0.104944 0.049990
Si Si4 0.567209 0.454561 0.612685
Si Si5 0.815285 0.757295 0.224125
Si Si6 0.577017 0.831616 0.705524
Si Si7 0.262906 0.946633 0.683818
O O1 0.122965 0.736402 0.499978
O O2 0.279947 0.604507 0.475646
O O3 0.361598 0.718970 0.670647
O O4 0.800113 0.555382 0.664020
O O5 0.527234 0.775563 0.271619
O O6 0.063629 0.814763 0.302375
O O7 0.552647 0.932928 0.368046
O O8 0.826406 0.070267 0.155743
O O9 0.534923 0.155940 0.140350
O O10 0.994246 0.190412 0.927355
O O11 0.500000 0.000000 0.000000
O O12 0.500000 0.500000 0.500000
O O13 0.302336 0.363257 0.734008
O O14 0.497523 0.905668 0.641689
O O15 0.942723 0.878117 0.654742
#
# Coordination Sequence:
#
# PCOD9005206 Si02
#       7
#     2   2   2   2   2   2   2
#     4  10  23  40  60  89 120 151 203 248 300 349
#     4  11  21  36  60  90 119 156 194 243 293 351
#     4  10  21  38  61  87 123 160 196 235 286 357
#     4  10  21  40  65  85 112 156 201 255 297 345
#     4  11  22  35  62  91 116 151 202 248 290 345
#     4  10  24  38  58  88 126 162 189 241 294 348
#     4  10  22  37  56  91 120 163 188 232 295 352
#
# _framework density 20.164123
#
# number of rings (size 3 to 8) (size 9 to 14) (size 15 to 20)
#    0.857    0.857    2.857    1.714    4.000    2.286 
#    0.000    0.714    0.000    1.714    0.000    0.000 
#    0.000    0.000    0.000    0.000    0.000    0.000 
#
# Total GULP energy -78014.699056 kJ/mol
# GULP energy per Si atom -5572.478504 kJ/mol
# Density = 2.011823 g / cm^3
# Si number density = 20.164123 Si / 1000 Ang^3
#
#
#
# Elastic Constant Matrix: (Units=GPa)
#
#
# Indices 1 2 3 4 5 6 
#
# 1 58.6415 28.3014 8.1256 2.2224 4.3963 7.9833
# 2 28.3014 156.0137 52.4186 -9.7378 2.4592 24.2714
# 3 8.1256 52.4186 90.7141 -18.2212 1.2776 9.9643
# 4 2.2224 -9.7378 -18.2212 38.0335 7.3032 3.9838
# 5 4.3963 2.4592 1.2776 7.3032 20.5883 1.5178
# 6 7.9833 24.2714 9.9643 3.9838 1.5178 35.4660
#
#
#
# Elastic Compliance Matrix: (Units=1/GPa)
#
#
# Indices 1 2 3 4 5 6 
#
# 1 0.019134 -0.003266 0.000216 -0.001039 -0.003202 -0.001879
# 2 -0.003266 0.009219 -0.004350 0.000962 -0.000147 -0.004453
# 3 0.000216 -0.004350 0.015155 0.006871 -0.002758 -0.001983
# 4 -0.001039 0.000962 0.006871 0.032680 -0.011504 -0.005533
# 5 -0.003202 -0.000147 -0.002758 -0.011504 0.053480 0.000600
# 6 -0.001879 -0.004453 -0.001983 -0.005533 0.000600 0.032820
#
#
# Mechanical properties :
#
#
# Convention : Reuss Voigt Hill
#
# Bulk Modulus (GPa) = 34.83317 53.67337 44.25327
# Shear Modulus (GPa) = 26.75843 33.25248 30.00546
#
# Velocity S-wave (km/s) = 3.64680 4.06531 3.86172
# Velocity P-wave (km/s) = 5.91984 6.97937 6.47133
#
# Compressibility (1/GPa) = 0.02870827
#
# Stress axis : x y z
#
# Youngs Moduli (GPa) = 52.26264 108.47350 65.98518
#
# Poissons Ratio (x) = 0.35423 -0.01425
# Poissons Ratio (y) = 0.17067 0.28704
# Poissons Ratio (z) = -0.01128 0.47187
#
# Static dielectric constant tensor:
#      x y z
#    x 1.766340 -0.000150 -0.015340 
#    y -0.000150 1.747470 0.011750 
#    z -0.015340 0.011750 1.751820 
# 
# From -- ./inp_files/366233.got.cif
#   From: 2010.05.17/outbox.cif.g08.bks.cpg/sg2_184_cif.got.tgz:366233.got - 2010.06.03 11:33:40.
