data_PCOD9005226
_publ_section_title
;
Structure prediction by ZEFSAII (Michael W. Deem and Ramdas Pophale) SiO2 
 PCOD9005226
Probable space group: P -1
;
_chemical_formula_sum "Si O2"
_cell_formula_units_Z 16
_cell_length_a 10.906073
_cell_length_b 15.828161
_cell_length_c 8.972408
_cell_angle_alpha 55.468191
_cell_angle_beta 65.710409
_cell_angle_gamma 109.573779
_cell_volume 760.323181
_symmetry_space_group_name_H-M "P -1"
_symmetry_group_IT_number 2
_symmetry_cell_setting 'triclinic'
loop_
_space_group_symop_operation_xyz
x,y,z
-x,-y,-z
loop_
_atom_site_type_symbol
_atom_site_label
_atom_site_fract_x
_atom_site_fract_y
_atom_site_fract_z
Si Si1 0.786397 0.342286 0.837853
Si Si2 0.721107 0.674496 0.893152
Si Si3 0.378713 0.178215 0.706063
Si Si4 0.152663 0.831852 0.165534
Si Si5 0.278893 0.325504 0.463251
Si Si6 0.621287 0.821785 0.941205
Si Si7 0.847337 0.168148 0.481902
Si Si8 0.213603 0.657715 0.808821
O O1 0.756381 0.207205 0.937441
O O2 0.596481 0.297177 0.914174
O O3 0.000000 0.500000 0.500000
O O4 0.796916 0.358815 0.992727
O O5 0.723538 0.693640 0.694591
O O6 0.911456 0.709498 0.795365
O O7 0.500000 0.500000 0.219024
O O8 0.743870 0.795471 0.843557
O O9 0.256130 0.204529 0.678370
O O10 0.410164 0.207304 0.837615
O O11 0.596480 0.297176 0.394993
O O12 0.261538 0.003500 0.913798
O O13 0.174966 0.819149 0.343367
O O14 0.911456 0.709497 0.374183
O O15 0.738461 0.996500 0.682336
O O16 0.756381 0.207205 0.391768
O O17 0.000000 0.500000 0.000000
#
# Coordination Sequence:
#
# PCOD9005226 Si02
#       8
#     2   2   2   2   2   2   2   2
#     4  12  25  41  63  89 119 156 200 249 301 359
#     4  10  21  38  61  88 120 160 204 250 298 349
#     4  11  23  39  61  89 123 161 201 247 297 353
#     4  10  22  40  61  89 125 161 199 247 300 351
#     4  10  21  38  61  88 120 160 204 250 298 349
#     4  11  23  39  61  89 123 161 201 247 297 353
#     4  10  22  40  61  89 125 161 199 247 300 351
#     4  12  25  41  63  89 119 156 200 249 301 359
#
# _framework density 21.043683000000001
#
# number of rings (size 3 to 8) (size 9 to 14) (size 15 to 20)
#    0.000    1.250    0.000    6.000    0.000    8.500 
#    0.000    0.000    0.000    0.000    0.000    0.000 
#    0.000    0.000    0.000    0.000    0.000    0.000 
#
# Total GULP energy -89582.902676 kJ/mol
# GULP energy per Si atom -5598.931417 kJ/mol
# Density = 2.099579 g / cm^3
# Si number density = 21.043683 Si / 1000 Ang^3
#
#
#
# Elastic Constant Matrix: (Units=GPa)
#
#
# Indices 1 2 3 4 5 6 
#
# 1 70.3838 2.9117 6.5115 4.7274 7.4145 1.6520
# 2 2.9117 73.5974 4.1337 0.9196 -0.6355 -9.7207
# 3 6.5115 4.1337 61.0616 1.3803 -2.3961 8.5326
# 4 4.7274 0.9196 1.3803 17.0029 -3.9619 -8.8504
# 5 7.4145 -0.6355 -2.3961 -3.9619 36.1969 -5.2268
# 6 1.6520 -9.7207 8.5326 -8.8504 -5.2268 25.1543
#
#
#
# Elastic Compliance Matrix: (Units=1/GPa)
#
#
# Indices 1 2 3 4 5 6 
#
# 1 0.015491 -0.001157 -0.000896 -0.007861 -0.004825 -0.004929
# 2 -0.001157 0.014848 -0.002107 0.004662 0.002112 0.008608
# 3 -0.000896 -0.002107 0.017996 -0.005978 -0.000630 -0.009094
# 4 -0.007861 0.004662 -0.005978 0.084381 0.015925 0.037344
# 5 -0.004825 0.002112 -0.000630 0.015925 0.032327 0.013667
# 6 -0.004929 0.008608 -0.009094 0.037344 0.013667 0.062469
#
#
# Mechanical properties :
#
#
# Convention : Reuss Voigt Hill
#
# Bulk Modulus (GPa) = 24.99110 25.79518 25.39314
# Shear Modulus (GPa) = 20.06646 28.43654 24.25150
#
# Velocity S-wave (km/s) = 3.09133 3.68001 3.39844
# Velocity P-wave (km/s) = 4.96421 5.50828 5.24330
#
# Compressibility (1/GPa) = 0.04001425
#
# Stress axis : x y z
#
# Youngs Moduli (GPa) = 64.55524 67.34692 55.56668
#
# Poissons Ratio (x) = 0.07792 0.04981
# Poissons Ratio (y) = 0.07469 0.11709
# Poissons Ratio (z) = 0.05787 0.14192
#
# Static dielectric constant tensor:
#      x y z
#    x 1.721080 -0.010140 -0.006310 
#    y -0.010140 1.728710 -0.038560 
#    z -0.006310 -0.038560 1.758120 
# 
# From -- ./inp_files/184829.got.cif
#   From: 2010.05.17/outbox.cif.g08.bks.cpg/sg2_93_cif.got.tgz:184829.got - 2010.06.03 11:33:40.
