data_PCOD9005782
_publ_section_title
;
Structure prediction by ZEFSAII (Michael W. Deem and Ramdas Pophale) SiO2 
 PCOD9005782
Probable space group: P -1
;
_chemical_formula_sum "Si O2"
_cell_formula_units_Z 12
_cell_length_a 9.586445
_cell_length_b 12.098652
_cell_length_c 7.915174
_cell_angle_alpha 70.312202
_cell_angle_beta 55.457160
_cell_angle_gamma 114.376086
_cell_volume 446.884982
_symmetry_space_group_name_H-M "P -1"
_symmetry_group_IT_number 2
_symmetry_cell_setting 'triclinic'
loop_
_space_group_symop_operation_xyz
x,y,z
-x,-y,-z
loop_
_atom_site_type_symbol
_atom_site_label
_atom_site_fract_x
_atom_site_fract_y
_atom_site_fract_z
Si Si1 0.710300 0.588409 0.658030
Si Si2 0.519292 0.831884 0.640215
Si Si3 0.267111 0.482349 0.852059
Si Si4 0.665691 0.345142 0.622834
Si Si5 0.041353 0.986657 0.283078
Si Si6 0.694864 0.130477 0.543048
O O1 0.533565 0.546486 0.645240
O O2 0.759251 0.479051 0.641663
O O3 0.967403 0.809634 0.398592
O O4 0.500000 0.500000 0.000000
O O5 0.318139 0.614478 0.884255
O O6 0.445319 0.869139 0.509812
O O7 0.813283 0.933227 0.364795
O O8 0.536145 0.922078 0.748745
O O9 0.223328 0.527303 0.684743
O O10 0.999091 0.270234 0.199043
O O11 0.713818 0.231924 0.630423
O O12 0.341012 0.178295 0.927245
O O13 0.000000 0.000000 0.500000
#
# Coordination Sequence:
#
# PCOD9005782 Si02
#       6
#     2   2   2   2   2   2
#     4  11  23  40  64  88 124 165 203 246 307 357
#     4   9  20  37  61  88 121 159 198 238 314 347
#     4  10  22  39  65  91 125 155 202 256 297 361
#     4  11  22  38  63  96 117 157 209 246 308 353
#     4  11  23  40  63  84 126 163 202 254 295 358
#     4  10  21  38  63  93 126 151 197 258 302 362
#
# _framework density 26.852549
#
# number of rings (size 3 to 8) (size 9 to 14) (size 15 to 20)
#    0.000    1.667    1.667    3.500    0.000   11.333 
#    0.000    1.667    3.667    0.000    0.000    0.000 
#    0.000    0.000    0.000    0.000    0.000    0.000 
#
# Total GULP energy -67200.883231 kJ/mol
# GULP energy per Si atom -5600.073603 kJ/mol
# Density = 2.679143 g / cm^3
# Si number density = 26.852549 Si / 1000 Ang^3
#
#
#
# Elastic Constant Matrix: (Units=GPa)
#
#
# Indices 1 2 3 4 5 6 
#
# 1 79.4960 10.2178 4.9955 1.8925 -11.6506 1.3698
# 2 10.2178 262.2383 28.6546 0.6759 8.8245 -27.1122
# 3 4.9955 28.6546 66.0716 -8.7856 0.1390 15.0027
# 4 1.8925 0.6759 -8.7856 42.0634 5.8732 -4.5510
# 5 -11.6506 8.8245 0.1390 5.8732 33.7267 0.1202
# 6 1.3698 -27.1122 15.0027 -4.5510 0.1202 38.4192
#
#
#
# Elastic Compliance Matrix: (Units=1/GPa)
#
#
# Indices 1 2 3 4 5 6 
#
# 1 0.013521 -0.000709 -0.000730 -0.001564 0.005135 -0.000899
# 2 -0.000709 0.004684 -0.002995 0.000025 -0.001479 0.004508
# 3 -0.000730 -0.002995 0.018970 0.003062 -0.000047 -0.009132
# 4 -0.001564 0.000025 0.003062 0.025385 -0.004987 0.001901
# 5 0.005135 -0.001479 -0.000047 -0.004987 0.032686 -0.001901
# 6 -0.000899 0.004508 -0.009132 0.001901 -0.001901 0.033039
#
#
# Mechanical properties :
#
#
# Convention : Reuss Voigt Hill
#
# Bulk Modulus (GPa) = 35.32465 55.06020 45.19242
# Shear Modulus (GPa) = 34.10912 47.10439 40.60675
#
# Velocity S-wave (km/s) = 3.56791 4.19285 3.89294
# Velocity P-wave (km/s) = 5.49153 6.63243 6.08876
#
# Compressibility (1/GPa) = 0.02830884
#
# Stress axis : x y z
#
# Youngs Moduli (GPa) = 73.95663 213.49573 52.71478
#
# Poissons Ratio (x) = 0.15133 0.03846
# Poissons Ratio (y) = 0.05242 0.15788
# Poissons Ratio (z) = 0.05396 0.63940
#
# Static dielectric constant tensor:
#      x y z
#    x 2.125910 -0.001730 -0.015530 
#    y -0.001730 2.142910 0.068230 
#    z -0.015530 0.068230 2.000280 
# 
# From -- ./inp_files/149296.got.cif
#   From: 2010.05.17/outbox.cif.g08.bks.cpg/sg2_75_cif.got.tgz:149296.got - 2010.06.03 11:33:40.
