data_PCOD9005617
_publ_section_title
;
Structure prediction by ZEFSAII (Michael W. Deem and Ramdas Pophale) SiO2 
 PCOD9005617
Probable space group: P -1
;
_chemical_formula_sum "Si O2"
_cell_formula_units_Z 16
_cell_length_a 9.157086
_cell_length_b 5.416181
_cell_length_c 16.661520
_cell_angle_alpha 69.831144
_cell_angle_beta 104.233181
_cell_angle_gamma 92.542617
_cell_volume 751.127688
_symmetry_space_group_name_H-M "P -1"
_symmetry_group_IT_number 2
_symmetry_cell_setting 'triclinic'
loop_
_space_group_symop_operation_xyz
x,y,z
-x,-y,-z
loop_
_atom_site_type_symbol
_atom_site_label
_atom_site_fract_x
_atom_site_fract_y
_atom_site_fract_z
Si Si1 0.338424 0.495621 0.519882
Si Si2 0.306089 0.717064 0.215369
Si Si3 0.946125 0.706509 0.538191
Si Si4 0.303953 0.967003 0.360135
Si Si5 0.557210 0.295781 0.333012
Si Si6 0.702844 0.327547 0.189812
Si Si7 0.464362 0.087811 0.895279
Si Si8 0.960196 0.594560 0.736085
O O1 0.500000 0.500000 0.500000
O O2 0.235378 0.270736 0.499685
O O3 0.356671 0.523663 0.613842
O O4 0.259345 0.758232 0.442791
O O5 0.415128 0.455675 0.255430
O O6 0.132322 0.637584 0.208155
O O7 0.338145 0.834902 0.293650
O O8 0.378277 0.889208 0.136110
O O9 0.985920 0.577130 0.645037
O O10 0.000000 0.500000 0.500000
O O11 0.000000 0.000000 0.500000
O O12 0.462741 0.087080 0.391619
O O13 0.161682 0.163070 0.305119
O O14 0.663992 0.205234 0.285515
O O15 0.633053 0.131483 0.137815
O O16 0.882172 0.354253 0.206500
O O17 0.625295 0.624888 0.146052
O O18 0.500000 0.000000 0.000000
#
# Coordination Sequence:
#
# PCOD9005617 Si02
#       8
#     2   2   2   2   2   2   2   2
#     4  12  22  38  62  93 128 180 241 285 315 373
#     4  10  21  42  67  94 131 178 215 278 338 393
#     4  12  27  43  59  90 137 187 227 281 330 368
#     4  11  20  40  64  90 137 179 226 277 332 381
#     4  10  21  38  62  98 127 176 237 279 325 384
#     4  11  25  43  72 101 132 174 217 272 334 405
#     4  11  25  49  76 104 132 164 215 276 345 415
#     4  11  25  42  64  96 135 181 226 267 335 400
#
# _framework density 21.301307000000001
#
# number of rings (size 3 to 8) (size 9 to 14) (size 15 to 20)
#    0.000    1.000    3.750    3.000    1.750    4.000 
#    0.000    1.250    0.000    0.000    0.000    0.000 
#    0.000    0.000    0.000    0.000    0.000    0.000 
#
# Total GULP energy -89328.621133 kJ/mol
# GULP energy per Si atom -5583.038821 kJ/mol
# Density = 2.125282 g / cm^3
# Si number density = 21.301307 Si / 1000 Ang^3
#
#
#
# Elastic Constant Matrix: (Units=GPa)
#
#
# Indices 1 2 3 4 5 6 
#
# 1 138.5551 64.8088 56.6621 4.2520 -7.9005 34.4544
# 2 64.8088 116.9769 32.0052 13.2839 6.4286 31.4040
# 3 56.6621 32.0052 99.3004 15.9261 -5.6220 28.8550
# 4 4.2520 13.2839 15.9261 30.2384 -0.2285 3.2085
# 5 -7.9005 6.4286 -5.6220 -0.2285 20.4637 -2.8700
# 6 34.4544 31.4040 28.8550 3.2085 -2.8700 47.2699
#
#
#
# Elastic Compliance Matrix: (Units=1/GPa)
#
#
# Indices 1 2 3 4 5 6 
#
# 1 0.012711 -0.005734 -0.005031 0.003667 0.005041 -0.002327
# 2 -0.005734 0.014030 0.000851 -0.005250 -0.007252 -0.005744
# 3 -0.005031 0.000851 0.015598 -0.007251 0.001173 -0.005856
# 4 0.003667 -0.005250 -0.007251 0.038403 0.001887 0.002750
# 5 0.005041 -0.007252 0.001173 0.001887 0.053936 0.003574
# 6 -0.002327 -0.005744 -0.005856 0.002750 0.003574 0.030272
#
#
# Mechanical properties :
#
#
# Convention : Reuss Voigt Hill
#
# Bulk Modulus (GPa) = 44.42585 73.53162 58.97874
# Shear Modulus (GPa) = 26.00342 33.01816 29.51079
#
# Velocity S-wave (km/s) = 3.49770 3.94134 3.72613
# Velocity P-wave (km/s) = 6.10025 7.43686 6.80147
#
# Compressibility (1/GPa) = 0.02250942
#
# Stress axis : x y z
#
# Youngs Moduli (GPa) = 78.67503 71.27682 64.10983
#
# Poissons Ratio (x) = 0.40872 0.32255
# Poissons Ratio (y) = 0.45115 -0.05455
# Poissons Ratio (z) = 0.39583 -0.06065
#
# Static dielectric constant tensor:
#      x y z
#    x 1.878430 -0.004930 -0.007020 
#    y -0.004930 1.892060 -0.059270 
#    z -0.007020 -0.059270 1.761890 
# 
# From -- ./inp_files/51196.got.cif
#   From: 2010.05.17/outbox.cif.g08.bks.cpg/sg2_26_cif.got.tgz:51196.got - 2010.06.03 11:33:40.
