data_PCOD9005805
_publ_section_title
;
Structure prediction by ZEFSAII (Michael W. Deem and Ramdas Pophale) SiO2 
 PCOD9005805
Probable space group: P -1
;
_chemical_formula_sum "Si O2"
_cell_formula_units_Z 16
_cell_length_a 15.731781
_cell_length_b 7.611455
_cell_length_c 12.194848
_cell_angle_alpha 80.951653
_cell_angle_beta 130.073680
_cell_angle_gamma 136.301374
_cell_volume 627.246263
_symmetry_space_group_name_H-M "P -1"
_symmetry_group_IT_number 2
_symmetry_cell_setting 'triclinic'
loop_
_space_group_symop_operation_xyz
x,y,z
-x,-y,-z
loop_
_atom_site_type_symbol
_atom_site_label
_atom_site_fract_x
_atom_site_fract_y
_atom_site_fract_z
Si Si1 0.735472 0.128127 0.060964
Si Si2 0.304150 0.134007 0.398913
Si Si3 0.716959 0.510072 0.225287
Si Si4 0.786414 0.591017 0.020755
Si Si5 0.052226 0.841686 0.614737
Si Si6 0.865691 0.758150 0.686305
Si Si7 0.428582 0.796665 0.331969
Si Si8 0.208309 0.865720 0.122337
O O1 0.840666 0.452471 0.089280
O O2 0.826643 0.167428 0.242159
O O3 0.774200 0.050948 0.996870
O O4 0.501409 0.843215 0.896991
O O5 0.500000 0.500000 0.500000
O O6 0.204687 0.130793 0.405270
O O7 0.357275 0.003522 0.491143
O O8 0.217568 0.008206 0.217740
O O9 0.713679 0.531400 0.089479
O O10 0.891612 0.616644 0.407386
O O11 0.785160 0.789358 0.305609
O O12 0.642664 0.396858 0.818219
O O13 0.958422 0.958200 0.113533
O O14 0.930454 0.749553 0.629957
O O15 0.707144 0.442884 0.655472
O O16 0.380642 0.942180 0.266704
O O17 0.000000 0.500000 0.000000
#
# Coordination Sequence:
#
# PCOD9005805 Si02
#       8
#     2   2   2   2   2   2   2   2
#     4  11  23  41  68  94 127 171 214 265 331 378
#     4  10  22  37  59  94 128 166 209 264 320 382
#     4  10  23  44  65  90 132 162 227 262 319 386
#     4  10  22  42  60  97 125 163 214 266 319 390
#     4  10  23  43  65  95 123 174 212 273 317 384
#     4  10  21  40  62  90 131 164 214 260 324 388
#     4  10  21  38  63  94 126 170 207 262 325 381
#     4  11  23  41  63  96 134 166 218 261 325 400
#
# _framework density 25.508323000000001
#
# number of rings (size 3 to 8) (size 9 to 14) (size 15 to 20)
#    0.000    1.750    0.000    3.750    3.500    5.500 
#   15.750    0.000    0.000    0.000    0.000    0.000 
#    0.000    0.000    0.000    0.000    0.000    0.000 
#
# Total GULP energy -89373.980473 kJ/mol
# GULP energy per Si atom -5585.873780 kJ/mol
# Density = 2.545027 g / cm^3
# Si number density = 25.508323 Si / 1000 Ang^3
#
#
#
# Elastic Constant Matrix: (Units=GPa)
#
#
# Indices 1 2 3 4 5 6 
#
# 1 62.5958 4.3348 14.8987 7.2828 -7.3701 -8.6679
# 2 4.3348 50.4209 20.4552 -4.7836 4.4683 -5.8867
# 3 14.8987 20.4552 105.3859 -5.0500 -9.6213 -1.5968
# 4 7.2828 -4.7836 -5.0500 36.4406 -10.4318 5.6660
# 5 -7.3701 4.4683 -9.6213 -10.4318 42.0853 -12.8666
# 6 -8.6679 -5.8867 -1.5968 5.6660 -12.8666 35.8975
#
#
#
# Elastic Compliance Matrix: (Units=1/GPa)
#
#
# Indices 1 2 3 4 5 6 
#
# 1 0.018293 -0.000654 -0.002221 -0.003957 0.003664 0.006149
# 2 -0.000654 0.022262 -0.004352 0.001406 -0.002452 0.002198
# 3 -0.002221 -0.004352 0.011049 0.002311 0.003176 0.000015
# 4 -0.003957 0.001406 0.002311 0.031072 0.006400 -0.003233
# 5 0.003664 -0.002452 0.003176 0.006400 0.030163 0.010425
# 6 0.006149 0.002198 0.000015 -0.003233 0.010425 0.033950
#
#
# Mechanical properties :
#
#
# Convention : Reuss Voigt Hill
#
# Bulk Modulus (GPa) = 26.91791 33.08667 30.00229
# Shear Modulus (GPa) = 28.79769 34.79894 31.79831
#
# Velocity S-wave (km/s) = 3.36363 3.69754 3.53453
# Velocity P-wave (km/s) = 5.06566 5.58822 5.33334
#
# Compressibility (1/GPa) = 0.03714998
#
# Stress axis : x y z
#
# Youngs Moduli (GPa) = 54.66672 44.91932 90.50951
#
# Poissons Ratio (x) = 0.02937 0.20103
# Poissons Ratio (y) = 0.03574 0.39388
# Poissons Ratio (z) = 0.12142 0.19548
#
# Static dielectric constant tensor:
#      x y z
#    x 2.057690 -0.037560 0.094340 
#    y -0.037560 2.014360 -0.031660 
#    z 0.094340 -0.031660 2.088540 
# 
# From -- ./inp_files/352372.got.cif
#   From: 2010.05.17/outbox.cif.g08.bks.cpg/sg2_177_cif.got.tgz:352372.got - 2010.06.03 11:33:40.
