data_PCOD9005918
_publ_section_title
;
Structure prediction by ZEFSAII (Michael W. Deem and Ramdas Pophale) SiO2 
 PCOD9005918
Probable space group: P -1
;
_chemical_formula_sum "Si O2"
_cell_formula_units_Z 12
_cell_length_a 6.652688
_cell_length_b 19.249455
_cell_length_c 10.292492
_cell_angle_alpha 144.232597
_cell_angle_beta 56.051468
_cell_angle_gamma 103.955213
_cell_volume 574.779770
_symmetry_space_group_name_H-M "P -1"
_symmetry_group_IT_number 2
_symmetry_cell_setting 'triclinic'
loop_
_space_group_symop_operation_xyz
x,y,z
-x,-y,-z
loop_
_atom_site_type_symbol
_atom_site_label
_atom_site_fract_x
_atom_site_fract_y
_atom_site_fract_z
Si Si1 0.107172 0.786290 0.083021
Si Si2 0.289790 0.999798 0.274121
Si Si3 0.259512 0.700412 0.621634
Si Si4 0.224771 0.970521 0.979152
Si Si5 0.797070 0.438791 0.102217
Si Si6 0.824395 0.423113 0.779814
O O1 0.832951 0.883578 0.401160
O O2 0.281541 0.870066 0.139813
O O3 0.076588 0.751155 0.892644
O O4 0.239607 0.656058 0.924095
O O5 0.569431 0.981620 0.085831
O O6 0.113866 0.032790 0.254635
O O7 0.353776 0.812692 0.718411
O O8 0.521964 0.569550 0.371704
O O9 0.107144 0.674243 0.514936
O O10 0.000000 0.000000 0.000000
O O11 0.023158 0.483171 0.137972
O O12 0.883698 0.369032 0.823666
O O13 0.500000 0.500000 0.000000
#
# Coordination Sequence:
#
# PCOD9005918 Si02
#       6
#     2   2   2   2   2   2
#     4  10  21  40  64  89 127 161 194 252 312 353
#     4   9  22  42  61  89 123 160 204 247 300 365
#     4  10  22  39  60  96 120 154 209 244 305 360
#     4  10  22  40  66  88 118 163 207 250 294 362
#     4  10  21  38  64  87 124 163 193 252 307 354
#     4   9  21  37  57  92 119 158 204 241 295 364
#
# _framework density 20.877562999999999
#
# number of rings (size 3 to 8) (size 9 to 14) (size 15 to 20)
#    0.000    2.333    0.000    0.500    9.333    3.333 
#    0.000   15.833    0.000    0.000    0.000    0.000 
#    0.000    0.000    0.000    0.000    0.000    0.000 
#
# Total GULP energy -66934.143749 kJ/mol
# GULP energy per Si atom -5577.845312 kJ/mol
# Density = 2.083004 g / cm^3
# Si number density = 20.877563 Si / 1000 Ang^3
#
#
#
# Elastic Constant Matrix: (Units=GPa)
#
#
# Indices 1 2 3 4 5 6 
#
# 1 74.6720 18.0979 27.5377 -15.3473 21.1549 -5.2110
# 2 18.0979 118.7993 43.9327 -7.9508 5.2791 9.7161
# 3 27.5377 43.9327 98.8287 -20.3469 30.0331 -10.7147
# 4 -15.3473 -7.9508 -20.3469 38.2114 -11.3422 7.1500
# 5 21.1549 5.2791 30.0331 -11.3422 27.8203 -9.7219
# 6 -5.2110 9.7161 -10.7147 7.1500 -9.7219 16.1720
#
#
#
# Elastic Compliance Matrix: (Units=1/GPa)
#
#
# Indices 1 2 3 4 5 6 
#
# 1 0.017983 -0.001812 0.000196 0.003553 -0.012902 -0.002315
# 2 -0.001812 0.012005 -0.006681 0.001137 0.002948 -0.010954
# 3 0.000196 -0.006681 0.019277 0.003005 -0.016511 0.005595
# 4 0.003553 0.001137 0.003005 0.032321 0.003644 -0.009646
# 5 -0.012902 0.002948 -0.016511 0.003644 0.073487 0.025698
# 6 -0.002315 -0.010954 0.005595 -0.009646 0.025698 0.091091
#
#
# Mechanical properties :
#
#
# Convention : Reuss Voigt Hill
#
# Bulk Modulus (GPa) = 30.60778 52.38183 41.49480
# Shear Modulus (GPa) = 18.27171 29.95620 24.11396
#
# Velocity S-wave (km/s) = 2.96156 3.79205 3.40224
# Velocity P-wave (km/s) = 5.13682 6.65713 5.94577
#
# Compressibility (1/GPa) = 0.03267144
#
# Stress axis : x y z
#
# Youngs Moduli (GPa) = 55.60883 83.29676 51.87615
#
# Poissons Ratio (x) = 0.15090 -0.01017
# Poissons Ratio (y) = 0.10074 0.34660
# Poissons Ratio (z) = -0.01091 0.55652
#
# Static dielectric constant tensor:
#      x y z
#    x 1.755410 -0.002700 0.030200 
#    y -0.002700 1.731000 -0.003310 
#    z 0.030200 -0.003310 1.831120 
# 
# From -- ./inp_files/19627.got.cif
#   From: 2010.05.17/outbox.cif.g08.bks.cpg/sg2_10_cif.got.tgz:19627.got - 2010.06.03 11:33:40.
