data_PCOD9005843
_publ_section_title
;
Structure prediction by ZEFSAII (Michael W. Deem and Ramdas Pophale) SiO2 
 PCOD9005843
Probable space group: P -1
;
_chemical_formula_sum "Si O2"
_cell_formula_units_Z 14
_cell_length_a 18.456045
_cell_length_b 8.452728
_cell_length_c 24.024046
_cell_angle_alpha 28.956600
_cell_angle_beta 20.560083
_cell_angle_gamma 37.903274
_cell_volume 627.100299
_symmetry_space_group_name_H-M "P -1"
_symmetry_group_IT_number 2
_symmetry_cell_setting 'triclinic'
loop_
_space_group_symop_operation_xyz
x,y,z
-x,-y,-z
loop_
_atom_site_type_symbol
_atom_site_label
_atom_site_fract_x
_atom_site_fract_y
_atom_site_fract_z
Si Si1 0.088299 0.374973 0.148061
Si Si2 0.874602 0.341486 0.692985
Si Si3 0.379117 0.822055 0.727503
Si Si4 0.410880 0.797722 0.442287
Si Si5 0.441801 0.505809 0.403195
Si Si6 0.574057 0.773417 0.968230
Si Si7 0.150501 0.745917 0.458967
O O1 0.237225 0.391232 0.091034
O O2 0.838639 0.300093 0.357768
O O3 0.144204 0.051344 0.176796
O O4 0.165267 0.682334 0.956915
O O5 0.000000 0.500000 0.500000
O O6 0.019205 0.465903 0.601958
O O7 0.645124 0.445834 0.826383
O O8 0.427387 0.567263 0.723261
O O9 0.539181 0.902076 0.640975
O O10 0.393550 0.163656 0.578042
O O11 0.500000 0.500000 0.500000
O O12 0.517361 0.795847 0.304955
O O13 0.232306 0.591076 0.501619
O O14 0.660711 0.032957 0.778328
O O15 0.500000 0.000000 0.000000
O O16 0.000000 0.000000 0.500000
#
# Coordination Sequence:
#
# PCOD9005843 Si02
#       7
#     2   2   2   2   2   2   2
#     4  11  22  39  71  98 128 173 227 270 330 395
#     4  11  23  40  68  95 125 177 224 266 330 397
#     4  10  23  44  68  95 133 176 220 275 330 391
#     4  10  23  43  66  97 130 178 220 266 331 391
#     4  10  22  42  67  97 135 173 219 273 329 394
#     4  10  21  38  63  96 123 167 221 262 320 392
#     4  12  24  41  63  97 141 167 214 280 335 389
#
# _framework density 22.324978000000002
#
# number of rings (size 3 to 8) (size 9 to 14) (size 15 to 20)
#    0.000    1.429    2.857    3.429    2.000    2.857 
#    0.000   20.000    0.000    0.000    0.000    0.000 
#    0.000    0.000    0.000    0.000    0.000    0.000 
#
# Total GULP energy -78081.333022 kJ/mol
# GULP energy per Si atom -5577.238073 kJ/mol
# Density = 2.227417 g / cm^3
# Si number density = 22.324978 Si / 1000 Ang^3
#
#
#
# Elastic Constant Matrix: (Units=GPa)
#
#
# Indices 1 2 3 4 5 6 
#
# 1 151.8651 24.6844 29.0369 6.7974 -7.6251 11.0917
# 2 24.6844 58.1811 4.0671 17.8812 2.3597 0.4117
# 3 29.0369 4.0671 100.5430 11.0741 -0.1844 1.1995
# 4 6.7974 17.8812 11.0741 27.1778 -5.0341 -2.2033
# 5 -7.6251 2.3597 -0.1844 -5.0341 23.9588 5.9607
# 6 11.0917 0.4117 1.1995 -2.2033 5.9607 39.5996
#
#
#
# Elastic Compliance Matrix: (Units=1/GPa)
#
#
# Indices 1 2 3 4 5 6 
#
# 1 0.007983 -0.004025 -0.002340 0.002137 0.004017 -0.002609
# 2 -0.004025 0.024316 0.002040 -0.017133 -0.007506 0.000989
# 3 -0.002340 0.002040 0.011156 -0.005673 -0.002126 0.000301
# 4 0.002137 -0.017133 -0.005673 0.052335 0.013150 0.000684
# 5 0.004017 -0.007506 -0.002126 0.013150 0.048377 -0.007533
# 6 -0.002609 0.000989 0.000301 0.000684 -0.007533 0.027136
#
#
# Mechanical properties :
#
#
# Convention : Reuss Voigt Hill
#
# Bulk Modulus (GPa) = 28.72984 47.35176 38.04080
# Shear Modulus (GPa) = 26.10236 35.00064 30.55150
#
# Velocity S-wave (km/s) = 3.42307 3.96382 3.70332
# Velocity P-wave (km/s) = 5.34041 6.49657 5.94665
#
# Compressibility (1/GPa) = 0.03480701
#
# Stress axis : x y z
#
# Youngs Moduli (GPa) = 125.26797 41.12574 89.63437
#
# Poissons Ratio (x) = 0.16552 0.20971
# Poissons Ratio (y) = 0.50416 -0.18288
# Poissons Ratio (z) = 0.29307 -0.08391
#
# Static dielectric constant tensor:
#      x y z
#    x 1.851370 0.024280 -0.005860 
#    y 0.024280 1.928430 0.004780 
#    z -0.005860 0.004780 1.910720 
# 
# From -- ./inp_files/214649.got.cif
#   From: 2010.05.17/outbox.cif.g08.bks.cpg/sg2_108_cif.got.tgz:214649.got - 2010.06.03 11:33:40.
