data_PCOD9005320
_publ_section_title
;
Structure prediction by ZEFSAII (Michael W. Deem and Ramdas Pophale) SiO2 
 PCOD9005320
Probable space group: P -1
;
_chemical_formula_sum "Si O2"
_cell_formula_units_Z 16
_cell_length_a 12.055965
_cell_length_b 16.837545
_cell_length_c 9.272698
_cell_angle_alpha 135.690671
_cell_angle_beta 39.847224
_cell_angle_gamma 110.239635
_cell_volume 750.414262
_symmetry_space_group_name_H-M "P -1"
_symmetry_group_IT_number 2
_symmetry_cell_setting 'triclinic'
loop_
_space_group_symop_operation_xyz
x,y,z
-x,-y,-z
loop_
_atom_site_type_symbol
_atom_site_label
_atom_site_fract_x
_atom_site_fract_y
_atom_site_fract_z
Si Si1 0.854620 0.358864 0.457412
Si Si2 0.838647 0.547761 0.099542
Si Si3 0.506351 0.984081 0.800424
Si Si4 0.431153 0.262474 0.169988
Si Si5 0.781584 0.305677 0.766590
Si Si6 0.080009 0.070311 0.320008
Si Si7 0.064368 0.137730 0.755115
Si Si8 0.851930 0.573183 0.586668
O O1 0.758266 0.321822 0.638733
O O2 0.752230 0.503624 0.688196
O O3 0.051530 0.354520 0.325137
O O4 0.900048 0.261370 0.154892
O O5 0.667200 0.676633 0.499036
O O6 0.773010 0.437671 0.001165
O O7 0.000000 0.500000 0.000000
O O8 0.959580 0.542336 0.829190
O O9 0.726816 0.880477 0.420099
O O10 0.481261 0.115925 0.928656
O O11 0.309190 0.978044 0.946765
O O12 0.500000 0.000000 0.000000
O O13 0.282976 0.338342 0.288664
O O14 0.619335 0.281570 0.977599
O O15 0.984482 0.184396 0.449077
O O16 0.059641 0.136665 0.584100
O O17 0.967232 0.984619 0.327876
#
# Coordination Sequence:
#
# PCOD9005320 Si02
#       8
#     2   2   2   2   2   2   2   2
#     4  10  22  41  62  87 126 167 201 255 315 368
#     4   9  19  34  60  89 112 161 204 255 306 351
#     4  10  21  38  61  92 124 155 205 262 305 365
#     4  11  21  38  62  92 123 161 209 259 310 364
#     4  11  22  39  59  92 131 159 207 256 306 381
#     4  10  21  40  63  91 125 158 211 263 303 364
#     4  10  22  40  64  91 122 165 207 257 312 365
#     4   9  21  40  62  89 122 161 212 254 306 378
#
# _framework density 21.321558
#
# number of rings (size 3 to 8) (size 9 to 14) (size 15 to 20)
#    0.000    2.000    1.250    2.625    7.000    1.000 
#    2.250    1.250    0.000    0.000    0.000    0.000 
#    0.000    0.000    0.000    0.000    0.000    0.000 
#
# Total GULP energy -89280.637296 kJ/mol
# GULP energy per Si atom -5580.039831 kJ/mol
# Density = 2.127303 g / cm^3
# Si number density = 21.321558 Si / 1000 Ang^3
#
#
#
# Elastic Constant Matrix: (Units=GPa)
#
#
# Indices 1 2 3 4 5 6 
#
# 1 48.1029 7.5899 11.5121 -3.3968 -2.7336 -3.2714
# 2 7.5899 68.8513 2.6172 -9.7645 0.2392 -21.5033
# 3 11.5121 2.6172 37.3395 -9.9170 0.0244 6.2028
# 4 -3.3968 -9.7645 -9.9170 25.5518 5.1002 -7.4518
# 5 -2.7336 0.2392 0.0244 5.1002 30.0091 2.4703
# 6 -3.2714 -21.5033 6.2028 -7.4518 2.4703 24.5427
#
#
#
# Elastic Compliance Matrix: (Units=1/GPa)
#
#
# Indices 1 2 3 4 5 6 
#
# 1 0.023183 -0.000787 -0.007616 0.000783 0.001629 0.004400
# 2 -0.000787 0.027064 -0.001471 0.019831 -0.006177 0.030623
# 3 -0.007616 -0.001471 0.032981 0.009331 -0.001666 -0.007638
# 4 0.000783 0.019831 0.009331 0.063661 -0.013865 0.035846
# 5 0.001629 -0.006177 -0.001666 -0.013865 0.036924 -0.012700
# 6 0.004400 0.030623 -0.007638 0.035846 -0.012700 0.082255
#
#
# Mechanical properties :
#
#
# Convention : Reuss Voigt Hill
#
# Bulk Modulus (GPa) = 15.75274 21.97025 18.86150
# Shear Modulus (GPa) = 16.28797 24.85901 20.57349
#
# Velocity S-wave (km/s) = 2.76691 3.41825 3.10968
# Velocity P-wave (km/s) = 4.19666 5.08978 4.66464
#
# Compressibility (1/GPa) = 0.06348103
#
# Stress axis : x y z
#
# Youngs Moduli (GPa) = 43.13558 36.94880 30.32088
#
# Poissons Ratio (x) = 0.02906 0.23093
# Poissons Ratio (y) = 0.03393 0.04459
# Poissons Ratio (z) = 0.32853 0.05434
#
# Static dielectric constant tensor:
#      x y z
#    x 1.761100 -0.000110 -0.021300 
#    y -0.000110 1.770160 -0.035640 
#    z -0.021300 -0.035640 1.735100 
# 
# From -- ./inp_files/257218.got.cif
#   From: 2010.05.17/outbox.cif.g08.bks.cpg/sg2_129_cif.got.tgz:257218.got - 2010.06.03 11:33:40.
