data_PCOD9005398
_publ_section_title
;
Structure prediction by ZEFSAII (Michael W. Deem and Ramdas Pophale) SiO2 
 PCOD9005398
Probable space group: P -1
;
_chemical_formula_sum "Si O2"
_cell_formula_units_Z 16
_cell_length_a 9.283055
_cell_length_b 11.539951
_cell_length_c 11.768686
_cell_angle_alpha 125.504636
_cell_angle_beta 43.483757
_cell_angle_gamma 132.380387
_cell_volume 630.349306
_symmetry_space_group_name_H-M "P -1"
_symmetry_group_IT_number 2
_symmetry_cell_setting 'triclinic'
loop_
_space_group_symop_operation_xyz
x,y,z
-x,-y,-z
loop_
_atom_site_type_symbol
_atom_site_label
_atom_site_fract_x
_atom_site_fract_y
_atom_site_fract_z
Si Si1 0.659887 0.273772 0.586489
Si Si2 0.253371 0.365460 0.879374
Si Si3 0.825238 0.822404 0.965603
Si Si4 0.060192 0.344419 0.745442
Si Si5 0.610423 0.104583 0.725642
Si Si6 0.929588 0.479024 0.363273
Si Si7 0.267294 0.143851 0.412141
Si Si8 0.314044 0.321719 0.265939
O O1 0.405603 0.267290 0.714347
O O2 0.664557 0.131644 0.575672
O O3 0.788947 0.314847 0.415965
O O4 0.812975 0.424336 0.671126
O O5 0.170010 0.307575 0.022156
O O6 0.062089 0.336380 0.875115
O O7 0.442547 0.548941 0.854615
O O8 0.581389 0.833727 0.113030
O O9 0.848720 0.777261 0.799114
O O10 0.000000 0.000000 0.000000
O O11 0.094581 0.502721 0.747292
O O12 0.262601 0.292424 0.565670
O O13 0.824667 0.217058 0.747812
O O14 0.563916 0.928270 0.683081
O O15 0.199806 0.418572 0.453407
O O16 0.328039 0.200979 0.280837
O O17 0.000000 0.000000 0.500000
#
# Coordination Sequence:
#
# PCOD9005398 Si02
#       8
#     2   2   2   2   2   2   2   2
#     4   8  15  30  53  85 115 151 185 233 295 344
#     4  10  21  39  62  89 117 153 199 248 294 346
#     4  11  25  42  61  83 115 163 208 242 286 342
#     4   9  18  35  63  89 118 148 187 245 301 356
#     4   9  19  38  58  82 120 158 193 240 292 346
#     4   8  15  31  57  86 117 148 190 233 301 346
#     4   9  19  35  62  91 121 151 189 237 307 353
#     4  10  21  38  62  85 121 160 196 243 291 344
#
# _framework density 25.382753000000001
#
# number of rings (size 3 to 8) (size 9 to 14) (size 15 to 20)
#    0.000    2.750    0.000    1.125    3.500    5.000 
#    2.250    1.875    8.250    0.000    0.000    0.000 
#    0.000    0.000    0.000    0.000    0.000    0.000 
#
# Total GULP energy -89405.319265 kJ/mol
# GULP energy per Si atom -5587.832454 kJ/mol
# Density = 2.532498 g / cm^3
# Si number density = 25.382753 Si / 1000 Ang^3
#
#
#
# Elastic Constant Matrix: (Units=GPa)
#
#
# Indices 1 2 3 4 5 6 
#
# 1 190.4095 64.9573 47.4167 -4.8996 41.0216 -40.1698
# 2 64.9573 95.8143 28.4846 -10.4932 23.6083 -30.7988
# 3 47.4167 28.4846 69.3903 -5.3985 30.1085 -16.2408
# 4 -4.8996 -10.4932 -5.3985 25.3623 -9.5583 8.7936
# 5 41.0216 23.6083 30.1085 -9.5583 47.7628 -8.5725
# 6 -40.1698 -30.7988 -16.2408 8.7936 -8.5725 61.7856
#
#
#
# Elastic Compliance Matrix: (Units=1/GPa)
#
#
# Indices 1 2 3 4 5 6 
#
# 1 0.008401 -0.003368 -0.001988 -0.002888 -0.004324 0.003072
# 2 -0.003368 0.015549 -0.001863 0.003044 -0.002233 0.004328
# 3 -0.001988 -0.001863 0.021672 -0.001409 -0.010928 0.002160
# 4 -0.002888 0.003044 -0.001409 0.045602 0.009942 -0.005842
# 5 -0.004324 -0.002233 -0.010928 0.009942 0.034006 -0.003494
# 6 0.003072 0.004328 0.002160 -0.005842 -0.003494 0.021254
#
#
# Mechanical properties :
#
#
# Convention : Reuss Voigt Hill
#
# Bulk Modulus (GPa) = 32.06679 70.81458 51.44068
# Shear Modulus (GPa) = 29.18594 41.29917 35.24256
#
# Velocity S-wave (km/s) = 3.39460 4.03805 3.73023
# Velocity P-wave (km/s) = 5.29388 7.04985 6.23400
#
# Compressibility (1/GPa) = 0.03118492
#
# Stress axis : x y z
#
# Youngs Moduli (GPa) = 119.03121 64.31375 46.14337
#
# Poissons Ratio (x) = 0.21661 0.09171
# Poissons Ratio (y) = 0.40091 0.08595
# Poissons Ratio (z) = 0.23659 0.11979
#
# Static dielectric constant tensor:
#      x y z
#    x 2.026730 0.010790 -0.056840 
#    y 0.010790 2.092410 -0.055030 
#    z -0.056840 -0.055030 2.145320 
# 
# From -- ./inp_files/390665.got.cif
#   From: 2010.05.17/outbox.cif.g08.bks.cpg/sg2_196_cif.got.tgz:390665.got - 2010.06.03 11:33:40.
