data_PCOD9005979
_publ_section_title
;
Structure prediction by ZEFSAII (Michael W. Deem and Ramdas Pophale) SiO2 
 PCOD9005979
Probable space group: P -1
;
_chemical_formula_sum "Si O2"
_cell_formula_units_Z 16
_cell_length_a 9.154007
_cell_length_b 12.146072
_cell_length_c 13.746854
_cell_angle_alpha 120.566155
_cell_angle_beta 38.305581
_cell_angle_gamma 120.482120
_cell_volume 798.821654
_symmetry_space_group_name_H-M "P -1"
_symmetry_group_IT_number 2
_symmetry_cell_setting 'triclinic'
loop_
_space_group_symop_operation_xyz
x,y,z
-x,-y,-z
loop_
_atom_site_type_symbol
_atom_site_label
_atom_site_fract_x
_atom_site_fract_y
_atom_site_fract_z
Si Si1 0.255382 0.898511 0.569436
Si Si2 0.984357 0.832145 0.490992
Si Si3 0.550979 0.152870 0.241467
Si Si4 0.034552 0.787761 0.225608
Si Si5 0.201946 0.025755 0.093166
Si Si6 0.447410 0.710284 0.892576
Si Si7 0.197269 0.444220 0.433443
Si Si8 0.459439 0.704859 0.488112
O O1 0.158902 0.907885 0.515095
O O2 0.328633 0.762456 0.493430
O O3 0.500000 0.000000 0.500000
O O4 0.047937 0.924895 0.762513
O O5 0.081196 0.826023 0.330204
O O6 0.738665 0.886033 0.634591
O O7 0.913381 0.685835 0.506462
O O8 0.614387 0.264205 0.175627
O O9 0.598085 0.217353 0.351245
O O10 0.391021 0.151510 0.091041
O O11 0.132028 0.909262 0.156989
O O12 0.748584 0.736530 0.339518
O O13 0.198414 0.683716 0.067868
O O14 0.313629 0.961219 0.914510
O O15 0.611567 0.603401 0.759872
O O16 0.343707 0.552603 0.478197
O O17 0.000000 0.500000 0.500000
#
# Coordination Sequence:
#
# PCOD9005979 Si02
#       8
#     2   2   2   2   2   2   2   2
#     4  12  23  36  59  92 124 155 197 244 306 361
#     4  10  22  40  62  91 114 165 204 241 303 356
#     4   9  20  36  62  88 116 153 204 244 291 351
#     4  10  22  38  63  90 123 152 201 260 294 348
#     4  11  20  39  62  88 127 156 197 248 308 357
#     4  10  21  38  64  91 114 165 202 241 305 357
#     4  11  21  42  66  79 125 164 203 242 295 369
#     4  11  23  39  61  92 118 161 204 246 300 346
#
# _framework density 20.029502999999998
#
# number of rings (size 3 to 8) (size 9 to 14) (size 15 to 20)
#    0.000    1.500    5.000    1.500    0.000    8.000 
#    0.000    3.125    0.000    0.000    0.000    0.000 
#    0.000    0.000    0.000    0.000    0.000    0.000 
#
# Total GULP energy -89302.827246 kJ/mol
# GULP energy per Si atom -5581.426703 kJ/mol
# Density = 1.998391 g / cm^3
# Si number density = 20.029503 Si / 1000 Ang^3
#
#
#
# Elastic Constant Matrix: (Units=GPa)
#
#
# Indices 1 2 3 4 5 6 
#
# 1 83.8733 34.2827 56.6532 3.4393 -10.5511 20.2126
# 2 34.2827 77.3040 14.7227 8.4060 -5.7766 17.1122
# 3 56.6532 14.7227 149.3824 5.1399 -11.5494 8.9246
# 4 3.4393 8.4060 5.1399 21.8093 -2.2256 -0.6331
# 5 -10.5511 -5.7766 -11.5494 -2.2256 35.0763 5.8007
# 6 20.2126 17.1122 8.9246 -0.6331 5.8007 30.5346
#
#
#
# Elastic Compliance Matrix: (Units=1/GPa)
#
#
# Indices 1 2 3 4 5 6 
#
# 1 0.021992 -0.005877 -0.006772 0.000621 0.005152 -0.010251
# 2 -0.005877 0.017682 0.001295 -0.006158 0.002332 -0.006968
# 3 -0.006772 0.001295 0.009210 -0.001478 0.000975 0.000849
# 4 0.000621 -0.006158 -0.001478 0.048709 0.001069 0.004278
# 5 0.005152 0.002332 0.000975 0.001069 0.032682 -0.011189
# 6 -0.010251 -0.006968 0.000849 0.004278 -0.011189 0.045407
#
#
# Mechanical properties :
#
#
# Convention : Reuss Voigt Hill
#
# Bulk Modulus (GPa) = 38.20246 57.98633 48.09439
# Shear Modulus (GPa) = 24.14115 31.14412 27.64263
#
# Velocity S-wave (km/s) = 3.47548 3.94752 3.71899
# Velocity P-wave (km/s) = 5.93463 7.05624 6.51960
#
# Compressibility (1/GPa) = 0.02617632
#
# Stress axis : x y z
#
# Youngs Moduli (GPa) = 45.47121 56.55496 108.57399
#
# Poissons Ratio (x) = 0.33235 0.73525
# Poissons Ratio (y) = 0.26721 -0.14055
# Poissons Ratio (z) = 0.30792 -0.07321
#
# Static dielectric constant tensor:
#      x y z
#    x 1.710010 -0.011440 -0.017500 
#    y -0.011440 1.778910 0.011020 
#    z -0.017500 0.011020 1.749820 
# 
# From -- ./inp_files/504239.got.cif
#   From: 2010.05.17/outbox.cif.g08.bks.cpg/sg2_253_cif.got.tgz:504239.got - 2010.06.03 11:33:40.
