data_PCOD9005639
_publ_section_title
;
Structure prediction by ZEFSAII (Michael W. Deem and Ramdas Pophale) SiO2 
 PCOD9005639
Probable space group: P -1
;
_chemical_formula_sum "Si O2"
_cell_formula_units_Z 16
_cell_length_a 10.557220
_cell_length_b 9.544342
_cell_length_c 9.945315
_cell_angle_alpha 63.799054
_cell_angle_beta 51.373373
_cell_angle_gamma 79.374401
_cell_volume 696.462677
_symmetry_space_group_name_H-M "P -1"
_symmetry_group_IT_number 2
_symmetry_cell_setting 'triclinic'
loop_
_space_group_symop_operation_xyz
x,y,z
-x,-y,-z
loop_
_atom_site_type_symbol
_atom_site_label
_atom_site_fract_x
_atom_site_fract_y
_atom_site_fract_z
Si Si1 0.783873 0.526475 0.293042
Si Si2 0.407393 0.132829 0.436060
Si Si3 0.489419 0.514447 0.712951
Si Si4 0.932751 0.256953 0.431258
Si Si5 0.652874 0.257472 0.808172
Si Si6 0.637390 0.937581 0.059975
Si Si7 0.226293 0.098473 0.310840
Si Si8 0.141428 0.140814 0.817637
O O1 0.631995 0.503628 0.510255
O O2 0.687878 0.539997 0.210965
O O3 0.883344 0.377864 0.301627
O O4 0.897510 0.684036 0.198424
O O5 0.500607 0.304502 0.332398
O O6 0.375891 0.115551 0.306796
O O7 0.225745 0.127169 0.624024
O O8 0.500000 0.000000 0.500000
O O9 0.550583 0.402041 0.834503
O O10 0.833069 0.301389 0.609971
O O11 0.120417 0.241989 0.340670
O O12 0.866535 0.075098 0.518431
O O13 0.662442 0.126750 0.969393
O O14 0.543120 0.152030 0.811399
O O15 0.731265 0.902768 0.874741
O O16 0.711984 0.873444 0.168863
O O17 0.000000 0.000000 0.000000
#
# Coordination Sequence:
#
# PCOD9005639 Si02
#       8
#     2   2   2   2   2   2   2   2
#     4   9  17  36  62  86 115 160 204 241 291 358
#     4  11  25  40  63  92 122 155 201 254 297 348
#     4   9  17  35  60  89 115 153 209 249 280 349
#     4   9  19  35  64  84 113 164 205 237 286 362
#     4   9  18  34  65  85 109 161 212 235 278 362
#     4  10  21  38  63  86 118 163 198 239 298 363
#     4  10  22  39  59  88 127 156 195 243 303 361
#     4  11  25  41  61  92 125 153 198 255 302 354
#
# _framework density 22.973234000000001
#
# number of rings (size 3 to 8) (size 9 to 14) (size 15 to 20)
#    0.000    2.250    1.250    0.750   12.250    0.000 
#    2.250    4.375    0.000    0.000    0.000    0.000 
#    0.000    0.000    0.000    0.000    0.000    0.000 
#
# Total GULP energy -89301.013221 kJ/mol
# GULP energy per Si atom -5581.313326 kJ/mol
# Density = 2.292095 g / cm^3
# Si number density = 22.973234 Si / 1000 Ang^3
#
#
#
# Elastic Constant Matrix: (Units=GPa)
#
#
# Indices 1 2 3 4 5 6 
#
# 1 33.8422 22.0207 -3.0512 6.3621 4.8293 -24.5714
# 2 22.0207 133.6771 20.6550 -24.3762 2.9207 -32.2561
# 3 -3.0512 20.6550 50.6846 -3.7082 -4.1913 -1.5909
# 4 6.3621 -24.3762 -3.7082 28.7346 1.7253 3.1114
# 5 4.8293 2.9207 -4.1913 1.7253 31.5626 -9.4253
# 6 -24.5714 -32.2561 -1.5909 3.1114 -9.4253 39.8121
#
#
#
# Elastic Compliance Matrix: (Units=1/GPa)
#
#
# Indices 1 2 3 4 5 6 
#
# 1 0.066981 -0.007358 0.006787 -0.024625 0.004197 0.038567
# 2 -0.007358 0.012545 -0.004584 0.011175 0.000117 0.004594
# 3 0.006787 -0.004584 0.022126 -0.002981 0.003188 0.002347
# 4 -0.024625 0.011175 -0.002981 0.050779 -0.003759 -0.011121
# 5 0.004197 0.000117 0.003188 -0.003759 0.035065 0.011408
# 6 0.038567 0.004594 0.002347 -0.011121 0.011408 0.056306
#
#
# Mechanical properties :
#
#
# Convention : Reuss Voigt Hill
#
# Bulk Modulus (GPa) = 10.94798 33.05030 21.99914
# Shear Modulus (GPa) = 17.57101 31.92716 24.74908
#
# Velocity S-wave (km/s) = 2.76859 3.73199 3.28579
# Velocity P-wave (km/s) = 3.87246 5.74351 4.89816
#
# Compressibility (1/GPa) = 0.09134103
#
# Stress axis : x y z
#
# Youngs Moduli (GPa) = 14.92958 79.71405 45.19666
#
# Poissons Ratio (x) = 0.58657 -0.30675
# Poissons Ratio (y) = 0.10986 0.20717
# Poissons Ratio (z) = -0.10133 0.36539
#
# Static dielectric constant tensor:
#      x y z
#    x 1.848580 -0.049090 -0.022750 
#    y -0.049090 1.917410 0.017520 
#    z -0.022750 0.017520 1.917170 
# 
# From -- ./inp_files/419106.got.cif
#   From: 2010.05.17/outbox.cif.g08.bks.cpg/sg2_210_cif.got.tgz:419106.got - 2010.06.03 11:33:40.
