data_PCOD9005420
_publ_section_title
;
Structure prediction by ZEFSAII (Michael W. Deem and Ramdas Pophale) SiO2 
 PCOD9005420
Probable space group: P -1
;
_chemical_formula_sum "Si O2"
_cell_formula_units_Z 14
_cell_length_a 5.105161
_cell_length_b 5.286217
_cell_length_c 28.446882
_cell_angle_alpha 69.329745
_cell_angle_beta 66.195139
_cell_angle_gamma 61.661337
_cell_volume 605.664804
_symmetry_space_group_name_H-M "P -1"
_symmetry_group_IT_number 2
_symmetry_cell_setting 'triclinic'
loop_
_space_group_symop_operation_xyz
x,y,z
-x,-y,-z
loop_
_atom_site_type_symbol
_atom_site_label
_atom_site_fract_x
_atom_site_fract_y
_atom_site_fract_z
Si Si1 0.009334 0.648697 0.644530
Si Si2 0.567946 0.119491 0.804916
Si Si3 0.835751 0.425307 0.843474
Si Si4 0.342271 0.281892 0.937348
Si Si5 0.387275 0.736101 0.316759
Si Si6 0.699238 0.678362 0.957183
Si Si7 0.300286 0.803267 0.520821
O O1 0.271869 0.441991 0.674782
O O2 0.186924 0.726114 0.583666
O O3 0.810650 0.467831 0.651867
O O4 0.785729 0.953122 0.664883
O O5 0.711755 0.296582 0.816512
O O6 0.592282 0.200565 0.743760
O O7 0.199501 0.233460 0.834423
O O8 0.750261 0.769695 0.820244
O O9 0.625402 0.384744 0.904340
O O10 0.036774 0.519199 0.922046
O O11 0.480265 0.960427 0.926840
O O12 0.232660 0.224839 0.001145
O O13 0.500000 0.500000 0.000000
O O14 0.500000 0.500000 0.500000
O O15 0.500000 0.000000 0.500000
O O16 0.000000 0.000000 0.500000
#
# Coordination Sequence:
#
# PCOD9005420 Si02
#       7
#     2   2   2   2   2   2   2
#     4  12  25  43  71 101 133 186 225 278 336 397
#     4  12  26  45  68  98 130 176 219 288 337 396
#     4  12  27  45  71  98 136 174 223 272 353 400
#     4  10  23  38  59  92 119 166 209 263 317 405
#     4  12  24  44  67  96 133 171 235 279 333 401
#     4  10  21  38  62  87 123 160 211 259 320 377
#     4  12  24  43  67 101 144 180 225 278 334 399
#
# _framework density 23.115096000000001
#
# number of rings (size 3 to 8) (size 9 to 14) (size 15 to 20)
#    0.000    0.571    0.000    8.571    4.000    0.000 
#    0.000    0.000    0.000    0.000    0.000    0.000 
#    0.000    0.000    0.000    0.000    0.000    0.000 
#
# Total GULP energy -78401.994532 kJ/mol
# GULP energy per Si atom -5600.142467 kJ/mol
# Density = 2.306249 g / cm^3
# Si number density = 23.115096 Si / 1000 Ang^3
#
#
#
# Elastic Constant Matrix: (Units=GPa)
#
#
# Indices 1 2 3 4 5 6 
#
# 1 118.0912 58.6419 -23.5986 0.9210 -3.3692 -16.2626
# 2 58.6419 198.0579 12.4958 2.5169 -2.6950 -15.9570
# 3 -23.5986 12.4958 94.9605 5.7593 3.8313 -6.1606
# 4 0.9210 2.5169 5.7593 40.2303 1.6774 -0.6298
# 5 -3.3692 -2.6950 3.8313 1.6774 41.9571 -0.3847
# 6 -16.2626 -15.9570 -6.1606 -0.6298 -0.3847 43.4381
#
#
#
# Elastic Compliance Matrix: (Units=1/GPa)
#
#
# Indices 1 2 3 4 5 6 
#
# 1 0.011284 -0.003265 0.003476 -0.000515 0.000432 0.003515
# 2 -0.003265 0.006187 -0.001578 -0.000086 0.000290 0.000828
# 3 0.003476 -0.001578 0.011887 -0.001611 -0.000822 0.002377
# 4 -0.000515 -0.000086 -0.001611 0.025141 -0.000906 -0.000096
# 5 0.000432 0.000290 -0.000822 -0.000906 0.024002 0.000351
# 6 0.003515 0.000828 0.002377 -0.000096 0.000351 0.024980
#
#
# Mechanical properties :
#
#
# Convention : Reuss Voigt Hill
#
# Bulk Modulus (GPa) = 37.56089 56.24309 46.90199
# Shear Modulus (GPa) = 43.44419 49.36314 46.40367
#
# Velocity S-wave (km/s) = 4.33999 4.62620 4.48538
# Velocity P-wave (km/s) = 6.43419 7.27463 6.86728
#
# Compressibility (1/GPa) = 0.02662344
#
# Stress axis : x y z
#
# Youngs Moduli (GPa) = 88.62004 161.62928 84.12448
#
# Poissons Ratio (x) = 0.52768 -0.29238
# Poissons Ratio (y) = 0.28932 0.13277
# Poissons Ratio (z) = -0.30801 0.25510
#
# Static dielectric constant tensor:
#      x y z
#    x 1.862320 0.051100 0.055460 
#    y 0.051100 1.928880 0.060010 
#    z 0.055460 0.060010 1.901150 
# 
# From -- ./inp_files/614929.got.cif
#   From: 2010.05.17/outbox.cif.g08.bks.cpg/sg2_308_cif.got.tgz:614929.got - 2010.06.03 11:33:40.
