data_PCOD9005353
_publ_section_title
;
Structure prediction by ZEFSAII (Michael W. Deem and Ramdas Pophale) SiO2 
 PCOD9005353
Probable space group: P -1
;
_chemical_formula_sum "Si O2"
_cell_formula_units_Z 15
_cell_length_a 16.651575
_cell_length_b 9.171919
_cell_length_c 5.110746
_cell_angle_alpha 57.727535
_cell_angle_beta 71.410691
_cell_angle_gamma 57.637528
_cell_volume 556.866503
_symmetry_space_group_name_H-M "P -1"
_symmetry_group_IT_number 2
_symmetry_cell_setting 'triclinic'
loop_
_space_group_symop_operation_xyz
x,y,z
-x,-y,-z
loop_
_atom_site_type_symbol
_atom_site_label
_atom_site_fract_x
_atom_site_fract_y
_atom_site_fract_z
Si Si1 0.117173 0.604438 0.513922
Si Si2 0.398501 0.556944 0.421707
Si Si3 0.000000 0.000000 0.000000
Si Si4 0.370076 0.945877 0.134298
Si Si5 0.779185 0.377066 0.105950
Si Si6 0.915825 0.745542 0.052941
Si Si7 0.808959 0.950777 0.451225
Si Si8 0.553290 0.827794 0.407026
O O1 0.169806 0.569947 0.766856
O O2 0.061006 0.476009 0.707472
O O3 0.054329 0.833934 0.324596
O O4 0.197167 0.544411 0.259449
O O5 0.500000 0.500000 0.500000
O O6 0.363419 0.774427 0.142657
O O7 0.324830 0.564489 0.716607
O O8 0.411142 0.395890 0.348631
O O9 0.986690 0.826779 0.006071
O O10 0.475370 0.862057 0.229892
O O11 0.295950 0.992766 0.397188
O O12 0.360602 0.135099 0.819190
O O13 0.825989 0.142097 0.238993
O O14 0.828474 0.860498 0.233623
O O15 0.877414 0.814751 0.736084
O O16 0.500000 0.000000 0.500000
#
# Coordination Sequence:
#
# PCOD9005353 Si02
#       8
#     2   2   1   2   2   2   2   2
#     4  12  27  46  76 108 140 187 234 293 356 424
#     4   9  21  43  62  94 138 184 233 282 342 407
#     4  12  26  54  74 106 148 180 234 288 372 426
#     4   9  22  39  60  89 137 175 232 278 348 404
#     4  11  23  49  71 106 145 189 237 292 351 415
#     4  12  27  45  76 106 139 182 233 285 360 430
#     4  11  23  46  70 103 142 189 228 296 345 421
#     4  10  21  38  61  95 126 182 230 289 341 402
#
# _framework density 26.936437999999999
#
# number of rings (size 3 to 8) (size 9 to 14) (size 15 to 20)
#    0.000    1.333    2.667    1.200    5.600    2.667 
#   12.000    2.667    0.000    0.000    0.000    0.000 
#    0.000    0.000    0.000    0.000    0.000    0.000 
#
# Total GULP energy -83791.436837 kJ/mol
# GULP energy per Si atom -5586.095789 kJ/mol
# Density = 2.687513 g / cm^3
# Si number density = 26.936438 Si / 1000 Ang^3
#
#
#
# Elastic Constant Matrix: (Units=GPa)
#
#
# Indices 1 2 3 4 5 6 
#
# 1 100.9406 40.0817 55.1165 -9.0665 -25.9621 17.4979
# 2 40.0817 158.0348 61.6555 -22.7561 -22.9937 22.8160
# 3 55.1165 61.6555 106.2498 -5.4384 -31.6805 13.9196
# 4 -9.0665 -22.7561 -5.4384 40.2018 12.2503 -10.2833
# 5 -25.9621 -22.9937 -31.6805 12.2503 44.3915 -6.3950
# 6 17.4979 22.8160 13.9196 -10.2833 -6.3950 28.8177
#
#
#
# Elastic Compliance Matrix: (Units=1/GPa)
#
#
# Indices 1 2 3 4 5 6 
#
# 1 0.015095 -0.000220 -0.005888 -0.000021 0.003751 -0.005322
# 2 -0.000220 0.009216 -0.004624 0.003663 -0.000194 -0.003665
# 3 -0.005888 -0.004624 0.017300 -0.004132 0.007514 -0.000927
# 4 -0.000021 0.003663 -0.004132 0.031087 -0.008443 0.008328
# 5 0.003751 -0.000194 0.007514 -0.008443 0.032075 -0.001649
# 6 -0.005322 -0.003665 -0.000927 0.008328 -0.001649 0.043888
#
#
# Mechanical properties :
#
#
# Convention : Reuss Voigt Hill
#
# Bulk Modulus (GPa) = 49.63593 75.43694 62.53643
# Shear Modulus (GPa) = 28.27409 36.57365 32.42387
#
# Velocity S-wave (km/s) = 3.24336 3.68880 3.47323
# Velocity P-wave (km/s) = 5.70025 6.79774 6.27305
#
# Compressibility (1/GPa) = 0.02014670
#
# Stress axis : x y z
#
# Youngs Moduli (GPa) = 66.24843 108.50795 57.80444
#
# Poissons Ratio (x) = 0.02390 0.34034
# Poissons Ratio (y) = 0.01459 0.26727
# Poissons Ratio (z) = 0.39006 0.50171
#
# Static dielectric constant tensor:
#      x y z
#    x 1.769720 0.198800 0.161100 
#    y 0.198800 1.968470 -0.176900 
#    z 0.161100 -0.176900 1.956570 
# 
# From -- ./inp_files/106240.got.cif
#   From: 2010.05.17/outbox.cif.g08.bks.cpg/sg2_54_cif.got.tgz:106240.got - 2010.06.03 11:33:40.
