data_PCOD9005989
_publ_section_title
;
Structure prediction by ZEFSAII (Michael W. Deem and Ramdas Pophale) SiO2 
 PCOD9005989
Probable space group: P -1
;
_chemical_formula_sum "Si O2"
_cell_formula_units_Z 16
_cell_length_a 11.500873
_cell_length_b 5.578155
_cell_length_c 11.192959
_cell_angle_alpha 90.771652
_cell_angle_beta 76.662205
_cell_angle_gamma 72.404009
_cell_volume 663.324313
_symmetry_space_group_name_H-M "P -1"
_symmetry_group_IT_number 2
_symmetry_cell_setting 'triclinic'
loop_
_space_group_symop_operation_xyz
x,y,z
-x,-y,-z
loop_
_atom_site_type_symbol
_atom_site_label
_atom_site_fract_x
_atom_site_fract_y
_atom_site_fract_z
Si Si1 0.244248 0.844465 0.751013
Si Si2 0.832123 0.073463 0.753399
Si Si3 0.555184 0.622959 0.293369
Si Si4 0.579875 0.967492 0.861576
Si Si5 0.967125 0.410304 0.260214
Si Si6 0.262793 0.209902 0.570932
Si Si7 0.983130 0.797663 0.098462
Si Si8 0.319562 0.466686 0.337975
O O1 0.353686 0.634212 0.789126
O O2 0.133868 0.730441 0.745638
O O3 0.289964 0.932184 0.616761
O O4 0.169074 0.093692 0.843046
O O5 0.919389 0.166128 0.823489
O O6 0.793597 0.277765 0.658114
O O7 0.702141 0.062247 0.841581
O O8 0.915700 0.785853 0.704226
O O9 0.641409 0.684095 0.375271
O O10 0.433312 0.554033 0.362793
O O11 0.508870 0.857550 0.217189
O O12 0.632007 0.681793 0.797836
O O13 0.500000 0.000000 0.000000
O O14 0.005680 0.500268 0.122983
O O15 0.883542 0.643063 0.361303
O O16 0.288133 0.265681 0.430380
O O17 0.000000 0.000000 0.000000
#
# Coordination Sequence:
#
# PCOD9005989 Si02
#       8
#     2   2   2   2   2   2   2   2
#     4   9  20  36  59  92 126 162 207 263 322 372
#     4  10  23  41  62  91 127 166 214 261 320 387
#     4  10  22  39  63  93 127 167 217 267 319 380
#     4  11  26  43  62  90 129 172 217 267 319 380
#     4   9  20  40  61  93 127 159 205 260 322 381
#     4  10  21  40  66  96 132 166 212 268 321 385
#     4  10  21  38  64  91 122 165 214 267 318 374
#     4  11  24  41  63  93 129 176 218 261 322 381
#
# _framework density 24.120933000000001
#
# number of rings (size 3 to 8) (size 9 to 14) (size 15 to 20)
#    0.000    2.000    0.000    1.875    0.000   16.500 
#    0.000    8.750    0.000    0.000    0.000    0.000 
#    0.000    0.000    0.000    0.000    0.000    0.000 
#
# Total GULP energy -89276.992314 kJ/mol
# GULP energy per Si atom -5579.812020 kJ/mol
# Density = 2.406603 g / cm^3
# Si number density = 24.120933 Si / 1000 Ang^3
#
#
#
# Elastic Constant Matrix: (Units=GPa)
#
#
# Indices 1 2 3 4 5 6 
#
# 1 57.6934 -1.6930 44.6384 -68.1089 -22.3126 -13.5531
# 2 -1.6930 106.4938 31.2934 -51.4060 -13.0024 -22.6204
# 3 44.6384 31.2934 85.4129 9.0155 -3.8847 2.8762
# 4 -68.1089 -51.4060 9.0155 -25.8197 -26.5254 -9.8132
# 5 -22.3126 -13.0024 -3.8847 -26.5254 5.0176 -13.1095
# 6 -13.5531 -22.6204 2.8762 -9.8132 -13.1095 52.6173
#
#
#
# Elastic Compliance Matrix: (Units=1/GPa)
#
#
# Indices 1 2 3 4 5 6 
#
# 1 0.008514 -0.003447 -0.002952 -0.005600 -0.009770 -0.002606
# 2 -0.003447 0.008098 -0.001190 -0.002344 -0.005300 0.000901
# 3 -0.002952 -0.001190 0.013899 0.002566 0.011617 0.001341
# 4 -0.005600 -0.002344 0.002566 0.004968 -0.020259 -0.006711
# 5 -0.009770 -0.005300 0.011617 -0.020259 0.057164 0.005034
# 6 -0.002606 0.000901 0.001341 -0.006711 0.005034 0.018650
#
#
# Mechanical properties :
#
#
# Convention : Reuss Voigt Hill
#
# Bulk Modulus (GPa) = 65.21563 44.23087 54.72325
# Shear Modulus (GPa) = 37.99896 18.05378 28.02637
#
# Velocity S-wave (km/s) = 3.97338 2.73878 3.41238
# Velocity P-wave (km/s) = 6.93873 5.32712 6.18563
#
# Compressibility (1/GPa) = 0.01533375
#
# Stress axis : x y z
#
# Youngs Moduli (GPa) = 117.45055 123.48811 71.94766
#
# Poissons Ratio (x) = 0.42564 0.21242
# Poissons Ratio (y) = 0.40483 0.08559
# Poissons Ratio (z) = 0.34676 0.14689
#
# Static dielectric constant tensor:
#      x y z
#    x 1.887370 0.027690 -0.000420 
#    y 0.027690 2.125450 0.110680 
#    z -0.000420 0.110680 2.010080 
# 
# From -- ./inp_files/410015.got.cif
#   From: 2010.05.17/outbox.cif.g08.bks.cpg/sg2_206_cif.got.tgz:410015.got - 2010.06.03 11:33:40.
