data_PCOD9005654
_publ_section_title
;
Structure prediction by ZEFSAII (Michael W. Deem and Ramdas Pophale) SiO2 
 PCOD9005654
Probable space group: P -1
;
_chemical_formula_sum "Si O2"
_cell_formula_units_Z 16
_cell_length_a 19.448214
_cell_length_b 24.236097
_cell_length_c 13.808056
_cell_angle_alpha 22.575645
_cell_angle_beta 158.645492
_cell_angle_gamma 160.165616
_cell_volume 742.930293
_symmetry_space_group_name_H-M "P -1"
_symmetry_group_IT_number 2
_symmetry_cell_setting 'triclinic'
loop_
_space_group_symop_operation_xyz
x,y,z
-x,-y,-z
loop_
_atom_site_type_symbol
_atom_site_label
_atom_site_fract_x
_atom_site_fract_y
_atom_site_fract_z
Si Si1 0.453228 0.888493 0.713969
Si Si2 0.040052 0.846269 0.292576
Si Si3 0.141758 0.416186 0.344472
Si Si4 0.898830 0.890834 0.341256
Si Si5 0.240305 0.244194 0.117484
Si Si6 0.666640 0.395474 0.298834
Si Si7 0.172244 0.549405 0.785440
Si Si8 0.376315 0.375810 0.441382
O O1 0.310887 0.929624 0.531865
O O2 0.253819 0.686184 0.757175
O O3 0.500000 0.000000 0.500000
O O4 0.682554 0.899381 0.016327
O O5 0.899121 0.679480 0.450202
O O6 0.951104 0.788213 0.159790
O O7 0.000000 0.000000 0.000000
O O8 0.091455 0.255981 0.467452
O O9 0.404753 0.579964 0.404021
O O10 0.000000 0.500000 0.000000
O O11 0.821599 0.816196 0.468501
O O12 0.124530 0.080196 0.303490
O O13 0.449925 0.272665 0.282703
O O14 0.320276 0.424923 0.981249
O O15 0.677816 0.346419 0.282593
O O16 0.904979 0.444621 0.578511
O O17 0.246878 0.429596 0.116217
O O18 0.500000 0.500000 0.500000
#
# Coordination Sequence:
#
# PCOD9005654 Si02
#       8
#     2   2   2   2   2   2   2   2
#     4  12  21  35  63  96 127 160 197 271 336 371
#     4  12  23  37  62  98 132 160 211 279 333 374
#     4  11  22  35  57  97 134 165 197 253 343 391
#     4  11  22  40  61  95 131 161 210 270 325 388
#     4  11  22  41  59  92 127 165 217 268 314 367
#     4  10  24  39  65  87 125 175 217 259 303 380
#     4  11  21  42  61  91 122 169 217 253 315 388
#     4  10  21  38  63  87 125 159 201 262 325 387
#
# _framework density 21.536342000000001
#
# number of rings (size 3 to 8) (size 9 to 14) (size 15 to 20)
#    0.000    1.000    6.250    1.500    3.500    0.000 
#    0.000    1.250    0.000    0.000    0.000    0.000 
#    0.000    0.000    0.000    0.000    0.000    0.000 
#
# Total GULP energy -89206.972874 kJ/mol
# GULP energy per Si atom -5575.435805 kJ/mol
# Density = 2.148732 g / cm^3
# Si number density = 21.536342 Si / 1000 Ang^3
#
#
#
# Elastic Constant Matrix: (Units=GPa)
#
#
# Indices 1 2 3 4 5 6 
#
# 1 62.3860 41.3976 37.3181 -2.4721 6.5438 36.1051
# 2 41.3976 86.3451 37.6731 -7.6400 3.0769 43.3577
# 3 37.3181 37.6731 146.1538 5.5704 14.9236 31.4488
# 4 -2.4721 -7.6400 5.5704 27.3595 8.4152 1.3220
# 5 6.5438 3.0769 14.9236 8.4152 39.0282 -5.9916
# 6 36.1051 43.3577 31.4488 1.3220 -5.9916 51.2424
#
#
#
# Elastic Compliance Matrix: (Units=1/GPa)
#
#
# Indices 1 2 3 4 5 6 
#
# 1 0.032229 -0.004125 -0.002498 0.005712 -0.008241 -0.018797
# 2 -0.004125 0.023750 -0.001131 0.008973 -0.005347 -0.017352
# 3 -0.002498 -0.001131 0.008772 -0.001249 -0.003036 -0.002990
# 4 0.005712 0.008973 -0.001249 0.044427 -0.012839 -0.013497
# 5 -0.008241 -0.005347 -0.003036 -0.012839 0.033886 0.016487
# 6 -0.018797 -0.017352 -0.002990 -0.013497 0.016487 0.051552
#
#
# Mechanical properties :
#
#
# Convention : Reuss Voigt Hill
#
# Bulk Modulus (GPa) = 20.30667 58.62919 39.46793
# Shear Modulus (GPa) = 22.07122 35.42576 28.74849
#
# Velocity S-wave (km/s) = 3.20478 4.06017 3.65757
# Velocity P-wave (km/s) = 4.81078 7.01872 6.01690
#
# Compressibility (1/GPa) = 0.04924490
#
# Stress axis : x y z
#
# Youngs Moduli (GPa) = 31.02752 42.10506 113.99478
#
# Poissons Ratio (x) = 0.17367 0.28473
# Poissons Ratio (y) = 0.12798 0.12893
# Poissons Ratio (z) = 0.07750 0.04762
#
# Static dielectric constant tensor:
#      x y z
#    x 1.989470 -0.111740 0.208480 
#    y -0.111740 1.920960 -0.121900 
#    z 0.208480 -0.121900 1.977630 
# 
# From -- ./inp_files/541879.got.cif
#   From: 2010.05.17/outbox.cif.g08.bks.cpg/sg2_271_cif.got.tgz:541879.got - 2010.06.03 11:33:40.
