data_PCOD9005310
_publ_section_title
;
Structure prediction by ZEFSAII (Michael W. Deem and Ramdas Pophale) SiO2 
 PCOD9005310
Probable space group: P -1
;
_chemical_formula_sum "Si O2"
_cell_formula_units_Z 14
_cell_length_a 8.982314
_cell_length_b 18.316369
_cell_length_c 5.547666
_cell_angle_alpha 98.845404
_cell_angle_beta 101.803254
_cell_angle_gamma 41.107822
_cell_volume 587.405307
_symmetry_space_group_name_H-M "P -1"
_symmetry_group_IT_number 2
_symmetry_cell_setting 'triclinic'
loop_
_space_group_symop_operation_xyz
x,y,z
-x,-y,-z
loop_
_atom_site_type_symbol
_atom_site_label
_atom_site_fract_x
_atom_site_fract_y
_atom_site_fract_z
Si Si1 0.521432 0.751819 0.679654
Si Si2 0.050060 0.225349 0.142069
Si Si3 0.316237 0.129566 0.695447
Si Si4 0.098563 0.885016 0.871326
Si Si5 0.293300 0.973675 0.512514
Si Si6 0.194011 0.404839 0.701981
Si Si7 0.983886 0.393421 0.021908
O O1 0.367808 0.775534 0.854776
O O2 0.373396 0.877596 0.644338
O O3 0.570609 0.691134 0.415090
O O4 0.777654 0.679545 0.795958
O O5 0.979930 0.164533 0.060137
O O6 0.159564 0.194341 0.431897
O O7 0.881887 0.355273 0.086169
O O8 0.212114 0.183112 0.945446
O O9 0.551334 0.087256 0.708083
O O10 0.368149 0.023717 0.672275
O O11 0.969438 0.928435 0.591552
O O12 0.000000 0.000000 0.000000
O O13 0.000000 0.500000 0.500000
O O14 0.187168 0.475479 0.924269
O O15 0.086174 0.370394 0.774245
#
# Coordination Sequence:
#
# PCOD9005310 Si02
#       7
#     2   2   2   2   2   2   2
#     4  11  21  39  61  93 128 173 209 265 329 385
#     4  11  23  42  65  95 131 175 220 269 322 380
#     4  10  22  38  63  94 128 171 223 274 308 376
#     4  11  26  39  59  96 141 180 215 256 318 396
#     4  10  21  38  61  91 132 175 220 262 316 386
#     4   9  21  40  68  95 120 152 220 281 336 381
#     4  10  21  40  69  96 119 162 219 283 323 385
#
# _framework density 23.833629999999999
#
# number of rings (size 3 to 8) (size 9 to 14) (size 15 to 20)
#    0.000    1.714    1.429    2.143    6.000    6.286 
#    0.000    0.714    0.000    7.714    0.000    0.000 
#    0.000    0.000    0.000    0.000    0.000    0.000 
#
# Total GULP energy -77939.461970 kJ/mol
# GULP energy per Si atom -5567.104426 kJ/mol
# Density = 2.377938 g / cm^3
# Si number density = 23.833630 Si / 1000 Ang^3
#
#
#
# Elastic Constant Matrix: (Units=GPa)
#
#
# Indices 1 2 3 4 5 6 
#
# 1 97.3809 38.9486 28.4473 6.8769 -16.4787 22.2787
# 2 38.9486 88.2775 33.5208 6.9839 -14.5115 25.7995
# 3 28.4473 33.5208 94.5887 15.2775 -20.6813 7.9152
# 4 6.8769 6.9839 15.2775 46.2464 4.6745 -13.5030
# 5 -16.4787 -14.5115 -20.6813 4.6745 30.2303 -4.7770
# 6 22.2787 25.7995 7.9152 -13.5030 -4.7770 35.3182
#
#
#
# Elastic Compliance Matrix: (Units=1/GPa)
#
#
# Indices 1 2 3 4 5 6 
#
# 1 0.014651 -0.002451 -0.000909 -0.004467 0.005582 -0.008200
# 2 -0.002451 0.018413 -0.002831 -0.005677 0.004414 -0.012843
# 3 -0.000909 -0.002831 0.014872 -0.005744 0.008943 -0.001678
# 4 -0.004467 -0.005677 -0.005744 0.031664 -0.011004 0.018869
# 5 0.005582 0.004414 0.008943 -0.011004 0.044974 -0.006874
# 6 -0.008200 -0.012843 -0.001678 0.018869 -0.006874 0.049528
#
#
# Mechanical properties :
#
#
# Convention : Reuss Voigt Hill
#
# Bulk Modulus (GPa) = 28.12782 53.56451 40.84616
# Shear Modulus (GPa) = 25.20954 34.31435 29.76194
#
# Velocity S-wave (km/s) = 3.25580 3.79851 3.53758
# Velocity P-wave (km/s) = 5.09520 6.46231 5.81904
#
# Compressibility (1/GPa) = 0.03555199
#
# Stress axis : x y z
#
# Youngs Moduli (GPa) = 68.25418 54.31089 67.23862
#
# Poissons Ratio (x) = 0.13313 0.06115
# Poissons Ratio (y) = 0.16731 0.19037
# Poissons Ratio (z) = 0.06207 0.15377
#
# Static dielectric constant tensor:
#      x y z
#    x 1.974840 0.030460 -0.043210 
#    y 0.030460 2.118700 0.118820 
#    z -0.043210 0.118820 2.120670 
# 
# From -- ./inp_files/36328.got.cif
#   From: 2010.05.17/outbox.cif.g08.bks.cpg/sg2_19_cif.got.tgz:36328.got - 2010.06.03 11:33:40.
