data_PCOD9005573
_publ_section_title
;
Structure prediction by ZEFSAII (Michael W. Deem and Ramdas Pophale) SiO2 
 PCOD9005573
Probable space group: P -1
;
_chemical_formula_sum "Si O2"
_cell_formula_units_Z 16
_cell_length_a 14.705482
_cell_length_b 12.127389
_cell_length_c 5.231959
_cell_angle_alpha 99.700079
_cell_angle_beta 99.296669
_cell_angle_gamma 129.838946
_cell_volume 659.926624
_symmetry_space_group_name_H-M "P -1"
_symmetry_group_IT_number 2
_symmetry_cell_setting 'triclinic'
loop_
_space_group_symop_operation_xyz
x,y,z
-x,-y,-z
loop_
_atom_site_type_symbol
_atom_site_label
_atom_site_fract_x
_atom_site_fract_y
_atom_site_fract_z
Si Si1 0.198676 0.849065 0.717670
Si Si2 0.414045 0.132822 0.595431
Si Si3 0.067969 0.298854 0.408139
Si Si4 0.307799 0.405988 0.324362
Si Si5 0.115620 0.570862 0.260431
Si Si6 0.741015 0.445102 0.033254
Si Si7 0.550726 0.691333 0.819426
Si Si8 0.388230 0.853129 0.064920
O O1 0.132704 0.682685 0.510990
O O2 0.083560 0.839348 0.717216
O O3 0.285367 0.969910 0.578474
O O4 0.285657 0.869954 0.991040
O O5 0.416901 0.193713 0.346146
O O6 0.523642 0.130746 0.667081
O O7 0.437402 0.245314 0.872354
O O8 0.165706 0.290484 0.330818
O O9 0.091006 0.430069 0.310043
O O10 0.132786 0.390357 0.740422
O O11 0.411149 0.523027 0.634651
O O12 0.350423 0.327174 0.184202
O O13 0.318154 0.513129 0.161796
O O14 0.232915 0.645828 0.156629
O O15 0.000000 0.500000 0.000000
O O16 0.664966 0.309290 0.156954
O O17 0.500000 0.000000 0.000000
#
# Coordination Sequence:
#
# PCOD9005573 Si02
#       8
#     2   2   2   2   2   2   2   2
#     4  11  23  41  62  97 138 183 214 270 331 410
#     4  11  26  45  69  97 139 178 228 271 334 413
#     4  11  22  40  61  97 134 169 224 272 337 393
#     4  10  25  40  74  96 127 166 226 297 334 388
#     4  11  21  34  59  96 127 176 214 267 320 398
#     4  11  20  37  63  95 131 164 225 277 328 395
#     4  11  25  48  71 101 127 177 228 287 345 385
#     4  10  21  38  62  93 133 180 213 262 329 405
#
# _framework density 24.245121000000001
#
# number of rings (size 3 to 8) (size 9 to 14) (size 15 to 20)
#    0.000    1.250    3.750    1.875    3.500    4.000 
#    0.000    5.625    0.000    0.000    0.000    0.000 
#    0.000    0.000    0.000    0.000    0.000    0.000 
#
# Total GULP energy -89334.671838 kJ/mol
# GULP energy per Si atom -5583.416990 kJ/mol
# Density = 2.418994 g / cm^3
# Si number density = 24.245121 Si / 1000 Ang^3
#
#
#
# Elastic Constant Matrix: (Units=GPa)
#
#
# Indices 1 2 3 4 5 6 
#
# 1 195.8304 35.0340 44.0415 8.3584 13.1686 16.0157
# 2 35.0340 55.7967 3.4703 -5.2503 6.9717 10.1284
# 3 44.0415 3.4703 56.4320 -8.6107 -14.1237 -9.9635
# 4 8.3584 -5.2503 -8.6107 28.6286 -0.1389 5.5246
# 5 13.1686 6.9717 -14.1237 -0.1389 37.7602 6.1987
# 6 16.0157 10.1284 -9.9635 5.5246 6.1987 42.4738
#
#
#
# Elastic Compliance Matrix: (Units=1/GPa)
#
#
# Indices 1 2 3 4 5 6 
#
# 1 0.008807 -0.004274 -0.009319 -0.005607 -0.005298 -0.002985
# 2 -0.004274 0.021942 0.002031 0.006618 -0.001147 -0.003838
# 3 -0.009319 0.002031 0.031161 0.011195 0.013435 0.006922
# 4 -0.005607 0.006618 0.011195 0.041770 0.005581 -0.003085
# 5 -0.005298 -0.001147 0.013435 0.005581 0.033623 -0.000210
# 6 -0.002985 -0.003838 0.006922 -0.003085 -0.000210 0.027640
#
#
# Mechanical properties :
#
#
# Convention : Reuss Voigt Hill
#
# Bulk Modulus (GPa) = 25.78184 52.57231 39.17708
# Shear Modulus (GPa) = 24.87628 36.80673 30.84150
#
# Velocity S-wave (km/s) = 3.20665 3.90052 3.57048
# Velocity P-wave (km/s) = 4.93630 6.48198 5.76121
#
# Compressibility (1/GPa) = 0.03878698
#
# Stress axis : x y z
#
# Youngs Moduli (GPa) = 113.55219 45.57489 32.09121
#
# Poissons Ratio (x) = 0.19477 0.29905
# Poissons Ratio (y) = 0.48529 -0.06518
# Poissons Ratio (z) = 1.05817 -0.09257
#
# Static dielectric constant tensor:
#      x y z
#    x 1.678520 -1.145210 0.725340 
#    y -1.145210 -1.698880 1.896570 
#    z 0.725340 1.896570 1.185570 
# 
# From -- ./inp_files/75711.got.cif
#   From: 2010.05.17/outbox.cif.g08.bks.cpg/sg2_38_cif.got.tgz:75711.got - 2010.06.03 11:33:40.
