data_PCOD9005186
_publ_section_title
;
Structure prediction by ZEFSAII (Michael W. Deem and Ramdas Pophale) SiO2 
 PCOD9005186
Probable space group: P -1
;
_chemical_formula_sum "Si O2"
_cell_formula_units_Z 14
_cell_length_a 24.611570
_cell_length_b 5.353738
_cell_length_c 5.372613
_cell_angle_alpha 59.477956
_cell_angle_beta 94.374322
_cell_angle_gamma 112.527171
_cell_volume 557.031790
_symmetry_space_group_name_H-M "P -1"
_symmetry_group_IT_number 2
_symmetry_cell_setting 'triclinic'
loop_
_space_group_symop_operation_xyz
x,y,z
-x,-y,-z
loop_
_atom_site_type_symbol
_atom_site_label
_atom_site_fract_x
_atom_site_fract_y
_atom_site_fract_z
Si Si1 0.239398 0.987202 0.555042
Si Si2 0.570957 0.680130 0.408776
Si Si3 0.173159 0.382276 0.521794
Si Si4 0.951893 0.773137 0.784132
Si Si5 0.728524 0.376815 0.897462
Si Si6 0.069905 0.876549 0.006577
Si Si7 0.386726 0.899111 0.289867
O O1 0.191757 0.672878 0.571657
O O2 0.210137 0.155134 0.653993
O O3 0.269435 0.275622 0.224528
O O4 0.285402 0.875402 0.763790
O O5 0.500000 0.500000 0.500000
O O6 0.596360 0.405709 0.539421
O O7 0.593376 0.895189 0.556780
O O8 0.585363 0.890235 0.054475
O O9 0.203346 0.549425 0.191328
O O10 0.106945 0.135022 0.685953
O O11 0.915204 0.426635 0.846953
O O12 0.915719 0.946146 0.817419
O O13 0.000000 0.000000 0.500000
O O14 0.997595 0.734150 0.029327
O O15 0.683877 0.238318 0.724232
#
# Coordination Sequence:
#
# PCOD9005186 Si02
#       7
#     2   2   2   2   2   2   2
#     4  10  24  41  64  91 135 169 223 269 327 408
#     4  12  26  48  72 109 144 191 241 298 352 419
#     4  10  24  39  63  92 131 168 218 270 335 401
#     4  10  21  38  61  86 121 156 210 256 324 390
#     4  10  26  42  67  97 135 176 224 273 340 408
#     4  10  21  39  59  89 118 159 207 262 322 394
#     4  12  26  43  77 102 146 190 239 295 358 417
#
# _framework density 25.133217999999999
#
# number of rings (size 3 to 8) (size 9 to 14) (size 15 to 20)
#    0.857    0.571    0.000    4.286    6.000    2.286 
#    0.000    0.000    0.000    0.000    0.000    0.000 
#    0.000    0.000    0.000    0.000    0.000    0.000 
#
# Total GULP energy -78165.637436 kJ/mol
# GULP energy per Si atom -5583.259817 kJ/mol
# Density = 2.507601 g / cm^3
# Si number density = 25.133218 Si / 1000 Ang^3
#
#
#
# Elastic Constant Matrix: (Units=GPa)
#
#
# Indices 1 2 3 4 5 6 
#
# 1 88.2500 55.7398 27.7882 -9.5434 -1.5996 2.1462
# 2 55.7398 210.0491 61.3228 -18.1758 3.8239 -29.2500
# 3 27.7882 61.3228 137.3582 -17.9876 2.0831 -22.5622
# 4 -9.5434 -18.1758 -17.9876 43.5803 -6.3554 5.4436
# 5 -1.5996 3.8239 2.0831 -6.3554 43.7381 -8.7847
# 6 2.1462 -29.2500 -22.5622 5.4436 -8.7847 46.6980
#
#
#
# Elastic Compliance Matrix: (Units=1/GPa)
#
#
# Indices 1 2 3 4 5 6 
#
# 1 0.014523 -0.003788 -0.001716 0.001440 0.000356 -0.003970
# 2 -0.003788 0.006801 -0.001557 0.000943 0.000203 0.003610
# 3 -0.001716 -0.001557 0.009188 0.002442 0.000670 0.003384
# 4 0.001440 0.000943 0.002442 0.025233 0.003401 -0.000597
# 5 0.000356 0.000203 0.000670 0.003401 0.024245 0.004599
# 6 -0.003970 0.003610 0.003384 -0.000597 0.004599 0.026428
#
#
# Mechanical properties :
#
#
# Convention : Reuss Voigt Hill
#
# Bulk Modulus (GPa) = 61.00756 80.59544 70.80150
# Shear Modulus (GPa) = 39.68206 46.19038 42.93622
#
# Velocity S-wave (km/s) = 3.97781 4.29163 4.13770
# Velocity P-wave (km/s) = 6.73971 7.52957 7.14556
#
# Compressibility (1/GPa) = 0.01639141
#
# Stress axis : x y z
#
# Youngs Moduli (GPa) = 68.85740 147.03801 108.83889
#
# Poissons Ratio (x) = 0.55691 0.18677
# Poissons Ratio (y) = 0.26080 0.16942
# Poissons Ratio (z) = 0.11816 0.22887
#
# Static dielectric constant tensor:
#      x y z
#    x 2.040000 0.024800 0.087110 
#    y 0.024800 2.078960 0.038880 
#    z 0.087110 0.038880 2.083570 
# 
# From -- ./inp_files/125701.got.cif
#   From: 2010.05.17/outbox.cif.g08.bks.cpg/sg2_63_cif.got.tgz:125701.got - 2010.06.03 11:33:40.
