data_PCOD9005376
_publ_section_title
;
Structure prediction by ZEFSAII (Michael W. Deem and Ramdas Pophale) SiO2 
 PCOD9005376
Probable space group: P -1
;
_chemical_formula_sum "Si O2"
_cell_formula_units_Z 16
_cell_length_a 12.978723
_cell_length_b 22.088049
_cell_length_c 9.382058
_cell_angle_alpha 36.519097
_cell_angle_beta 35.691960
_cell_angle_gamma 34.658948
_cell_volume 814.437806
_symmetry_space_group_name_H-M "P -1"
_symmetry_group_IT_number 2
_symmetry_cell_setting 'triclinic'
loop_
_space_group_symop_operation_xyz
x,y,z
-x,-y,-z
loop_
_atom_site_type_symbol
_atom_site_label
_atom_site_fract_x
_atom_site_fract_y
_atom_site_fract_z
Si Si1 0.014726 0.199178 0.592502
Si Si2 0.715049 0.969365 0.637087
Si Si3 0.046895 0.400414 0.523895
Si Si4 0.640591 0.394694 0.936993
Si Si5 0.562428 0.375128 0.730992
Si Si6 0.164165 0.386534 0.115532
Si Si7 0.901428 0.136056 0.145580
Si Si8 0.739382 0.859519 0.113480
O O1 0.793300 0.278468 0.621239
O O2 0.172466 0.100127 0.499007
O O3 0.106675 0.284687 0.358832
O O4 0.967307 0.150719 0.882856
O O5 0.826362 0.042734 0.415098
O O6 0.476719 0.060824 0.720474
O O7 0.726897 0.883396 0.913593
O O8 0.147082 0.420743 0.235314
O O9 0.181968 0.274261 0.680807
O O10 0.000000 0.500000 0.500000
O O11 0.844835 0.403761 0.685070
O O12 0.560680 0.393605 0.870095
O O13 0.500000 0.500000 0.000000
O O14 0.718026 0.263643 0.154878
O O15 0.500000 0.500000 0.500000
O O16 0.399926 0.343247 0.905869
O O17 0.000000 0.500000 0.000000
O O18 0.094784 0.108319 0.075217
#
# Coordination Sequence:
#
# PCOD9005376 Si02
#       8
#     2   2   2   2   2   2   2   2
#     4  11  24  42  62 100 125 170 224 261 329 392
#     4  11  25  42  68  89 132 174 217 271 319 390
#     4  11  23  40  67  96 130 170 213 267 333 385
#     4  10  21  38  61  98 125 162 214 261 323 392
#     4  11  22  40  63  91 132 166 209 264 324 387
#     4  12  23  42  65  95 138 166 207 277 322 391
#     4  10  22  43  65  90 130 166 221 272 316 389
#     4  10  24  45  61  97 128 167 223 266 323 388
#
# _framework density 19.645454000000001
#
# number of rings (size 3 to 8) (size 9 to 14) (size 15 to 20)
#    0.000    1.250    5.000    1.500    7.000    3.500 
#    0.000    0.000    0.000    0.000    0.000    0.000 
#    0.000    0.000    0.000    0.000    0.000    0.000 
#
# Total GULP energy -89303.590274 kJ/mol
# GULP energy per Si atom -5581.474392 kJ/mol
# Density = 1.960074 g / cm^3
# Si number density = 19.645454 Si / 1000 Ang^3
#
#
#
# Elastic Constant Matrix: (Units=GPa)
#
#
# Indices 1 2 3 4 5 6 
#
# 1 83.1383 51.1435 24.9594 -5.2887 -15.5712 -15.5397
# 2 51.1435 130.3978 40.3346 17.5659 1.2354 4.1868
# 3 24.9594 40.3346 64.8937 -2.7495 -2.1958 -8.9795
# 4 -5.2887 17.5659 -2.7495 22.1259 -0.9690 -2.4025
# 5 -15.5712 1.2354 -2.1958 -0.9690 24.9649 3.7395
# 6 -15.5397 4.1868 -8.9795 -2.4025 3.7395 36.2731
#
#
#
# Elastic Compliance Matrix: (Units=1/GPa)
#
#
# Indices 1 2 3 4 5 6 
#
# 1 0.027620 -0.014844 0.001949 0.020853 0.016895 0.013668
# 2 -0.014844 0.019893 -0.009524 -0.022214 -0.010231 -0.011430
# 3 0.001949 -0.009524 0.022275 0.011784 0.002916 0.007929
# 4 0.020853 -0.022214 0.011784 0.071861 0.015295 0.017597
# 5 0.016895 -0.010231 0.002916 0.015295 0.051221 0.004873
# 6 0.013668 -0.011430 0.007929 0.017597 0.004873 0.037369
#
#
# Mechanical properties :
#
#
# Convention : Reuss Voigt Hill
#
# Bulk Modulus (GPa) = 40.07918 56.81164 48.44541
# Shear Modulus (GPa) = 17.64340 27.47228 22.55784
#
# Velocity S-wave (km/s) = 3.00007 3.74358 3.39226
# Velocity P-wave (km/s) = 5.69615 6.90414 6.32903
#
# Compressibility (1/GPa) = 0.02495061
#
# Stress axis : x y z
#
# Youngs Moduli (GPa) = 36.20607 50.26868 44.89367
#
# Poissons Ratio (x) = 0.74617 -0.08752
# Poissons Ratio (y) = 0.53743 0.42758
# Poissons Ratio (z) = -0.07058 0.47877
#
# Static dielectric constant tensor:
#      x y z
#    x 1.693650 -0.013100 -0.019060 
#    y -0.013100 1.691080 0.040720 
#    z -0.019060 0.040720 1.694260 
# 
# From -- ./inp_files/273513.got.cif
#   From: 2010.05.17/outbox.cif.g08.bks.cpg/sg2_137_cif.got.tgz:273513.got - 2010.06.03 11:33:40.
