data_PCOD9005916
_publ_section_title
;
Structure prediction by ZEFSAII (Michael W. Deem and Ramdas Pophale) SiO2 
 PCOD9005916
Probable space group: P -1
;
_chemical_formula_sum "Si O2"
_cell_formula_units_Z 16
_cell_length_a 7.213175
_cell_length_b 6.218315
_cell_length_c 21.018915
_cell_angle_alpha 101.763764
_cell_angle_beta 120.508572
_cell_angle_gamma 52.903743
_cell_volume 640.649712
_symmetry_space_group_name_H-M "P -1"
_symmetry_group_IT_number 2
_symmetry_cell_setting 'triclinic'
loop_
_space_group_symop_operation_xyz
x,y,z
-x,-y,-z
loop_
_atom_site_type_symbol
_atom_site_label
_atom_site_fract_x
_atom_site_fract_y
_atom_site_fract_z
Si Si1 0.662577 0.281615 0.546041
Si Si2 0.015043 0.356558 0.703436
Si Si3 0.052804 0.730718 0.531049
Si Si4 0.058449 0.805185 0.938809
Si Si5 0.622236 0.568706 0.312647
Si Si6 0.850798 0.871116 0.773237
Si Si7 0.369387 0.803592 0.802275
Si Si8 0.426155 0.272980 0.033541
O O1 0.659642 0.463521 0.495036
O O2 0.819073 0.306680 0.630832
O O3 0.000000 0.000000 0.500000
O O4 0.766079 0.977467 0.537340
O O5 0.130348 0.451605 0.676487
O O6 0.887430 0.591827 0.748138
O O7 0.257520 0.075251 0.759563
O O8 0.276064 0.614384 0.618764
O O9 0.000000 0.500000 0.500000
O O10 0.326794 0.723104 0.944640
O O11 0.844915 0.916750 0.851203
O O12 0.154129 0.523426 0.971034
O O13 0.000000 0.000000 0.000000
O O14 0.512932 0.453295 0.238068
O O15 0.395248 0.889274 0.296125
O O16 0.105679 0.848869 0.789297
O O17 0.562592 0.745459 0.889843
O O18 0.500000 0.000000 0.000000
#
# Coordination Sequence:
#
# PCOD9005916 Si02
#       8
#     2   2   2   2   2   2   2   2
#     4  11  26  41  65  90 121 160 200 250 298 353
#     4  11  23  41  60  90 123 157 204 245 298 360
#     4  11  24  43  62  92 122 155 206 244 296 359
#     4  10  21  40  61  90 122 154 204 248 296 356
#     4  11  23  41  63  87 124 162 195 251 300 349
#     4  10  24  38  62  91 119 160 201 245 300 358
#     4  10  22  41  59  89 124 156 202 245 301 357
#     4  10  21  38  64  87 120 161 195 250 299 352
#
# _framework density 24.974646
#
# number of rings (size 3 to 8) (size 9 to 14) (size 15 to 20)
#    0.000    1.500    2.500    1.500    3.500    5.000 
#    0.000    0.000    0.000    0.000    0.000    0.000 
#    0.000    0.000    0.000    0.000    0.000    0.000 
#
# Total GULP energy -89277.478821 kJ/mol
# GULP energy per Si atom -5579.842426 kJ/mol
# Density = 2.491780 g / cm^3
# Si number density = 24.974646 Si / 1000 Ang^3
#
#
#
# Elastic Constant Matrix: (Units=GPa)
#
#
# Indices 1 2 3 4 5 6 
#
# 1 99.4089 13.1308 26.9619 -10.8407 -7.2024 10.1813
# 2 13.1308 199.1368 54.5823 -3.3555 11.8950 11.2264
# 3 26.9619 54.5823 132.7080 -10.4546 -3.4303 18.0762
# 4 -10.8407 -3.3555 -10.4546 49.0833 2.0856 0.5894
# 5 -7.2024 11.8950 -3.4303 2.0856 32.3122 -11.9426
# 6 10.1813 11.2264 18.0762 0.5894 -11.9426 25.8172
#
#
#
# Elastic Compliance Matrix: (Units=1/GPa)
#
#
# Indices 1 2 3 4 5 6 
#
# 1 0.011112 -0.000178 -0.001631 0.002072 0.001266 -0.002625
# 2 -0.000178 0.005977 -0.002147 0.000090 -0.003442 -0.002619
# 3 -0.001631 -0.002147 0.009611 0.001636 -0.000696 -0.005512
# 4 0.002072 0.000090 0.001636 0.021314 -0.002042 -0.003433
# 5 0.001266 -0.003442 -0.000696 -0.002042 0.039952 0.020012
# 6 -0.002625 -0.002619 -0.005512 -0.003433 0.020012 0.054103
#
#
# Mechanical properties :
#
#
# Convention : Reuss Voigt Hill
#
# Bulk Modulus (GPa) = 53.22679 68.95598 61.09138
# Shear Modulus (GPa) = 32.00144 43.88112 37.94128
#
# Velocity S-wave (km/s) = 3.58349 4.19624 3.90191
# Velocity P-wave (km/s) = 6.20326 7.15180 6.69435
#
# Compressibility (1/GPa) = 0.01878753
#
# Stress axis : x y z
#
# Youngs Moduli (GPa) = 89.99435 167.31620 104.04304
#
# Poissons Ratio (x) = 0.02986 0.16966
# Poissons Ratio (y) = 0.01606 0.22339
# Poissons Ratio (z) = 0.14675 0.35924
#
# Static dielectric constant tensor:
#      x y z
#    x 2.904880 -0.461400 -0.623320 
#    y -0.461400 1.989400 0.156480 
#    z -0.623320 0.156480 2.094930 
# 
# From -- ./inp_files/115851.got.cif
#   From: 2010.05.17/outbox.cif.g08.bks.cpg/sg2_58_cif.got.tgz:115851.got - 2010.06.03 11:33:40.
