data_PCOD9005793
_publ_section_title
;
Structure prediction by ZEFSAII (Michael W. Deem and Ramdas Pophale) SiO2 
 PCOD9005793
Probable space group: P -1
;
_chemical_formula_sum "Si O2"
_cell_formula_units_Z 16
_cell_length_a 15.296616
_cell_length_b 17.664581
_cell_length_c 5.249281
_cell_angle_alpha 119.121633
_cell_angle_beta 61.024324
_cell_angle_gamma 146.453213
_cell_volume 675.555557
_symmetry_space_group_name_H-M "P -1"
_symmetry_group_IT_number 2
_symmetry_cell_setting 'triclinic'
loop_
_space_group_symop_operation_xyz
x,y,z
-x,-y,-z
loop_
_atom_site_type_symbol
_atom_site_label
_atom_site_fract_x
_atom_site_fract_y
_atom_site_fract_z
Si Si1 0.612418 0.191042 0.229759
Si Si2 0.885585 0.374437 0.762205
Si Si3 0.865250 0.939857 0.384983
Si Si4 0.889471 0.788015 0.837349
Si Si5 0.872933 0.664711 0.170541
Si Si6 0.628177 0.907138 0.933048
Si Si7 0.683089 0.373460 0.789433
Si Si8 0.181082 0.807343 0.789231
O O1 0.434213 0.075074 0.185564
O O2 0.648965 0.316448 0.459326
O O3 0.677635 0.166628 0.303213
O O4 0.724249 0.242434 0.922864
O O5 0.834271 0.414931 0.708962
O O6 0.929211 0.316257 0.464593
O O7 0.000000 0.500000 0.000000
O O8 0.732360 0.900485 0.664583
O O9 0.800693 0.815263 0.106021
O O10 0.000000 0.000000 0.500000
O O11 0.949312 0.062121 0.267492
O O12 0.826051 0.686746 0.525818
O O13 0.902680 0.743886 0.008059
O O14 0.737456 0.504330 0.014790
O O15 0.049001 0.739795 0.082565
O O16 0.476673 0.767149 0.069668
O O17 0.733829 0.046482 0.171429
#
# Coordination Sequence:
#
# PCOD9005793 Si02
#       8
#     2   2   2   2   2   2   2   2
#     4  10  23  40  60  98 142 193 229 293 348 423
#     4  10  21  38  63  93 140 189 241 292 341 407
#     4  11  23  49  75 109 139 177 234 311 362 423
#     4  11  25  44  76 107 138 176 243 300 358 416
#     4  12  25  44  74 109 142 191 242 293 349 430
#     4  11  24  44  69 103 139 190 229 300 362 431
#     4  10  25  42  63  97 150 188 234 285 359 422
#     4  11  23  39  67 103 138 189 247 290 340 424
#
# _framework density 23.684208000000002
#
# number of rings (size 3 to 8) (size 9 to 14) (size 15 to 20)
#    0.000    1.250    2.500    1.875    7.000   10.500 
#    0.000    1.250    0.000    0.000    0.000    0.000 
#    0.000    0.000    0.000    0.000    0.000    0.000 
#
# Total GULP energy -89306.130608 kJ/mol
# GULP energy per Si atom -5581.633163 kJ/mol
# Density = 2.363030 g / cm^3
# Si number density = 23.684208 Si / 1000 Ang^3
#
#
#
# Elastic Constant Matrix: (Units=GPa)
#
#
# Indices 1 2 3 4 5 6 
#
# 1 58.1818 29.8636 34.3977 1.1171 2.6684 -8.6972
# 2 29.8636 112.9803 49.2633 19.9562 -17.3415 -9.4889
# 3 34.3977 49.2633 171.0939 27.9999 -16.0915 -11.7050
# 4 1.1171 19.9562 27.9999 51.7030 -2.1650 -6.6559
# 5 2.6684 -17.3415 -16.0915 -2.1650 39.6999 -0.5956
# 6 -8.6972 -9.4889 -11.7050 -6.6559 -0.5956 21.4146
#
#
#
# Elastic Compliance Matrix: (Units=1/GPa)
#
#
# Indices 1 2 3 4 5 6 
#
# 1 0.023404 -0.005542 -0.003889 0.004308 -0.005244 0.006116
# 2 -0.005542 0.012425 -0.001292 -0.003558 0.005106 0.001584
# 3 -0.003889 -0.001292 0.007897 -0.003428 0.002728 0.001175
# 4 0.004308 -0.003558 -0.003428 0.023097 -0.001892 0.005425
# 5 -0.005244 0.005106 0.002728 -0.001892 0.028802 0.001837
# 6 0.006116 0.001584 0.001175 0.005425 0.001837 0.052262
#
#
# Mechanical properties :
#
#
# Convention : Reuss Voigt Hill
#
# Bulk Modulus (GPa) = 44.88803 63.25615 54.07209
# Shear Modulus (GPa) = 28.28688 37.81227 33.04957
#
# Velocity S-wave (km/s) = 3.45966 3.99998 3.73959
# Velocity P-wave (km/s) = 5.91210 6.93536 6.44407
#
# Compressibility (1/GPa) = 0.02227765
#
# Stress axis : x y z
#
# Youngs Moduli (GPa) = 42.72832 80.48365 126.63525
#
# Poissons Ratio (x) = 0.44608 0.49249
# Poissons Ratio (y) = 0.23682 0.16365
# Poissons Ratio (z) = 0.16617 0.10401
#
# Static dielectric constant tensor:
#      x y z
#    x 2.019580 0.000210 0.044990 
#    y 0.000210 1.963960 0.104930 
#    z 0.044990 0.104930 1.973280 
# 
# From -- ./inp_files/112505.got.cif
#   From: 2010.05.17/outbox.cif.g08.bks.cpg/sg2_57_cif.got.tgz:112505.got - 2010.06.03 11:33:40.
