data_PCOD9005139
_publ_section_title
;
Structure prediction by ZEFSAII (Michael W. Deem and Ramdas Pophale) SiO2 
 PCOD9005139
Probable space group: P -1
;
_chemical_formula_sum "Si O2"
_cell_formula_units_Z 14
_cell_length_a 8.719959
_cell_length_b 16.755911
_cell_length_c 12.609143
_cell_angle_alpha 28.142207
_cell_angle_beta 134.498662
_cell_angle_gamma 123.546447
_cell_volume 607.967005
_symmetry_space_group_name_H-M "P -1"
_symmetry_group_IT_number 2
_symmetry_cell_setting 'triclinic'
loop_
_space_group_symop_operation_xyz
x,y,z
-x,-y,-z
loop_
_atom_site_type_symbol
_atom_site_label
_atom_site_fract_x
_atom_site_fract_y
_atom_site_fract_z
Si Si1 0.048573 0.884649 0.964671
Si Si2 0.769660 0.629000 0.743433
Si Si3 0.166371 0.077727 0.415808
Si Si4 0.084225 0.257042 0.530892
Si Si5 0.377413 0.179624 0.073359
Si Si6 0.164133 0.490559 0.489064
Si Si7 0.585970 0.389302 0.071012
O O1 0.939717 0.905246 0.771203
O O2 0.848585 0.886344 0.948468
O O3 0.144799 0.056929 0.832018
O O4 0.192520 0.689198 0.261549
O O5 0.798855 0.749106 0.715025
O O6 0.755428 0.720549 0.515468
O O7 0.594900 0.518776 0.825527
O O8 0.000000 0.500000 0.000000
O O9 0.405718 0.959303 0.674227
O O10 0.000000 0.000000 0.500000
O O11 0.078443 0.409996 0.435146
O O12 0.832197 0.285205 0.333137
O O13 0.420795 0.266644 0.104272
O O14 0.356536 0.330284 0.799912
O O15 0.000000 0.500000 0.500000
O O16 0.500000 0.500000 0.000000
#
# Coordination Sequence:
#
# PCOD9005139 Si02
#       7
#     2   2   2   2   2   2   2
#     4  11  22  42  70  95 134 174 221 270 336 392
#     4  10  21  38  60  94 128 170 215 267 332 392
#     4  12  21  40  66  97 131 167 219 278 331 389
#     4  11  22  42  67  92 130 177 221 268 332 403
#     4  11  24  41  63 102 128 169 223 277 331 390
#     4  10  24  45  64  95 139 176 218 272 341 396
#     4  11  21  38  65  97 130 166 222 279 324 387
#
# _framework density 23.027564999999999
#
# number of rings (size 3 to 8) (size 9 to 14) (size 15 to 20)
#    0.000    1.143    2.857    5.571    2.000    2.286 
#    2.571    3.571    0.000    0.000    0.000    0.000 
#    0.000    0.000    0.000    0.000    0.000    0.000 
#
# Total GULP energy -78189.146677 kJ/mol
# GULP energy per Si atom -5584.939048 kJ/mol
# Density = 2.297515 g / cm^3
# Si number density = 23.027565 Si / 1000 Ang^3
#
#
#
# Elastic Constant Matrix: (Units=GPa)
#
#
# Indices 1 2 3 4 5 6 
#
# 1 81.2966 14.8395 24.7098 -16.9572 -19.4939 -8.9590
# 2 14.8395 70.8970 8.6770 -24.3606 -1.3030 -14.8087
# 3 24.7098 8.6770 126.4760 -22.3704 1.2602 -17.0391
# 4 -16.9572 -24.3606 -22.3704 42.5263 -0.8128 0.7512
# 5 -19.4939 -1.3030 1.2602 -0.8128 30.9051 -11.0504
# 6 -8.9590 -14.8087 -17.0391 0.7512 -11.0504 25.2215
#
#
#
# Elastic Compliance Matrix: (Units=1/GPa)
#
#
# Indices 1 2 3 4 5 6 
#
# 1 0.020392 0.003010 -0.000383 0.009724 0.019311 0.016923
# 2 0.003010 0.023247 0.003433 0.016153 0.010770 0.021275
# 3 -0.000383 0.003433 0.010334 0.007134 0.003275 0.010083
# 4 0.009724 0.016153 0.007134 0.040287 0.016012 0.023573
# 5 0.019311 0.010770 0.003275 0.016012 0.060016 0.041214
# 6 0.016923 0.021275 0.010083 0.023573 0.041214 0.082319
#
#
# Mechanical properties :
#
#
# Convention : Reuss Voigt Hill
#
# Bulk Modulus (GPa) = 15.13065 41.68027 28.40546
# Shear Modulus (GPa) = 20.28352 35.09346 27.68849
#
# Velocity S-wave (km/s) = 2.97111 3.90805 3.47134
# Velocity P-wave (km/s) = 4.28426 6.20510 5.33189
#
# Compressibility (1/GPa) = 0.06609103
#
# Stress axis : x y z
#
# Youngs Moduli (GPa) = 49.04004 43.01660 96.77193
#
# Poissons Ratio (x) = -0.12946 0.03707
# Poissons Ratio (y) = -0.14759 -0.33223
# Poissons Ratio (z) = 0.01878 -0.14768
#
# Static dielectric constant tensor:
#      x y z
#    x 1.762520 -0.248090 -0.067320 
#    y -0.248090 1.007200 -0.069390 
#    z -0.067320 -0.069390 1.941350 
# 
# From -- ./inp_files/181752.got.cif
#   From: 2010.05.17/outbox.cif.g08.bks.cpg/sg2_91_cif.got.tgz:181752.got - 2010.06.03 11:33:40.
