data_PCOD9005129
_publ_section_title
;
Structure prediction by ZEFSAII (Michael W. Deem and Ramdas Pophale) SiO2 
 PCOD9005129
Probable space group: P -1
;
_chemical_formula_sum "Si O2"
_cell_formula_units_Z 16
_cell_length_a 13.813420
_cell_length_b 12.213092
_cell_length_c 14.241184
_cell_angle_alpha 32.319834
_cell_angle_beta 146.873410
_cell_angle_gamma 139.856521
_cell_volume 688.624750
_symmetry_space_group_name_H-M "P -1"
_symmetry_group_IT_number 2
_symmetry_cell_setting 'triclinic'
loop_
_space_group_symop_operation_xyz
x,y,z
-x,-y,-z
loop_
_atom_site_type_symbol
_atom_site_label
_atom_site_fract_x
_atom_site_fract_y
_atom_site_fract_z
Si Si1 0.576230 0.799105 0.742755
Si Si2 0.108109 0.663924 0.693124
Si Si3 0.612324 0.737381 0.415342
Si Si4 0.529408 0.687384 0.996952
Si Si5 0.966900 0.821114 0.025244
Si Si6 0.956760 0.634963 0.782440
Si Si7 0.241931 0.139907 0.759496
Si Si8 0.253469 0.792815 0.131835
O O1 0.466475 0.562044 0.812322
O O2 0.500000 0.000000 0.500000
O O3 0.609738 0.789503 0.889705
O O4 0.764749 0.814727 0.829308
O O5 0.041625 0.422543 0.779488
O O6 0.108071 0.699841 0.780764
O O7 0.949093 0.784497 0.446266
O O8 0.319010 0.711428 0.803548
O O9 0.500000 0.500000 0.500000
O O10 0.814820 0.777747 0.591957
O O11 0.648995 0.801617 0.290280
O O12 0.469351 0.844019 0.278165
O O13 0.636382 0.775669 0.113238
O O14 0.125418 0.878041 0.038192
O O15 0.000000 0.000000 0.000000
O O16 0.821181 0.453636 0.744128
O O17 0.000000 0.500000 0.000000
O O18 0.210853 0.889696 0.927125
#
# Coordination Sequence:
#
# PCOD9005129 Si02
#       8
#     2   2   2   2   2   2   2   2
#     4  10  23  43  64  95 128 167 224 272 317 395
#     4   9  22  40  60  93 130 165 213 262 319 389
#     4   9  20  39  61  89 126 164 211 258 312 391
#     4  10  23  43  64  95 133 169 216 272 328 383
#     4  10  21  40  62  91 122 162 217 266 319 383
#     4   9  19  39  63  90 126 167 207 263 322 377
#     4  11  22  40  65  93 131 169 204 270 328 377
#     4  10  21  38  60  93 122 159 216 259 311 399
#
# _framework density 23.234717
#
# number of rings (size 3 to 8) (size 9 to 14) (size 15 to 20)
#    0.000    2.250    0.000    1.875    7.000    0.000 
#    6.750    3.750    0.000    0.000    0.000    0.000 
#    0.000    0.000    0.000    0.000    0.000    0.000 
#
# Total GULP energy -89095.702072 kJ/mol
# GULP energy per Si atom -5568.481379 kJ/mol
# Density = 2.318183 g / cm^3
# Si number density = 23.234717 Si / 1000 Ang^3
#
#
#
# Elastic Constant Matrix: (Units=GPa)
#
#
# Indices 1 2 3 4 5 6 
#
# 1 125.8766 17.6109 33.0313 10.2748 16.5761 21.6336
# 2 17.6109 82.9865 21.0001 -14.1825 -7.6539 8.9086
# 3 33.0313 21.0001 83.7258 -8.7426 13.3299 8.0387
# 4 10.2748 -14.1825 -8.7426 31.6648 -0.4524 -6.2818
# 5 16.5761 -7.6539 13.3299 -0.4524 42.9354 6.7547
# 6 21.6336 8.9086 8.0387 -6.2818 6.7547 20.9388
#
#
#
# Elastic Compliance Matrix: (Units=1/GPa)
#
#
# Indices 1 2 3 4 5 6 
#
# 1 0.012247 -0.001968 -0.003701 -0.008331 -0.002095 -0.012218
# 2 -0.001968 0.014988 -0.002835 0.006041 0.004848 -0.003007
# 3 -0.003701 -0.002835 0.015030 0.004394 -0.003990 0.001865
# 4 -0.008331 0.006041 0.004394 0.041498 0.000762 0.016554
# 5 -0.002095 0.004848 -0.003990 0.000762 0.027303 -0.006945
# 6 -0.012218 -0.003007 0.001865 0.016554 -0.006945 0.068152
#
#
# Mechanical properties :
#
#
# Convention : Reuss Voigt Hill
#
# Bulk Modulus (GPa) = 39.59466 48.43041 44.01253
# Shear Modulus (GPa) = 24.43261 33.83759 29.13510
#
# Velocity S-wave (km/s) = 3.24629 3.82034 3.54495
# Velocity P-wave (km/s) = 5.57937 6.35210 5.97823
#
# Compressibility (1/GPa) = 0.02525593
#
# Stress axis : x y z
#
# Youngs Moduli (GPa) = 81.65507 66.72169 66.53352
#
# Poissons Ratio (x) = 0.13129 0.24625
# Poissons Ratio (y) = 0.16067 0.18864
# Poissons Ratio (z) = 0.30222 0.18918
#
# Static dielectric constant tensor:
#      x y z
#    x 1.970290 -0.106670 0.091890 
#    y -0.106670 2.112430 -0.024440 
#    z 0.091890 -0.024440 1.952100 
# 
# From -- ./inp_files/534173.got.cif
#   From: 2010.05.17/outbox.cif.g08.bks.cpg/sg2_268_cif.got.tgz:534173.got - 2010.06.03 11:33:40.
