data_PCOD9005094
_publ_section_title
;
Structure prediction by ZEFSAII (Michael W. Deem and Ramdas Pophale) SiO2 
 PCOD9005094
Probable space group: P -1
;
_chemical_formula_sum "Si O2"
_cell_formula_units_Z 12
_cell_length_a 8.738294
_cell_length_b 8.894054
_cell_length_c 7.943203
_cell_angle_alpha 124.003071
_cell_angle_beta 86.545824
_cell_angle_gamma 71.438492
_cell_volume 462.320072
_symmetry_space_group_name_H-M "P -1"
_symmetry_group_IT_number 2
_symmetry_cell_setting 'triclinic'
loop_
_space_group_symop_operation_xyz
x,y,z
-x,-y,-z
loop_
_atom_site_type_symbol
_atom_site_label
_atom_site_fract_x
_atom_site_fract_y
_atom_site_fract_z
Si Si1 0.815048 0.541011 0.773248
Si Si2 0.552023 0.299847 0.256233
Si Si3 0.328679 0.537209 0.930960
Si Si4 0.839394 0.903819 0.118698
Si Si5 0.686459 0.843337 0.431432
Si Si6 0.963020 0.899284 0.609669
O O1 0.626948 0.666396 0.791739
O O2 0.918954 0.338330 0.539775
O O3 0.796486 0.454896 0.905380
O O4 0.892082 0.703389 0.880312
O O5 0.500000 0.500000 0.500000
O O6 0.676424 0.297948 0.095990
O O7 0.658408 0.089122 0.206425
O O8 0.327992 0.364730 0.698507
O O9 0.500000 0.500000 0.000000
O O10 0.803752 0.831457 0.257320
O O11 0.975784 0.992965 0.185824
O O12 0.774393 0.911445 0.617267
O O13 0.500000 0.000000 0.500000
O O14 0.000000 0.000000 0.500000
#
# Coordination Sequence:
#
# PCOD9005094 Si02
#       6
#     2   2   2   2   2   2
#     4  10  21  40  63  94 126 164 212 256 302 377
#     4  11  19  36  67  95 131 166 207 252 312 376
#     4   9  21  35  60  94 122 159 207 255 306 360
#     4  10  21  38  65  93 124 166 209 250 317 362
#     4  10  21  38  60  91 120 159 213 255 309 373
#     4  10  22  38  64  93 123 165 211 260 312 363
#
# _framework density 25.956045
#
# number of rings (size 3 to 8) (size 9 to 14) (size 15 to 20)
#    0.000    2.000    1.667    1.500    7.000    6.000 
#    0.000    0.833    0.000    7.000    0.000    0.000 
#    0.000    0.000    0.000    0.000    0.000    0.000 
#
# Total GULP energy -67083.057931 kJ/mol
# GULP energy per Si atom -5590.254828 kJ/mol
# Density = 2.589697 g / cm^3
# Si number density = 25.956045 Si / 1000 Ang^3
#
#
#
# Elastic Constant Matrix: (Units=GPa)
#
#
# Indices 1 2 3 4 5 6 
#
# 1 168.1594 43.1457 76.6201 29.9323 37.2638 -20.9052
# 2 43.1457 88.2769 49.2255 14.2218 11.2327 2.5853
# 3 76.6201 49.2255 135.8505 34.4781 33.9418 14.3730
# 4 29.9323 14.2218 34.4781 47.1192 11.2021 -4.8672
# 5 37.2638 11.2327 33.9418 11.2021 45.6848 10.1106
# 6 -20.9052 2.5853 14.3730 -4.8672 10.1106 34.0618
#
#
#
# Elastic Compliance Matrix: (Units=1/GPa)
#
#
# Indices 1 2 3 4 5 6 
#
# 1 0.012412 -0.002370 -0.005408 0.000062 -0.008318 0.012558
# 2 -0.002370 0.014701 -0.004188 -0.000455 0.001856 -0.001419
# 3 -0.005408 -0.004188 0.015243 -0.006998 -0.001990 -0.009843
# 4 0.000062 -0.000455 -0.006998 0.028083 -0.003407 0.008050
# 5 -0.008318 0.001856 -0.001990 -0.003407 0.033838 -0.014937
# 6 0.012558 -0.001419 -0.009843 0.008050 -0.014937 0.046911
#
#
# Mechanical properties :
#
#
# Convention : Reuss Voigt Hill
#
# Bulk Modulus (GPa) = 54.27833 81.14104 67.70969
# Shear Modulus (GPa) = 27.58456 40.25953 33.92204
#
# Velocity S-wave (km/s) = 3.26351 3.94263 3.61903
# Velocity P-wave (km/s) = 5.92939 7.21489 6.60349
#
# Compressibility (1/GPa) = 0.01842356
#
# Stress axis : x y z
#
# Youngs Moduli (GPa) = 80.56496 68.02479 65.60300
#
# Poissons Ratio (x) = 0.16125 0.35477
# Poissons Ratio (y) = 0.19097 0.27475
# Poissons Ratio (z) = 0.43568 0.28489
#
# Static dielectric constant tensor:
#      x y z
#    x 1.945280 -0.066080 -0.014120 
#    y -0.066080 1.976080 -0.064480 
#    z -0.014120 -0.064480 2.106310 
# 
# From -- ./inp_files/151827.got.cif
#   From: 2010.05.17/outbox.cif.g08.bks.cpg/sg2_76_cif.got.tgz:151827.got - 2010.06.03 11:33:40.
