data_PCOD9005788
_publ_section_title
;
Structure prediction by ZEFSAII (Michael W. Deem and Ramdas Pophale) SiO2 
 PCOD9005788
Probable space group: P -1
;
_chemical_formula_sum "Si O2"
_cell_formula_units_Z 16
_cell_length_a 17.150999
_cell_length_b 9.751132
_cell_length_c 7.083354
_cell_angle_alpha 128.727547
_cell_angle_beta 49.925611
_cell_angle_gamma 132.239541
_cell_volume 631.031805
_symmetry_space_group_name_H-M "P -1"
_symmetry_group_IT_number 2
_symmetry_cell_setting 'triclinic'
loop_
_space_group_symop_operation_xyz
x,y,z
-x,-y,-z
loop_
_atom_site_type_symbol
_atom_site_label
_atom_site_fract_x
_atom_site_fract_y
_atom_site_fract_z
Si Si1 0.031975 0.899304 0.080321
Si Si2 0.118226 0.518113 0.125853
Si Si3 0.979922 0.753698 0.468536
Si Si4 0.266199 0.970694 0.868055
Si Si5 0.237506 0.561683 0.574218
Si Si6 0.500799 0.283648 0.270210
Si Si7 0.511226 0.302846 0.823239
Si Si8 0.680427 0.115845 0.869575
O O1 0.016959 0.818304 0.250369
O O2 0.978602 0.051066 0.304549
O O3 0.956218 0.710152 0.908646
O O4 0.169559 0.012941 0.955659
O O5 0.219206 0.698565 0.231002
O O6 0.027044 0.600094 0.308133
O O7 0.186073 0.518941 0.828508
O O8 0.842555 0.633477 0.581276
O O9 0.398102 0.124363 0.761255
O O10 0.225421 0.747904 0.678446
O O11 0.269210 0.942997 0.070897
O O12 0.370997 0.636959 0.413693
O O13 0.500000 0.500000 0.500000
O O14 0.380156 0.090074 0.325174
O O15 0.519427 0.271908 0.005981
O O16 0.590881 0.204613 0.137352
O O17 0.500000 0.500000 0.000000
#
# Coordination Sequence:
#
# PCOD9005788 Si02
#       8
#     2   2   2   2   2   2   2   2
#     4  10  17  28  50  87 120 147 189 240 289 328
#     4  10  18  33  56  86 119 150 189 241 291 336
#     4  10  17  28  50  79 122 151 184 236 283 340
#     4  10  18  35  56  86 122 155 189 237 301 340
#     4  10  18  33  50  80 123 147 179 236 292 337
#     4  10  23  42  60  80 116 158 197 238 286 347
#     4  11  24  36  56  90 119 149 195 242 295 349
#     4   9  20  37  60  81 113 150 203 234 278 344
#
# _framework density 25.355297
#
# number of rings (size 3 to 8) (size 9 to 14) (size 15 to 20)
#    0.000    2.000    3.750    1.875    3.500    1.000 
#    2.250    0.000    0.000    0.750    0.000    2.625 
#    0.000    0.125    0.000    0.000    0.000    0.000 
#
# Total GULP energy -89185.380902 kJ/mol
# GULP energy per Si atom -5574.086306 kJ/mol
# Density = 2.529759 g / cm^3
# Si number density = 25.355297 Si / 1000 Ang^3
#
#
#
# Elastic Constant Matrix: (Units=GPa)
#
#
# Indices 1 2 3 4 5 6 
#
# 1 60.9197 44.4351 31.4665 -7.1807 12.1377 13.2833
# 2 44.4351 124.8322 48.8880 12.5767 -2.7486 41.6527
# 3 31.4665 48.8880 86.0774 6.6818 3.0584 0.8738
# 4 -7.1807 12.5767 6.6818 47.9848 2.3980 -8.4540
# 5 12.1377 -2.7486 3.0584 2.3980 25.4512 -9.0997
# 6 13.2833 41.6527 0.8738 -8.4540 -9.0997 44.7727
#
#
#
# Elastic Compliance Matrix: (Units=1/GPa)
#
#
# Indices 1 2 3 4 5 6 
#
# 1 0.031042 -0.008876 -0.006322 0.008216 -0.016734 -0.002678
# 2 -0.008876 0.021549 -0.008152 -0.009212 0.001743 -0.018640
# 3 -0.006322 -0.008152 0.018321 0.000201 0.003431 0.009837
# 4 0.008216 -0.009212 0.000201 0.026469 -0.003724 0.010370
# 5 -0.016734 0.001743 0.003431 -0.003724 0.052104 0.013163
# 6 -0.002678 -0.018640 0.009837 0.010370 0.013163 0.044912
#
#
# Mechanical properties :
#
#
# Convention : Reuss Voigt Hill
#
# Bulk Modulus (GPa) = 41.30320 57.93429 49.61874
# Shear Modulus (GPa) = 20.06688 33.44439 26.75563
#
# Velocity S-wave (km/s) = 2.81628 3.63578 3.25195
# Velocity P-wave (km/s) = 5.18656 6.36583 5.80621
#
# Compressibility (1/GPa) = 0.02421120
#
# Stress axis : x y z
#
# Youngs Moduli (GPa) = 32.21486 46.40654 54.58216
#
# Poissons Ratio (x) = 0.41191 0.34509
# Poissons Ratio (y) = 0.28594 0.44493
# Poissons Ratio (z) = 0.20368 0.37828
#
# Static dielectric constant tensor:
#      x y z
#    x 1.875050 0.004680 0.078030 
#    y 0.004680 2.028360 -0.014860 
#    z 0.078030 -0.014860 1.924280 
# 
# From -- ./inp_files/345667.got.cif
#   From: 2010.05.17/outbox.cif.g08.bks.cpg/sg2_173_cif.got.tgz:345667.got - 2010.06.03 11:33:40.
