data_PCOD9005445
_publ_section_title
;
Structure prediction by ZEFSAII (Michael W. Deem and Ramdas Pophale) SiO2 
 PCOD9005445
Probable space group: P -1
;
_chemical_formula_sum "Si O2"
_cell_formula_units_Z 15
_cell_length_a 7.163197
_cell_length_b 14.995344
_cell_length_c 7.171274
_cell_angle_alpha 128.804092
_cell_angle_beta 88.462708
_cell_angle_gamma 94.793188
_cell_volume 597.866389
_symmetry_space_group_name_H-M "P -1"
_symmetry_group_IT_number 2
_symmetry_cell_setting 'triclinic'
loop_
_space_group_symop_operation_xyz
x,y,z
-x,-y,-z
loop_
_atom_site_type_symbol
_atom_site_label
_atom_site_fract_x
_atom_site_fract_y
_atom_site_fract_z
Si Si1 0.856976 0.489464 0.733015
Si Si2 0.871373 0.234051 0.522871
Si Si3 0.329989 0.855490 0.951131
Si Si4 0.746992 0.403375 0.236031
Si Si5 0.470730 0.707940 0.191896
Si Si6 0.362417 0.076099 0.720230
Si Si7 0.500000 0.500000 0.000000
Si Si8 0.969202 0.980974 0.755059
O O1 0.918041 0.361485 0.609969
O O2 0.754878 0.481458 0.522315
O O3 0.045819 0.572790 0.821038
O O4 0.719416 0.525753 0.941073
O O5 0.739009 0.162905 0.280994
O O6 0.727117 0.241027 0.704977
O O7 0.040311 0.156107 0.453286
O O8 0.298277 0.727554 0.868954
O O9 0.541606 0.902421 0.050465
O O10 0.203163 0.943693 0.173665
O O11 0.589786 0.411217 0.086141
O O12 0.614601 0.799813 0.217826
O O13 0.515693 0.636405 0.276008
O O14 0.500000 0.000000 0.500000
O O15 0.150353 0.029428 0.696577
O O16 0.000000 0.000000 0.000000
#
# Coordination Sequence:
#
# PCOD9005445 Si02
#       8
#     2   2   2   2   2   2   1   2
#     4   9  19  37  60  82 114 155 188 239 293 344
#     4   9  18  37  57  82 121 152 190 243 289 352
#     4   9  21  38  63  86 118 158 198 239 298 352
#     4   9  19  38  62  80 113 155 192 237 293 346
#     4  10  21  39  59  84 119 149 195 242 293 346
#     4  11  22  40  62  86 121 158 193 249 297 341
#     4  10  22  34  58  86 120 142 194 240 284 352
#     4  10  21  38  62  89 119 154 201 242 285 361
#
# _framework density 25.089217000000001
#
# number of rings (size 3 to 8) (size 9 to 14) (size 15 to 20)
#    0.000    2.400    1.333    0.000    1.867    5.333 
#    0.000    1.333   20.533    0.000    0.000    0.000 
#    0.000    0.000    0.000    0.000    0.000    0.000 
#
# Total GULP energy -83632.111730 kJ/mol
# GULP energy per Si atom -5575.474115 kJ/mol
# Density = 2.503211 g / cm^3
# Si number density = 25.089217 Si / 1000 Ang^3
#
#
#
# Elastic Constant Matrix: (Units=GPa)
#
#
# Indices 1 2 3 4 5 6 
#
# 1 83.1854 12.0549 39.2923 6.1758 12.4676 2.1590
# 2 12.0549 82.0928 9.1610 7.7951 6.1652 4.4284
# 3 39.2923 9.1610 77.0201 -4.6674 1.2919 -3.5832
# 4 6.1758 7.7951 -4.6674 41.1309 -6.2353 -7.8052
# 5 12.4676 6.1652 1.2919 -6.2353 45.1226 -2.4640
# 6 2.1590 4.4284 -3.5832 -7.8052 -2.4640 37.0340
#
#
#
# Elastic Compliance Matrix: (Units=1/GPa)
#
#
# Indices 1 2 3 4 5 6 
#
# 1 0.017823 -0.000491 -0.009407 -0.005113 -0.005477 -0.003333
# 2 -0.000491 0.013058 -0.001590 -0.003401 -0.002212 -0.002551
# 3 -0.009407 -0.001590 0.018398 0.005003 0.003188 0.003785
# 4 -0.005113 -0.003401 0.005003 0.028669 0.006113 0.007638
# 5 -0.005477 -0.002212 0.003188 0.006113 0.024941 0.003840
# 6 -0.003333 -0.002551 0.003785 0.007638 0.003840 0.029733
#
#
# Mechanical properties :
#
#
# Convention : Reuss Voigt Hill
#
# Bulk Modulus (GPa) = 38.02062 40.36830 39.19446
# Shear Modulus (GPa) = 30.42035 36.77684 33.59860
#
# Velocity S-wave (km/s) = 3.48586 3.83279 3.66343
# Velocity P-wave (km/s) = 5.60256 5.97594 5.79226
#
# Compressibility (1/GPa) = 0.02630152
#
# Stress axis : x y z
#
# Youngs Moduli (GPa) = 56.10795 76.58424 54.35468
#
# Poissons Ratio (x) = 0.03759 0.51132
# Poissons Ratio (y) = 0.02754 0.08644
# Poissons Ratio (z) = 0.52781 0.12180
#
# Static dielectric constant tensor:
#      x y z
#    x 2.092370 -0.185260 0.077040 
#    y -0.185260 2.235190 -0.047830 
#    z 0.077040 -0.047830 2.064030 
# 
# From -- ./inp_files/139524.got.cif
#   From: 2010.05.17/outbox.cif.g08.bks.cpg/sg2_70_cif.got.tgz:139524.got - 2010.06.03 11:33:40.
