data_PCOD9005655
_publ_section_title
;
Structure prediction by ZEFSAII (Michael W. Deem and Ramdas Pophale) SiO2 
 PCOD9005655
Probable space group: P -1
;
_chemical_formula_sum "Si O2"
_cell_formula_units_Z 14
_cell_length_a 18.905054
_cell_length_b 8.714290
_cell_length_c 12.086562
_cell_angle_alpha 137.060134
_cell_angle_beta 33.665312
_cell_angle_gamma 124.916575
_cell_volume 748.340036
_symmetry_space_group_name_H-M "P -1"
_symmetry_group_IT_number 2
_symmetry_cell_setting 'triclinic'
loop_
_space_group_symop_operation_xyz
x,y,z
-x,-y,-z
loop_
_atom_site_type_symbol
_atom_site_label
_atom_site_fract_x
_atom_site_fract_y
_atom_site_fract_z
Si Si1 0.307767 0.758695 0.368006
Si Si2 0.834220 0.071196 0.968896
Si Si3 0.523714 0.748843 0.897494
Si Si4 0.971392 0.422772 0.870861
Si Si5 0.416810 0.782065 0.482081
Si Si6 0.062526 0.082344 0.852028
Si Si7 0.213013 0.309514 0.341279
O O1 0.383738 0.786753 0.397556
O O2 0.228969 0.548293 0.389009
O O3 0.201291 0.960054 0.584494
O O4 0.408173 0.731269 0.124326
O O5 0.865796 0.251704 0.930361
O O6 0.961421 0.044441 0.865931
O O7 0.807922 0.854402 0.819201
O O8 0.714105 0.158796 0.247171
O O9 0.536338 0.486295 0.690638
O O10 0.656732 0.756961 0.795430
O O11 0.500000 0.000000 0.000000
O O12 0.096501 0.326015 0.589531
O O13 0.921311 0.657798 0.007193
O O14 0.000000 0.500000 0.000000
O O15 0.500000 0.000000 0.500000
O O16 0.000000 0.000000 0.000000
#
# Coordination Sequence:
#
# PCOD9005655 Si02
#       7
#     2   2   2   2   2   2   2
#     4  11  22  40  65  86 128 162 206 255 309 383
#     4  11  23  38  65  89 125 161 203 262 309 371
#     4  11  25  41  64  92 123 164 212 266 307 366
#     4  10  21  38  63  87 125 164 199 254 313 369
#     4  11  22  44  66  88 123 170 211 250 318 374
#     4  11  20  40  61  95 117 160 210 248 312 372
#     4  11  22  43  60  91 126 167 206 249 320 369
#
# _framework density 18.708072000000001
#
# number of rings (size 3 to 8) (size 9 to 14) (size 15 to 20)
#    0.000    1.143    2.857    6.429    6.000    0.571 
#    2.571    1.429    0.000    0.000    0.000    0.000 
#    0.000    0.000    0.000    0.000    0.000    0.000 
#
# Total GULP energy -77955.610658 kJ/mol
# GULP energy per Si atom -5568.257904 kJ/mol
# Density = 1.866549 g / cm^3
# Si number density = 18.708072 Si / 1000 Ang^3
#
#
#
# Elastic Constant Matrix: (Units=GPa)
#
#
# Indices 1 2 3 4 5 6 
#
# 1 30.2833 11.6780 7.2618 15.6384 1.0304 -2.6221
# 2 11.6780 72.8217 -10.1155 7.1004 -1.3479 -3.3026
# 3 7.2618 -10.1155 104.3243 -2.5335 -1.0882 -14.2148
# 4 15.6384 7.1004 -2.5335 36.9475 -4.7138 8.8177
# 5 1.0304 -1.3479 -1.0882 -4.7138 33.8715 2.9717
# 6 -2.6221 -3.3026 -14.2148 8.8177 2.9717 30.5011
#
#
#
# Elastic Compliance Matrix: (Units=1/GPa)
#
#
# Indices 1 2 3 4 5 6 
#
# 1 0.048727 -0.005758 -0.003316 -0.022661 -0.005773 0.009134
# 2 -0.005758 0.015154 0.002175 -0.000818 0.000529 0.002345
# 3 -0.003316 0.002175 0.010689 0.000614 0.000201 0.004735
# 4 -0.022661 -0.000818 0.000614 0.041282 0.007688 -0.014434
# 5 -0.005773 0.000529 0.000201 0.007688 0.031289 -0.005617
# 6 0.009134 0.002345 0.004735 -0.014434 -0.005617 0.040751
#
#
# Mechanical properties :
#
#
# Convention : Reuss Voigt Hill
#
# Bulk Modulus (GPa) = 16.45477 25.00865 20.73171
# Shear Modulus (GPa) = 22.52790 33.50435 28.01612
#
# Velocity S-wave (km/s) = 3.47390 4.23650 3.87401
# Velocity P-wave (km/s) = 4.99051 6.10962 5.57820
#
# Compressibility (1/GPa) = 0.06077263
#
# Stress axis : x y z
#
# Youngs Moduli (GPa) = 20.52260 65.99118 93.55054
#
# Poissons Ratio (x) = 0.37996 0.31022
# Poissons Ratio (y) = 0.11816 -0.20349
# Poissons Ratio (z) = 0.06805 -0.14354
#
# Static dielectric constant tensor:
#      x y z
#    x 1.656810 0.016550 -0.008160 
#    y 0.016550 1.694710 0.030380 
#    z -0.008160 0.030380 1.668550 
# 
# From -- ./inp_files/172744.got.cif
#   From: 2010.05.17/outbox.cif.g08.bks.cpg/sg2_87_cif.got.tgz:172744.got - 2010.06.03 11:33:40.
