data_PCOD9005768
_publ_section_title
;
Structure prediction by ZEFSAII (Michael W. Deem and Ramdas Pophale) SiO2 
 PCOD9005768
Probable space group: P -1
;
_chemical_formula_sum "Si O2"
_cell_formula_units_Z 16
_cell_length_a 11.163709
_cell_length_b 26.646043
_cell_length_c 24.467123
_cell_angle_alpha 10.276932
_cell_angle_beta 34.179783
_cell_angle_gamma 33.872989
_cell_volume 719.798989
_symmetry_space_group_name_H-M "P -1"
_symmetry_group_IT_number 2
_symmetry_cell_setting 'triclinic'
loop_
_space_group_symop_operation_xyz
x,y,z
-x,-y,-z
loop_
_atom_site_type_symbol
_atom_site_label
_atom_site_fract_x
_atom_site_fract_y
_atom_site_fract_z
Si Si1 0.069579 0.026551 0.508311
Si Si2 0.142170 0.507161 0.828014
Si Si3 0.095047 0.885467 0.940407
Si Si4 0.052194 0.144024 0.566012
Si Si5 0.449503 0.397374 0.375996
Si Si6 0.332578 0.610211 0.992350
Si Si7 0.873954 0.821457 0.198708
Si Si8 0.505048 0.785924 0.557281
O O1 0.328997 0.972102 0.462594
O O2 0.000000 0.000000 0.500000
O O3 0.989218 0.309694 0.269694
O O4 0.975651 0.758937 0.856800
O O5 0.386725 0.429602 0.840693
O O6 0.132141 0.717449 0.554421
O O7 0.011563 0.947124 0.844099
O O8 0.272647 0.090801 0.662177
O O9 0.244194 0.586508 0.221061
O O10 0.904819 0.926994 0.012558
O O11 0.149575 0.411220 0.267017
O O12 0.229889 0.939462 0.681711
O O13 0.359867 0.192903 0.672432
O O14 0.574737 0.238329 0.448132
O O15 0.448344 0.518504 0.104314
O O16 0.500000 0.500000 0.000000
O O17 0.000000 0.500000 0.500000
O O18 0.000000 0.000000 0.000000
#
# Coordination Sequence:
#
# PCOD9005768 Si02
#       8
#     2   2   2   2   2   2   2   2
#     4  12  25  40  58  88 127 164 201 244 294 354
#     4  12  26  41  59  89 127 162 201 242 296 359
#     4  10  22  40  63  91 121 152 204 254 305 356
#     4  11  23  39  58  85 121 161 192 246 302 354
#     4  11  22  39  63  88 119 155 202 249 302 355
#     4  11  22  38  57  82 118 159 206 243 290 350
#     4  10  21  38  63  93 117 148 197 258 307 349
#     4  11  21  35  62  87 115 158 205 246 294 350
#
# _framework density 22.228427
#
# number of rings (size 3 to 8) (size 9 to 14) (size 15 to 20)
#    0.000    1.000    3.750    3.750    1.750    1.000 
#    0.000    0.625    0.000    0.000    0.000    7.875 
#    0.000    0.000    0.000    0.000    0.000    0.000 
#
# Total GULP energy -89356.106226 kJ/mol
# GULP energy per Si atom -5584.756639 kJ/mol
# Density = 2.217783 g / cm^3
# Si number density = 22.228427 Si / 1000 Ang^3
#
#
#
# Elastic Constant Matrix: (Units=GPa)
#
#
# Indices 1 2 3 4 5 6 
#
# 1 81.3999 25.4985 22.4700 8.7715 16.2639 16.6559
# 2 25.4985 58.2287 18.7486 18.4764 6.0514 15.7915
# 3 22.4700 18.7486 76.1089 4.8414 -2.6257 5.1091
# 4 8.7715 18.4764 4.8414 38.6521 11.9628 5.1513
# 5 16.2639 6.0514 -2.6257 11.9628 46.6090 4.2376
# 6 16.6559 15.7915 5.1091 5.1513 4.2376 23.6688
#
#
#
# Elastic Compliance Matrix: (Units=1/GPa)
#
#
# Indices 1 2 3 4 5 6 
#
# 1 0.017113 -0.003949 -0.003804 0.001159 -0.005252 -0.007899
# 2 -0.003949 0.026490 -0.003854 -0.010108 0.001417 -0.012117
# 3 -0.003804 -0.003854 0.015211 -0.000210 0.002598 0.001546
# 4 0.001159 -0.010108 -0.000210 0.032773 -0.007533 0.000189
# 5 -0.005252 0.001417 0.002598 -0.007533 0.025246 -0.000691
# 6 -0.007899 -0.012117 0.001546 0.000189 -0.000691 0.055641
#
#
# Mechanical properties :
#
#
# Convention : Reuss Voigt Hill
#
# Bulk Modulus (GPa) = 28.09085 38.79689 33.44387
# Shear Modulus (GPa) = 24.09004 31.72069 27.90537
#
# Velocity S-wave (km/s) = 3.29561 3.78171 3.54699
# Velocity P-wave (km/s) = 5.21020 6.04649 5.64385
#
# Compressibility (1/GPa) = 0.03559878
#
# Stress axis : x y z
#
# Youngs Moduli (GPa) = 58.43567 37.75039 65.74223
#
# Poissons Ratio (x) = 0.14906 0.25010
# Poissons Ratio (y) = 0.23074 0.25340
# Poissons Ratio (z) = 0.22231 0.14551
#
# Static dielectric constant tensor:
#      x y z
#    x 1.855020 0.013040 0.052820 
#    y 0.013040 1.880280 -0.010490 
#    z 0.052820 -0.010490 1.866730 
# 
# From -- ./inp_files/77838.got.cif
#   From: 2010.05.17/outbox.cif.g08.bks.cpg/sg2_39_cif.got.tgz:77838.got - 2010.06.03 11:33:40.
