data_PCOD9005547
_publ_section_title
;
Structure prediction by ZEFSAII (Michael W. Deem and Ramdas Pophale) SiO2 
 PCOD9005547
Probable space group: P -1
;
_chemical_formula_sum "Si O2"
_cell_formula_units_Z 16
_cell_length_a 12.202230
_cell_length_b 8.076210
_cell_length_c 13.817391
_cell_angle_alpha 151.392412
_cell_angle_beta 114.730880
_cell_angle_gamma 66.958686
_cell_volume 591.271553
_symmetry_space_group_name_H-M "P -1"
_symmetry_group_IT_number 2
_symmetry_cell_setting 'triclinic'
loop_
_space_group_symop_operation_xyz
x,y,z
-x,-y,-z
loop_
_atom_site_type_symbol
_atom_site_label
_atom_site_fract_x
_atom_site_fract_y
_atom_site_fract_z
Si Si1 0.390101 0.167524 0.666949
Si Si2 0.557956 0.565041 0.796704
Si Si3 0.496350 0.115226 0.259273
Si Si4 0.048823 0.665603 0.404760
Si Si5 0.776693 0.902685 0.826498
Si Si6 0.187050 0.160690 0.902643
Si Si7 0.057824 0.634078 0.966003
Si Si8 0.166060 0.569370 0.709830
O O1 0.473988 0.455921 0.799152
O O2 0.257000 0.275932 0.636118
O O3 0.424921 0.798284 0.441883
O O4 0.408262 0.122589 0.765834
O O5 0.501939 0.828786 0.827825
O O6 0.691321 0.668251 0.931998
O O7 0.500000 0.500000 0.500000
O O8 0.364325 0.012715 0.191189
O O9 0.989913 0.384593 0.168891
O O10 0.963652 0.599533 0.430670
O O11 0.185671 0.508439 0.370325
O O12 0.000000 0.000000 0.500000
O O13 0.850877 0.059691 0.845804
O O14 0.807491 0.105684 0.041179
O O15 0.064837 0.300534 0.985860
O O16 0.139939 0.288864 0.846242
O O17 0.199852 0.750641 0.714831
#
# Coordination Sequence:
#
# PCOD9005547 Si02
#       8
#     2   2   2   2   2   2   2   2
#     4  10  24  40  60  95 125 167 212 261 314 373
#     4  10  21  43  62  85 127 170 209 262 316 363
#     4  10  21  38  66  90 120 168 212 253 312 374
#     4  11  23  39  66  93 123 164 205 258 318 373
#     4  11  20  43  62  88 127 162 203 259 312 374
#     4  11  20  39  64  87 123 166 204 257 309 380
#     4  10  21  38  62  93 120 161 210 248 320 375
#     4  11  22  39  63  91 126 159 208 257 309 378
#
# _framework density 27.060324999999999
#
# number of rings (size 3 to 8) (size 9 to 14) (size 15 to 20)
#    0.000    1.500    3.750    1.500    5.250    1.000 
#    4.500    3.125    0.000    0.000    0.000    0.000 
#    0.000    0.000    0.000    0.000    0.000    0.000 
#
# Total GULP energy -89368.201468 kJ/mol
# GULP energy per Si atom -5585.512592 kJ/mol
# Density = 2.699873 g / cm^3
# Si number density = 27.060325 Si / 1000 Ang^3
#
#
#
# Elastic Constant Matrix: (Units=GPa)
#
#
# Indices 1 2 3 4 5 6 
#
# 1 117.6832 31.2658 9.7948 -5.9057 14.3217 -15.6084
# 2 31.2658 175.1003 10.2949 12.7642 -8.4482 -3.5428
# 3 9.7948 10.2949 36.9467 4.1838 5.5671 2.0006
# 4 -5.9057 12.7642 4.1838 52.4647 -7.3457 -10.6617
# 5 14.3217 -8.4482 5.5671 -7.3457 34.3739 2.4599
# 6 -15.6084 -3.5428 2.0006 -10.6617 2.4599 30.0775
#
#
#
# Elastic Compliance Matrix: (Units=1/GPa)
#
#
# Indices 1 2 3 4 5 6 
#
# 1 0.010838 -0.002077 -0.002276 0.002657 -0.004580 0.006847
# 2 -0.002077 0.006370 -0.001357 -0.001539 0.002392 -0.000979
# 3 -0.002276 -0.001357 0.029408 -0.003788 -0.004653 -0.004259
# 4 0.002657 -0.001539 -0.003788 0.022341 0.003251 0.009103
# 5 -0.004580 0.002392 -0.004653 0.003251 0.033276 -0.003354
# 6 0.006847 -0.000979 -0.004259 0.009103 -0.003354 0.040470
#
#
# Mechanical properties :
#
#
# Convention : Reuss Voigt Hill
#
# Bulk Modulus (GPa) = 28.41365 48.04903 38.23134
# Shear Modulus (GPa) = 30.14685 41.94154 36.04419
#
# Velocity S-wave (km/s) = 3.34138 3.94118 3.65361
# Velocity P-wave (km/s) = 5.04076 6.20527 5.65308
#
# Compressibility (1/GPa) = 0.03519436
#
# Stress axis : x y z
#
# Youngs Moduli (GPa) = 92.27200 156.99669 34.00411
#
# Poissons Ratio (x) = 0.32615 0.07739
# Poissons Ratio (y) = 0.19169 0.04615
# Poissons Ratio (z) = 0.21000 0.21307
#
# Static dielectric constant tensor:
#      x y z
#    x 2.252950 0.084470 -0.030330 
#    y 0.084470 2.216850 0.011120 
#    z -0.030330 0.011120 2.240700 
# 
# From -- ./inp_files/263627.got.cif
#   From: 2010.05.17/outbox.cif.g08.bks.cpg/sg2_132_cif.got.tgz:263627.got - 2010.06.03 11:33:40.
