data_PCOD9005255
_publ_section_title
;
Structure prediction by ZEFSAII (Michael W. Deem and Ramdas Pophale) SiO2 
 PCOD9005255
Probable space group: P -1
;
_chemical_formula_sum "Si O2"
_cell_formula_units_Z 16
_cell_length_a 18.515447
_cell_length_b 7.540812
_cell_length_c 15.248383
_cell_angle_alpha 124.346087
_cell_angle_beta 23.176527
_cell_angle_gamma 115.641782
_cell_volume 667.189859
_symmetry_space_group_name_H-M "P -1"
_symmetry_group_IT_number 2
_symmetry_cell_setting 'triclinic'
loop_
_space_group_symop_operation_xyz
x,y,z
-x,-y,-z
loop_
_atom_site_type_symbol
_atom_site_label
_atom_site_fract_x
_atom_site_fract_y
_atom_site_fract_z
Si Si1 0.538314 0.269403 0.622246
Si Si2 0.857129 0.901408 0.449544
Si Si3 0.894208 0.531783 0.856485
Si Si4 0.557506 0.111481 0.275143
Si Si5 0.874187 0.217170 0.651252
Si Si6 0.147329 0.977482 0.928518
Si Si7 0.508116 0.744433 0.809821
Si Si8 0.143164 0.263357 0.788683
O O1 0.675161 0.097941 0.357108
O O2 0.619639 0.481878 0.606524
O O3 0.485307 0.128099 0.722573
O O4 0.330859 0.390324 0.849466
O O5 0.658511 0.878030 0.705457
O O6 0.831732 0.875815 0.368369
O O7 0.009242 0.678029 0.249849
O O8 0.894164 0.130893 0.505422
O O9 0.925606 0.432457 0.694462
O O10 0.945439 0.762009 0.878456
O O11 0.741196 0.113633 0.128986
O O12 0.573727 0.163429 0.169124
O O13 0.354989 0.275313 0.579036
O O14 0.660631 0.246344 0.932165
O O15 0.000000 0.000000 0.500000
O O16 0.984323 0.862362 0.049926
O O17 0.000000 0.500000 0.000000
#
# Coordination Sequence:
#
# PCOD9005255 Si02
#       8
#     2   2   2   2   2   2   2   2
#     4  10  22  39  60  91 124 165 207 252 306 370
#     4  10  21  38  61  89 123 157 207 257 304 369
#     4   9  20  37  61  88 115 159 210 246 307 365
#     4  10  23  40  59  90 129 153 213 253 298 375
#     4   9  19  37  64  88 116 158 209 254 297 377
#     4  11  23  39  63  86 126 175 193 259 318 347
#     4  10  21  38  64  89 120 165 198 254 325 353
#     4  11  26  38  59  97 122 163 209 251 306 373
#
# _framework density 23.981178
#
# number of rings (size 3 to 8) (size 9 to 14) (size 15 to 20)
#    0.000    2.000    0.000    3.375   10.500    1.500 
#    0.000    0.625    8.250   14.250    0.000    0.000 
#    0.000    0.000    0.000    0.000    0.000    0.000 
#
# Total GULP energy -89303.882040 kJ/mol
# GULP energy per Si atom -5581.492628 kJ/mol
# Density = 2.392660 g / cm^3
# Si number density = 23.981178 Si / 1000 Ang^3
#
#
#
# Elastic Constant Matrix: (Units=GPa)
#
#
# Indices 1 2 3 4 5 6 
#
# 1 70.5764 11.7885 21.8181 22.4813 -2.9456 1.2631
# 2 11.7885 91.4975 2.4832 19.8397 14.3938 5.3980
# 3 21.8181 2.4832 94.7386 20.6133 -18.1091 -0.2664
# 4 22.4813 19.8397 20.6133 34.8353 8.7997 6.8079
# 5 -2.9456 14.3938 -18.1091 8.7997 41.9967 6.1083
# 6 1.2631 5.3980 -0.2664 6.8079 6.1083 32.6878
#
#
#
# Elastic Compliance Matrix: (Units=1/GPa)
#
#
# Indices 1 2 3 4 5 6 
#
# 1 0.018566 -0.000295 -0.000917 -0.012382 0.003418 0.001264
# 2 -0.000295 0.012862 0.000712 -0.006849 -0.002660 -0.000183
# 3 -0.000917 0.000712 0.014623 -0.010663 0.008124 0.000740
# 4 -0.012382 -0.006849 -0.010663 0.051499 -0.012922 -0.006788
# 5 0.003418 -0.002660 0.008124 -0.012922 0.031586 -0.002838
# 6 0.001264 -0.000183 0.000740 -0.006788 -0.002838 0.032524
#
#
# Mechanical properties :
#
#
# Convention : Reuss Voigt Hill
#
# Bulk Modulus (GPa) = 22.19686 36.55467 29.37577
# Shear Modulus (GPa) = 28.14099 36.61881 32.37990
#
# Velocity S-wave (km/s) = 3.42930 3.91190 3.67852
# Velocity P-wave (km/s) = 4.99561 5.97328 5.50619
#
# Compressibility (1/GPa) = 0.04505141
#
# Stress axis : x y z
#
# Youngs Moduli (GPa) = 53.86231 77.74689 68.38572
#
# Poissons Ratio (x) = 0.02291 0.06271
# Poissons Ratio (y) = 0.01587 -0.04868
# Poissons Ratio (z) = 0.04939 -0.05534
#
# Static dielectric constant tensor:
#      x y z
#    x 2.033010 -0.008900 -0.000150 
#    y -0.008900 2.012670 -0.045840 
#    z -0.000150 -0.045840 1.948930 
# 
# From -- ./inp_files/270803.got.cif
#   From: 2010.05.17/outbox.cif.g08.bks.cpg/sg2_136_cif.got.tgz:270803.got - 2010.06.03 11:33:40.
