data_PCOD9005721
_publ_section_title
;
Structure prediction by ZEFSAII (Michael W. Deem and Ramdas Pophale) SiO2 
 PCOD9005721
Probable space group: P -1
;
_chemical_formula_sum "Si O2"
_cell_formula_units_Z 12
_cell_length_a 14.828552
_cell_length_b 9.757996
_cell_length_c 7.343097
_cell_angle_alpha 49.618629
_cell_angle_beta 144.154986
_cell_angle_gamma 120.612634
_cell_volume 473.663955
_symmetry_space_group_name_H-M "P -1"
_symmetry_group_IT_number 2
_symmetry_cell_setting 'triclinic'
loop_
_space_group_symop_operation_xyz
x,y,z
-x,-y,-z
loop_
_atom_site_type_symbol
_atom_site_label
_atom_site_fract_x
_atom_site_fract_y
_atom_site_fract_z
Si Si1 0.103710 0.729628 0.827568
Si Si2 0.571635 0.812316 0.864535
Si Si3 0.261674 0.753532 0.564009
Si Si4 0.655036 0.050441 0.102275
Si Si5 0.046495 0.335696 0.988075
Si Si6 0.835417 0.841709 0.021777
O O1 0.264800 0.825511 0.027313
O O2 0.127574 0.518619 0.008551
O O3 0.989738 0.807207 0.418054
O O4 0.003713 0.748810 0.831434
O O5 0.424655 0.702291 0.781523
O O6 0.500000 0.000000 0.500000
O O7 0.692581 0.747058 0.965894
O O8 0.664021 0.866333 0.152488
O O9 0.285604 0.815677 0.755900
O O10 0.120786 0.623048 0.417718
O O11 0.201151 0.946375 0.219675
O O12 0.500000 0.000000 0.000000
O O13 0.141305 0.214931 0.102111
#
# Coordination Sequence:
#
# PCOD9005721 Si02
#       6
#     2   2   2   2   2   2
#     4  11  24  40  65  91 128 167 205 259 311 369
#     4   9  20  37  59  90 124 159 201 256 305 354
#     4  10  21  38  63  91 125 162 208 255 309 370
#     4  10  21  38  65  90 123 167 207 251 314 364
#     4  11  24  41  63  94 128 163 209 253 319 366
#     4  11  22  38  65  95 121 166 211 261 297 371
#
# _framework density 25.334416000000001
#
# number of rings (size 3 to 8) (size 9 to 14) (size 15 to 20)
#    0.000    1.667    1.667    3.000    2.333    1.333 
#    0.000    0.833    0.000   11.000    0.000    0.000 
#    0.000    0.000    0.000    0.000    0.000    0.000 
#
# Total GULP energy -66817.902586 kJ/mol
# GULP energy per Si atom -5568.158549 kJ/mol
# Density = 2.527675 g / cm^3
# Si number density = 25.334416 Si / 1000 Ang^3
#
#
#
# Elastic Constant Matrix: (Units=GPa)
#
#
# Indices 1 2 3 4 5 6 
#
# 1 186.3964 70.1631 33.0398 10.0963 25.3004 -7.7110
# 2 70.1631 70.3190 14.6890 16.2872 36.7475 19.0354
# 3 33.0398 14.6890 29.5167 7.7211 10.0368 -4.6754
# 4 10.0963 16.2872 7.7211 36.9340 2.1078 7.2528
# 5 25.3004 36.7475 10.0368 2.1078 49.4045 17.6713
# 6 -7.7110 19.0354 -4.6754 7.2528 17.6713 43.3060
#
#
#
# Elastic Compliance Matrix: (Units=1/GPa)
#
#
# Indices 1 2 3 4 5 6 
#
# 1 0.011558 -0.014503 -0.007241 0.003460 0.004288 0.005322
# 2 -0.014503 0.046244 0.002891 -0.013574 -0.023076 -0.010908
# 3 -0.007241 0.002891 0.048478 -0.010557 -0.011041 0.008947
# 4 0.003460 -0.013574 -0.010557 0.034639 0.010678 -0.004716
# 5 0.004288 -0.023076 -0.011041 0.010678 0.040000 -0.008396
# 6 0.005322 -0.010908 0.008947 -0.004716 -0.008396 0.034015
#
#
# Mechanical properties :
#
#
# Convention : Reuss Voigt Hill
#
# Bulk Modulus (GPa) = 14.58268 58.00173 36.29220
# Shear Modulus (GPa) = 18.14888 37.15157 27.65022
#
# Velocity S-wave (km/s) = 2.67942 3.83358 3.30723
# Velocity P-wave (km/s) = 3.91675 6.52221 5.37960
#
# Compressibility (1/GPa) = 0.06857452
#
# Stress axis : x y z
#
# Youngs Moduli (GPa) = 86.51755 21.62442 20.62771
#
# Poissons Ratio (x) = 0.31363 0.14936
# Poissons Ratio (y) = 1.25479 -0.05963
# Poissons Ratio (z) = 0.62644 -0.06251
#
# Static dielectric constant tensor:
#      x y z
#    x 2.036000 -0.014300 0.028990 
#    y -0.014300 1.908170 0.085370 
#    z 0.028990 0.085370 2.033090 
# 
# From -- ./inp_files/289842.got.cif
#   From: 2010.05.17/outbox.cif.g08.bks.cpg/sg2_145_cif.got.tgz:289842.got - 2010.06.03 11:33:40.
