data_PCOD9005780
_publ_section_title
;
Structure prediction by ZEFSAII (Michael W. Deem and Ramdas Pophale) SiO2 
 PCOD9005780
Probable space group: P -1
;
_chemical_formula_sum "Si O2"
_cell_formula_units_Z 16
_cell_length_a 11.514208
_cell_length_b 17.313426
_cell_length_c 22.975176
_cell_angle_alpha 160.362824
_cell_angle_beta 147.815339
_cell_angle_gamma 42.723684
_cell_volume 768.296108
_symmetry_space_group_name_H-M "P -1"
_symmetry_group_IT_number 2
_symmetry_cell_setting 'triclinic'
loop_
_space_group_symop_operation_xyz
x,y,z
-x,-y,-z
loop_
_atom_site_type_symbol
_atom_site_label
_atom_site_fract_x
_atom_site_fract_y
_atom_site_fract_z
Si Si1 0.204170 0.163585 0.879891
Si Si2 0.723892 0.209035 0.267637
Si Si3 0.499882 0.437692 0.616718
Si Si4 0.201085 0.208978 0.771146
Si Si5 0.287717 0.088080 0.478422
Si Si6 0.342864 0.524273 0.897771
Si Si7 0.126992 0.128248 0.320551
Si Si8 0.009339 0.453027 0.144409
O O1 0.207086 0.178017 0.821467
O O2 0.215844 0.907914 0.730846
O O3 0.382988 0.379093 0.148288
O O4 0.943910 0.142298 0.771287
O O5 0.640799 0.439452 0.397692
O O6 0.921637 0.234906 0.320867
O O7 0.500000 0.000000 0.000000
O O8 0.298168 0.208156 0.395823
O O9 0.718377 0.406094 0.653733
O O10 0.136247 0.447912 0.893917
O O11 0.467104 0.247379 0.892260
O O12 0.000000 0.000000 0.500000
O O13 0.299644 0.283717 0.671092
O O14 0.278647 0.217390 0.505724
O O15 0.500000 0.000000 0.500000
O O16 0.103760 0.522250 0.823601
O O17 0.500000 0.500000 0.000000
O O18 0.023683 0.834411 0.074496
#
# Coordination Sequence:
#
# PCOD9005780 Si02
#       8
#     2   2   2   2   2   2   2   2
#     4  10  21  38  63  93 125 164 211 265 312 374
#     4   9  18  40  61  96 129 160 210 273 315 358
#     4  11  22  38  67  97 124 167 214 267 316 376
#     4  11  24  40  61  89 125 174 209 251 323 393
#     4  11  21  37  59  87 128 161 207 262 306 372
#     4  10  22  38  55  82 128 167 201 253 311 374
#     4  11  22  38  65  96 123 168 209 266 316 375
#     4  11  23  40  59  95 130 160 210 257 321 377
#
# _framework density 20.825305
#
# number of rings (size 3 to 8) (size 9 to 14) (size 15 to 20)
#    0.000    1.500    3.750    4.125    3.500    0.500 
#    0.000    0.000    0.000    7.500    0.000    0.000 
#    0.000    0.000    0.000    0.000    0.000    0.000 
#
# Total GULP energy -89077.389863 kJ/mol
# GULP energy per Si atom -5567.336866 kJ/mol
# Density = 2.077791 g / cm^3
# Si number density = 20.825305 Si / 1000 Ang^3
#
#
#
# Elastic Constant Matrix: (Units=GPa)
#
#
# Indices 1 2 3 4 5 6 
#
# 1 158.4578 54.2958 19.0965 -6.8308 34.3394 -18.7429
# 2 54.2958 79.9092 11.8877 -13.7484 14.2243 -13.5778
# 3 19.0965 11.8877 51.4939 -4.8917 12.5482 -2.4025
# 4 -6.8308 -13.7484 -4.8917 21.2004 -3.2188 8.9511
# 5 34.3394 14.2243 12.5482 -3.2188 47.1123 -0.5845
# 6 -18.7429 -13.5778 -2.4025 8.9511 -0.5845 34.7480
#
#
#
# Elastic Compliance Matrix: (Units=1/GPa)
#
#
# Indices 1 2 3 4 5 6 
#
# 1 0.009776 -0.005394 -0.001190 -0.003027 -0.005340 0.003773
# 2 -0.005394 0.018328 -0.001127 0.009009 -0.000663 0.001842
# 3 -0.001190 -0.001127 0.021464 0.003421 -0.004282 -0.000552
# 4 -0.003027 0.009009 0.003421 0.058659 0.002422 -0.012946
# 5 -0.005340 -0.000663 -0.004282 0.002422 0.026579 -0.003612
# 6 0.003773 0.001842 -0.000552 -0.012946 -0.003612 0.034769
#
#
# Mechanical properties :
#
#
# Convention : Reuss Voigt Hill
#
# Bulk Modulus (GPa) = 29.28763 51.15788 40.22276
# Shear Modulus (GPa) = 25.46075 34.25087 29.85581
#
# Velocity S-wave (km/s) = 3.50034 4.05986 3.79044
# Velocity P-wave (km/s) = 5.51639 6.82607 6.20587
#
# Compressibility (1/GPa) = 0.03414410
#
# Stress axis : x y z
#
# Youngs Moduli (GPa) = 102.29604 54.56032 46.58935
#
# Poissons Ratio (x) = 0.29432 0.05545
# Poissons Ratio (y) = 0.55182 0.05252
# Poissons Ratio (z) = 0.12176 0.06151
#
# Static dielectric constant tensor:
#      x y z
#    x 1.810100 0.018640 0.039830 
#    y 0.018640 1.762320 0.018140 
#    z 0.039830 0.018140 1.815820 
# 
# From -- ./inp_files/610805.got.cif
#   From: 2010.05.17/outbox.cif.g08.bks.cpg/sg2_306_cif.got.tgz:610805.got - 2010.06.03 11:33:40.
