data_PCOD9005366
_publ_section_title
;
Structure prediction by ZEFSAII (Michael W. Deem and Ramdas Pophale) SiO2 
 PCOD9005366
Probable space group: P -1
;
_chemical_formula_sum "Si O2"
_cell_formula_units_Z 16
_cell_length_a 15.738928
_cell_length_b 9.774447
_cell_length_c 30.118908
_cell_angle_alpha 145.717133
_cell_angle_beta 162.957355
_cell_angle_gamma 40.613962
_cell_volume 751.437098
_symmetry_space_group_name_H-M "P -1"
_symmetry_group_IT_number 2
_symmetry_cell_setting 'triclinic'
loop_
_space_group_symop_operation_xyz
x,y,z
-x,-y,-z
loop_
_atom_site_type_symbol
_atom_site_label
_atom_site_fract_x
_atom_site_fract_y
_atom_site_fract_z
Si Si1 0.480539 0.354567 0.076332
Si Si2 0.159207 0.706437 0.958183
Si Si3 0.553433 0.344449 0.257338
Si Si4 0.194377 0.010288 0.913187
Si Si5 0.839737 0.583535 0.673434
Si Si6 0.179338 0.307263 0.590968
Si Si7 0.660529 0.711479 0.776534
Si Si8 0.832230 0.152114 0.491561
O O1 0.598886 0.163203 0.052240
O O2 0.734432 0.483232 0.272020
O O3 0.402080 0.566847 0.062336
O O4 0.215922 0.215082 0.939046
O O5 0.048204 0.641668 0.836087
O O6 0.890313 0.627716 0.836511
O O7 0.244170 0.000986 0.084723
O O8 0.685514 0.576955 0.355855
O O9 0.384043 0.427194 0.236666
O O10 0.829288 0.238017 0.387859
O O11 0.353957 0.153538 0.074002
O O12 0.905849 0.825579 0.738820
O O13 0.500000 0.500000 0.500000
O O14 0.951472 0.363456 0.643278
O O15 0.319668 0.076767 0.615017
O O16 0.372051 0.710900 0.603407
O O17 0.000000 0.000000 0.500000
#
# Coordination Sequence:
#
# PCOD9005366 Si02
#       8
#     2   2   2   2   2   2   2   2
#     4  10  22  42  66  94 126 165 215 261 324 384
#     4  11  24  41  63  92 127 169 211 264 323 385
#     4  10  21  39  63  92 126 159 207 264 319 374
#     4  10  23  42  65  93 128 167 209 269 319 382
#     4  12  26  44  63  94 134 169 212 269 327 380
#     4  10  21  38  61  97 122 159 210 265 313 376
#     4  11  22  41  61  90 128 167 215 260 322 383
#     4  12  23  39  66  94 125 169 218 266 317 382
#
# _framework density 21.292532999999999
#
# number of rings (size 3 to 8) (size 9 to 14) (size 15 to 20)
#    0.000    1.250    5.000    0.750    1.750    0.500 
#    2.250    1.875    0.000    0.000    0.000    0.000 
#    0.000    0.000    0.000    0.000    0.000    0.000 
#
# Total GULP energy -89197.818187 kJ/mol
# GULP energy per Si atom -5574.863637 kJ/mol
# Density = 2.124407 g / cm^3
# Si number density = 21.292533 Si / 1000 Ang^3
#
#
#
# Elastic Constant Matrix: (Units=GPa)
#
#
# Indices 1 2 3 4 5 6 
#
# 1 127.9107 13.5395 34.7443 2.2052 -7.1962 11.5519
# 2 13.5395 35.1354 1.1920 3.7660 -2.7836 7.5213
# 3 34.7443 1.1920 51.4713 12.7621 -1.0463 6.2243
# 4 2.2052 3.7660 12.7621 22.2761 3.0225 -2.1297
# 5 -7.1962 -2.7836 -1.0463 3.0225 45.4855 5.2828
# 6 11.5519 7.5213 6.2243 -2.1297 5.2828 31.1405
#
#
#
# Elastic Compliance Matrix: (Units=1/GPa)
#
#
# Indices 1 2 3 4 5 6 
#
# 1 0.010429 -0.003774 -0.007688 0.003723 0.001153 -0.001362
# 2 -0.003774 0.032885 0.005262 -0.009472 0.003186 -0.008782
# 3 -0.007688 0.005262 0.029681 -0.017918 0.001660 -0.005858
# 4 0.003723 -0.009472 -0.017918 0.058009 -0.005345 0.009362
# 5 0.001153 0.003186 0.001660 -0.005345 0.023438 -0.005870
# 6 -0.001362 -0.008782 -0.005858 0.009362 -0.005870 0.037546
#
#
# Mechanical properties :
#
#
# Convention : Reuss Voigt Hill
#
# Bulk Modulus (GPa) = 16.50331 34.82991 25.66661
# Shear Modulus (GPa) = 22.26310 30.78320 26.52315
#
# Velocity S-wave (km/s) = 3.23705 3.80640 3.53321
# Velocity P-wave (km/s) = 4.66250 5.97591 5.35959
#
# Compressibility (1/GPa) = 0.06059391
#
# Stress axis : x y z
#
# Youngs Moduli (GPa) = 95.88332 30.40905 33.69190
#
# Poissons Ratio (x) = 0.11478 0.25901
# Poissons Ratio (y) = 0.36191 -0.17728
# Poissons Ratio (z) = 0.73713 -0.16000
#
# Static dielectric constant tensor:
#      x y z
#    x 1.823160 0.027190 0.082510 
#    y 0.027190 1.798770 0.019990 
#    z 0.082510 0.019990 1.825020 
# 
# From -- ./inp_files/504491.got.cif
#   From: 2010.05.17/outbox.cif.g08.bks.cpg/sg2_253_cif.got.tgz:504491.got - 2010.06.03 11:33:40.
