data_PCOD9005351
_publ_section_title
;
Structure prediction by ZEFSAII (Michael W. Deem and Ramdas Pophale) SiO2 
 PCOD9005351
Probable space group: P -1
;
_chemical_formula_sum "Si O2"
_cell_formula_units_Z 14
_cell_length_a 14.392517
_cell_length_b 10.940380
_cell_length_c 14.000733
_cell_angle_alpha 139.134997
_cell_angle_beta 30.205524
_cell_angle_gamma 119.433178
_cell_volume 631.499021
_symmetry_space_group_name_H-M "P -1"
_symmetry_group_IT_number 2
_symmetry_cell_setting 'triclinic'
loop_
_space_group_symop_operation_xyz
x,y,z
-x,-y,-z
loop_
_atom_site_type_symbol
_atom_site_label
_atom_site_fract_x
_atom_site_fract_y
_atom_site_fract_z
Si Si1 0.190934 0.087913 0.268301
Si Si2 0.094294 0.207281 0.134042
Si Si3 0.277299 0.384990 0.229266
Si Si4 0.150625 0.741086 0.803106
Si Si5 0.741901 0.105573 0.695024
Si Si6 0.003890 0.714146 0.126763
Si Si7 0.430413 0.630704 0.737825
O O1 0.205305 0.280699 0.318591
O O2 0.946776 0.136798 0.514987
O O3 0.260657 0.997257 0.260473
O O4 0.362827 0.878484 0.932132
O O5 0.243545 0.282720 0.100484
O O6 0.876258 0.358341 0.476824
O O7 0.014823 0.260023 0.126517
O O8 0.177978 0.952405 0.905476
O O9 0.520992 0.309670 0.987191
O O10 0.373221 0.521682 0.460913
O O11 0.063138 0.751250 0.991832
O O12 0.788764 0.912973 0.468020
O O13 0.000000 0.500000 0.000000
O O14 0.200922 0.665918 0.993456
O O15 0.500000 0.500000 0.500000
#
# Coordination Sequence:
#
# PCOD9005351 Si02
#       7
#     2   2   2   2   2   2   2
#     4  10  21  38  61  95 122 149 198 256 315 360
#     4  10  23  39  61  87 115 172 206 239 282 371
#     4  11  22  39  65  87 120 161 213 241 298 359
#     4  10  21  41  62  82 127 157 203 245 303 357
#     4  10  22  37  60  93 124 152 191 263 313 351
#     4  10  22  34  59  93 117 144 195 255 312 355
#     4   9  18  34  61  86 113 154 185 252 309 346
#
# _framework density 22.169474000000001
#
# number of rings (size 3 to 8) (size 9 to 14) (size 15 to 20)
#    0.000    2.000    0.000    3.857    8.000    0.000 
#    0.000    7.143    3.143    0.000    0.000    0.000 
#    0.000    0.000    0.000    0.000    0.000    0.000 
#
# Total GULP energy -77994.729287 kJ/mol
# GULP energy per Si atom -5571.052092 kJ/mol
# Density = 2.211902 g / cm^3
# Si number density = 22.169474 Si / 1000 Ang^3
#
#
#
# Elastic Constant Matrix: (Units=GPa)
#
#
# Indices 1 2 3 4 5 6 
#
# 1 106.3792 0.8071 25.0840 -5.9685 -6.1467 -0.8240
# 2 0.8071 21.6526 -1.1041 4.1115 -2.6063 7.4877
# 3 25.0840 -1.1041 100.1091 2.8571 -7.0936 7.4081
# 4 -5.9685 4.1115 2.8571 24.1117 4.8548 3.9995
# 5 -6.1467 -2.6063 -7.0936 4.8548 42.9427 3.1834
# 6 -0.8240 7.4877 7.4081 3.9995 3.1834 20.8038
#
#
#
# Elastic Compliance Matrix: (Units=1/GPa)
#
#
# Indices 1 2 3 4 5 6 
#
# 1 0.010249 -0.001427 -0.002721 0.002787 0.000522 0.001273
# 2 -0.001427 0.055815 0.003168 -0.008056 0.006149 -0.020666
# 3 -0.002721 0.003168 0.011316 -0.002153 0.002302 -0.005216
# 4 0.002787 -0.008056 -0.002153 0.045549 -0.005286 -0.004171
# 5 0.000522 0.006149 0.002302 -0.005286 0.025146 -0.005844
# 6 0.001273 -0.020666 -0.005216 -0.004171 -0.005844 0.059110
#
#
# Mechanical properties :
#
#
# Convention : Reuss Voigt Hill
#
# Bulk Modulus (GPa) = 13.25895 30.85724 22.05809
# Shear Modulus (GPa) = 21.34157 31.12855 26.23506
#
# Velocity S-wave (km/s) = 3.10604 3.75122 3.44377
# Velocity P-wave (km/s) = 4.34246 5.71937 5.07780
#
# Compressibility (1/GPa) = 0.07542078
#
# Stress axis : x y z
#
# Youngs Moduli (GPa) = 97.57044 17.91636 88.36818
#
# Poissons Ratio (x) = 0.02557 0.24041
# Poissons Ratio (y) = 0.13926 -0.27996
# Poissons Ratio (z) = 0.26545 -0.05676
#
# Static dielectric constant tensor:
#      x y z
#    x 1.958110 0.061950 -0.022780 
#    y 0.061950 1.846590 0.021820 
#    z -0.022780 0.021820 1.851870 
# 
# From -- ./inp_files/315870.got.cif
#   From: 2010.05.17/outbox.cif.g08.bks.cpg/sg2_158_cif.got.tgz:315870.got - 2010.06.03 11:33:40.
