data_PCOD9005542
_publ_section_title
;
Structure prediction by ZEFSAII (Michael W. Deem and Ramdas Pophale) SiO2 
 PCOD9005542
Probable space group: P -1
;
_chemical_formula_sum "Si O2"
_cell_formula_units_Z 16
_cell_length_a 15.658412
_cell_length_b 11.136895
_cell_length_c 16.765997
_cell_angle_alpha 44.850632
_cell_angle_beta 155.837157
_cell_angle_gamma 143.633295
_cell_volume 705.633256
_symmetry_space_group_name_H-M "P -1"
_symmetry_group_IT_number 2
_symmetry_cell_setting 'triclinic'
loop_
_space_group_symop_operation_xyz
x,y,z
-x,-y,-z
loop_
_atom_site_type_symbol
_atom_site_label
_atom_site_fract_x
_atom_site_fract_y
_atom_site_fract_z
Si Si1 0.755306 0.187809 0.857817
Si Si2 0.743769 0.205853 0.447605
Si Si3 0.988742 0.049787 0.838136
Si Si4 0.703039 0.685933 0.365343
Si Si5 0.610232 0.724959 0.788984
Si Si6 0.978077 0.567023 0.756010
Si Si7 0.164976 0.713361 0.688553
Si Si8 0.585217 0.130296 0.907776
O O1 0.703157 0.248926 0.869753
O O2 0.899261 0.377079 0.832685
O O3 0.492188 0.017864 0.673958
O O4 0.909986 0.082354 0.049315
O O5 0.631983 0.288655 0.376142
O O6 0.823367 0.327836 0.374405
O O7 0.939718 0.170118 0.673782
O O8 0.739553 0.892706 0.750136
O O9 0.193131 0.196519 0.008619
O O10 0.481650 0.495306 0.218911
O O11 0.619119 0.833530 0.248073
O O12 0.753665 0.594422 0.530365
O O13 0.961281 0.776324 0.494221
O O14 0.066477 0.546985 0.752657
O O15 0.194547 0.773002 0.886030
O O16 0.436801 0.896369 0.863836
#
# Coordination Sequence:
#
# PCOD9005542 Si02
#       8
#     2   2   2   2   2   2   2   2
#     4  10  22  38  63  96 119 154 206 249 299 356
#     4  10  21  41  64  88 123 160 198 248 302 361
#     4  10  21  39  66  90 123 153 199 255 305 354
#     4  10  23  38  60  88 125 157 203 244 297 359
#     4  10  21  38  62  93 117 157 203 249 302 355
#     4  10  22  38  60  89 123 162 194 251 298 355
#     4   9  23  42  58  89 122 163 200 246 301 360
#     4  11  21  40  62  88 123 162 203 244 300 360
#
# _framework density 22.674669999999999
#
# number of rings (size 3 to 8) (size 9 to 14) (size 15 to 20)
#    0.750    1.250    0.000    3.000    0.000    6.000 
#    6.750    0.625    0.000    0.000    0.000    0.000 
#    0.000    0.000    0.000    0.000    0.000    0.000 
#
# Total GULP energy -89402.492668 kJ/mol
# GULP energy per Si atom -5587.655792 kJ/mol
# Density = 2.262306 g / cm^3
# Si number density = 22.674670 Si / 1000 Ang^3
#
#
#
# Elastic Constant Matrix: (Units=GPa)
#
#
# Indices 1 2 3 4 5 6 
#
# 1 73.1449 15.5300 18.2972 7.4183 -7.7141 12.7274
# 2 15.5300 57.0850 15.6794 9.5163 -13.2055 7.9466
# 3 18.2972 15.6794 74.3546 3.7901 -12.0334 1.2784
# 4 7.4183 9.5163 3.7901 28.6671 0.9710 -3.4735
# 5 -7.7141 -13.2055 -12.0334 0.9710 28.8256 -1.3478
# 6 12.7274 7.9466 1.2784 -3.4735 -1.3478 37.4759
#
#
#
# Elastic Compliance Matrix: (Units=1/GPa)
#
#
# Indices 1 2 3 4 5 6 
#
# 1 0.016362 -0.001691 -0.003012 -0.004003 0.002229 -0.005386
# 2 -0.001691 0.022610 -0.002441 -0.007595 0.008931 -0.004519
# 3 -0.003012 -0.002441 0.015453 -0.000471 0.004595 0.001135
# 4 -0.004003 -0.007595 -0.000471 0.039478 -0.005776 0.006437
# 5 0.002229 0.008931 0.004595 -0.005776 0.041406 -0.001854
# 6 -0.005386 -0.004519 0.001135 0.006437 -0.001854 0.029963
#
#
# Mechanical properties :
#
#
# Convention : Reuss Voigt Hill
#
# Bulk Modulus (GPa) = 24.91566 33.73309 29.32438
# Shear Modulus (GPa) = 25.91477 29.33227 27.62352
#
# Velocity S-wave (km/s) = 3.38434 3.60059 3.49414
# Velocity P-wave (km/s) = 5.12678 5.67406 5.40735
#
# Compressibility (1/GPa) = 0.04013540
#
# Stress axis : x y z
#
# Youngs Moduli (GPa) = 61.11558 44.22908 64.71066
#
# Poissons Ratio (x) = 0.07480 0.19493
# Poissons Ratio (y) = 0.10336 0.15799
# Poissons Ratio (z) = 0.18410 0.10798
#
# Static dielectric constant tensor:
#      x y z
#    x 1.841790 0.005510 0.011310 
#    y 0.005510 1.860820 0.027510 
#    z 0.011310 0.027510 1.828280 
# 
# From -- ./inp_files/532437.got.cif
#   From: 2010.05.17/outbox.cif.g08.bks.cpg/sg2_267_cif.got.tgz:532437.got - 2010.06.03 11:33:40.
