data_PCOD9005666
_publ_section_title
;
Structure prediction by ZEFSAII (Michael W. Deem and Ramdas Pophale) SiO2 
 PCOD9005666
Probable space group: P -1
;
_chemical_formula_sum "Si O2"
_cell_formula_units_Z 14
_cell_length_a 19.328088
_cell_length_b 11.953453
_cell_length_c 12.142056
_cell_angle_alpha 46.108496
_cell_angle_beta 145.751172
_cell_angle_gamma 155.318840
_cell_volume 638.999186
_symmetry_space_group_name_H-M "P -1"
_symmetry_group_IT_number 2
_symmetry_cell_setting 'triclinic'
loop_
_space_group_symop_operation_xyz
x,y,z
-x,-y,-z
loop_
_atom_site_type_symbol
_atom_site_label
_atom_site_fract_x
_atom_site_fract_y
_atom_site_fract_z
Si Si1 0.180983 0.255032 0.318042
Si Si2 0.573312 0.205504 0.366837
Si Si3 0.000548 0.151313 0.477759
Si Si4 0.319380 0.944155 0.772023
Si Si5 0.647764 0.801875 0.567613
Si Si6 0.089245 0.718254 0.054907
Si Si7 0.104176 0.671665 0.363695
O O1 0.412419 0.523896 0.501676
O O2 0.254634 0.261303 0.294799
O O3 0.026534 0.961174 0.364211
O O4 0.059708 0.287830 0.140384
O O5 0.692200 0.230153 0.412168
O O6 0.765598 0.518703 0.449009
O O7 0.500000 0.000000 0.500000
O O8 0.339764 0.029115 0.146594
O O9 0.797638 0.066163 0.279472
O O10 0.000000 0.000000 0.500000
O O11 0.114125 0.630372 0.671381
O O12 0.392806 0.136844 0.638896
O O13 0.500000 0.000000 0.000000
O O14 0.819371 0.078964 0.673138
O O15 0.072281 0.639750 0.211099
O O16 0.000000 0.500000 0.000000
#
# Coordination Sequence:
#
# PCOD9005666 Si02
#       7
#     2   2   2   2   2   2   2
#     4  10  23  39  61  89 130 167 208 269 325 378
#     4   9  21  39  61  90 121 169 210 252 325 383
#     4  10  23  40  64  94 134 169 208 266 334 384
#     4  10  21  40  64  96 124 168 221 265 316 380
#     4  10  21  41  62  89 128 171 212 257 331 387
#     4  11  23  37  62  94 127 167 223 265 315 387
#     4  10  21  38  63  88 124 167 217 265 316 379
#
# _framework density 21.909261000000001
#
# number of rings (size 3 to 8) (size 9 to 14) (size 15 to 20)
#    0.000    2.000    0.000    2.143   10.000    1.143 
#    2.571    0.000    0.000    0.000    0.000    0.000 
#    0.000    0.000    0.000    0.000    0.000    0.000 
#
# Total GULP energy -77982.534000 kJ/mol
# GULP energy per Si atom -5570.181000 kJ/mol
# Density = 2.185939 g / cm^3
# Si number density = 21.909261 Si / 1000 Ang^3
#
#
#
# Elastic Constant Matrix: (Units=GPa)
#
#
# Indices 1 2 3 4 5 6 
#
# 1 92.3355 49.2143 58.7999 4.0768 25.2925 -21.2332
# 2 49.2143 170.8900 33.1888 17.3300 15.8136 -16.6801
# 3 58.7999 33.1888 100.2187 2.5280 49.3430 -16.6455
# 4 4.0768 17.3300 2.5280 30.2642 2.0887 7.6493
# 5 25.2925 15.8136 49.3430 2.0887 41.0421 -7.0764
# 6 -21.2332 -16.6801 -16.6455 7.6493 -7.0764 42.1550
#
#
#
# Elastic Compliance Matrix: (Units=1/GPa)
#
#
# Indices 1 2 3 4 5 6 
#
# 1 0.020311 -0.003252 -0.011943 -0.001465 0.004062 0.005175
# 2 -0.003252 0.007448 0.000088 -0.004328 -0.000396 0.002063
# 3 -0.011943 0.000088 0.033021 0.000627 -0.032139 0.001549
# 4 -0.001465 -0.004328 0.000627 0.038168 -0.001750 -0.009423
# 5 0.004062 -0.000396 -0.032139 -0.001750 0.060691 -0.000295
# 6 0.005175 0.002063 0.001549 -0.009423 -0.000295 0.029417
#
#
# Mechanical properties :
#
#
# Convention : Reuss Voigt Hill
#
# Bulk Modulus (GPa) = 32.71583 71.76115 52.23849
# Shear Modulus (GPa) = 21.79029 37.50834 29.64931
#
# Velocity S-wave (km/s) = 3.15710 4.14210 3.68268
# Velocity P-wave (km/s) = 5.31550 7.46331 6.47902
#
# Compressibility (1/GPa) = 0.03056624
#
# Stress axis : x y z
#
# Youngs Moduli (GPa) = 49.23423 134.26335 30.28346
#
# Poissons Ratio (x) = 0.43663 0.36168
# Poissons Ratio (y) = 0.16011 -0.00267
# Poissons Ratio (z) = 0.58801 -0.01182
#
# Static dielectric constant tensor:
#      x y z
#    x 1.916990 0.034600 0.015180 
#    y 0.034600 1.863230 0.004420 
#    z 0.015180 0.004420 1.890790 
# 
# From -- ./inp_files/184908.got.cif
#   From: 2010.05.17/outbox.cif.g08.bks.cpg/sg2_93_cif.got.tgz:184908.got - 2010.06.03 11:33:40.
