data_PCOD9005029
_publ_section_title
;
Structure prediction by ZEFSAII (Michael W. Deem and Ramdas Pophale) SiO2 
 PCOD9005029
Probable space group: P -1
;
_chemical_formula_sum "Si O2"
_cell_formula_units_Z 12
_cell_length_a 14.999344
_cell_length_b 8.194247
_cell_length_c 16.757655
_cell_angle_alpha 40.781829
_cell_angle_beta 23.932695
_cell_angle_gamma 36.048143
_cell_volume 490.247807
_symmetry_space_group_name_H-M "P -1"
_symmetry_group_IT_number 2
_symmetry_cell_setting 'triclinic'
loop_
_space_group_symop_operation_xyz
x,y,z
-x,-y,-z
loop_
_atom_site_type_symbol
_atom_site_label
_atom_site_fract_x
_atom_site_fract_y
_atom_site_fract_z
Si Si1 0.584642 0.718036 0.425124
Si Si2 0.095587 0.701056 0.807252
Si Si3 0.623525 0.884292 0.698960
Si Si4 0.659076 0.057534 0.781998
Si Si5 0.147068 0.517760 0.558168
Si Si6 0.110038 0.708602 0.275843
O O1 0.326930 0.713587 0.656739
O O2 0.774883 0.433437 0.332390
O O3 0.715305 0.712620 0.402353
O O4 0.526966 0.944443 0.317950
O O5 0.879834 0.011325 0.862982
O O6 0.000000 0.500000 0.000000
O O7 0.574657 0.034977 0.768621
O O8 0.651599 0.569806 0.795001
O O9 0.908096 0.816694 0.471298
O O10 0.923403 0.794838 0.671812
O O11 0.677344 0.348729 0.668092
O O12 0.500000 0.000000 0.000000
O O13 0.027593 0.383175 0.645220
#
# Coordination Sequence:
#
# PCOD9005029 Si02
#       6
#     2   2   2   2   2   2
#     4  10  21  39  63  92 123 162 210 258 317 375
#     4  10  21  38  60  87 123 169 212 254 308 376
#     4   9  19  39  62  88 123 164 209 250 305 381
#     4  10  21  39  61  90 130 174 212 250 313 387
#     4  10  21  38  62  94 130 162 207 270 317 367
#     4   9  19  39  64  90 125 167 210 258 316 374
#
# _framework density 24.477416000000002
#
# number of rings (size 3 to 8) (size 9 to 14) (size 15 to 20)
#    0.000    2.333    0.000    3.000    0.000    6.667 
#    0.000   12.500    0.000    0.000    0.000   11.667 
#    0.000    0.000    0.000    0.000    0.000    0.000 
#
# Total GULP energy -67077.142508 kJ/mol
# GULP energy per Si atom -5589.761876 kJ/mol
# Density = 2.442170 g / cm^3
# Si number density = 24.477416 Si / 1000 Ang^3
#
#
#
# Elastic Constant Matrix: (Units=GPa)
#
#
# Indices 1 2 3 4 5 6 
#
# 1 143.2195 53.3654 32.9970 -16.2880 16.4133 -32.4974
# 2 53.3654 180.6480 43.2948 -44.9664 7.7313 -14.7339
# 3 32.9970 43.2948 118.4415 -27.7915 6.4726 -8.8097
# 4 -16.2880 -44.9664 -27.7915 42.2446 -5.2043 9.6563
# 5 16.4133 7.7313 6.4726 -5.2043 23.9319 -7.5666
# 6 -32.4974 -14.7339 -8.8097 9.6563 -7.5666 37.2568
#
#
#
# Elastic Compliance Matrix: (Units=1/GPa)
#
#
# Indices 1 2 3 4 5 6 
#
# 1 0.010074 -0.002260 -0.001639 -0.001712 -0.003841 0.007170
# 2 -0.002260 0.008177 -0.000651 0.007643 0.000503 -0.000770
# 3 -0.001639 -0.000651 0.010434 0.005657 -0.000507 -0.000789
# 4 -0.001712 0.007643 0.005657 0.036633 0.003255 -0.005967
# 5 -0.003841 0.000503 -0.000507 0.003255 0.046807 0.005391
# 6 0.007170 -0.000770 -0.000789 -0.005967 0.005391 0.035245
#
#
# Mechanical properties :
#
#
# Convention : Reuss Voigt Hill
#
# Bulk Modulus (GPa) = 51.05804 77.95816 64.50810
# Shear Modulus (GPa) = 30.67500 41.53010 36.10255
#
# Velocity S-wave (km/s) = 3.54389 4.12353 3.84465
# Velocity P-wave (km/s) = 6.13597 7.38847 6.79116
#
# Compressibility (1/GPa) = 0.01958555
#
# Stress axis : x y z
#
# Youngs Moduli (GPa) = 99.26078 122.28902 95.84065
#
# Poissons Ratio (x) = 0.27640 0.15708
# Poissons Ratio (y) = 0.22435 0.06239
# Poissons Ratio (z) = 0.16268 0.07960
#
# Static dielectric constant tensor:
#      x y z
#    x 1.978720 -0.005550 -0.006160 
#    y -0.005550 2.040980 -0.028520 
#    z -0.006160 -0.028520 2.043730 
# 
# From -- ./inp_files/526097.got.cif
#   From: 2010.05.17/outbox.cif.g08.bks.cpg/sg2_264_cif.got.tgz:526097.got - 2010.06.03 11:33:40.
