data_PCOD9005584
_publ_section_title
;
Structure prediction by ZEFSAII (Michael W. Deem and Ramdas Pophale) SiO2 
 PCOD9005584
Probable space group: P -1
;
_chemical_formula_sum "Si O2"
_cell_formula_units_Z 16
_cell_length_a 16.961482
_cell_length_b 19.914843
_cell_length_c 8.085492
_cell_angle_alpha 137.259898
_cell_angle_beta 137.083439
_cell_angle_gamma 21.714732
_cell_volume 672.046290
_symmetry_space_group_name_H-M "P -1"
_symmetry_group_IT_number 2
_symmetry_cell_setting 'triclinic'
loop_
_space_group_symop_operation_xyz
x,y,z
-x,-y,-z
loop_
_atom_site_type_symbol
_atom_site_label
_atom_site_fract_x
_atom_site_fract_y
_atom_site_fract_z
Si Si1 0.415545 0.653018 0.315891
Si Si2 0.921563 0.260368 0.907499
Si Si3 0.292393 0.663021 0.589928
Si Si4 0.107226 0.507478 0.566155
Si Si5 0.433464 0.911905 0.606183
Si Si6 0.660954 0.844088 0.321105
Si Si7 0.614179 0.118139 0.148327
Si Si8 0.241871 0.864226 0.098794
O O1 0.226748 0.709407 0.163458
O O2 0.648426 0.438635 0.335673
O O3 0.384699 0.767557 0.598931
O O4 0.390683 0.711743 0.199451
O O5 0.892922 0.247885 0.647849
O O6 0.850318 0.422920 0.137834
O O7 0.177967 0.062558 0.967347
O O8 0.500000 0.500000 0.500000
O O9 0.290690 0.778597 0.845224
O O10 0.325088 0.305262 0.454621
O O11 0.000000 0.500000 0.500000
O O12 0.913853 0.672804 0.440818
O O13 0.378127 0.937331 0.758221
O O14 0.273250 0.957241 0.334871
O O15 0.401392 0.044884 0.731609
O O16 0.500000 0.000000 0.500000
O O17 0.597567 0.775437 0.069836
O O18 0.000000 0.000000 0.000000
#
# Coordination Sequence:
#
# PCOD9005584 Si02
#       8
#     2   2   2   2   2   2   2   2
#     4  10  23  40  67 100 135 177 227 278 342 414
#     4  11  23  43  68  99 134 181 227 282 345 408
#     4  10  21  38  62  94 132 174 219 277 332 403
#     4  12  26  46  73 101 137 184 235 287 340 409
#     4  11  25  47  69 103 141 176 234 288 342 412
#     4  12  25  45  74 100 133 187 232 285 346 408
#     4  11  24  45  66 102 138 174 230 289 340 414
#     4  11  24  43  67 100 141 180 221 282 349 409
#
# _framework density 23.807883
#
# number of rings (size 3 to 8) (size 9 to 14) (size 15 to 20)
#    0.000    1.000    2.500    4.125    3.500    4.500 
#    4.500    0.000    0.000    0.000    0.000    0.000 
#    0.000    0.000    0.000    0.000    0.000    0.000 
#
# Total GULP energy -89503.022159 kJ/mol
# GULP energy per Si atom -5593.938885 kJ/mol
# Density = 2.375369 g / cm^3
# Si number density = 23.807883 Si / 1000 Ang^3
#
#
#
# Elastic Constant Matrix: (Units=GPa)
#
#
# Indices 1 2 3 4 5 6 
#
# 1 87.8138 10.3534 21.8154 1.9134 14.6967 3.8970
# 2 10.3534 70.1930 13.5079 -12.7126 8.1113 -3.3320
# 3 21.8154 13.5079 146.4056 -2.3777 25.6497 -4.6163
# 4 1.9134 -12.7126 -2.3777 37.9992 1.4867 2.5889
# 5 14.6967 8.1113 25.6497 1.4867 42.3600 -2.6687
# 6 3.8970 -3.3320 -4.6163 2.5889 -2.6687 39.8945
#
#
#
# Elastic Compliance Matrix: (Units=1/GPa)
#
#
# Indices 1 2 3 4 5 6 
#
# 1 0.012524 -0.001473 -0.001201 -0.000953 -0.003406 -0.001651
# 2 -0.001473 0.015876 -0.000743 0.005365 -0.002211 0.000888
# 3 -0.001201 -0.000743 0.007834 0.000420 -0.004158 0.000656
# 4 -0.000953 0.005365 0.000420 0.028360 -0.002034 -0.001387
# 5 -0.003406 -0.002211 -0.004158 -0.002034 0.027907 0.001666
# 6 -0.001651 0.000888 0.000656 -0.001387 0.001666 0.025579
#
#
# Mechanical properties :
#
#
# Convention : Reuss Voigt Hill
#
# Bulk Modulus (GPa) = 34.01409 43.97397 38.99403
# Shear Modulus (GPa) = 37.11595 41.29978 39.20786
#
# Velocity S-wave (km/s) = 3.95267 4.16950 4.06253
# Velocity P-wave (km/s) = 5.92869 6.45679 6.19837
#
# Compressibility (1/GPa) = 0.02939958
#
# Stress axis : x y z
#
# Youngs Moduli (GPa) = 79.84685 62.98792 127.65199
#
# Poissons Ratio (x) = 0.09281 0.15331
# Poissons Ratio (y) = 0.11765 0.09480
# Poissons Ratio (z) = 0.09589 0.04678
#
# Static dielectric constant tensor:
#      x y z
#    x 1.907030 0.062380 -0.001660 
#    y 0.062380 1.984070 -0.060480 
#    z -0.001660 -0.060480 1.909440 
# 
# From -- ./inp_files/338210.got.cif
#   From: 2010.05.17/outbox.cif.g08.bks.cpg/sg2_170_cif.got.tgz:338210.got - 2010.06.03 11:33:40.
