data_PCOD9005486
_publ_section_title
;
Structure prediction by ZEFSAII (Michael W. Deem and Ramdas Pophale) SiO2 
 PCOD9005486
Probable space group: P -1
;
_chemical_formula_sum "Si O2"
_cell_formula_units_Z 16
_cell_length_a 8.978774
_cell_length_b 8.780351
_cell_length_c 16.687669
_cell_angle_alpha 128.958385
_cell_angle_beta 40.825035
_cell_angle_gamma 116.371383
_cell_volume 667.504890
_symmetry_space_group_name_H-M "P -1"
_symmetry_group_IT_number 2
_symmetry_cell_setting 'triclinic'
loop_
_space_group_symop_operation_xyz
x,y,z
-x,-y,-z
loop_
_atom_site_type_symbol
_atom_site_label
_atom_site_fract_x
_atom_site_fract_y
_atom_site_fract_z
Si Si1 0.797479 0.545555 0.252120
Si Si2 0.819244 0.332574 0.026367
Si Si3 0.326223 0.654987 0.452440
Si Si4 0.465486 0.035962 0.819879
Si Si5 0.676809 0.527951 0.006938
Si Si6 0.840675 0.781828 0.650316
Si Si7 0.807856 0.900291 0.885785
Si Si8 0.738761 0.282481 0.316354
O O1 0.775447 0.346632 0.142875
O O2 0.596329 0.678443 0.333921
O O3 0.709492 0.497859 0.360318
O O4 0.068571 0.568028 0.150177
O O5 0.623311 0.411300 0.071352
O O6 0.000000 0.500000 0.000000
O O7 0.900108 0.113981 0.900490
O O8 0.265100 0.424654 0.399300
O O9 0.298916 0.730909 0.579045
O O10 0.116406 0.759187 0.523165
O O11 0.729398 0.962757 0.704108
O O12 0.384047 0.873304 0.737864
O O13 0.361201 0.238560 0.889458
O O14 0.383293 0.053296 0.953078
O O15 0.500000 0.500000 0.000000
O O16 0.778906 0.811457 0.780028
O O17 0.990381 0.767851 0.817104
#
# Coordination Sequence:
#
# PCOD9005486 Si02
#       8
#     2   2   2   2   2   2   2   2
#     4  11  20  40  63  87 125 166 206 246 307 380
#     4  10  21  38  62  90 128 166 198 255 318 376
#     4  10  22  39  57  96 128 165 207 252 315 359
#     4  12  21  37  65  95 125 155 210 264 319 357
#     4  11  25  41  61  94 129 163 200 262 325 372
#     4  10  22  35  57  91 134 158 198 263 310 365
#     4  11  20  36  62  95 127 158 210 258 322 364
#     4  11  20  35  64  99 125 157 205 270 300 369
#
# _framework density 23.969863
#
# number of rings (size 3 to 8) (size 9 to 14) (size 15 to 20)
#    0.000    1.250    3.750    3.375    0.000    1.000 
#    2.250    0.000    0.000   28.500    0.000    0.000 
#    0.000    0.000    0.000    0.000    0.000    0.000 
#
# Total GULP energy -89080.357880 kJ/mol
# GULP energy per Si atom -5567.522367 kJ/mol
# Density = 2.391531 g / cm^3
# Si number density = 23.969863 Si / 1000 Ang^3
#
#
#
# Elastic Constant Matrix: (Units=GPa)
#
#
# Indices 1 2 3 4 5 6 
#
# 1 127.6375 -5.3089 33.2750 -12.2376 -16.1198 5.8749
# 2 -5.3089 37.9442 2.7934 0.6193 4.0641 0.8396
# 3 33.2750 2.7934 73.8859 2.9879 -19.0231 18.5524
# 4 -12.2376 0.6193 2.9879 12.6295 6.7606 -0.9238
# 5 -16.1198 4.0641 -19.0231 6.7606 72.7723 2.8479
# 6 5.8749 0.8396 18.5524 -0.9238 2.8479 24.5363
#
#
#
# Elastic Compliance Matrix: (Units=1/GPa)
#
#
# Indices 1 2 3 4 5 6 
#
# 1 0.010434 0.001713 -0.006023 0.011938 -0.000566 0.002513
# 2 0.001713 0.026953 -0.002657 0.002142 -0.002058 0.000996
# 3 -0.006023 -0.002657 0.023207 -0.016259 0.007074 -0.017448
# 4 0.011938 0.002142 -0.016259 0.101847 -0.011757 0.014561
# 5 -0.000566 -0.002058 0.007074 -0.011757 0.016968 -0.007555
# 6 0.002513 0.000996 -0.017448 0.014561 -0.007555 0.054738
#
#
# Mechanical properties :
#
#
# Convention : Reuss Voigt Hill
#
# Bulk Modulus (GPa) = 21.43165 33.44298 27.43731
# Shear Modulus (GPa) = 18.96563 35.90147 27.43355
#
# Velocity S-wave (km/s) = 2.81593 3.87431 3.38672
# Velocity P-wave (km/s) = 4.41963 5.83062 5.17345
#
# Compressibility (1/GPa) = 0.04665997
#
# Stress axis : x y z
#
# Youngs Moduli (GPa) = 95.84486 37.10119 43.09002
#
# Poissons Ratio (x) = -0.06357 0.25953
# Poissons Ratio (y) = -0.16422 0.11451
# Poissons Ratio (z) = 0.57728 0.09859
#
# Static dielectric constant tensor:
#      x y z
#    x 1.979790 0.010040 -0.037660 
#    y 0.010040 2.025430 -0.074940 
#    z -0.037660 -0.074940 2.019370 
# 
# From -- ./inp_files/557544.got.cif
#   From: 2010.05.17/outbox.cif.g08.bks.cpg/sg2_279_cif.got.tgz:557544.got - 2010.06.03 11:33:40.
