data_PCOD9005971
_publ_section_title
;
Structure prediction by ZEFSAII (Michael W. Deem and Ramdas Pophale) SiO2 
 PCOD9005971
Probable space group: P -1
;
_chemical_formula_sum "Si O2"
_cell_formula_units_Z 16
_cell_length_a 11.790510
_cell_length_b 15.946339
_cell_length_c 9.562394
_cell_angle_alpha 96.143104
_cell_angle_beta 41.060974
_cell_angle_gamma 66.119206
_cell_volume 785.311585
_symmetry_space_group_name_H-M "P -1"
_symmetry_group_IT_number 2
_symmetry_cell_setting 'triclinic'
loop_
_space_group_symop_operation_xyz
x,y,z
-x,-y,-z
loop_
_atom_site_type_symbol
_atom_site_label
_atom_site_fract_x
_atom_site_fract_y
_atom_site_fract_z
Si Si1 0.956022 0.245575 0.661555
Si Si2 0.322087 0.260826 0.935405
Si Si3 0.382985 0.232807 0.283205
Si Si4 0.845593 0.643066 0.197086
Si Si5 0.756259 0.029376 0.695997
Si Si6 0.783483 0.382169 0.583067
Si Si7 0.300387 0.408668 0.180362
Si Si8 0.355219 0.556271 0.792511
O O1 0.122201 0.272581 0.507590
O O2 0.830797 0.289872 0.631391
O O3 0.138811 0.099062 0.471981
O O4 0.752246 0.325884 0.992734
O O5 0.295051 0.272544 0.796166
O O6 0.560321 0.131209 0.773121
O O7 0.342254 0.351489 0.980924
O O8 0.054742 0.314735 0.249537
O O9 0.354220 0.279657 0.474082
O O10 0.423806 0.299012 0.157266
O O11 0.597629 0.090056 0.000852
O O12 0.000000 0.500000 0.000000
O O13 0.084639 0.613051 0.015906
O O14 0.000000 0.000000 0.500000
O O15 0.680538 0.500530 0.786971
O O16 0.569610 0.440042 0.676608
O O17 0.000000 0.500000 0.500000
O O18 0.500000 0.500000 0.500000
#
# Coordination Sequence:
#
# PCOD9005971 Si02
#       8
#     2   2   2   2   2   2   2   2
#     4  11  23  40  65  92 125 169 215 264 305 376
#     4  10  21  38  64  90 127 167 209 254 326 364
#     4  10  21  39  62  92 122 168 215 252 312 375
#     4  11  23  39  65  94 134 168 202 255 328 393
#     4  11  25  43  66  89 123 167 227 266 308 364
#     4  11  20  38  64  95 130 161 212 266 315 376
#     4   9  16  32  62  89 117 158 203 260 308 360
#     4  11  25  39  59  99 133 162 201 258 330 377
#
# _framework density 20.374079999999999
#
# number of rings (size 3 to 8) (size 9 to 14) (size 15 to 20)
#    0.000    1.500    5.000    2.250    5.250    1.000 
#    0.000    4.375    0.000    0.000    0.000    0.000 
#    0.000    0.000    0.000    0.000    0.000    0.000 
#
# Total GULP energy -89088.893713 kJ/mol
# GULP energy per Si atom -5568.055857 kJ/mol
# Density = 2.032771 g / cm^3
# Si number density = 20.374080 Si / 1000 Ang^3
#
#
#
# Elastic Constant Matrix: (Units=GPa)
#
#
# Indices 1 2 3 4 5 6 
#
# 1 120.7305 53.0130 38.4565 -0.2451 7.3004 -31.5779
# 2 53.0130 89.1742 40.5704 15.6959 12.6715 -17.3305
# 3 38.4565 40.5704 129.0937 -0.2575 23.9231 -22.2825
# 4 -0.2451 15.6959 -0.2575 32.7787 -2.3716 -0.6872
# 5 7.3004 12.6715 23.9231 -2.3716 42.9435 -3.4912
# 6 -31.5779 -17.3305 -22.2825 -0.6872 -3.4912 37.0833
#
#
#
# Elastic Compliance Matrix: (Units=1/GPa)
#
#
# Indices 1 2 3 4 5 6 
#
# 1 0.013645 -0.007042 -0.000624 0.003709 0.000970 0.008113
# 2 -0.007042 0.019078 -0.003257 -0.009427 -0.003098 0.000496
# 3 -0.000624 -0.003257 0.010426 0.001402 -0.004352 0.003828
# 4 0.003709 -0.009427 0.001402 0.035316 0.003367 0.000567
# 5 0.000970 -0.003098 -0.004352 0.003367 0.026592 -0.000671
# 6 0.008113 0.000496 0.003828 0.000567 -0.000671 0.036354
#
#
# Mechanical properties :
#
#
# Convention : Reuss Voigt Hill
#
# Bulk Modulus (GPa) = 46.94028 67.00869 56.97449
# Shear Modulus (GPa) = 29.35022 36.35834 32.85428
#
# Velocity S-wave (km/s) = 3.79960 4.22896 4.02002
# Velocity P-wave (km/s) = 6.50680 7.53698 7.04076
#
# Compressibility (1/GPa) = 0.02130367
#
# Stress axis : x y z
#
# Youngs Moduli (GPa) = 73.28912 52.41609 95.91703
#
# Poissons Ratio (x) = 0.36910 0.05981
# Poissons Ratio (y) = 0.51609 0.31240
# Poissons Ratio (z) = 0.04570 0.17072
#
# Static dielectric constant tensor:
#      x y z
#    x 1.849440 0.098760 -0.013340 
#    y 0.098760 1.728610 -0.037890 
#    z -0.013340 -0.037890 1.806390 
# 
# From -- ./inp_files/279481.got.cif
#   From: 2010.05.17/outbox.cif.g08.bks.cpg/sg2_140_cif.got.tgz:279481.got - 2010.06.03 11:33:40.
