data_PCOD9005624
_publ_section_title
;
Structure prediction by ZEFSAII (Michael W. Deem and Ramdas Pophale) SiO2 
 PCOD9005624
Probable space group: P -1
;
_chemical_formula_sum "Si O2"
_cell_formula_units_Z 16
_cell_length_a 11.365158
_cell_length_b 14.303011
_cell_length_c 14.325069
_cell_angle_alpha 133.944325
_cell_angle_beta 148.198854
_cell_angle_gamma 65.741713
_cell_volume 779.128790
_symmetry_space_group_name_H-M "P -1"
_symmetry_group_IT_number 2
_symmetry_cell_setting 'triclinic'
loop_
_space_group_symop_operation_xyz
x,y,z
-x,-y,-z
loop_
_atom_site_type_symbol
_atom_site_label
_atom_site_fract_x
_atom_site_fract_y
_atom_site_fract_z
Si Si1 0.699479 0.581034 0.460037
Si Si2 0.497694 0.289114 0.215622
Si Si3 0.624378 0.683483 0.052171
Si Si4 0.796959 0.201826 0.483732
Si Si5 0.653438 0.950387 0.355588
Si Si6 0.966742 0.172200 0.866697
Si Si7 0.109549 0.885909 0.006673
Si Si8 0.744847 0.349398 0.730977
O O1 0.690660 0.463011 0.449854
O O2 0.480659 0.621971 0.368872
O O3 0.952187 0.733884 0.738232
O O4 0.600320 0.482727 0.230555
O O5 0.638082 0.200035 0.285303
O O6 0.380094 0.246197 0.003217
O O7 0.263412 0.264221 0.106115
O O8 0.594051 0.784886 0.179098
O O9 0.902902 0.698607 0.260102
O O10 0.701443 0.275810 0.549562
O O11 0.753540 0.051185 0.399660
O O12 0.855678 0.024145 0.626251
O O13 0.397753 0.952412 0.215437
O O14 0.811543 0.252136 0.778729
O O15 0.919777 0.148593 0.927387
O O16 0.000000 0.000000 0.000000
O O17 0.000000 0.500000 0.000000
#
# Coordination Sequence:
#
# PCOD9005624 Si02
#       8
#     2   2   2   2   2   2   2   2
#     4  10  22  39  62  95 128 161 208 269 312 373
#     4  10  21  38  63 101 119 164 205 268 325 359
#     4  10  22  42  62  97 127 164 210 267 320 372
#     4  11  21  37  65  95 130 163 211 265 320 373
#     4  11  23  43  62  88 135 173 206 259 311 389
#     4  11  22  40  66  93 124 166 216 263 319 370
#     4  12  26  43  62  92 127 173 219 256 311 384
#     4  11  17  34  63  93 127 155 201 269 318 358
#
# _framework density 20.535758000000001
#
# number of rings (size 3 to 8) (size 9 to 14) (size 15 to 20)
#    0.750    0.500    5.000    3.750    1.750    2.000 
#    2.250    0.000    0.000    3.750    0.000    0.000 
#    0.000    0.000    0.000    0.000    0.000    0.000 
#
# Total GULP energy -89266.068135 kJ/mol
# GULP energy per Si atom -5579.129258 kJ/mol
# Density = 2.048902 g / cm^3
# Si number density = 20.535758 Si / 1000 Ang^3
#
#
#
# Elastic Constant Matrix: (Units=GPa)
#
#
# Indices 1 2 3 4 5 6 
#
# 1 288.3816 484.9277 169.8628 -230.1077 199.8103 -117.7164
# 2 484.9277 840.1023 338.1235 -403.2792 343.8122 -202.5257
# 3 169.8628 338.1235 190.1613 -141.2110 147.5397 -76.6813
# 4 -230.1077 -403.2792 -141.2110 242.0627 -182.5383 89.9700
# 5 199.8103 343.8122 147.5397 -182.5383 179.4187 -74.5579
# 6 -117.7164 -202.5257 -76.6813 89.9700 -74.5579 67.8422
#
#
#
# Elastic Compliance Matrix: (Units=1/GPa)
#
#
# Indices 1 2 3 4 5 6 
#
# 1 -0.073713 0.076627 -0.058263 0.043404 0.033030 0.013732
# 2 0.076627 -0.054387 0.043436 -0.024950 -0.037334 0.011753
# 3 -0.058263 0.043436 -0.017238 0.015643 0.012693 0.002292
# 4 0.043404 -0.024950 0.015643 0.011619 -0.000514 0.002537
# 5 0.033030 -0.037334 0.012693 -0.000514 0.024144 -0.012577
# 6 0.013732 0.011753 0.002292 0.002537 -0.012577 0.059058
#
#
# Mechanical properties :
#
#
# Convention : Reuss Voigt Hill
#
# Bulk Modulus (GPa) = -46.00121 367.16370 160.58124
# Shear Modulus (GPa) = -27.56903 119.58013 46.00555
#
# Velocity S-wave (km/s) = -3.66797 7.63915 4.73828
# Velocity P-wave (km/s) = 6.35515 16.03089 10.40676
#
# Compressibility (1/GPa) = -0.02173856
#
# Stress axis : x y z
#
# Youngs Moduli (GPa) = -13.56617 -18.38660 -58.01156
#
# Poissons Ratio (x) = 1.40891 -3.37995
# Poissons Ratio (y) = 1.03954 2.51979
# Poissons Ratio (z) = -0.79041 0.79864
#
# Static dielectric constant tensor:
#      x y z
#    x 1.718260 0.021560 -0.049710 
#    y 0.021560 1.892530 -0.147040 
#    z -0.049710 -0.147040 1.978760 
# 
# From -- ./inp_files/522458.got.cif
#   From: 2010.05.17/outbox.cif.g08.bks.cpg/sg2_262_cif.got.tgz:522458.got - 2010.06.03 11:33:40.
