data_PCOD9005503
_publ_section_title
;
Structure prediction by ZEFSAII (Michael W. Deem and Ramdas Pophale) SiO2 
 PCOD9005503
Probable space group: P -1
;
_chemical_formula_sum "Si O2"
_cell_formula_units_Z 14
_cell_length_a 9.252910
_cell_length_b 12.377716
_cell_length_c 21.621638
_cell_angle_alpha 39.983307
_cell_angle_beta 152.004368
_cell_angle_gamma 137.527030
_cell_volume 731.467336
_symmetry_space_group_name_H-M "P -1"
_symmetry_group_IT_number 2
_symmetry_cell_setting 'triclinic'
loop_
_space_group_symop_operation_xyz
x,y,z
-x,-y,-z
loop_
_atom_site_type_symbol
_atom_site_label
_atom_site_fract_x
_atom_site_fract_y
_atom_site_fract_z
Si Si1 0.116190 0.834882 0.589890
Si Si2 0.344038 0.120359 0.075817
Si Si3 0.800147 0.474097 0.662402
Si Si4 0.280188 0.275975 0.107790
Si Si5 0.458943 0.825300 0.099962
Si Si6 0.348508 0.186987 0.684960
Si Si7 0.379897 0.360962 0.873177
O O1 0.491257 0.844485 0.724726
O O2 0.989862 0.668257 0.659341
O O3 0.950464 0.790517 0.479279
O O4 0.000000 0.000000 0.500000
O O5 0.343324 0.265089 0.063270
O O6 0.568217 0.989018 0.231923
O O7 0.427639 0.207781 0.003389
O O8 0.000000 0.000000 0.000000
O O9 0.500000 0.500000 0.500000
O O10 0.643953 0.344377 0.713715
O O11 0.028892 0.385013 0.746305
O O12 0.396710 0.463161 0.098168
O O13 0.910945 0.217503 0.004670
O O14 0.660897 0.833457 0.235716
O O15 0.555775 0.686154 0.151433
O O16 0.500000 0.000000 0.000000
#
# Coordination Sequence:
#
# PCOD9005503 Si02
#       7
#     2   2   2   2   2   2   2
#     4  10  21  38  62  91 123 151 198 257 305 346
#     4  12  19  35  65  91 118 155 208 255 292 350
#     4   9  20  37  62  87 117 156 202 244 293 353
#     4  11  23  39  60  91 120 157 204 257 304 348
#     4  12  24  40  62  87 125 165 203 241 302 374
#     4  11  21  39  61  94 119 158 205 244 299 359
#     4  11  22  38  58  93 125 158 198 254 303 353
#
# _framework density 19.139610999999999
#
# number of rings (size 3 to 8) (size 9 to 14) (size 15 to 20)
#    0.000    1.143    5.714    0.857    0.000    1.143 
#    0.000    7.143    0.000    0.000    0.000    0.000 
#    0.000    0.000    0.000    0.000    0.000    0.000 
#
# Total GULP energy -78052.170321 kJ/mol
# GULP energy per Si atom -5575.155023 kJ/mol
# Density = 1.909605 g / cm^3
# Si number density = 19.139611 Si / 1000 Ang^3
#
#
#
# Elastic Constant Matrix: (Units=GPa)
#
#
# Indices 1 2 3 4 5 6 
#
# 1 93.4243 25.9050 15.8708 3.4827 -22.4576 -16.3630
# 2 25.9050 58.3372 5.3163 -9.9073 -10.4816 -16.8007
# 3 15.8708 5.3163 85.5567 6.5939 -9.5208 4.8751
# 4 3.4827 -9.9073 6.5939 38.1941 -2.0205 -1.0528
# 5 -22.4576 -10.4816 -9.5208 -2.0205 26.7338 2.8317
# 6 -16.3630 -16.8007 4.8751 -1.0528 2.8317 30.1909
#
#
#
# Elastic Compliance Matrix: (Units=1/GPa)
#
#
# Indices 1 2 3 4 5 6 
#
# 1 0.015492 -0.003424 -0.001738 -0.001295 0.010345 0.005756
# 2 -0.003424 0.024449 -0.001522 0.007531 0.005492 0.011743
# 3 -0.001738 -0.001522 0.012841 -0.002422 0.002779 -0.004208
# 4 -0.001295 0.007531 -0.002422 0.028942 0.002699 0.004636
# 5 0.010345 0.005492 0.002779 0.002699 0.049050 0.003708
# 6 0.005756 0.011743 -0.004208 0.004636 0.003708 0.043270
#
#
# Mechanical properties :
#
#
# Convention : Reuss Voigt Hill
#
# Bulk Modulus (GPa) = 25.37310 36.83360 31.10335
# Shear Modulus (GPa) = 24.93141 31.70549 28.31845
#
# Velocity S-wave (km/s) = 3.61308 4.07447 3.85069
# Velocity P-wave (km/s) = 5.53999 6.43596 6.00471
#
# Compressibility (1/GPa) = 0.03941182
#
# Stress axis : x y z
#
# Youngs Moduli (GPa) = 64.55071 40.90201 77.87668
#
# Poissons Ratio (x) = 0.14007 0.13535
# Poissons Ratio (y) = 0.22105 0.11855
# Poissons Ratio (z) = 0.11219 0.06227
#
# Static dielectric constant tensor:
#      x y z
#    x 1.660570 0.007990 -0.013570 
#    y 0.007990 1.649810 0.003900 
#    z -0.013570 0.003900 1.701220 
# 
# From -- ./inp_files/195282.got.cif
#   From: 2010.05.17/outbox.cif.g08.bks.cpg/sg2_98_cif.got.tgz:195282.got - 2010.06.03 11:33:40.
