data_PCOD9005801
_publ_section_title
;
Structure prediction by ZEFSAII (Michael W. Deem and Ramdas Pophale) SiO2 
 PCOD9005801
Probable space group: P -1
;
_chemical_formula_sum "Si O2"
_cell_formula_units_Z 16
_cell_length_a 10.596601
_cell_length_b 7.320700
_cell_length_c 10.949614
_cell_angle_alpha 102.078754
_cell_angle_beta 73.215588
_cell_angle_gamma 130.464136
_cell_volume 618.432914
_symmetry_space_group_name_H-M "P -1"
_symmetry_group_IT_number 2
_symmetry_cell_setting 'triclinic'
loop_
_space_group_symop_operation_xyz
x,y,z
-x,-y,-z
loop_
_atom_site_type_symbol
_atom_site_label
_atom_site_fract_x
_atom_site_fract_y
_atom_site_fract_z
Si Si1 0.082708 0.187433 0.157102
Si Si2 0.191185 0.830015 0.317364
Si Si3 0.685816 0.656955 0.628563
Si Si4 0.859702 0.434462 0.208039
Si Si5 0.786210 0.026391 0.035937
Si Si6 0.313629 0.387097 0.635533
Si Si7 0.396566 0.677778 0.165607
Si Si8 0.162514 0.849435 0.609778
O O1 0.240525 0.451213 0.099343
O O2 0.909797 0.051951 0.109598
O O3 0.019992 0.225690 0.307220
O O4 0.151672 0.039301 0.104482
O O5 0.354197 0.854813 0.233449
O O6 0.160265 0.767705 0.462219
O O7 0.043883 0.623246 0.241896
O O8 0.201263 0.062065 0.338640
O O9 0.510385 0.597475 0.625845
O O10 0.749830 0.613048 0.482228
O O11 0.628932 0.472321 0.727328
O O12 0.831552 0.284399 0.075276
O O13 0.782442 0.569344 0.236541
O O14 0.774536 0.237590 0.315646
O O15 0.585370 0.823879 0.082139
O O16 0.278901 0.137129 0.620493
#
# Coordination Sequence:
#
# PCOD9005801 Si02
#       8
#     2   2   2   2   2   2   2   2
#     4  10  22  40  66  93 123 166 218 256 312 371
#     4  11  23  36  63 100 128 161 207 255 322 381
#     4  10  23  37  57  96 129 164 208 254 316 385
#     4  11  21  37  63  87 127 165 204 259 310 370
#     4  10  22  42  64  95 122 167 217 261 307 369
#     4  10  22  38  59  90 132 166 205 258 314 376
#     4  12  22  41  70  91 128 167 207 265 316 371
#     4  10  21  38  63  94 125 165 208 254 316 379
#
# _framework density 25.871845
#
# number of rings (size 3 to 8) (size 9 to 14) (size 15 to 20)
#    0.000    1.500    2.500    3.750    3.500    1.000 
#    0.000    7.500    0.000    6.750    0.000    0.000 
#    0.000    0.000    0.000    0.000    0.000    0.000 
#
# Total GULP energy -89425.729542 kJ/mol
# GULP energy per Si atom -5589.108096 kJ/mol
# Density = 2.581296 g / cm^3
# Si number density = 25.871845 Si / 1000 Ang^3
#
#
#
# Elastic Constant Matrix: (Units=GPa)
#
#
# Indices 1 2 3 4 5 6 
#
# 1 41.7268 10.3127 19.0389 -2.1214 -19.5642 -1.0613
# 2 10.3127 110.5401 20.8734 3.1594 -12.9033 10.0476
# 3 19.0389 20.8734 102.3783 13.1710 -25.5127 8.8589
# 4 -2.1214 3.1594 13.1710 40.5296 -6.5561 -10.4966
# 5 -19.5642 -12.9033 -25.5127 -6.5561 47.9593 -3.2884
# 6 -1.0613 10.0476 8.8589 -10.4966 -3.2884 50.3565
#
#
#
# Elastic Compliance Matrix: (Units=1/GPa)
#
#
# Indices 1 2 3 4 5 6 
#
# 1 0.031899 -0.001390 -0.003805 0.005832 0.011658 0.003596
# 2 -0.001390 0.009726 -0.001172 -0.000732 0.001200 -0.001838
# 3 -0.003805 -0.001172 0.012486 -0.004204 0.004018 -0.002657
# 4 0.005832 -0.000732 -0.004204 0.029018 0.004416 0.007346
# 5 0.011658 0.001200 0.004018 0.004416 0.028815 0.002102
# 6 0.003596 -0.001838 -0.002657 0.007346 0.002102 0.022437
#
#
# Mechanical properties :
#
#
# Convention : Reuss Voigt Hill
#
# Bulk Modulus (GPa) = 24.16829 39.45500 31.81164
# Shear Modulus (GPa) = 31.07373 41.39711 36.23542
#
# Velocity S-wave (km/s) = 3.46940 4.00444 3.74648
# Velocity P-wave (km/s) = 5.04091 6.05508 5.57112
#
# Compressibility (1/GPa) = 0.04137654
#
# Stress axis : x y z
#
# Youngs Moduli (GPa) = 31.34877 102.82184 80.08832
#
# Poissons Ratio (x) = 0.14294 0.30473
# Poissons Ratio (y) = 0.04358 0.09388
# Poissons Ratio (z) = 0.11928 0.12052
#
# Static dielectric constant tensor:
#      x y z
#    x 2.083840 0.001810 0.086300 
#    y 0.001810 2.049340 0.008180 
#    z 0.086300 0.008180 2.111940 
# 
# From -- ./inp_files/516092.got.cif
#   From: 2010.05.17/outbox.cif.g08.bks.cpg/sg2_259_cif.got.tgz:516092.got - 2010.06.03 11:33:40.
