data_PCOD9005875
_publ_section_title
;
Structure prediction by ZEFSAII (Michael W. Deem and Ramdas Pophale) SiO2 
 PCOD9005875
Probable space group: P -1
;
_chemical_formula_sum "Si O2"
_cell_formula_units_Z 16
_cell_length_a 9.424597
_cell_length_b 5.093817
_cell_length_c 18.513216
_cell_angle_alpha 110.597511
_cell_angle_beta 114.930316
_cell_angle_gamma 91.002365
_cell_volume 739.904022
_symmetry_space_group_name_H-M "P -1"
_symmetry_group_IT_number 2
_symmetry_cell_setting 'triclinic'
loop_
_space_group_symop_operation_xyz
x,y,z
-x,-y,-z
loop_
_atom_site_type_symbol
_atom_site_label
_atom_site_fract_x
_atom_site_fract_y
_atom_site_fract_z
Si Si1 0.604135 0.629350 0.965608
Si Si2 0.187769 0.789395 0.989095
Si Si3 0.688650 0.013336 0.541991
Si Si4 0.454720 0.587238 0.222776
Si Si5 0.886702 0.230540 0.484125
Si Si6 0.380590 0.555686 0.617327
Si Si7 0.304208 0.074159 0.302859
Si Si8 0.121660 0.161294 0.143477
O O1 0.670177 0.965123 0.991936
O O2 0.517116 0.476605 0.860681
O O3 0.760113 0.498094 0.002401
O O4 0.500000 0.500000 0.000000
O O5 0.130871 0.916059 0.063342
O O6 0.040244 0.734448 0.897500
O O7 0.699615 0.727048 0.471381
O O8 0.739715 0.032839 0.637330
O O9 0.500000 0.000000 0.500000
O O10 0.801040 0.260840 0.545219
O O11 0.586799 0.515551 0.299415
O O12 0.284160 0.384860 0.183965
O O13 0.409935 0.889970 0.261303
O O14 0.729568 0.208523 0.396313
O O15 0.000000 0.500000 0.500000
O O16 0.000000 0.000000 0.500000
O O17 0.560322 0.640727 0.632008
O O18 0.148993 0.081733 0.223633
#
# Coordination Sequence:
#
# PCOD9005875 Si02
#       8
#     2   2   2   2   2   2   2   2
#     4  11  23  41  64  93 127 174 221 256 314 400
#     4  10  21  39  65  90 126 169 206 264 328 388
#     4  12  23  40  70 101 129 176 233 283 331 394
#     4  10  21  38  63  98 131 164 217 274 326 385
#     4  12  26  45  66  94 134 179 221 270 343 403
#     4  11  22  41  68  97 132 176 224 277 337 391
#     4  11  21  37  65 101 132 160 226 285 327 388
#     4   9  21  35  62  94 129 160 207 268 340 377
#
# _framework density 21.624428000000002
#
# number of rings (size 3 to 8) (size 9 to 14) (size 15 to 20)
#    0.000    1.250    5.000    0.750    1.750    1.500 
#    0.000    2.500    0.000    0.000    0.000    0.000 
#    0.000    0.000    0.000    0.000    0.000    0.000 
#
# Total GULP energy -89182.659578 kJ/mol
# GULP energy per Si atom -5573.916224 kJ/mol
# Density = 2.157521 g / cm^3
# Si number density = 21.624428 Si / 1000 Ang^3
#
#
#
# Elastic Constant Matrix: (Units=GPa)
#
#
# Indices 1 2 3 4 5 6 
#
# 1 73.2127 15.8329 24.5373 -14.0370 -3.1334 12.8599
# 2 15.8329 80.0395 27.5556 -19.6707 1.3120 2.3065
# 3 24.5373 27.5556 117.7070 -32.5352 -0.7587 6.4698
# 4 -14.0370 -19.6707 -32.5352 35.8288 0.3950 0.2959
# 5 -3.1334 1.3120 -0.7587 0.3950 37.1069 -22.3682
# 6 12.8599 2.3065 6.4698 0.2959 -22.3682 35.8342
#
#
#
# Elastic Compliance Matrix: (Units=1/GPa)
#
#
# Indices 1 2 3 4 5 6 
#
# 1 0.016512 -0.001387 -0.001488 0.004455 -0.003227 -0.007619
# 2 -0.001387 0.014870 -0.001367 0.006405 -0.001441 -0.001165
# 3 -0.001488 -0.001367 0.011877 0.009488 -0.001444 -0.002502
# 4 0.004455 0.006405 0.009488 0.041888 -0.004097 -0.006628
# 5 -0.003227 -0.001441 -0.001444 -0.004097 0.044368 0.029241
# 6 -0.007619 -0.001165 -0.002502 -0.006628 0.029241 0.049474
#
#
# Mechanical properties :
#
#
# Convention : Reuss Voigt Hill
#
# Bulk Modulus (GPa) = 28.75617 45.20120 36.97869
# Shear Modulus (GPa) = 25.11754 35.28952 30.20353
#
# Velocity S-wave (km/s) = 3.41183 4.04410 3.74134
# Velocity P-wave (km/s) = 5.37100 6.53869 5.98340
#
# Compressibility (1/GPa) = 0.03477515
#
# Stress axis : x y z
#
# Youngs Moduli (GPa) = 60.56302 67.24933 84.19889
#
# Poissons Ratio (x) = 0.09325 0.12529
# Poissons Ratio (y) = 0.08398 0.11509
# Poissons Ratio (z) = 0.09012 0.09192
#
# Static dielectric constant tensor:
#      x y z
#    x 1.815080 -0.007830 0.003840 
#    y -0.007830 1.854880 -0.037920 
#    z 0.003840 -0.037920 1.803230 
# 
# From -- ./inp_files/105175.got.cif
#   From: 2010.05.17/outbox.cif.g08.bks.cpg/sg2_53_cif.got.tgz:105175.got - 2010.06.03 11:33:40.
