data_PCOD9005479
_publ_section_title
;
Structure prediction by ZEFSAII (Michael W. Deem and Ramdas Pophale) SiO2 
 PCOD9005479
Probable space group: P -1
;
_chemical_formula_sum "Si O2"
_cell_formula_units_Z 16
_cell_length_a 9.663173
_cell_length_b 34.977534
_cell_length_c 13.332668
_cell_angle_alpha 23.917433
_cell_angle_beta 48.387330
_cell_angle_gamma 32.079908
_cell_volume 832.898543
_symmetry_space_group_name_H-M "P -1"
_symmetry_group_IT_number 2
_symmetry_cell_setting 'triclinic'
loop_
_space_group_symop_operation_xyz
x,y,z
-x,-y,-z
loop_
_atom_site_type_symbol
_atom_site_label
_atom_site_fract_x
_atom_site_fract_y
_atom_site_fract_z
Si Si1 0.730996 0.174234 0.255347
Si Si2 0.226576 0.618901 0.424585
Si Si3 0.715529 0.779443 0.723592
Si Si4 0.679778 0.434281 0.173304
Si Si5 0.491591 0.364513 0.594597
Si Si6 0.674687 0.587362 0.969563
Si Si7 0.207634 0.141529 0.091101
Si Si8 0.806317 0.714051 0.068898
O O1 0.448532 0.255732 0.127596
O O2 0.900731 0.204949 0.101733
O O3 0.572693 0.238209 0.288182
O O4 0.000000 0.000000 0.500000
O O5 0.500000 0.500000 0.500000
O O6 0.297250 0.683970 0.300253
O O7 0.260381 0.516172 0.727222
O O8 0.900377 0.753564 0.203777
O O9 0.980149 0.683250 0.745984
O O10 0.475854 0.958915 0.384870
O O11 0.811647 0.745511 0.875211
O O12 0.630290 0.359695 0.441303
O O13 0.569305 0.566946 0.975446
O O14 0.500000 0.500000 0.000000
O O15 0.428340 0.278692 0.826423
O O16 0.148724 0.543972 0.340487
O O17 0.000000 0.500000 0.000000
O O18 0.276407 0.173802 0.079215
#
# Coordination Sequence:
#
# PCOD9005479 Si02
#       8
#     2   2   2   2   2   2   2   2
#     4  10  21  38  62  90 126 159 200 254 308 361
#     4  11  20  37  63  85 120 159 205 257 298 363
#     4  11  23  38  63  89 125 162 204 252 314 370
#     4  11  22  40  61  89 126 163 198 256 311 367
#     4  10  22  36  60  91 117 153 209 253 308 356
#     4  11  22  37  63  94 120 155 212 252 304 367
#     4  11  22  39  62  90 122 162 211 254 308 360
#     4  11  21  37  61  91 119 158 204 259 303 364
#
# _framework density 19.210023
#
# number of rings (size 3 to 8) (size 9 to 14) (size 15 to 20)
#    0.000    1.250    5.000    1.875    0.000    1.000 
#    0.000    3.125    5.500    0.000    0.000    0.000 
#    0.000    0.000    0.000    0.000    0.000    0.000 
#
# Total GULP energy -89151.558131 kJ/mol
# GULP energy per Si atom -5571.972383 kJ/mol
# Density = 1.916630 g / cm^3
# Si number density = 19.210023 Si / 1000 Ang^3
#
#
#
# Elastic Constant Matrix: (Units=GPa)
#
#
# Indices 1 2 3 4 5 6 
#
# 1 105.4905 40.2211 22.3231 1.5942 -11.4657 22.8428
# 2 40.2211 107.3370 21.3236 -0.1300 -14.8062 3.2734
# 3 22.3231 21.3236 38.0035 -9.5588 -8.8685 11.6401
# 4 1.5942 -0.1300 -9.5588 31.4229 -0.9883 -2.5107
# 5 -11.4657 -14.8062 -8.8685 -0.9883 27.0062 6.5142
# 6 22.8428 3.2734 11.6401 -2.5107 6.5142 38.1134
#
#
#
# Elastic Compliance Matrix: (Units=1/GPa)
#
#
# Indices 1 2 3 4 5 6 
#
# 1 0.013790 -0.003677 -0.003042 -0.002129 0.004682 -0.007961
# 2 -0.003677 0.011976 -0.004753 -0.000953 0.002910 0.002067
# 3 -0.003042 -0.004753 0.040133 0.011826 0.012459 -0.011376
# 4 -0.002129 -0.000953 0.011826 0.035602 0.003899 -0.000575
# 5 0.004682 0.002910 0.012459 0.003899 0.048436 -0.014883
# 6 -0.007961 0.002067 -0.011376 -0.000575 -0.014883 0.036811
#
#
# Mechanical properties :
#
#
# Convention : Reuss Voigt Hill
#
# Bulk Modulus (GPa) = 23.27998 46.50741 34.89369
# Shear Modulus (GPa) = 22.32031 30.43938 26.37984
#
# Velocity S-wave (km/s) = 3.41238 3.98497 3.70974
# Velocity P-wave (km/s) = 5.26030 6.74061 6.04593
#
# Compressibility (1/GPa) = 0.04295537
#
# Stress axis : x y z
#
# Youngs Moduli (GPa) = 72.51631 83.50109 24.91687
#
# Poissons Ratio (x) = 0.30704 0.07579
# Poissons Ratio (y) = 0.26665 0.11844
# Poissons Ratio (z) = 0.22056 0.39691
#
# Static dielectric constant tensor:
#      x y z
#    x 1.702950 0.000250 -0.018220 
#    y 0.000250 1.691120 0.015200 
#    z -0.018220 0.015200 1.742640 
# 
# From -- ./inp_files/205318.got.cif
#   From: 2010.05.17/outbox.cif.g08.bks.cpg/sg2_103_cif.got.tgz:205318.got - 2010.06.03 11:33:40.
