data_PCOD9005743
_publ_section_title
;
Structure prediction by ZEFSAII (Michael W. Deem and Ramdas Pophale) SiO2 
 PCOD9005743
Probable space group: P -1
;
_chemical_formula_sum "Si O2"
_cell_formula_units_Z 16
_cell_length_a 17.733543
_cell_length_b 7.754496
_cell_length_c 17.774642
_cell_angle_alpha 134.730392
_cell_angle_beta 23.857674
_cell_angle_gamma 132.924606
_cell_volume 696.371624
_symmetry_space_group_name_H-M "P -1"
_symmetry_group_IT_number 2
_symmetry_cell_setting 'triclinic'
loop_
_space_group_symop_operation_xyz
x,y,z
-x,-y,-z
loop_
_atom_site_type_symbol
_atom_site_label
_atom_site_fract_x
_atom_site_fract_y
_atom_site_fract_z
Si Si1 0.599229 0.247169 0.521965
Si Si2 0.488886 0.647066 0.631536
Si Si3 0.984077 0.488984 0.262826
Si Si4 0.147158 0.047097 0.561687
Si Si5 0.984867 0.758669 0.493645
Si Si6 0.584403 0.708078 0.926555
Si Si7 0.760267 0.008818 0.983284
Si Si8 0.371301 0.422616 0.913911
O O1 0.535671 0.463254 0.596368
O O2 0.824709 0.265002 0.323053
O O3 0.531053 0.317766 0.687979
O O4 0.500000 0.000000 0.500000
O O5 0.500000 0.500000 0.500000
O O6 0.653973 0.876995 0.557577
O O7 0.292517 0.746839 0.855590
O O8 0.908136 0.719843 0.363490
O O9 0.003448 0.546922 0.352077
O O10 0.193328 0.463724 0.038133
O O11 0.136351 0.827889 0.443137
O O12 0.974961 0.003244 0.762962
O O13 0.787871 0.695486 0.698064
O O14 0.000000 0.000000 0.500000
O O15 0.445587 0.665202 0.968717
O O16 0.500000 0.500000 0.000000
O O17 0.630452 0.952702 0.009472
O O18 0.701638 0.790233 0.026950
#
# Coordination Sequence:
#
# PCOD9005743 Si02
#       8
#     2   2   2   2   2   2   2   2
#     4  11  24  43  64  90 124 162 213 261 305 370
#     4  11  24  42  65  88 118 167 209 254 308 364
#     4  10  21  38  63  92 122 160 206 258 311 368
#     4   9  21  40  59  90 123 157 205 253 308 369
#     4   9  17  36  60  89 126 162 205 256 312 376
#     4   9  19  37  57  91 132 167 203 254 315 378
#     4  10  22  40  59  91 127 162 203 249 309 374
#     4  11  22  38  63  93 126 164 204 256 312 371
#
# _framework density 22.976237999999999
#
# number of rings (size 3 to 8) (size 9 to 14) (size 15 to 20)
#    0.000    2.000    1.250    1.500    1.750    3.000 
#    0.000    4.375    0.000    0.000    0.000    0.000 
#    0.000    0.000    0.000    0.000    0.000    0.000 
#
# Total GULP energy -89378.400857 kJ/mol
# GULP energy per Si atom -5586.150054 kJ/mol
# Density = 2.292394 g / cm^3
# Si number density = 22.976238 Si / 1000 Ang^3
#
#
#
# Elastic Constant Matrix: (Units=GPa)
#
#
# Indices 1 2 3 4 5 6 
#
# 1 61.8298 23.6387 15.0269 -7.6315 10.8064 3.6362
# 2 23.6387 74.4862 16.5959 -10.2053 1.5788 8.9332
# 3 15.0269 16.5959 58.4652 -11.4097 8.1083 -10.0756
# 4 -7.6315 -10.2053 -11.4097 38.0077 0.5029 -1.7764
# 5 10.8064 1.5788 8.1083 0.5029 40.5895 -4.8190
# 6 3.6362 8.9332 -10.0756 -1.7764 -4.8190 28.3686
#
#
#
# Elastic Compliance Matrix: (Units=1/GPa)
#
#
# Indices 1 2 3 4 5 6 
#
# 1 0.020091 -0.004976 -0.003251 0.001651 -0.004869 -0.002887
# 2 -0.004976 0.016925 -0.004276 0.001973 0.000789 -0.005953
# 3 -0.003251 -0.004276 0.022167 0.005332 -0.002325 0.009575
# 4 0.001651 0.001973 0.005332 0.028915 -0.001632 0.002594
# 5 -0.004869 0.000789 -0.002325 -0.001632 0.026863 0.004011
# 6 -0.002887 -0.005953 0.009575 0.002594 0.004011 0.041739
#
#
# Mechanical properties :
#
#
# Convention : Reuss Voigt Hill
#
# Bulk Modulus (GPa) = 29.25993 33.92270 31.59131
# Shear Modulus (GPa) = 25.89375 30.69448 28.29411
#
# Velocity S-wave (km/s) = 3.36069 3.65899 3.51301
# Velocity P-wave (km/s) = 5.27461 5.71378 5.49858
#
# Compressibility (1/GPa) = 0.03417643
#
# Stress axis : x y z
#
# Youngs Moduli (GPa) = 49.77473 59.08583 45.11289
#
# Poissons Ratio (x) = 0.29400 0.14667
# Poissons Ratio (y) = 0.24767 0.19288
# Poissons Ratio (z) = 0.16183 0.25263
#
# Static dielectric constant tensor:
#      x y z
#    x 1.947480 0.037030 0.052600 
#    y 0.037030 1.917110 -0.008090 
#    z 0.052600 -0.008090 1.933420 
# 
# From -- ./inp_files/526018.got.cif
#   From: 2010.05.17/outbox.cif.g08.bks.cpg/sg2_264_cif.got.tgz:526018.got - 2010.06.03 11:33:40.
