data_PCOD9005953
_publ_section_title
;
Structure prediction by ZEFSAII (Michael W. Deem and Ramdas Pophale) SiO2 
 PCOD9005953
Probable space group: P -1
;
_chemical_formula_sum "Si O2"
_cell_formula_units_Z 16
_cell_length_a 26.866777
_cell_length_b 8.271136
_cell_length_c 26.143149
_cell_angle_alpha 138.252096
_cell_angle_beta 169.565101
_cell_angle_gamma 43.203327
_cell_volume 700.057585
_symmetry_space_group_name_H-M "P -1"
_symmetry_group_IT_number 2
_symmetry_cell_setting 'triclinic'
loop_
_space_group_symop_operation_xyz
x,y,z
-x,-y,-z
loop_
_atom_site_type_symbol
_atom_site_label
_atom_site_fract_x
_atom_site_fract_y
_atom_site_fract_z
Si Si1 0.241696 0.757920 0.091405
Si Si2 0.990223 0.256447 0.966706
Si Si3 0.082513 0.254969 0.498877
Si Si4 0.998208 0.183209 0.277574
Si Si5 0.512120 0.126616 0.299975
Si Si6 0.264060 0.463810 0.519916
Si Si7 0.571152 0.939024 0.919344
Si Si8 0.481292 0.663464 0.421902
O O1 0.501066 0.701607 0.305193
O O2 0.359357 0.755234 0.267292
O O3 0.097501 0.010512 0.992274
O O4 0.994237 0.553128 0.784914
O O5 0.195957 0.293116 0.231740
O O6 0.000000 0.500000 0.000000
O O7 0.684918 0.225251 0.673037
O O8 0.000000 0.500000 0.500000
O O9 0.039186 0.271946 0.398013
O O10 0.391306 0.175557 0.800338
O O11 0.882906 0.030705 0.263610
O O12 0.119090 0.370789 0.403081
O O13 0.175417 0.943035 0.393663
O O14 0.683100 0.098947 0.933260
O O15 0.462509 0.149383 0.194440
O O16 0.438147 0.372664 0.310325
O O17 0.427743 0.719809 0.753634
#
# Coordination Sequence:
#
# PCOD9005953 Si02
#       8
#     2   2   2   2   2   2   2   2
#     4  12  26  43  67  93 129 177 221 275 343 396
#     4  12  28  44  63  94 131 170 222 281 338 404
#     4  10  21  41  67  96 134 176 213 253 316 392
#     4  10  23  38  62  96 133 163 211 271 321 371
#     4  10  21  38  64  90 118 168 215 266 323 386
#     4  12  24  41  66  97 132 166 223 279 330 378
#     4  10  21  39  64  96 127 163 220 262 311 391
#     4  12  24  44  68  87 128 169 227 268 343 396
#
# _framework density 22.855262
#
# number of rings (size 3 to 8) (size 9 to 14) (size 15 to 20)
#    0.000    1.000    1.250    5.250    8.750    0.000 
#    0.000    1.250    0.000    0.000    0.000    0.000 
#    0.000    0.000    0.000    0.000    0.000    0.000 
#
# Total GULP energy -89558.875372 kJ/mol
# GULP energy per Si atom -5597.429711 kJ/mol
# Density = 2.280324 g / cm^3
# Si number density = 22.855262 Si / 1000 Ang^3
#
#
#
# Elastic Constant Matrix: (Units=GPa)
#
#
# Indices 1 2 3 4 5 6 
#
# 1 69.6972 39.4339 12.5672 -1.9202 16.9081 3.9504
# 2 39.4339 93.5411 3.3310 -0.3650 4.4510 -11.4612
# 3 12.5672 3.3310 89.1617 -5.0045 12.0398 -4.4883
# 4 -1.9202 -0.3650 -5.0045 38.5084 8.1656 14.1731
# 5 16.9081 4.4510 12.0398 8.1656 32.4818 -6.6852
# 6 3.9504 -11.4612 -4.4883 14.1731 -6.6852 27.0226
#
#
#
# Elastic Compliance Matrix: (Units=1/GPa)
#
#
# Indices 1 2 3 4 5 6 
#
# 1 0.029450 -0.014155 -0.001107 0.014284 -0.021360 -0.023269
# 2 -0.014155 0.018220 0.000238 -0.009097 0.010617 0.017234
# 3 -0.001107 0.000238 0.012125 0.002596 -0.004651 -0.000236
# 4 0.014284 -0.009097 0.002596 0.045663 -0.026019 -0.035902
# 5 -0.021360 0.010617 -0.004651 -0.026019 0.055774 0.034298
# 6 -0.023269 0.017234 -0.000236 -0.035902 0.034298 0.074994
#
#
# Mechanical properties :
#
#
# Convention : Reuss Voigt Hill
#
# Bulk Modulus (GPa) = 33.61788 40.34045 36.97916
# Shear Modulus (GPa) = 18.10344 32.74042 25.42193
#
# Velocity S-wave (km/s) = 2.81746 3.78896 3.33874
# Velocity P-wave (km/s) = 5.03241 6.06880 5.57474
#
# Compressibility (1/GPa) = 0.02974607
#
# Stress axis : x y z
#
# Youngs Moduli (GPa) = 33.95559 54.88418 82.47617
#
# Poissons Ratio (x) = 0.77687 0.09134
# Poissons Ratio (y) = 0.48063 -0.01960
# Poissons Ratio (z) = 0.03760 -0.01305
#
# Static dielectric constant tensor:
#      x y z
#    x 1.837580 0.039120 -0.016940 
#    y 0.039120 1.870120 0.017400 
#    z -0.016940 0.017400 1.810240 
# 
# From -- ./inp_files/357958.got.cif
#   From: 2010.05.17/outbox.cif.g08.bks.cpg/sg2_179_cif.got.tgz:357958.got - 2010.06.03 11:33:40.
