data_PCOD9005116
_publ_section_title
;
Structure prediction by ZEFSAII (Michael W. Deem and Ramdas Pophale) SiO2 
 PCOD9005116
Probable space group: P -1
;
_chemical_formula_sum "Si O2"
_cell_formula_units_Z 13
_cell_length_a 13.039725
_cell_length_b 12.461721
_cell_length_c 13.405661
_cell_angle_alpha 31.001648
_cell_angle_beta 150.649824
_cell_angle_gamma 148.023037
_cell_volume 503.891316
_symmetry_space_group_name_H-M "P -1"
_symmetry_group_IT_number 2
_symmetry_cell_setting 'triclinic'
loop_
_space_group_symop_operation_xyz
x,y,z
-x,-y,-z
loop_
_atom_site_type_symbol
_atom_site_label
_atom_site_fract_x
_atom_site_fract_y
_atom_site_fract_z
Si Si1 0.796425 0.424290 0.784651
Si Si2 0.749383 0.316901 0.490554
Si Si3 0.500000 0.000000 0.000000
Si Si4 0.689492 0.800692 0.511716
Si Si5 0.246202 0.083062 0.306421
Si Si6 0.211143 0.488147 0.831351
Si Si7 0.704928 0.270594 0.100306
O O1 0.726576 0.200448 0.972612
O O2 0.776335 0.633680 0.661394
O O3 0.583046 0.337737 0.596688
O O4 0.053207 0.528805 0.877590
O O5 0.519699 0.164166 0.471261
O O6 0.695109 0.460110 0.242760
O O7 0.950171 0.460722 0.618852
O O8 0.842361 0.153864 0.637359
O O9 0.506192 0.780049 0.111253
O O10 0.809942 0.899763 0.639338
O O11 0.705347 0.016668 0.282570
O O12 0.198152 0.262843 0.054145
O O13 0.342454 0.694275 0.853908
#
# Coordination Sequence:
#
# PCOD9005116 Si02
#       7
#     2   2   1   2   2   2   2
#     4  10  21  38  62  87 130 170 207 264 322 376
#     4  10  23  40  63  91 128 162 214 270 313 379
#     4  10  22  36  58  88 122 162 218 254 306 392
#     4  10  21  38  60  92 125 169 214 261 320 385
#     4  11  21  40  64  89 127 168 210 265 324 371
#     4  11  22  40  65  93 125 166 214 263 318 385
#     4  11  21  39  62  90 131 167 210 268 319 378
#
# _framework density 25.799213999999999
#
# number of rings (size 3 to 8) (size 9 to 14) (size 15 to 20)
#    0.000    1.538    1.538    3.692    0.000    0.000 
#    0.000    1.538    3.385    0.000    0.000    0.000 
#    0.000    0.000    0.000    0.000    0.000    0.000 
#
# Total GULP energy -72434.183168 kJ/mol
# GULP energy per Si atom -5571.860244 kJ/mol
# Density = 2.574049 g / cm^3
# Si number density = 25.799214 Si / 1000 Ang^3
#
#
#
# Elastic Constant Matrix: (Units=GPa)
#
#
# Indices 1 2 3 4 5 6 
#
# 1 75.2499 31.0944 16.8414 -7.7656 -11.1043 -4.6251
# 2 31.0944 115.2943 28.4590 2.1416 -12.6638 -5.9877
# 3 16.8414 28.4590 101.0842 -32.9929 -21.4732 -9.6213
# 4 -7.7656 2.1416 -32.9929 40.7866 3.6679 -18.1783
# 5 -11.1043 -12.6638 -21.4732 3.6679 26.1820 6.6941
# 6 -4.6251 -5.9877 -9.6213 -18.1783 6.6941 50.1924
#
#
#
# Elastic Compliance Matrix: (Units=1/GPa)
#
#
# Indices 1 2 3 4 5 6 
#
# 1 0.016037 -0.004119 0.001335 0.005033 0.004572 0.002455
# 2 -0.004119 0.010986 -0.004227 -0.005902 0.001494 -0.002216
# 3 0.001335 -0.004227 0.020645 0.020586 0.010094 0.009686
# 4 0.005033 -0.005902 0.020586 0.052002 0.003225 0.022109
# 5 0.004572 0.001494 0.010094 0.003225 0.049421 -0.002889
# 6 0.002455 -0.002216 0.009686 0.022109 -0.002889 0.030135
#
#
# Mechanical properties :
#
#
# Convention : Reuss Voigt Hill
#
# Bulk Modulus (GPa) = 29.71914 49.37978 39.54946
# Shear Modulus (GPa) = 24.45439 37.78111 31.11775
#
# Velocity S-wave (km/s) = 3.08210 3.83094 3.47674
# Velocity P-wave (km/s) = 4.92038 6.22492 5.61070
#
# Compressibility (1/GPa) = 0.03364835
#
# Stress axis : x y z
#
# Youngs Moduli (GPa) = 62.35583 91.02351 48.43706
#
# Poissons Ratio (x) = 0.37488 -0.06468
# Poissons Ratio (y) = 0.25681 0.20473
# Poissons Ratio (z) = -0.08326 0.38474
#
# Static dielectric constant tensor:
#      x y z
#    x 1.822490 0.528400 0.690970 
#    y 0.528400 0.770150 -1.593010 
#    z 0.690970 -1.593010 0.043170 
# 
# From -- ./inp_files/521397.got.cif
#   From: 2010.05.17/outbox.cif.g08.bks.cpg/sg2_261_cif.got.tgz:521397.got - 2010.06.03 11:33:40.
