data_PCOD9005638
_publ_section_title
;
Structure prediction by ZEFSAII (Michael W. Deem and Ramdas Pophale) SiO2 
 PCOD9005638
Probable space group: P -1
;
_chemical_formula_sum "Si O2"
_cell_formula_units_Z 16
_cell_length_a 12.433842
_cell_length_b 19.654014
_cell_length_c 20.052554
_cell_angle_alpha 157.367631
_cell_angle_beta 32.160893
_cell_angle_gamma 160.193975
_cell_volume 629.931923
_symmetry_space_group_name_H-M "P -1"
_symmetry_group_IT_number 2
_symmetry_cell_setting 'triclinic'
loop_
_space_group_symop_operation_xyz
x,y,z
-x,-y,-z
loop_
_atom_site_type_symbol
_atom_site_label
_atom_site_fract_x
_atom_site_fract_y
_atom_site_fract_z
Si Si1 0.178547 0.320946 0.734284
Si Si2 0.598349 0.073576 0.113346
Si Si3 0.588887 0.890924 0.091246
Si Si4 0.285536 0.586261 0.163865
Si Si5 0.762194 0.830593 0.611263
Si Si6 0.177195 0.317950 0.237401
Si Si7 0.873437 0.536675 0.245901
Si Si8 0.426460 0.330977 0.785810
O O1 0.937316 0.025635 0.628999
O O2 0.522893 0.453976 0.661912
O O3 0.035910 0.323559 0.748011
O O4 0.279203 0.546375 0.939731
O O5 0.559307 0.005494 0.150244
O O6 0.517996 0.221883 0.277233
O O7 0.351039 0.781948 0.940112
O O8 0.046656 0.722740 0.913450
O O9 0.834383 0.904058 0.948276
O O10 0.799796 0.112594 0.242514
O O11 0.481460 0.742682 0.270705
O O12 0.171057 0.672958 0.257458
O O13 0.450209 0.546231 0.997433
O O14 0.057291 0.047617 0.703890
O O15 0.684919 0.574516 0.409546
O O16 0.346790 0.513638 0.258284
#
# Coordination Sequence:
#
# PCOD9005638 Si02
#       8
#     2   2   2   2   2   2   2   2
#     4   8  18  34  58  88 119 146 195 246 291 344
#     4  11  22  40  60  89 122 155 200 242 295 348
#     4   8  15  29  59  87 113 150 191 237 297 344
#     4  11  23  40  60  87 121 158 202 245 285 354
#     4  11  23  39  63  89 120 156 197 246 297 350
#     4   8  14  31  57  91 110 151 196 237 294 352
#     4  11  23  38  61  89 122 159 193 242 298 352
#     4  10  21  38  63  86 117 158 201 243 293 347
#
# _framework density 25.399571000000002
#
# number of rings (size 3 to 8) (size 9 to 14) (size 15 to 20)
#    0.750    1.500    2.500    0.750    0.000    4.000 
#    0.000    0.000    0.000    0.750    0.000    0.000 
#    0.000    0.000    0.000    0.000    0.000    0.000 
#
# Total GULP energy -89209.442889 kJ/mol
# GULP energy per Si atom -5575.590181 kJ/mol
# Density = 2.534176 g / cm^3
# Si number density = 25.399571 Si / 1000 Ang^3
#
#
#
# Elastic Constant Matrix: (Units=GPa)
#
#
# Indices 1 2 3 4 5 6 
#
# 1 180.8109 8.8724 33.3748 -2.2305 -17.7271 38.4737
# 2 8.8724 67.0052 21.8380 -3.7972 -0.8262 2.8961
# 3 33.3748 21.8380 70.1091 -8.5029 -20.1862 9.2099
# 4 -2.2305 -3.7972 -8.5029 25.3603 2.2825 -3.5122
# 5 -17.7271 -0.8262 -20.1862 2.2825 29.5392 3.4566
# 6 38.4737 2.8961 9.2099 -3.5122 3.4566 38.0505
#
#
#
# Elastic Compliance Matrix: (Units=1/GPa)
#
#
# Indices 1 2 3 4 5 6 
#
# 1 0.008049 -0.000269 -0.001392 -0.001403 0.004958 -0.008361
# 2 -0.000269 0.017007 -0.006418 0.000893 -0.004258 0.001000
# 3 -0.001392 -0.006418 0.022151 0.004455 0.014288 -0.004352
# 4 -0.001403 0.000893 0.004455 0.041659 -0.001490 0.004253
# 5 0.004958 -0.004258 0.014288 -0.001490 0.048069 -0.012652
# 6 -0.008361 0.001000 -0.004352 0.004253 -0.012652 0.037254
#
#
# Mechanical properties :
#
#
# Convention : Reuss Voigt Hill
#
# Bulk Modulus (GPa) = 32.20875 49.56617 40.88746
# Shear Modulus (GPa) = 24.91336 35.51268 30.21302
#
# Velocity S-wave (km/s) = 3.13526 3.74325 3.45267
# Velocity P-wave (km/s) = 5.08083 6.18381 5.65926
#
# Compressibility (1/GPa) = 0.03104747
#
# Stress axis : x y z
#
# Youngs Moduli (GPa) = 124.24535 58.80102 45.14443
#
# Poissons Ratio (x) = 0.01582 0.06284
# Poissons Ratio (y) = 0.03344 0.28975
# Poissons Ratio (z) = 0.17294 0.37740
#
# Static dielectric constant tensor:
#      x y z
#    x 2.103830 -0.005880 0.101170 
#    y -0.005880 2.118380 -0.040250 
#    z 0.101170 -0.040250 2.068870 
# 
# From -- ./inp_files/349800.got.cif
#   From: 2010.05.17/outbox.cif.g08.bks.cpg/sg2_175_cif.got.tgz:349800.got - 2010.06.03 11:33:40.
