data_PCOD9005429
_publ_section_title
;
Structure prediction by ZEFSAII (Michael W. Deem and Ramdas Pophale) SiO2 
 PCOD9005429
Probable space group: P -1
;
_chemical_formula_sum "Si O2"
_cell_formula_units_Z 12
_cell_length_a 19.253660
_cell_length_b 8.629853
_cell_length_c 14.077394
_cell_angle_alpha 29.059706
_cell_angle_beta 28.549812
_cell_angle_gamma 44.115905
_cell_volume 530.290953
_symmetry_space_group_name_H-M "P -1"
_symmetry_group_IT_number 2
_symmetry_cell_setting 'triclinic'
loop_
_space_group_symop_operation_xyz
x,y,z
-x,-y,-z
loop_
_atom_site_type_symbol
_atom_site_label
_atom_site_fract_x
_atom_site_fract_y
_atom_site_fract_z
Si Si1 0.967369 0.314242 0.540276
Si Si2 0.346487 0.812908 0.493165
Si Si3 0.605579 0.064652 0.929795
Si Si4 0.281358 0.381945 0.381520
Si Si5 0.888819 0.308320 0.016604
Si Si6 0.876110 0.250412 0.380203
O O1 0.000000 0.500000 0.500000
O O2 0.798130 0.334790 0.711269
O O3 0.011239 0.967583 0.674227
O O4 0.068088 0.507830 0.231345
O O5 0.348424 0.191114 0.321011
O O6 0.261646 0.627293 0.785683
O O7 0.233604 0.714502 0.593045
O O8 0.512967 0.829846 0.247508
O O9 0.618480 0.437357 0.751565
O O10 0.769441 0.066555 0.691304
O O11 0.500000 0.000000 0.000000
O O12 0.154489 0.082255 0.732960
O O13 0.022337 0.431813 0.864396
#
# Coordination Sequence:
#
# PCOD9005429 Si02
#       6
#     2   2   2   2   2   2
#     4  12  22  38  59  92 123 155 193 250 304 349
#     4   9  21  38  62  88 118 156 203 236 292 354
#     4  10  21  38  62  88 120 158 201 239 293 358
#     4  10  21  38  64  87 120 154 202 242 295 344
#     4  10  22  37  61  95 114 153 204 247 289 348
#     4  11  21  37  63  92 118 157 195 246 303 346
#
# _framework density 22.629086000000001
#
# number of rings (size 3 to 8) (size 9 to 14) (size 15 to 20)
#    1.000    0.667    3.333    2.000    0.000    0.000 
#    3.000    0.833    0.000    5.000    0.000    0.000 
#    0.000    0.000    0.000    0.000    0.000    0.000 
#
# Total GULP energy -66847.627578 kJ/mol
# GULP energy per Si atom -5570.635632 kJ/mol
# Density = 2.257758 g / cm^3
# Si number density = 22.629086 Si / 1000 Ang^3
#
#
#
# Elastic Constant Matrix: (Units=GPa)
#
#
# Indices 1 2 3 4 5 6 
#
# 1 70.8804 29.4623 39.6319 -12.2953 -15.3184 41.6729
# 2 29.4623 95.9332 36.8799 15.3568 -14.7200 20.6950
# 3 39.6319 36.8799 112.7086 11.2261 -13.1136 21.7926
# 4 -12.2953 15.3568 11.2261 46.9214 22.5285 -4.8256
# 5 -15.3184 -14.7200 -13.1136 22.5285 42.5194 -4.2922
# 6 41.6729 20.6950 21.7926 -4.8256 -4.2922 40.6632
#
#
#
# Elastic Compliance Matrix: (Units=1/GPa)
#
#
# Indices 1 2 3 4 5 6 
#
# 1 0.045010 -0.003228 -0.007607 0.008625 0.004252 -0.038935
# 2 -0.003228 0.015932 -0.001061 -0.010710 0.009243 -0.004528
# 3 -0.007607 -0.001061 0.012897 -0.006826 0.004597 0.001099
# 4 0.008625 -0.010710 -0.006826 0.040435 -0.023873 0.002549
# 5 0.004252 0.009243 0.004597 -0.023873 0.041308 -0.009998
# 6 -0.038935 -0.004528 0.001099 0.002549 -0.009998 0.065457
#
#
# Mechanical properties :
#
#
# Convention : Reuss Voigt Hill
#
# Bulk Modulus (GPa) = 19.98065 54.60781 37.29423
# Shear Modulus (GPa) = 19.11964 37.59066 28.35515
#
# Velocity S-wave (km/s) = 2.90989 4.08016 3.54367
# Velocity P-wave (km/s) = 4.48763 6.81036 5.76714
#
# Compressibility (1/GPa) = 0.05004842
#
# Stress axis : x y z
#
# Youngs Moduli (GPa) = 22.21752 62.76499 77.53993
#
# Poissons Ratio (x) = 0.20259 0.58982
# Poissons Ratio (y) = 0.07171 0.08225
# Poissons Ratio (z) = 0.16900 0.06658
#
# Static dielectric constant tensor:
#      x y z
#    x 1.879510 0.000420 0.009990 
#    y 0.000420 1.900120 0.033790 
#    z 0.009990 0.033790 1.901670 
# 
# From -- ./inp_files/233421.got.cif
#   From: 2010.05.17/outbox.cif.g08.bks.cpg/sg2_117_cif.got.tgz:233421.got - 2010.06.03 11:33:40.
