data_PCOD9005737
_publ_section_title
;
Structure prediction by ZEFSAII (Michael W. Deem and Ramdas Pophale) SiO2 
 PCOD9005737
Probable space group: P -1
;
_chemical_formula_sum "Si O2"
_cell_formula_units_Z 16
_cell_length_a 7.940425
_cell_length_b 20.047457
_cell_length_c 11.188090
_cell_angle_alpha 158.650361
_cell_angle_beta 78.545451
_cell_angle_gamma 106.732279
_cell_volume 608.446930
_symmetry_space_group_name_H-M "P -1"
_symmetry_group_IT_number 2
_symmetry_cell_setting 'triclinic'
loop_
_space_group_symop_operation_xyz
x,y,z
-x,-y,-z
loop_
_atom_site_type_symbol
_atom_site_label
_atom_site_fract_x
_atom_site_fract_y
_atom_site_fract_z
Si Si1 0.352458 0.403563 0.525899
Si Si2 0.151797 0.662532 0.552212
Si Si3 0.468332 0.202484 0.366594
Si Si4 0.065728 0.718076 0.399600
Si Si5 0.748935 0.968851 0.468403
Si Si6 0.249201 0.412996 0.301115
Si Si7 0.352451 0.788803 0.296331
Si Si8 0.172239 0.062517 0.337450
O O1 0.333136 0.227345 0.322374
O O2 0.222929 0.395417 0.417910
O O3 0.551992 0.439684 0.500399
O O4 0.360422 0.581345 0.908073
O O5 0.337552 0.651000 0.440590
O O6 0.042952 0.695256 0.506385
O O7 0.118436 0.488684 0.360406
O O8 0.176733 0.854170 0.945539
O O9 0.365842 0.205042 0.508895
O O10 0.500000 0.000000 0.000000
O O11 0.267216 0.794332 0.446506
O O12 0.964278 0.853600 0.576459
O O13 0.000000 0.500000 0.000000
O O14 0.549645 0.933576 0.495468
O O15 0.864583 0.958004 0.550679
O O16 0.773335 0.151358 0.685713
O O17 0.742155 0.790494 0.087122
#
# Coordination Sequence:
#
# PCOD9005737 Si02
#       8
#     2   2   2   2   2   2   2   2
#     4   9  17  33  56  86 118 150 189 238 294 348
#     4  10  21  39  60  85 117 157 202 247 294 350
#     4   9  19  34  61  90 115 151 200 249 291 344
#     4  12  25  40  59  85 124 162 197 241 296 359
#     4  10  21  38  63  92 118 151 200 252 297 345
#     4   9  18  33  58  87 115 146 190 246 296 342
#     4  10  22  39  62  90 122 157 196 246 298 352
#     4  11  22  38  60  86 120 158 198 245 298 356
#
# _framework density 26.296458999999999
#
# number of rings (size 3 to 8) (size 9 to 14) (size 15 to 20)
#    0.000    2.000    0.000    3.375    0.000    8.500 
#    0.000    6.250    0.000    5.250    0.000    0.000 
#    0.000    0.000    0.000    0.000    0.000    0.000 
#
# Total GULP energy -89561.456864 kJ/mol
# GULP energy per Si atom -5597.591054 kJ/mol
# Density = 2.623661 g / cm^3
# Si number density = 26.296459 Si / 1000 Ang^3
#
#
#
# Elastic Constant Matrix: (Units=GPa)
#
#
# Indices 1 2 3 4 5 6 
#
# 1 84.7049 21.1901 -7.6424 9.6286 -23.0096 -13.7674
# 2 21.1901 190.2561 24.2372 -3.1117 -22.1928 -28.9045
# 3 -7.6424 24.2372 64.2712 6.2603 -24.1500 -14.0606
# 4 9.6286 -3.1117 6.2603 42.3542 -13.2473 -11.3642
# 5 -23.0096 -22.1928 -24.1500 -13.2473 34.9756 10.4581
# 6 -13.7674 -28.9045 -14.0606 -11.3642 10.4581 63.5143
#
#
#
# Elastic Compliance Matrix: (Units=1/GPa)
#
#
# Indices 1 2 3 4 5 6 
#
# 1 0.017925 -0.000737 0.009459 0.000645 0.017225 0.002923
# 2 -0.000737 0.006208 -0.001046 0.002323 0.002903 0.002372
# 3 0.009459 -0.001046 0.026594 0.002293 0.023598 0.003986
# 4 0.000645 0.002323 0.002293 0.028592 0.012907 0.004695
# 5 0.017225 0.002903 0.023598 0.012907 0.062249 0.002338
# 6 0.002923 0.002372 0.003986 0.004695 0.002338 0.018795
#
#
# Mechanical properties :
#
#
# Convention : Reuss Voigt Hill
#
# Bulk Modulus (GPa) = 15.13368 46.08912 30.61140
# Shear Modulus (GPa) = 29.93345 48.26530 39.09938
#
# Velocity S-wave (km/s) = 3.37754 4.28884 3.86018
# Velocity P-wave (km/s) = 4.58016 6.48770 5.61552
#
# Compressibility (1/GPa) = 0.06607779
#
# Stress axis : x y z
#
# Youngs Moduli (GPa) = 55.78954 161.07504 37.60258
#
# Poissons Ratio (x) = 0.11879 -0.35567
# Poissons Ratio (y) = 0.04114 0.03932
# Poissons Ratio (z) = -0.52769 0.16842
#
# Static dielectric constant tensor:
#      x y z
#    x 2.299480 0.041730 0.055910 
#    y 0.041730 2.112410 0.016920 
#    z 0.055910 0.016920 1.919820 
# 
# From -- ./inp_files/405769.got.cif
#   From: 2010.05.17/outbox.cif.g08.bks.cpg/sg2_203_cif.got.tgz:405769.got - 2010.06.03 11:33:40.
