data_PCOD9005472
_publ_section_title
;
Structure prediction by ZEFSAII (Michael W. Deem and Ramdas Pophale) SiO2 
 PCOD9005472
Probable space group: P -1
;
_chemical_formula_sum "Si O2"
_cell_formula_units_Z 14
_cell_length_a 6.938017
_cell_length_b 28.571574
_cell_length_c 11.580704
_cell_angle_alpha 156.663168
_cell_angle_beta 53.718314
_cell_angle_gamma 136.939432
_cell_volume 593.753266
_symmetry_space_group_name_H-M "P -1"
_symmetry_group_IT_number 2
_symmetry_cell_setting 'triclinic'
loop_
_space_group_symop_operation_xyz
x,y,z
-x,-y,-z
loop_
_atom_site_type_symbol
_atom_site_label
_atom_site_fract_x
_atom_site_fract_y
_atom_site_fract_z
Si Si1 0.137486 0.128691 0.337881
Si Si2 0.418125 0.881379 0.416292
Si Si3 0.750619 0.525869 0.675373
Si Si4 0.624099 0.254168 0.631475
Si Si5 0.242866 0.800404 0.041335
Si Si6 0.844638 0.575979 0.322770
Si Si7 0.655801 0.370154 0.563736
O O1 0.355355 0.137800 0.379469
O O2 0.359164 0.281687 0.540273
O O3 0.869164 0.118380 0.468276
O O4 0.000000 0.000000 0.000000
O O5 0.422439 0.802615 0.350173
O O6 0.385534 0.818038 0.156757
O O7 0.688266 0.050813 0.694096
O O8 0.408027 0.414841 0.512659
O O9 0.727147 0.509589 0.785388
O O10 0.000000 0.500000 0.500000
O O11 0.895794 0.680166 0.913428
O O12 0.937920 0.303318 0.575626
O O13 0.669068 0.409484 0.962574
O O14 0.370697 0.742126 0.775347
O O15 0.067490 0.588051 0.364302
#
# Coordination Sequence:
#
# PCOD9005472 Si02
#       7
#     2   2   2   2   2   2   2
#     4  11  22  41  67  93 128 163 217 272 314 382
#     4  11  22  42  62  89 135 171 210 261 318 387
#     4  10  21  38  62  90 123 171 208 256 319 367
#     4  10  23  40  67  99 124 172 209 267 332 372
#     4  10  22  39  60  91 131 171 209 255 312 388
#     4  10  21  41  65  97 131 156 221 271 310 389
#     4  10  21  41  64  96 125 168 212 266 324 368
#
# _framework density 23.578817000000001
#
# number of rings (size 3 to 8) (size 9 to 14) (size 15 to 20)
#    0.000    1.714    1.429    2.571    0.000    2.857 
#    2.571   16.429    0.000    0.000    0.000    0.000 
#    0.000    0.000    0.000    0.000    0.000    0.000 
#
# Total GULP energy -78164.200619 kJ/mol
# GULP energy per Si atom -5583.157187 kJ/mol
# Density = 2.352515 g / cm^3
# Si number density = 23.578817 Si / 1000 Ang^3
#
#
#
# Elastic Constant Matrix: (Units=GPa)
#
#
# Indices 1 2 3 4 5 6 
#
# 1 113.4998 40.8431 32.2851 10.0741 19.0234 -7.9766
# 2 40.8431 123.4812 37.2201 18.4399 4.6034 -13.3695
# 3 32.2851 37.2201 93.1630 -15.2885 15.7988 -3.0014
# 4 10.0741 18.4399 -15.2885 33.1854 -3.6229 0.8335
# 5 19.0234 4.6034 15.7988 -3.6229 22.3733 1.1515
# 6 -7.9766 -13.3695 -3.0014 0.8335 1.1515 50.4711
#
#
#
# Elastic Compliance Matrix: (Units=1/GPa)
#
#
# Indices 1 2 3 4 5 6 
#
# 1 0.012374 -0.002050 -0.002681 -0.004882 -0.009076 0.001541
# 2 -0.002050 0.011984 -0.005695 -0.008531 0.001784 0.002612
# 3 -0.002681 -0.005695 0.016839 0.011040 -0.006602 -0.000963
# 4 -0.004882 -0.008531 0.011040 0.042078 0.005088 -0.003186
# 5 -0.009076 0.001784 -0.006602 0.005088 0.057673 -0.002754
# 6 0.001541 0.002612 -0.000963 -0.003186 -0.002754 0.020807
#
#
# Mechanical properties :
#
#
# Convention : Reuss Voigt Hill
#
# Bulk Modulus (GPa) = 49.15989 61.20452 55.18221
# Shear Modulus (GPa) = 26.40072 35.85901 31.12987
#
# Velocity S-wave (km/s) = 3.34979 3.90399 3.63746
# Velocity P-wave (km/s) = 5.98798 6.80700 6.41059
#
# Compressibility (1/GPa) = 0.02034179
#
# Stress axis : x y z
#
# Youngs Moduli (GPa) = 80.81543 83.44730 59.38721
#
# Poissons Ratio (x) = 0.17111 0.15924
# Poissons Ratio (y) = 0.16571 0.33823
# Poissons Ratio (z) = 0.21669 0.47527
#
# Static dielectric constant tensor:
#      x y z
#    x 1.912240 -0.003420 -0.021010 
#    y -0.003420 1.916470 0.002140 
#    z -0.021010 0.002140 2.000440 
# 
# From -- ./inp_files/371472.got.cif
#   From: 2010.05.17/outbox.cif.g08.bks.cpg/sg2_186_cif.got.tgz:371472.got - 2010.06.03 11:33:40.
