data_PCOD9005941
_publ_section_title
;
Structure prediction by ZEFSAII (Michael W. Deem and Ramdas Pophale) SiO2 
 PCOD9005941
Probable space group: P -1
;
_chemical_formula_sum "Si O2"
_cell_formula_units_Z 12
_cell_length_a 9.515338
_cell_length_b 9.448343
_cell_length_c 9.308698
_cell_angle_alpha 107.474073
_cell_angle_beta 135.596944
_cell_angle_gamma 60.859179
_cell_volume 509.899627
_symmetry_space_group_name_H-M "P -1"
_symmetry_group_IT_number 2
_symmetry_cell_setting 'triclinic'
loop_
_space_group_symop_operation_xyz
x,y,z
-x,-y,-z
loop_
_atom_site_type_symbol
_atom_site_label
_atom_site_fract_x
_atom_site_fract_y
_atom_site_fract_z
Si Si1 0.885252 0.902243 0.966917
Si Si2 0.746466 0.457430 0.368283
Si Si3 0.380563 0.377034 0.222354
Si Si4 0.028428 0.665412 0.228697
Si Si5 0.565793 0.029481 0.393314
Si Si6 0.911177 0.724412 0.643392
O O1 0.627323 0.000782 0.841236
O O2 0.904504 0.762031 0.820405
O O3 0.009999 0.822928 0.177222
O O4 0.000000 0.000000 0.000000
O O5 0.528428 0.439317 0.251449
O O6 0.933483 0.339711 0.577913
O O7 0.758180 0.629761 0.460871
O O8 0.843719 0.389939 0.263206
O O9 0.240369 0.516078 0.274564
O O10 0.525237 0.208769 0.361547
O O11 0.195450 0.350762 0.983786
O O12 0.500000 0.000000 0.500000
O O13 0.810942 0.893565 0.534199
#
# Coordination Sequence:
#
# PCOD9005941 Si02
#       6
#     2   2   2   2   2   2
#     4  10  22  39  63  89 120 162 203 257 303 352
#     4  11  23  40  65  90 126 168 192 257 316 352
#     4  10  21  38  64  89 121 165 206 251 302 358
#     4  10  21  39  61  93 118 156 219 248 288 381
#     4   9  19  37  59  86 119 157 205 249 293 363
#     4  10  23  42  58  93 128 154 210 249 304 375
#
# _framework density 23.534044000000002
#
# number of rings (size 3 to 8) (size 9 to 14) (size 15 to 20)
#    0.000    2.000    0.000    4.500    7.000    0.667 
#    3.000    4.167    0.000    0.000    0.000    0.000 
#    0.000    0.000    0.000    0.000    0.000    0.000 
#
# Total GULP energy -66983.376822 kJ/mol
# GULP energy per Si atom -5581.948069 kJ/mol
# Density = 2.348048 g / cm^3
# Si number density = 23.534044 Si / 1000 Ang^3
#
#
#
# Elastic Constant Matrix: (Units=GPa)
#
#
# Indices 1 2 3 4 5 6 
#
# 1 68.1386 19.4597 15.5267 12.0536 18.5319 4.1436
# 2 19.4597 88.1276 20.9100 -10.0410 10.5624 27.3736
# 3 15.5267 20.9100 70.8362 -9.3951 5.2081 5.5418
# 4 12.0536 -10.0410 -9.3951 33.9306 19.5899 -3.7110
# 5 18.5319 10.5624 5.2081 19.5899 39.0758 5.0214
# 6 4.1436 27.3736 5.5418 -3.7110 5.0214 41.8159
#
#
#
# Elastic Compliance Matrix: (Units=1/GPa)
#
#
# Indices 1 2 3 4 5 6 
#
# 1 0.018806 -0.003798 -0.003558 -0.006059 -0.004522 0.001100
# 2 -0.003798 0.017060 -0.002047 0.007896 -0.005316 -0.009181
# 3 -0.003558 -0.002047 0.016747 0.007604 -0.003882 0.000614
# 4 -0.006059 0.007896 0.007604 0.051541 -0.026392 0.002167
# 5 -0.004522 -0.005316 -0.003882 -0.026392 0.043320 -0.003102
# 6 0.001100 -0.009181 0.000614 0.002167 -0.003102 0.030299
#
#
# Mechanical properties :
#
#
# Convention : Reuss Voigt Hill
#
# Bulk Modulus (GPa) = 29.58014 37.65504 33.61759
# Shear Modulus (GPa) = 24.05588 34.37821 29.21704
#
# Velocity S-wave (km/s) = 3.20061 3.82617 3.52729
# Velocity P-wave (km/s) = 5.12396 5.96275 5.55920
#
# Compressibility (1/GPa) = 0.03380647
#
# Stress axis : x y z
#
# Youngs Moduli (GPa) = 53.17352 58.61596 59.71162
#
# Poissons Ratio (x) = 0.22265 0.21246
# Poissons Ratio (y) = 0.20198 0.12223
# Poissons Ratio (z) = 0.18920 0.11998
#
# Static dielectric constant tensor:
#      x y z
#    x 1.892830 -0.003430 0.023040 
#    y -0.003430 1.974650 -0.003810 
#    z 0.023040 -0.003810 1.950540 
# 
# From -- ./inp_files/326117.got.cif
#   From: 2010.05.17/outbox.cif.g08.bks.cpg/sg2_164_cif.got.tgz:326117.got - 2010.06.03 11:33:40.
