data_PCOD9005088
_publ_section_title
;
Structure prediction by ZEFSAII (Michael W. Deem and Ramdas Pophale) SiO2 
 PCOD9005088
Probable space group: P -1
;
_chemical_formula_sum "Si O2"
_cell_formula_units_Z 16
_cell_length_a 9.763846
_cell_length_b 9.742676
_cell_length_c 13.785498
_cell_angle_alpha 139.516544
_cell_angle_beta 118.959772
_cell_angle_gamma 77.976797
_cell_volume 714.768571
_symmetry_space_group_name_H-M "P -1"
_symmetry_group_IT_number 2
_symmetry_cell_setting 'triclinic'
loop_
_space_group_symop_operation_xyz
x,y,z
-x,-y,-z
loop_
_atom_site_type_symbol
_atom_site_label
_atom_site_fract_x
_atom_site_fract_y
_atom_site_fract_z
Si Si1 0.832077 0.761067 0.382941
Si Si2 0.648237 0.648418 0.566677
Si Si3 0.210759 0.565527 0.248347
Si Si4 0.509457 0.526850 0.241102
Si Si5 0.275271 0.058483 0.895156
Si Si6 0.815397 0.911386 0.920935
Si Si7 0.972642 0.798450 0.240785
Si Si8 0.170294 0.679626 0.502938
O O1 0.649731 0.617808 0.260893
O O2 0.865714 0.804125 0.303529
O O3 0.979482 0.665064 0.419246
O O4 0.871159 0.989299 0.578557
O O5 0.500000 0.500000 0.500000
O O6 0.591167 0.616431 0.420333
O O7 0.705273 0.876313 0.767710
O O8 0.800104 0.544636 0.569623
O O9 0.348624 0.613627 0.239028
O O10 0.207355 0.330272 0.167849
O O11 0.242044 0.716368 0.437765
O O12 0.041775 0.589977 0.162372
O O13 0.438384 0.261859 0.065482
O O14 0.131635 0.163093 0.864541
O O15 0.264040 0.868876 0.710673
O O16 0.234967 0.962806 0.938237
O O17 0.000000 0.000000 0.000000
#
# Coordination Sequence:
#
# PCOD9005088 Si02
#       8
#     2   2   2   2   2   2   2   2
#     4   9  20  37  59  87 115 154 196 246 289 356
#     4  11  20  41  59  82 124 161 185 247 296 351
#     4   9  19  40  63  84 121 161 192 237 297 352
#     4  11  22  36  59  90 120 154 197 242 301 336
#     4  10  21  38  60  91 119 153 197 250 286 346
#     4  10  22  38  59  87 121 152 197 238 290 349
#     4   9  19  39  61  82 120 156 199 239 292 346
#     4   9  19  38  61  83 115 162 194 226 298 352
#
# _framework density 22.384865999999999
#
# number of rings (size 3 to 8) (size 9 to 14) (size 15 to 20)
#    0.000    2.250    3.750    0.750    3.500    4.000 
#    4.500    0.000    2.750    0.000    0.000    0.000 
#    0.000    0.000    0.000    0.000    0.000    0.000 
#
# Total GULP energy -89210.466609 kJ/mol
# GULP energy per Si atom -5575.654163 kJ/mol
# Density = 2.233392 g / cm^3
# Si number density = 22.384866 Si / 1000 Ang^3
#
#
#
# Elastic Constant Matrix: (Units=GPa)
#
#
# Indices 1 2 3 4 5 6 
#
# 1 90.2562 -4.1998 37.5984 16.6209 5.3258 17.2870
# 2 -4.1998 23.5736 -4.0022 -10.5780 -3.5011 -10.5111
# 3 37.5984 -4.0022 122.6039 -20.3717 -14.5438 28.0140
# 4 16.6209 -10.5780 -20.3717 24.4455 9.7328 4.1421
# 5 5.3258 -3.5011 -14.5438 9.7328 39.2924 6.6522
# 6 17.2870 -10.5111 28.0140 4.1421 6.6522 29.7904
#
#
#
# Elastic Compliance Matrix: (Units=1/GPa)
#
#
# Indices 1 2 3 4 5 6 
#
# 1 0.020495 -0.011320 -0.010911 -0.027338 -0.000774 -0.001652
# 2 -0.011320 0.068213 0.008438 0.042373 -0.002708 0.017414
# 3 -0.010911 0.008438 0.020711 0.028798 0.005366 -0.015369
# 4 -0.027338 0.042373 0.028798 0.106039 -0.006508 -0.009557
# 5 -0.000774 -0.002708 0.005366 -0.006508 0.030865 -0.011540
# 6 -0.001652 0.017414 -0.015369 -0.009557 -0.011540 0.059030
#
#
# Mechanical properties :
#
#
# Convention : Reuss Voigt Hill
#
# Bulk Modulus (GPa) = 12.21999 32.80293 22.51146
# Shear Modulus (GPa) = 13.88060 32.50816 23.19438
#
# Velocity S-wave (km/s) = 2.49286 3.81496 3.22244
# Velocity P-wave (km/s) = 3.70900 5.83876 4.89121
#
# Compressibility (1/GPa) = 0.08183310
#
# Stress axis : x y z
#
# Youngs Moduli (GPa) = 48.79337 14.66006 48.28327
#
# Poissons Ratio (x) = 0.16595 0.52682
# Poissons Ratio (y) = 0.55234 -0.40744
# Poissons Ratio (z) = 0.53239 -0.12371
#
# Static dielectric constant tensor:
#      x y z
#    x 1.879360 -0.046190 -0.047940 
#    y -0.046190 1.861800 0.016370 
#    z -0.047940 0.016370 1.923610 
# 
# From -- ./inp_files/311339.got.cif
#   From: 2010.05.17/outbox.cif.g08.bks.cpg/sg2_156_cif.got.tgz:311339.got - 2010.06.03 11:33:40.
