data_PCOD9005899
_publ_section_title
;
Structure prediction by ZEFSAII (Michael W. Deem and Ramdas Pophale) SiO2 
 PCOD9005899
Probable space group: P -1
;
_chemical_formula_sum "Si O2"
_cell_formula_units_Z 16
_cell_length_a 5.644668
_cell_length_b 14.098666
_cell_length_c 14.756568
_cell_angle_alpha 42.280848
_cell_angle_beta 113.037473
_cell_angle_gamma 97.844497
_cell_volume 704.495872
_symmetry_space_group_name_H-M "P -1"
_symmetry_group_IT_number 2
_symmetry_cell_setting 'triclinic'
loop_
_space_group_symop_operation_xyz
x,y,z
-x,-y,-z
loop_
_atom_site_type_symbol
_atom_site_label
_atom_site_fract_x
_atom_site_fract_y
_atom_site_fract_z
Si Si1 0.874382 0.525680 0.062901
Si Si2 0.289912 0.733288 0.810825
Si Si3 0.309243 0.005419 0.055198
Si Si4 0.299259 0.171208 0.624894
Si Si5 0.063492 0.898549 0.831938
Si Si6 0.532864 0.001509 0.397080
Si Si7 0.980758 0.722892 0.098058
Si Si8 0.191666 0.494516 0.444751
O O1 0.865504 0.361734 0.201888
O O2 0.980568 0.601878 0.107541
O O3 0.585789 0.632894 0.928091
O O4 0.000000 0.500000 0.000000
O O5 0.196484 0.771930 0.871519
O O6 0.276471 0.890728 0.660241
O O7 0.287447 0.160313 0.993655
O O8 0.500000 0.000000 0.000000
O O9 0.442858 0.879888 0.235157
O O10 0.000000 0.000000 0.000000
O O11 0.184229 0.340625 0.506084
O O12 0.137202 0.051904 0.716565
O O13 0.361511 0.138182 0.551501
O O14 0.750435 0.926460 0.743152
O O15 0.124822 0.829729 0.989024
O O16 0.500000 0.000000 0.500000
O O17 0.083467 0.633470 0.266109
O O18 0.500000 0.500000 0.500000
O O19 0.000000 0.500000 0.500000
#
# Coordination Sequence:
#
# PCOD9005899 Si02
#       8
#     2   2   2   2   2   2   2   2
#     4  11  21  39  66 104 150 182 237 300 372 445
#     4  10  21  38  64 103 146 188 241 298 354 446
#     4  12  25  45  78 109 138 188 255 319 369 429
#     4  11  26  47  76 110 148 200 252 311 386 461
#     4  11  22  45  75 106 146 189 266 300 366 456
#     4  11  24  43  71 105 151 189 246 304 376 453
#     4  12  24  47  80 110 146 200 249 318 379 450
#     4  12  31  54  74 112 160 199 252 320 394 455
#
# _framework density 22.711276999999999
#
# number of rings (size 3 to 8) (size 9 to 14) (size 15 to 20)
#    0.000    0.750    3.750    3.000    1.750    7.000 
#    0.000    0.000    0.000    0.000    0.000    0.000 
#    0.000    0.000    0.000    0.000    0.000    0.000 
#
# Total GULP energy -89233.590130 kJ/mol
# GULP energy per Si atom -5577.099383 kJ/mol
# Density = 2.265959 g / cm^3
# Si number density = 22.711277 Si / 1000 Ang^3
#
#
#
# Elastic Constant Matrix: (Units=GPa)
#
#
# Indices 1 2 3 4 5 6 
#
# 1 110.3342 71.1345 30.4422 2.2198 -13.4128 -22.9116
# 2 71.1345 169.4061 25.1229 -22.7376 -19.7661 -31.5227
# 3 30.4422 25.1229 97.0677 5.9208 -12.6987 -21.1565
# 4 2.2198 -22.7376 5.9208 42.9567 -11.1843 -2.4215
# 5 -13.4128 -19.7661 -12.6987 -11.1843 28.9627 1.8629
# 6 -22.9116 -31.5227 -21.1565 -2.4215 1.8629 59.7132
#
#
#
# Elastic Compliance Matrix: (Units=1/GPa)
#
#
# Indices 1 2 3 4 5 6 
#
# 1 0.013645 -0.005537 -0.002331 -0.003186 0.000201 0.001351
# 2 -0.005537 0.010959 0.000278 0.008352 0.008014 0.003848
# 3 -0.002331 0.000278 0.012276 -0.000131 0.004219 0.003465
# 4 -0.003186 0.008352 -0.000131 0.032379 0.016417 0.003941
# 5 0.000201 0.008014 0.004219 0.016417 0.047960 0.004973
# 6 0.001351 0.003848 0.003465 0.003941 0.004973 0.020529
#
#
# Mechanical properties :
#
#
# Convention : Reuss Voigt Hill
#
# Bulk Modulus (GPa) = 46.08234 70.02302 58.05268
# Shear Modulus (GPa) = 31.21833 43.00042 37.10937
#
# Velocity S-wave (km/s) = 3.71155 4.35599 4.04662
# Velocity P-wave (km/s) = 6.22109 7.49655 6.88840
#
# Compressibility (1/GPa) = 0.02170029
#
# Stress axis : x y z
#
# Youngs Moduli (GPa) = 73.28473 91.25097 81.45691
#
# Poissons Ratio (x) = 0.50523 0.18990
# Poissons Ratio (y) = 0.40576 -0.02263
# Poissons Ratio (z) = 0.17084 -0.02535
#
# Static dielectric constant tensor:
#      x y z
#    x 1.991560 0.005630 -0.057700 
#    y 0.005630 1.944510 0.048430 
#    z -0.057700 0.048430 1.892210 
# 
# From -- ./inp_files/484273.got.cif
#   From: 2010.05.17/outbox.cif.g08.bks.cpg/sg2_243_cif.got.tgz:484273.got - 2010.06.03 11:33:40.
