data_PCOD9005208
_publ_section_title
;
Structure prediction by ZEFSAII (Michael W. Deem and Ramdas Pophale) SiO2 
 PCOD9005208
Probable space group: P -1
;
_chemical_formula_sum "Si O2"
_cell_formula_units_Z 16
_cell_length_a 5.340493
_cell_length_b 9.436943
_cell_length_c 19.073765
_cell_angle_alpha 55.434449
_cell_angle_beta 61.699415
_cell_angle_gamma 73.514718
_cell_volume 696.829196
_symmetry_space_group_name_H-M "P -1"
_symmetry_group_IT_number 2
_symmetry_cell_setting 'triclinic'
loop_
_space_group_symop_operation_xyz
x,y,z
-x,-y,-z
loop_
_atom_site_type_symbol
_atom_site_label
_atom_site_fract_x
_atom_site_fract_y
_atom_site_fract_z
Si Si1 0.684217 0.218755 0.721760
Si Si2 0.625649 0.229206 0.562170
Si Si3 0.033293 0.532846 0.641174
Si Si4 0.068356 0.880676 0.764709
Si Si5 0.588395 0.692845 0.739369
Si Si6 0.789322 0.959068 0.430415
Si Si7 0.231677 0.458703 0.093646
Si Si8 0.216462 0.390475 0.808292
O O1 0.579093 0.232050 0.651313
O O2 0.858414 0.392532 0.661694
O O3 0.429607 0.232611 0.808258
O O4 0.878734 0.049252 0.757866
O O5 0.346966 0.166028 0.575658
O O6 0.719289 0.397928 0.459606
O O7 0.925892 0.117197 0.550515
O O8 0.834739 0.694013 0.648625
O O9 0.114148 0.443249 0.729145
O O10 0.406971 0.861604 0.739058
O O11 0.933423 0.710319 0.863767
O O12 0.092621 0.882400 0.675651
O O13 0.671777 0.605179 0.825119
O O14 0.384377 0.554959 0.767996
O O15 0.500000 0.000000 0.500000
O O16 0.025680 0.619818 0.097141
O O17 0.500000 0.500000 0.000000
#
# Coordination Sequence:
#
# PCOD9005208 Si02
#       8
#     2   2   2   2   2   2   2   2
#     4  10  23  39  57  91 129 175 210 263 321 376
#     4  11  25  37  60  91 130 179 232 266 314 379
#     4  10  21  38  61  87 124 176 222 261 307 375
#     4  10  23  38  61  91 126 165 203 268 324 378
#     4   9  20  38  65  88 123 158 210 261 327 379
#     4  11  25  39  59  93 135 176 221 271 326 376
#     4  10  22  42  70  96 118 157 211 265 329 395
#     4   9  21  38  63  89 125 164 211 260 323 381
#
# _framework density 22.961151000000001
#
# number of rings (size 3 to 8) (size 9 to 14) (size 15 to 20)
#    0.000    2.000    0.000    1.500   15.750    2.500 
#    0.000    0.625    0.000    7.500    0.000    0.000 
#    0.000    0.000    0.000    0.000    0.000    0.000 
#
# Total GULP energy -89169.340210 kJ/mol
# GULP energy per Si atom -5573.083763 kJ/mol
# Density = 2.290889 g / cm^3
# Si number density = 22.961151 Si / 1000 Ang^3
#
#
#
# Elastic Constant Matrix: (Units=GPa)
#
#
# Indices 1 2 3 4 5 6 
#
# 1 58.9549 38.3215 2.7286 3.5629 -11.1858 -1.4393
# 2 38.3215 152.8116 41.4610 28.2225 -22.6321 -37.3559
# 3 2.7286 41.4610 89.1725 24.4291 -38.3878 -18.5825
# 4 3.5629 28.2225 24.4291 30.7035 -11.7010 -11.5769
# 5 -11.1858 -22.6321 -38.3878 -11.7010 30.0693 9.5202
# 6 -1.4393 -37.3559 -18.5825 -11.5769 9.5202 65.0275
#
#
#
# Elastic Compliance Matrix: (Units=1/GPa)
#
#
# Indices 1 2 3 4 5 6 
#
# 1 0.023929 -0.007006 0.008090 0.002048 0.015743 -0.003123
# 2 -0.007006 0.011063 -0.003372 -0.005837 -0.002291 0.004533
# 3 0.008090 -0.003372 0.030240 -0.008173 0.035839 0.000181
# 4 0.002048 -0.005837 -0.008173 0.046238 0.003259 0.002111
# 5 0.015743 -0.002291 0.035839 0.003259 0.085242 -0.002626
# 6 -0.003123 0.004533 0.000181 0.002111 -0.002626 0.018725
#
#
# Mechanical properties :
#
#
# Convention : Reuss Voigt Hill
#
# Bulk Modulus (GPa) = 16.48638 51.77347 34.12993
# Shear Modulus (GPa) = 20.81346 39.72191 30.26768
#
# Velocity S-wave (km/s) = 3.01402 4.16379 3.63466
# Velocity P-wave (km/s) = 4.39410 6.76117 5.70182
#
# Compressibility (1/GPa) = 0.06065611
#
# Stress axis : x y z
#
# Youngs Moduli (GPa) = 41.79099 90.39516 33.06920
#
# Poissons Ratio (x) = 0.63331 -0.26754
# Poissons Ratio (y) = 0.29279 0.11150
# Poissons Ratio (z) = -0.33811 0.30479
#
# Static dielectric constant tensor:
#      x y z
#    x 2.019560 -0.070170 -0.019860 
#    y -0.070170 2.002270 -0.016180 
#    z -0.019860 -0.016180 1.834650 
# 
# From -- ./inp_files/99675.got.cif
#   From: 2010.05.17/outbox.cif.g08.bks.cpg/sg2_50_cif.got.tgz:99675.got - 2010.06.03 11:33:40.
