data_PCOD9005120
_publ_section_title
;
Structure prediction by ZEFSAII (Michael W. Deem and Ramdas Pophale) SiO2 
 PCOD9005120
Probable space group: P -1
;
_chemical_formula_sum "Si O2"
_cell_formula_units_Z 14
_cell_length_a 15.621496
_cell_length_b 14.732896
_cell_length_c 9.140607
_cell_angle_alpha 123.758428
_cell_angle_beta 79.000252
_cell_angle_gamma 149.845663
_cell_volume 632.851941
_symmetry_space_group_name_H-M "P -1"
_symmetry_group_IT_number 2
_symmetry_cell_setting 'triclinic'
loop_
_space_group_symop_operation_xyz
x,y,z
-x,-y,-z
loop_
_atom_site_type_symbol
_atom_site_label
_atom_site_fract_x
_atom_site_fract_y
_atom_site_fract_z
Si Si1 0.606273 0.505575 0.509264
Si Si2 0.900292 0.934873 0.322260
Si Si3 0.850477 0.418922 0.332310
Si Si4 0.545447 0.230837 0.110531
Si Si5 0.172308 0.614228 0.363108
Si Si6 0.486073 0.336192 0.736432
Si Si7 0.405018 0.744392 0.206298
O O1 0.500000 0.500000 0.500000
O O2 0.470504 0.251395 0.238518
O O3 0.572894 0.448732 0.641961
O O4 0.874846 0.804596 0.628130
O O5 0.759970 0.884774 0.357767
O O6 0.691255 0.623520 0.032509
O O7 0.000000 0.000000 0.500000
O O8 0.764580 0.428320 0.295692
O O9 0.925196 0.530717 0.575225
O O10 0.048748 0.582510 0.330072
O O11 0.648876 0.090772 0.108432
O O12 0.613588 0.334299 0.014305
O O13 0.172006 0.519600 0.159646
O O14 0.441021 0.967431 0.619298
O O15 0.476855 0.200101 0.667835
#
# Coordination Sequence:
#
# PCOD9005120 Si02
#       7
#     2   2   2   2   2   2   2
#     4  12  25  44  67  96 133 179 221 274 333 393
#     4  11  24  46  69  96 129 170 226 275 325 392
#     4   9  19  39  61  91 122 168 213 264 323 391
#     4  10  22  38  61  91 130 163 218 269 320 391
#     4   9  19  37  61  89 126 164 211 261 328 389
#     4  11  25  44  68  95 133 175 217 275 332 391
#     4  10  21  38  60  92 127 166 211 268 325 389
#
# _framework density 22.122077999999998
#
# number of rings (size 3 to 8) (size 9 to 14) (size 15 to 20)
#    0.000    1.714    1.429    2.143    4.000    2.857 
#    5.143    0.000    0.000    0.000    0.000    0.000 
#    0.000    0.000    0.000    0.000    0.000    0.000 
#
# Total GULP energy -78072.539941 kJ/mol
# GULP energy per Si atom -5576.609996 kJ/mol
# Density = 2.207173 g / cm^3
# Si number density = 22.122078 Si / 1000 Ang^3
#
#
#
# Elastic Constant Matrix: (Units=GPa)
#
#
# Indices 1 2 3 4 5 6 
#
# 1 135.5350 75.4208 31.3097 -30.2437 2.8566 4.0512
# 2 75.4208 133.1378 38.8912 -19.3123 2.5342 13.1540
# 3 31.3097 38.8912 64.4762 -25.7156 -2.6204 -2.4342
# 4 -30.2437 -19.3123 -25.7156 40.6194 1.7782 1.0408
# 5 2.8566 2.5342 -2.6204 1.7782 29.8523 -6.1509
# 6 4.0512 13.1540 -2.4342 1.0408 -6.1509 40.3466
#
#
#
# Elastic Compliance Matrix: (Units=1/GPa)
#
#
# Indices 1 2 3 4 5 6 
#
# 1 0.012096 -0.006045 0.000281 0.006338 -0.000900 0.000472
# 2 -0.006045 0.012784 -0.005754 -0.001883 -0.001750 -0.004126
# 3 0.000281 -0.005754 0.024063 0.012511 0.002521 0.003361
# 4 0.006338 -0.001883 0.012511 0.036445 -0.001613 -0.000454
# 5 -0.000900 -0.001750 0.002521 -0.001613 0.035336 0.006242
# 6 0.000472 -0.004126 0.003361 -0.000454 0.006242 0.027249
#
#
# Mechanical properties :
#
#
# Convention : Reuss Voigt Hill
#
# Bulk Modulus (GPa) = 38.59730 69.37694 53.98712
# Shear Modulus (GPa) = 27.83298 34.66550 31.24924
#
# Velocity S-wave (km/s) = 3.55089 3.96284 3.76251
# Velocity P-wave (km/s) = 5.85637 7.23656 6.58274
#
# Compressibility (1/GPa) = 0.02590855
#
# Stress axis : x y z
#
# Youngs Moduli (GPa) = 82.67322 78.22448 41.55786
#
# Poissons Ratio (x) = 0.47283 -0.01168
# Poissons Ratio (y) = 0.49972 0.23911
# Poissons Ratio (z) = -0.02324 0.45007
#
# Static dielectric constant tensor:
#      x y z
#    x 1.807270 0.032850 -0.005680 
#    y 0.032850 1.893980 0.041460 
#    z -0.005680 0.041460 1.874930 
# 
# From -- ./inp_files/315859.got.cif
#   From: 2010.05.17/outbox.cif.g08.bks.cpg/sg2_158_cif.got.tgz:315859.got - 2010.06.03 11:33:40.
