data_PCOD9005464
_publ_section_title
;
Structure prediction by ZEFSAII (Michael W. Deem and Ramdas Pophale) SiO2 
 PCOD9005464
Probable space group: P -1
;
_chemical_formula_sum "Si O2"
_cell_formula_units_Z 16
_cell_length_a 7.376839
_cell_length_b 15.260286
_cell_length_c 6.340734
_cell_angle_alpha 101.945020
_cell_angle_beta 115.497967
_cell_angle_gamma 90.079235
_cell_volume 627.002217
_symmetry_space_group_name_H-M "P -1"
_symmetry_group_IT_number 2
_symmetry_cell_setting 'triclinic'
loop_
_space_group_symop_operation_xyz
x,y,z
-x,-y,-z
loop_
_atom_site_type_symbol
_atom_site_label
_atom_site_fract_x
_atom_site_fract_y
_atom_site_fract_z
Si Si1 0.046502 0.133525 0.028829
Si Si2 0.721490 0.831227 0.455713
Si Si3 0.812858 0.351807 0.678271
Si Si4 0.295527 0.483586 0.523501
Si Si5 0.545135 0.633654 0.150293
Si Si6 0.204573 0.015966 0.744449
Si Si7 0.777018 0.669018 0.902632
Si Si8 0.311803 0.851383 0.486032
O O1 0.069774 0.143510 0.298408
O O2 0.151490 0.045808 0.965248
O O3 0.179915 0.226211 0.074632
O O4 0.842263 0.134437 0.783854
O O5 0.678117 0.726533 0.329869
O O6 0.699995 0.892329 0.271439
O O7 0.536827 0.854535 0.517180
O O8 0.813604 0.429844 0.543384
O O9 0.659112 0.365759 0.808454
O O10 0.750254 0.250278 0.517235
O O11 0.038106 0.354548 0.874761
O O12 0.500000 0.500000 0.500000
O O13 0.349077 0.453858 0.767946
O O14 0.201172 0.391649 0.321296
O O15 0.568251 0.643489 0.913789
O O16 0.312653 0.929098 0.700071
O O17 0.000000 0.000000 0.500000
#
# Coordination Sequence:
#
# PCOD9005464 Si02
#       8
#     2   2   2   2   2   2   2   2
#     4  10  21  38  64  88 118 162 201 247 310 360
#     4  11  20  39  64  85 123 161 197 253 308 357
#     4   9  21  38  59  88 122 157 202 250 296 360
#     4  10  21  38  62  90 121 157 202 248 303 368
#     4  10  21  38  64  88 118 162 201 247 310 360
#     4  10  21  38  62  90 121 157 202 248 303 368
#     4  11  20  39  64  85 123 161 197 253 308 357
#     4   9  21  38  59  88 122 157 202 250 296 360
#
# _framework density 25.518249999999998
#
# number of rings (size 3 to 8) (size 9 to 14) (size 15 to 20)
#    0.000    2.000    2.500    0.750    0.000    5.000 
#    0.000    5.000    0.000    0.000    0.000    0.000 
#    0.000    0.000    0.000    0.000    0.000    0.000 
#
# Total GULP energy -89389.758143 kJ/mol
# GULP energy per Si atom -5586.859884 kJ/mol
# Density = 2.546017 g / cm^3
# Si number density = 25.518250 Si / 1000 Ang^3
#
#
#
# Elastic Constant Matrix: (Units=GPa)
#
#
# Indices 1 2 3 4 5 6 
#
# 1 65.7402 29.4473 22.4996 -9.1975 3.1134 0.1307
# 2 29.4473 126.5481 44.6149 -0.0273 -17.6158 -14.7208
# 3 22.4996 44.6149 89.5656 9.0661 -7.3043 -7.8752
# 4 -9.1975 -0.0273 9.0661 23.6192 10.1857 -2.4030
# 5 3.1134 -17.6158 -7.3043 10.1857 20.8773 0.0103
# 6 0.1307 -14.7208 -7.8752 -2.4030 0.0103 32.4704
#
#
#
# Elastic Compliance Matrix: (Units=1/GPa)
#
#
# Indices 1 2 3 4 5 6 
#
# 1 0.024840 -0.006758 -0.007215 0.021839 -0.022585 -0.003290
# 2 -0.006758 0.012909 -0.002338 -0.007618 0.014796 0.004744
# 3 -0.007215 -0.002338 0.016712 -0.014135 0.011846 0.001973
# 4 0.021839 -0.007618 -0.014135 0.079099 -0.053221 -0.001099
# 5 -0.022585 0.014796 0.011846 -0.053221 0.093859 0.005704
# 6 -0.003290 0.004744 0.001973 -0.001099 0.005704 0.033357
#
#
# Mechanical properties :
#
#
# Convention : Reuss Voigt Hill
#
# Bulk Modulus (GPa) = 45.79043 52.77527 49.28285
# Shear Modulus (GPa) = 16.62908 27.74618 22.18763
#
# Velocity S-wave (km/s) = 2.55552 3.30101 2.95190
# Velocity P-wave (km/s) = 5.16631 5.93761 5.56534
#
# Compressibility (1/GPa) = 0.02183863
#
# Stress axis : x y z
#
# Youngs Moduli (GPa) = 40.25813 77.46650 59.83633
#
# Poissons Ratio (x) = 0.52354 0.43174
# Poissons Ratio (y) = 0.27207 0.13987
# Poissons Ratio (z) = 0.29047 0.18108
#
# Static dielectric constant tensor:
#      x y z
#    x 2.039660 0.058080 -0.054890 
#    y 0.058080 2.150530 0.008330 
#    z -0.054890 0.008330 2.205810 
# 
# From -- ./inp_files/39216.got.cif
#   From: 2010.05.17/outbox.cif.g08.bks.cpg/sg2_20_cif.got.tgz:39216.got - 2010.06.03 11:33:40.
