data_PCOD9005799
_publ_section_title
;
Structure prediction by ZEFSAII (Michael W. Deem and Ramdas Pophale) SiO2 
 PCOD9005799
Probable space group: P -1
;
_chemical_formula_sum "Si O2"
_cell_formula_units_Z 16
_cell_length_a 16.019523
_cell_length_b 14.327583
_cell_length_c 5.183114
_cell_angle_alpha 90.006847
_cell_angle_beta 82.361646
_cell_angle_gamma 36.182876
_cell_volume 684.258519
_symmetry_space_group_name_H-M "P -1"
_symmetry_group_IT_number 2
_symmetry_cell_setting 'triclinic'
loop_
_space_group_symop_operation_xyz
x,y,z
-x,-y,-z
loop_
_atom_site_type_symbol
_atom_site_label
_atom_site_fract_x
_atom_site_fract_y
_atom_site_fract_z
Si Si1 0.053403 0.600144 0.532709
Si Si2 0.109662 0.039203 0.857702
Si Si3 0.345463 0.095392 0.124509
Si Si4 0.215606 0.033380 0.294251
Si Si5 0.832520 0.684263 0.304006
Si Si6 0.538192 0.547716 0.183933
Si Si7 0.803860 0.364230 0.819103
Si Si8 0.741024 0.250925 0.483818
O O1 0.126382 0.461340 0.694404
O O2 0.159104 0.583424 0.380083
O O3 0.920256 0.775476 0.711969
O O4 0.977438 0.609973 0.330987
O O5 0.185408 0.035294 0.604782
O O6 0.943318 0.222356 0.944644
O O7 0.136287 0.913042 0.725708
O O8 0.189820 0.975339 0.097128
O O9 0.240147 0.217995 0.930122
O O10 0.349230 0.979746 0.171166
O O11 0.279680 0.195156 0.416474
O O12 0.500000 0.000000 0.000000
O O13 0.644077 0.405756 0.347633
O O14 0.382790 0.711489 0.369263
O O15 0.500000 0.500000 0.000000
O O16 0.644960 0.523435 0.003951
O O17 0.799617 0.268198 0.673797
#
# Coordination Sequence:
#
# PCOD9005799 Si02
#       8
#     2   2   2   2   2   2   2   2
#     4   9  21  41  64  98 126 156 216 263 331 369
#     4  11  24  39  66  92 127 164 216 255 320 375
#     4  11  22  42  63  90 131 168 212 252 320 379
#     4  10  23  41  63  92 128 166 197 273 313 369
#     4  10  22  40  68  93 125 170 203 265 319 386
#     4   9  21  40  60  80 123 169 204 264 314 363
#     4  10  21  38  63  94 123 163 207 274 308 372
#     4  10  22  41  59  90 123 172 210 257 319 377
#
# _framework density 23.382977
#
# number of rings (size 3 to 8) (size 9 to 14) (size 15 to 20)
#    0.000    2.000    0.000    3.000    7.000    7.000 
#    2.250    2.500    0.000    0.000    0.000    0.000 
#    0.000    0.000    0.000    0.000    0.000    0.000 
#
# Total GULP energy -89388.568605 kJ/mol
# GULP energy per Si atom -5586.785538 kJ/mol
# Density = 2.332976 g / cm^3
# Si number density = 23.382977 Si / 1000 Ang^3
#
#
#
# Elastic Constant Matrix: (Units=GPa)
#
#
# Indices 1 2 3 4 5 6 
#
# 1 94.0597 8.2615 20.6614 5.2563 -37.9247 -14.7857
# 2 8.2615 55.8156 16.7099 -10.7933 -2.4513 -3.9799
# 3 20.6614 16.7099 88.1051 -2.9104 -18.3710 -15.3731
# 4 5.2563 -10.7933 -2.9104 37.8228 -4.9725 4.6900
# 5 -37.9247 -2.4513 -18.3710 -4.9725 40.2106 6.1277
# 6 -14.7857 -3.9799 -15.3731 4.6900 6.1277 29.2190
#
#
#
# Elastic Compliance Matrix: (Units=1/GPa)
#
#
# Indices 1 2 3 4 5 6 
#
# 1 0.018296 -0.002037 0.000486 -0.001713 0.016211 0.006112
# 2 -0.002037 0.020283 -0.003634 0.005687 -0.001524 -0.000773
# 3 0.000486 -0.003634 0.014182 0.000006 0.005803 0.005994
# 4 -0.001713 0.005687 0.000006 0.029401 0.003205 -0.005480
# 5 0.016211 -0.001524 0.005803 0.003205 0.042878 0.001542
# 6 0.006112 -0.000773 0.005994 -0.005480 0.001542 0.040922
#
#
# Mechanical properties :
#
#
# Convention : Reuss Voigt Hill
#
# Bulk Modulus (GPa) = 23.59027 36.58289 30.08658
# Shear Modulus (GPa) = 26.25178 34.27363 30.26271
#
# Velocity S-wave (km/s) = 3.35429 3.83267 3.60143
# Velocity P-wave (km/s) = 5.01121 5.93842 5.49441
#
# Compressibility (1/GPa) = 0.04239036
#
# Stress axis : x y z
#
# Youngs Moduli (GPa) = 54.65550 49.30175 70.51434
#
# Poissons Ratio (x) = 0.10043 -0.03425
# Poissons Ratio (y) = 0.11134 0.25625
# Poissons Ratio (z) = -0.02654 0.17916
#
# Static dielectric constant tensor:
#      x y z
#    x 2.781450 -0.187500 0.330630 
#    y -0.187500 1.930750 -0.097650 
#    z 0.330630 -0.097650 2.089360 
# 
# From -- ./inp_files/98088.got.cif
#   From: 2010.05.17/outbox.cif.g08.bks.cpg/sg2_50_cif.got.tgz:98088.got - 2010.06.03 11:33:40.
