data_PCOD9005249
_publ_section_title
;
Structure prediction by ZEFSAII (Michael W. Deem and Ramdas Pophale) SiO2 
 PCOD9005249
Probable space group: P -1
;
_chemical_formula_sum "Si O2"
_cell_formula_units_Z 14
_cell_length_a 10.862878
_cell_length_b 12.136959
_cell_length_c 11.528289
_cell_angle_alpha 55.028788
_cell_angle_beta 125.902047
_cell_angle_gamma 142.763069
_cell_volume 727.259323
_symmetry_space_group_name_H-M "P -1"
_symmetry_group_IT_number 2
_symmetry_cell_setting 'triclinic'
loop_
_space_group_symop_operation_xyz
x,y,z
-x,-y,-z
loop_
_atom_site_type_symbol
_atom_site_label
_atom_site_fract_x
_atom_site_fract_y
_atom_site_fract_z
Si Si1 0.656343 0.464509 0.330700
Si Si2 0.106762 0.461066 0.807555
Si Si3 0.973513 0.377508 0.163150
Si Si4 0.764911 0.757342 0.912745
Si Si5 0.644193 0.972414 0.150935
Si Si6 0.210855 0.160753 0.862566
Si Si7 0.322995 0.671236 0.334071
O O1 0.796220 0.473991 0.305558
O O2 0.428202 0.346568 0.218091
O O3 0.764204 0.676325 0.275802
O O4 0.642395 0.378686 0.495076
O O5 0.168533 0.628358 0.817828
O O6 0.851765 0.317515 0.752407
O O7 0.173826 0.361363 0.961818
O O8 0.196282 0.497265 0.278687
O O9 0.865736 0.177468 0.180370
O O10 0.000000 0.500000 0.000000
O O11 0.705257 0.775430 0.997318
O O12 0.969504 0.964394 0.859533
O O13 0.670507 0.872542 0.131470
O O14 0.529497 0.848707 0.277024
O O15 0.500000 0.000000 0.000000
#
# Coordination Sequence:
#
# PCOD9005249 Si02
#       7
#     2   2   2   2   2   2   2
#     4  11  23  41  63  90 126 162 199 254 313 358
#     4   9  20  42  64  87 123 160 205 254 297 355
#     4  10  21  38  61  89 120 153 203 251 294 353
#     4  10  21  40  66  91 119 159 209 254 295 364
#     4  12  23  38  65  91 120 161 208 251 299 364
#     4  10  23  38  62  92 121 162 205 249 304 360
#     4  10  24  40  62  95 121 160 202 252 313 359
#
# _framework density 19.250354000000002
#
# number of rings (size 3 to 8) (size 9 to 14) (size 15 to 20)
#    0.857    0.857    1.429    3.857    4.000    2.857 
#    0.000    2.143    0.000    0.000    0.000    0.000 
#    0.000    0.000    0.000    0.000    0.000    0.000 
#
# Total GULP energy -78137.093943 kJ/mol
# GULP energy per Si atom -5581.220996 kJ/mol
# Density = 1.920654 g / cm^3
# Si number density = 19.250354 Si / 1000 Ang^3
#
#
#
# Elastic Constant Matrix: (Units=GPa)
#
#
# Indices 1 2 3 4 5 6 
#
# 1 82.1219 -3.7928 45.9825 -11.7708 -9.3287 -9.7685
# 2 -3.7928 47.2568 27.1984 1.6857 -1.6189 7.4442
# 3 45.9825 27.1984 103.2292 0.3405 -22.5687 8.3235
# 4 -11.7708 1.6857 0.3405 18.1944 6.2409 0.8123
# 5 -9.3287 -1.6189 -22.5687 6.2409 20.1793 -4.3643
# 6 -9.7685 7.4442 8.3235 0.8123 -4.3643 34.1942
#
#
#
# Elastic Compliance Matrix: (Units=1/GPa)
#
#
# Indices 1 2 3 4 5 6 
#
# 1 0.023564 0.008795 -0.015579 0.017782 -0.009825 0.006933
# 2 0.008795 0.029761 -0.014306 0.007541 -0.012364 -0.002241
# 3 -0.015579 -0.014306 0.026445 -0.017953 0.025905 -0.004040
# 4 0.017782 0.007541 -0.017953 0.078070 -0.035079 0.001477
# 5 -0.009825 -0.012364 0.025905 -0.035079 0.084980 0.005259
# 6 0.006933 -0.002241 -0.004040 0.001477 0.005259 0.033333
#
#
# Mechanical properties :
#
#
# Convention : Reuss Voigt Hill
#
# Bulk Modulus (GPa) = 26.60391 41.26491 33.93441
# Shear Modulus (GPa) = 15.11200 25.39489 20.25345
#
# Velocity S-wave (km/s) = 2.80487 3.63601 3.24714
# Velocity P-wave (km/s) = 4.93353 6.25379 5.63247
#
# Compressibility (1/GPa) = 0.03758846
#
# Stress axis : x y z
#
# Youngs Moduli (GPa) = 42.43807 33.60084 37.81496
#
# Poissons Ratio (x) = -0.29551 0.58912
# Poissons Ratio (y) = -0.37323 0.54098
# Poissons Ratio (z) = 0.66115 0.48070
#
# Static dielectric constant tensor:
#      x y z
#    x 1.698310 0.008040 -0.002020 
#    y 0.008040 1.687260 0.012790 
#    z -0.002020 0.012790 1.636520 
# 
# From -- ./inp_files/423083.got.cif
#   From: 2010.05.17/outbox.cif.g08.bks.cpg/sg2_212_cif.got.tgz:423083.got - 2010.06.03 11:33:40.
