data_PCOD9005294
_publ_section_title
;
Structure prediction by ZEFSAII (Michael W. Deem and Ramdas Pophale) SiO2 
 PCOD9005294
Probable space group: P -1
;
_chemical_formula_sum "Si O2"
_cell_formula_units_Z 16
_cell_length_a 5.028931
_cell_length_b 7.973559
_cell_length_c 22.798280
_cell_angle_alpha 133.182926
_cell_angle_beta 121.421393
_cell_angle_gamma 60.774672
_cell_volume 555.996028
_symmetry_space_group_name_H-M "P -1"
_symmetry_group_IT_number 2
_symmetry_cell_setting 'triclinic'
loop_
_space_group_symop_operation_xyz
x,y,z
-x,-y,-z
loop_
_atom_site_type_symbol
_atom_site_label
_atom_site_fract_x
_atom_site_fract_y
_atom_site_fract_z
Si Si1 0.329805 0.312976 0.490247
Si Si2 0.124013 0.874296 0.423441
Si Si3 0.398796 0.965949 0.177036
Si Si4 0.592970 0.390103 0.235656
Si Si5 0.038743 0.210925 0.733916
Si Si6 0.860515 0.341821 0.009198
Si Si7 0.838615 0.770405 0.667749
Si Si8 0.568935 0.262560 0.073172
O O1 0.606576 0.344265 0.574506
O O2 0.402062 0.291526 0.423649
O O3 0.000000 0.500000 0.500000
O O4 0.268759 0.064442 0.448419
O O5 0.884571 0.810162 0.331948
O O6 0.000000 0.000000 0.500000
O O7 0.141404 0.857485 0.087669
O O8 0.679616 0.755756 0.182986
O O9 0.513970 0.142721 0.187959
O O10 0.299459 0.108475 0.259324
O O11 0.282676 0.595136 0.252671
O O12 0.691248 0.345101 0.168647
O O13 0.862588 0.425879 0.322004
O O14 0.979681 0.966137 0.695167
O O15 0.500000 0.500000 0.000000
O O16 0.830320 0.259872 0.052633
O O17 0.200823 0.415898 0.059690
O O18 0.500000 0.000000 0.000000
#
# Coordination Sequence:
#
# PCOD9005294 Si02
#       8
#     2   2   2   2   2   2   2   2
#     4  10  21  38  61  91 123 163 206 258 318 380
#     4  10  21  38  62  89 125 160 208 260 312 384
#     4  11  24  41  62  90 126 164 211 267 321 387
#     4  11  24  40  64  88 127 165 212 265 323 387
#     4  10  23  41  60  92 123 165 208 260 324 384
#     4  12  27  44  70  98 132 176 225 275 334 395
#     4  10  23  40  61  90 127 162 208 263 320 385
#     4  12  25  45  68  97 133 174 224 276 332 393
#
# _framework density 28.777184999999999
#
# number of rings (size 3 to 8) (size 9 to 14) (size 15 to 20)
#    0.000    1.250    1.250    3.750    5.250    2.500 
#    0.000    0.000    0.000    0.000    0.000    0.000 
#    0.000    0.000    0.000    0.000    0.000    0.000 
#
# Total GULP energy -89703.564997 kJ/mol
# GULP energy per Si atom -5606.472812 kJ/mol
# Density = 2.871169 g / cm^3
# Si number density = 28.777185 Si / 1000 Ang^3
#
#
#
# Elastic Constant Matrix: (Units=GPa)
#
#
# Indices 1 2 3 4 5 6 
#
# 1 121.3613 28.8810 55.6340 -16.9025 -9.8678 -2.2604
# 2 28.8810 163.3560 41.7569 -44.7690 -8.0779 -27.2717
# 3 55.6340 41.7569 221.7641 -40.9353 -8.5636 -6.7311
# 4 -16.9025 -44.7690 -40.9353 51.4504 -7.6261 -3.2688
# 5 -9.8678 -8.0779 -8.5636 -7.6261 69.2840 -4.7783
# 6 -2.2604 -27.2717 -6.7311 -3.2688 -4.7783 59.3154
#
#
#
# Elastic Compliance Matrix: (Units=1/GPa)
#
#
# Indices 1 2 3 4 5 6 
#
# 1 0.009599 -0.000896 -0.002033 0.000911 0.001102 -0.000138
# 2 -0.000896 0.009649 0.000324 0.009039 0.002386 0.005129
# 3 -0.002033 0.000324 0.005862 0.004500 0.001042 0.001069
# 4 0.000911 0.009039 0.004500 0.032482 0.005795 0.006958
# 5 0.001102 0.002386 0.001042 0.005795 0.015832 0.002852
# 6 -0.000138 0.005129 0.001069 0.006958 0.002852 0.019947
#
#
# Mechanical properties :
#
#
# Convention : Reuss Voigt Hill
#
# Bulk Modulus (GPa) = 50.25286 84.33611 67.29448
# Shear Modulus (GPa) = 47.52298 61.35727 54.44012
#
# Velocity S-wave (km/s) = 4.06816 4.62253 4.35418
# Velocity P-wave (km/s) = 6.29025 7.60661 6.97954
#
# Compressibility (1/GPa) = 0.01989937
#
# Stress axis : x y z
#
# Youngs Moduli (GPa) = 104.17824 103.64221 170.60207
#
# Poissons Ratio (x) = 0.09291 0.34681
# Poissons Ratio (y) = 0.09339 -0.05534
# Poissons Ratio (z) = 0.21178 -0.03362
#
# Static dielectric constant tensor:
#      x y z
#    x 2.311450 -0.013670 0.030270 
#    y -0.013670 2.368520 -0.007270 
#    z 0.030270 -0.007270 2.265330 
# 
# From -- ./inp_files/47674.got.cif
#   From: 2010.05.17/outbox.cif.g08.bks.cpg/sg2_24_cif.got.tgz:47674.got - 2010.06.03 11:33:40.
