data_PCOD9005545
_publ_section_title
;
Structure prediction by ZEFSAII (Michael W. Deem and Ramdas Pophale) SiO2 
 PCOD9005545
Probable space group: P -1
;
_chemical_formula_sum "Si O2"
_cell_formula_units_Z 12
_cell_length_a 9.978197
_cell_length_b 14.132310
_cell_length_c 8.811699
_cell_angle_alpha 38.294114
_cell_angle_beta 44.478156
_cell_angle_gamma 41.039236
_cell_volume 482.495358
_symmetry_space_group_name_H-M "P -1"
_symmetry_group_IT_number 2
_symmetry_cell_setting 'triclinic'
loop_
_space_group_symop_operation_xyz
x,y,z
-x,-y,-z
loop_
_atom_site_type_symbol
_atom_site_label
_atom_site_fract_x
_atom_site_fract_y
_atom_site_fract_z
Si Si1 0.724453 0.383232 0.774188
Si Si2 0.982545 0.312719 0.383120
Si Si3 0.674957 0.631988 0.763169
Si Si4 0.152168 0.195732 0.090186
Si Si5 0.431528 0.089804 0.732067
Si Si6 0.972520 0.955742 0.876944
O O1 0.773683 0.492009 0.726443
O O2 0.769806 0.414510 0.525682
O O3 0.482953 0.417041 0.952193
O O4 0.878051 0.186891 0.946328
O O5 0.158555 0.338955 0.305065
O O6 0.016778 0.332283 0.152929
O O7 0.010527 0.119333 0.618080
O O8 0.544463 0.809475 0.556006
O O9 0.001828 0.135343 0.193401
O O10 0.344587 0.042159 0.215959
O O11 0.288944 0.225186 0.807235
O O12 0.275114 0.001288 0.937030
#
# Coordination Sequence:
#
# PCOD9005545 Si02
#       6
#     2   2   2   2   2   2
#     4  11  25  42  61  88 122 160 205 241 304 355
#     4  12  22  37  66  92 120 154 203 252 291 358
#     4  11  25  42  61  86 124 163 196 253 294 352
#     4   9  21  37  61  95 123 153 193 254 300 346
#     4   9  20  39  63  87 127 154 198 241 304 352
#     4  10  21  38  62  93 119 156 198 242 301 356
#
# _framework density 24.870708
#
# number of rings (size 3 to 8) (size 9 to 14) (size 15 to 20)
#    1.000    0.667    1.667    2.500    2.333    1.333 
#    0.000    3.333    0.000    5.000    0.000    0.000 
#    0.000    0.000    0.000    0.000    0.000    0.000 
#
# Total GULP energy -67066.122809 kJ/mol
# GULP energy per Si atom -5588.843567 kJ/mol
# Density = 2.481410 g / cm^3
# Si number density = 24.870708 Si / 1000 Ang^3
#
#
#
# Elastic Constant Matrix: (Units=GPa)
#
#
# Indices 1 2 3 4 5 6 
#
# 1 37.4128 33.3351 59.8737 5.5851 7.7292 22.9313
# 2 33.3351 100.7430 51.2733 16.6369 -12.1838 34.4631
# 3 59.8737 51.2733 63.0619 22.9505 -20.2968 10.8727
# 4 5.5851 16.6369 22.9505 62.4566 3.9607 10.8743
# 5 7.7292 -12.1838 -20.2968 3.9607 25.5344 -10.0969
# 6 22.9313 34.4631 10.8727 10.8743 -10.0969 43.9971
#
#
#
# Elastic Compliance Matrix: (Units=1/GPa)
#
#
# Indices 1 2 3 4 5 6 
#
# 1 -0.006124 -0.007884 0.019076 -0.007421 0.018665 0.010771
# 2 -0.007884 0.017352 -0.002691 -0.002118 0.006132 -0.006887
# 3 0.019076 -0.002691 -0.004456 0.003586 -0.015584 -0.011196
# 4 -0.007421 -0.002118 0.003586 0.015557 0.002186 0.001297
# 5 0.018665 0.006132 -0.015584 0.002186 0.021200 -0.006356
# 6 0.010771 -0.006887 -0.011196 0.001297 -0.006356 0.023497
#
#
# Mechanical properties :
#
#
# Convention : Reuss Voigt Hill
#
# Bulk Modulus (GPa) = 42.06441 54.46467 48.26454
# Shear Modulus (GPa) = 86.28451 30.18001 58.23226
#
# Velocity S-wave (km/s) = 5.89649 3.48728 4.84405
# Velocity P-wave (km/s) = 7.95663 6.17750 7.12283
#
# Compressibility (1/GPa) = 0.02377306
#
# Stress axis : x y z
#
# Youngs Moduli (GPa) = -163.29303 57.63089 -224.39852
#
# Poissons Ratio (x) = 0.45436 4.28051
# Poissons Ratio (y) = -1.28739 -0.60381
# Poissons Ratio (z) = 3.11490 0.15507
#
# Static dielectric constant tensor:
#      x y z
#    x 1.898550 0.045480 0.013190 
#    y 0.045480 2.048880 0.029030 
#    z 0.013190 0.029030 1.974760 
# 
# From -- ./inp_files/173924.got.cif
#   From: 2010.05.17/outbox.cif.g08.bks.cpg/sg2_87_cif.got.tgz:173924.got - 2010.06.03 11:33:40.
