data_PCOD9005757
_publ_section_title
;
Structure prediction by ZEFSAII (Michael W. Deem and Ramdas Pophale) SiO2 
 PCOD9005757
Probable space group: P -1
;
_chemical_formula_sum "Si O2"
_cell_formula_units_Z 16
_cell_length_a 13.033830
_cell_length_b 5.003515
_cell_length_c 11.798170
_cell_angle_alpha 83.542005
_cell_angle_beta 92.278132
_cell_angle_gamma 76.741271
_cell_volume 742.444855
_symmetry_space_group_name_H-M "P -1"
_symmetry_group_IT_number 2
_symmetry_cell_setting 'triclinic'
loop_
_space_group_symop_operation_xyz
x,y,z
-x,-y,-z
loop_
_atom_site_type_symbol
_atom_site_label
_atom_site_fract_x
_atom_site_fract_y
_atom_site_fract_z
Si Si1 0.575569 0.711387 0.487568
Si Si2 0.087136 0.853217 0.422748
Si Si3 0.123614 0.369079 0.122815
Si Si4 0.433812 0.725386 0.900141
Si Si5 0.216787 0.626715 0.908743
Si Si6 0.211946 0.290922 0.384146
Si Si7 0.616869 0.692080 0.229408
Si Si8 0.001103 0.064075 0.837466
O O1 0.500000 0.500000 0.500000
O O2 0.673684 0.670733 0.579843
O O3 0.619810 0.725978 0.361347
O O4 0.500000 0.000000 0.500000
O O5 0.130381 0.524471 0.441542
O O6 0.186218 0.997596 0.426067
O O7 0.032004 0.914671 0.295638
O O8 0.000000 0.000000 0.500000
O O9 0.185968 0.335915 0.246883
O O10 0.082013 0.097954 0.105690
O O11 0.022732 0.627696 0.128149
O O12 0.190230 0.453360 0.020886
O O13 0.313762 0.763339 0.935927
O O14 0.439609 0.554649 0.791216
O O15 0.444372 0.030834 0.853617
O O16 0.500000 0.500000 0.000000
O O17 0.267330 0.422852 0.816908
O O18 0.115870 0.866508 0.862652
#
# Coordination Sequence:
#
# PCOD9005757 Si02
#       8
#     2   2   2   2   2   2   2   2
#     4  12  26  46  69  94 131 174 218 278 330 382
#     4  10  21  38  63  92 126 168 208 262 318 380
#     4  10  22  39  59  91 128 166 207 250 319 385
#     4  10  23  43  62  95 127 160 214 264 325 379
#     4  10  24  36  67  88 129 162 206 266 319 370
#     4  10  23  42  61  93 126 166 216 257 319 395
#     4  10  25  41  65  96 123 163 221 258 328 378
#     4  10  22  36  58  93 126 163 208 248 315 387
#
# _framework density 21.550424
#
# number of rings (size 3 to 8) (size 9 to 14) (size 15 to 20)
#    0.750    1.000    0.000    3.000    5.250    3.000 
#    0.000    0.000    0.000    0.000    0.000    0.000 
#    0.000    0.000    0.000    0.000    0.000    0.000 
#
# Total GULP energy -89304.157242 kJ/mol
# GULP energy per Si atom -5581.509828 kJ/mol
# Density = 2.150137 g / cm^3
# Si number density = 21.550424 Si / 1000 Ang^3
#
#
#
# Elastic Constant Matrix: (Units=GPa)
#
#
# Indices 1 2 3 4 5 6 
#
# 1 80.3731 17.6362 18.9608 -0.4695 10.9382 -10.0465
# 2 17.6362 109.8907 5.6773 5.3494 -1.8286 -0.8148
# 3 18.9608 5.6773 53.8000 6.6345 -9.2236 -14.9543
# 4 -0.4695 5.3494 6.6345 26.0363 -5.0455 -1.7432
# 5 10.9382 -1.8286 -9.2236 -5.0455 36.5613 -2.5628
# 6 -10.0465 -0.8148 -14.9543 -1.7432 -2.5628 29.8116
#
#
#
# Elastic Compliance Matrix: (Units=1/GPa)
#
#
# Indices 1 2 3 4 5 6 
#
# 1 0.015354 -0.002306 -0.005843 0.001214 -0.005893 0.001745
# 2 -0.002306 0.009570 0.000039 -0.001883 0.000881 -0.000531
# 3 -0.005843 0.000039 0.025807 -0.004281 0.008473 0.011456
# 4 0.001214 -0.001883 -0.004281 0.040777 0.004157 0.000952
# 5 -0.005893 0.000881 0.008473 0.004157 0.032241 0.005303
# 6 0.001745 -0.000531 0.011456 0.000952 0.005303 0.040376
#
#
# Mechanical properties :
#
#
# Convention : Reuss Voigt Hill
#
# Bulk Modulus (GPa) = 28.97697 36.51248 32.74473
# Shear Modulus (GPa) = 26.06214 31.93446 28.99830
#
# Velocity S-wave (km/s) = 3.48135 3.85365 3.67222
# Velocity P-wave (km/s) = 5.44381 6.06469 5.76262
#
# Compressibility (1/GPa) = 0.03451016
#
# Stress axis : x y z
#
# Youngs Moduli (GPa) = 65.13128 104.48792 38.74893
#
# Poissons Ratio (x) = 0.24100 0.22640
# Poissons Ratio (y) = 0.15022 -0.00150
# Poissons Ratio (z) = 0.38055 -0.00405
#
# Static dielectric constant tensor:
#      x y z
#    x 1.772040 -0.005000 0.025950 
#    y -0.005000 1.810450 -0.021660 
#    z 0.025950 -0.021660 1.812380 
# 
# From -- ./inp_files/410541.got.cif
#   From: 2010.05.17/outbox.cif.g08.bks.cpg/sg2_206_cif.got.tgz:410541.got - 2010.06.03 11:33:40.
