data_PCOD9005761
_publ_section_title
;
Structure prediction by ZEFSAII (Michael W. Deem and Ramdas Pophale) SiO2 
 PCOD9005761
Probable space group: P -1
;
_chemical_formula_sum "Si O2"
_cell_formula_units_Z 16
_cell_length_a 14.298969
_cell_length_b 11.713913
_cell_length_c 8.534013
_cell_angle_alpha 81.354093
_cell_angle_beta 33.121034
_cell_angle_gamma 67.832001
_cell_volume 683.441593
_symmetry_space_group_name_H-M "P -1"
_symmetry_group_IT_number 2
_symmetry_cell_setting 'triclinic'
loop_
_space_group_symop_operation_xyz
x,y,z
-x,-y,-z
loop_
_atom_site_type_symbol
_atom_site_label
_atom_site_fract_x
_atom_site_fract_y
_atom_site_fract_z
Si Si1 0.180105 0.107410 0.017126
Si Si2 0.238824 0.478777 0.205183
Si Si3 0.129265 0.265863 0.341677
Si Si4 0.859121 0.205794 0.183827
Si Si5 0.419910 0.511513 0.436689
Si Si6 0.772890 0.863227 0.466390
Si Si7 0.432831 0.887017 0.511172
Si Si8 0.183418 0.408633 0.654198
O O1 0.088161 0.180402 0.290828
O O2 0.003558 0.137857 0.140375
O O3 0.340067 0.163161 0.768195
O O4 0.319422 0.955360 0.816516
O O5 0.229328 0.359410 0.151060
O O6 0.189065 0.467521 0.460211
O O7 0.077812 0.617859 0.336196
O O8 0.442288 0.473048 0.887285
O O9 0.265458 0.160535 0.298369
O O10 0.778921 0.356448 0.304530
O O11 0.671669 0.189238 0.406166
O O12 0.012150 0.149209 0.839259
O O13 0.500000 0.500000 0.500000
O O14 0.371788 0.396857 0.481587
O O15 0.800548 0.731747 0.369804
O O16 0.629783 0.991419 0.549491
O O17 0.000000 0.500000 0.000000
#
# Coordination Sequence:
#
# PCOD9005761 Si02
#       8
#     2   2   2   2   2   2   2   2
#     4  10  21  39  64  88 117 172 214 263 329 379
#     4  10  23  39  62  95 138 170 218 270 328 406
#     4  10  21  38  63  92 129 173 212 266 341 384
#     4  11  22  43  66  91 134 170 220 269 332 386
#     4  12  25  39  67 102 133 171 221 272 330 401
#     4  10  21  39  63  92 131 169 214 277 321 395
#     4  10  23  41  64  94 125 167 230 271 318 391
#     4  11  23  41  64  94 133 177 212 267 341 397
#
# _framework density 23.410924999999999
#
# number of rings (size 3 to 8) (size 9 to 14) (size 15 to 20)
#    0.000    1.500    1.250    4.125    5.250    3.500 
#    0.000    3.750    0.000    0.000    0.000    0.000 
#    0.000    0.000    0.000    0.000    0.000    0.000 
#
# Total GULP energy -89165.817780 kJ/mol
# GULP energy per Si atom -5572.863611 kJ/mol
# Density = 2.335764 g / cm^3
# Si number density = 23.410925 Si / 1000 Ang^3
#
#
#
# Elastic Constant Matrix: (Units=GPa)
#
#
# Indices 1 2 3 4 5 6 
#
# 1 99.6957 26.1470 22.5346 -13.8066 -9.0033 26.8733
# 2 26.1470 57.3982 1.2592 -10.2141 10.4123 10.7981
# 3 22.5346 1.2592 58.8270 -4.4251 -5.0811 3.3360
# 4 -13.8066 -10.2141 -4.4251 19.4520 7.3664 -4.7090
# 5 -9.0033 10.4123 -5.0811 7.3664 37.6753 -3.1771
# 6 26.8733 10.7981 3.3360 -4.7090 -3.1771 49.0620
#
#
#
# Elastic Compliance Matrix: (Units=1/GPa)
#
#
# Indices 1 2 3 4 5 6 
#
# 1 0.015015 -0.005434 -0.004712 0.004061 0.003145 -0.006115
# 2 -0.005434 0.024421 0.001731 0.012859 -0.010494 -0.001961
# 3 -0.004712 0.001731 0.018902 0.001886 0.000672 0.001139
# 4 0.004061 0.012859 0.001886 0.067405 -0.015484 0.000284
# 5 0.003145 -0.010494 0.000672 -0.015484 0.033415 0.001219
# 6 -0.006115 -0.001961 0.001139 0.000284 0.001219 0.024192
#
#
# Mechanical properties :
#
#
# Convention : Reuss Voigt Hill
#
# Bulk Modulus (GPa) = 24.09149 35.08915 29.59032
# Shear Modulus (GPa) = 23.36273 32.30322 27.83298
#
# Velocity S-wave (km/s) = 3.16245 3.71864 3.45177
# Velocity P-wave (km/s) = 4.86290 5.78435 5.34352
#
# Compressibility (1/GPa) = 0.04150843
#
# Stress axis : x y z
#
# Youngs Moduli (GPa) = 66.59818 40.94913 52.90402
#
# Poissons Ratio (x) = 0.22253 0.24927
# Poissons Ratio (y) = 0.36191 -0.09158
# Poissons Ratio (z) = 0.31379 -0.07089
#
# Static dielectric constant tensor:
#      x y z
#    x 1.970340 -0.031210 0.061990 
#    y -0.031210 1.889590 -0.023140 
#    z 0.061990 -0.023140 1.940080 
# 
# From -- ./inp_files/201969.got.cif
#   From: 2010.05.17/outbox.cif.g08.bks.cpg/sg2_101_cif.got.tgz:201969.got - 2010.06.03 11:33:40.
