data_PCOD9005467
_publ_section_title
;
Structure prediction by ZEFSAII (Michael W. Deem and Ramdas Pophale) SiO2 
 PCOD9005467
Probable space group: P -1
;
_chemical_formula_sum "Si O2"
_cell_formula_units_Z 15
_cell_length_a 28.056966
_cell_length_b 6.516793
_cell_length_c 5.065514
_cell_angle_alpha 108.318113
_cell_angle_beta 60.657642
_cell_angle_gamma 132.508772
_cell_volume 594.962955
_symmetry_space_group_name_H-M "P -1"
_symmetry_group_IT_number 2
_symmetry_cell_setting 'triclinic'
loop_
_space_group_symop_operation_xyz
x,y,z
-x,-y,-z
loop_
_atom_site_type_symbol
_atom_site_label
_atom_site_fract_x
_atom_site_fract_y
_atom_site_fract_z
Si Si1 0.000000 0.000000 0.500000
Si Si2 0.328653 0.299935 0.347591
Si Si3 0.899117 0.610073 0.119122
Si Si4 0.213790 0.538730 0.985003
Si Si5 0.546690 0.058172 0.646745
Si Si6 0.169029 0.872032 0.536575
Si Si7 0.897134 0.991088 0.644163
Si Si8 0.643728 0.917127 0.311570
O O1 0.961846 0.151128 0.730717
O O2 0.052676 0.248740 0.207142
O O3 0.383796 0.620315 0.404144
O O4 0.334127 0.127816 0.486502
O O5 0.246643 0.165066 0.496137
O O6 0.353917 0.265151 0.985686
O O7 0.873442 0.312526 0.164724
O O8 0.927066 0.822287 0.379724
O O9 0.826027 0.548058 0.220123
O O10 0.190523 0.703867 0.259784
O O11 0.177181 0.253625 0.123470
O O12 0.295919 0.766323 0.820899
O O13 0.500000 0.000000 0.500000
O O14 0.572287 0.873871 0.503889
O O15 0.500000 0.000000 0.000000
O O16 0.118607 0.886510 0.494981
#
# Coordination Sequence:
#
# PCOD9005467 Si02
#       8
#     1   2   2   2   2   2   2   2
#     4   8  20  38  56  84 126 176 202 258 354 402
#     4  11  25  44  71 104 131 182 235 276 350 403
#     4   9  19  39  57  84 124 158 212 264 324 399
#     4  10  21  38  62  90 122 162 222 276 337 380
#     4  12  28  46  70 106 140 182 226 269 342 426
#     4  10  21  38  62  91 120 161 226 276 319 392
#     4   9  21  37  58  86 125 168 209 273 326 398
#     4  11  25  45  73  98 142 179 222 296 335 394
#
# _framework density 25.211655
#
# number of rings (size 3 to 8) (size 9 to 14) (size 15 to 20)
#    0.800    1.067    1.333    1.600    1.867    8.533 
#    0.000    0.667    0.000    0.000    0.000    0.000 
#    0.000    0.000    0.000    0.000    0.000    0.000 
#
# Total GULP energy -83807.353267 kJ/mol
# GULP energy per Si atom -5587.156884 kJ/mol
# Density = 2.515427 g / cm^3
# Si number density = 25.211655 Si / 1000 Ang^3
#
#
#
# Elastic Constant Matrix: (Units=GPa)
#
#
# Indices 1 2 3 4 5 6 
#
# 1 164.9613 28.0386 63.7220 -19.6782 3.3847 -11.0181
# 2 28.0386 96.2484 20.1644 -18.4013 -5.3149 19.5437
# 3 63.7220 20.1644 136.3052 -9.3322 -0.9990 -9.4653
# 4 -19.6782 -18.4013 -9.3322 37.0963 -3.6220 12.6024
# 5 3.3847 -5.3149 -0.9990 -3.6220 53.1303 -2.0794
# 6 -11.0181 19.5437 -9.4653 12.6024 -2.0794 42.9604
#
#
#
# Elastic Compliance Matrix: (Units=1/GPa)
#
#
# Indices 1 2 3 4 5 6 
#
# 1 0.007930 -0.001534 -0.003244 0.002113 -0.000522 0.001372
# 2 -0.001534 0.015391 -0.001586 0.010225 0.001888 -0.010653
# 3 -0.003244 -0.001586 0.009179 -0.000920 0.000244 0.002193
# 4 0.002113 0.010225 -0.000920 0.038450 0.002887 -0.015452
# 5 -0.000522 0.001888 0.000244 0.002887 0.019212 -0.000856
# 6 0.001372 -0.010653 0.002193 -0.015452 -0.000856 0.033450
#
#
# Mechanical properties :
#
#
# Convention : Reuss Voigt Hill
#
# Bulk Modulus (GPa) = 50.57552 69.04053 59.80803
# Shear Modulus (GPa) = 34.98204 45.67671 40.32937
#
# Velocity S-wave (km/s) = 3.72900 4.26106 4.00388
# Velocity P-wave (km/s) = 6.21647 7.18698 6.71927
#
# Compressibility (1/GPa) = 0.01977241
#
# Stress axis : x y z
#
# Youngs Moduli (GPa) = 126.09729 64.97254 108.94564
#
# Poissons Ratio (x) = 0.09967 0.35346
# Poissons Ratio (y) = 0.19344 0.17274
# Poissons Ratio (z) = 0.40911 0.10302
#
# Static dielectric constant tensor:
#      x y z
#    x 1.976780 0.001260 -0.002510 
#    y 0.001260 2.148150 0.124840 
#    z -0.002510 0.124840 2.026070 
# 
# From -- ./inp_files/9269.got.cif
#   From: 2010.05.17/outbox.cif.g08.bks.cpg/sg2_5_cif.got.tgz:9269.got - 2010.06.03 11:33:40.
