data_PCOD9005913
_publ_section_title
;
Structure prediction by ZEFSAII (Michael W. Deem and Ramdas Pophale) SiO2 
 PCOD9005913
Probable space group: P -1
;
_chemical_formula_sum "Si O2"
_cell_formula_units_Z 16
_cell_length_a 5.506438
_cell_length_b 18.338174
_cell_length_c 7.863441
_cell_angle_alpha 124.469214
_cell_angle_beta 91.812938
_cell_angle_gamma 101.443840
_cell_volume 631.352038
_symmetry_space_group_name_H-M "P -1"
_symmetry_group_IT_number 2
_symmetry_cell_setting 'triclinic'
loop_
_space_group_symop_operation_xyz
x,y,z
-x,-y,-z
loop_
_atom_site_type_symbol
_atom_site_label
_atom_site_fract_x
_atom_site_fract_y
_atom_site_fract_z
Si Si1 0.709315 0.942693 0.417919
Si Si2 0.350925 0.453998 0.704101
Si Si3 0.635191 0.952410 0.782953
Si Si4 0.177386 0.407308 0.279350
Si Si5 0.065055 0.282755 0.608533
Si Si6 0.767048 0.380489 0.943654
Si Si7 0.285333 0.241146 0.895937
Si Si8 0.092884 0.889125 0.846186
O O1 0.654833 0.896855 0.541592
O O2 0.686858 0.857757 0.179708
O O3 0.500000 0.000000 0.500000
O O4 0.000000 0.000000 0.500000
O O5 0.160254 0.431521 0.507548
O O6 0.604675 0.512626 0.697744
O O7 0.325427 0.354392 0.652073
O O8 0.293503 0.521797 0.935087
O O9 0.342634 0.938963 0.802388
O O10 0.828777 0.915982 0.857694
O O11 0.779030 0.061586 0.913055
O O12 0.239518 0.308036 0.131596
O O13 0.945399 0.394654 0.132378
O O14 0.082769 0.234540 0.728390
O O15 0.892159 0.349708 0.741493
O O16 0.962331 0.212723 0.361892
O O17 0.536462 0.299182 0.889868
#
# Coordination Sequence:
#
# PCOD9005913 Si02
#       8
#     2   2   2   2   2   2   2   2
#     4  12  26  41  68  96 131 172 217 269 322 393
#     4  10  21  39  60  96 121 168 204 262 319 383
#     4  10  21  42  64  90 126 165 219 253 335 370
#     4   9  21  40  64  84 132 162 207 256 320 388
#     4  11  22  36  63  91 126 159 218 264 316 380
#     4  10  21  38  64  86 126 164 207 263 318 381
#     4  10  23  41  61  90 122 167 210 262 320 380
#     4  10  21  39  67  89 126 170 203 276 314 385
#
# _framework density 25.342438000000001
#
# number of rings (size 3 to 8) (size 9 to 14) (size 15 to 20)
#    0.000    1.750    1.250    2.250    3.500    6.500 
#    0.000    0.000    0.000    0.000    0.000    0.000 
#    0.000    0.000    0.000    0.000    0.000    0.000 
#
# Total GULP energy -89198.366110 kJ/mol
# GULP energy per Si atom -5574.897882 kJ/mol
# Density = 2.528476 g / cm^3
# Si number density = 25.342438 Si / 1000 Ang^3
#
#
#
# Elastic Constant Matrix: (Units=GPa)
#
#
# Indices 1 2 3 4 5 6 
#
# 1 117.5360 32.1342 45.6514 19.1104 -10.2198 -5.8270
# 2 32.1342 54.3407 48.6962 20.4439 -6.3894 -8.0190
# 3 45.6514 48.6962 171.5833 38.4230 -11.7475 4.9565
# 4 19.1104 20.4439 38.4230 50.5851 5.1469 2.3552
# 5 -10.2198 -6.3894 -11.7475 5.1469 42.5302 -1.0327
# 6 -5.8270 -8.0190 4.9565 2.3552 -1.0327 20.0663
#
#
#
# Elastic Compliance Matrix: (Units=1/GPa)
#
#
# Indices 1 2 3 4 5 6 
#
# 1 0.010631 -0.003988 -0.001236 -0.001755 0.001877 0.002101
# 2 -0.003988 0.031871 -0.006508 -0.007427 0.003276 0.014226
# 3 -0.001236 -0.006508 0.009086 -0.003747 0.001575 -0.004683
# 4 -0.001755 -0.007427 -0.003747 0.027172 -0.006007 -0.006050
# 5 0.001877 0.003276 0.001575 -0.006007 0.025703 0.003493
# 6 0.002101 0.014226 -0.004683 -0.006050 0.003493 0.058177
#
#
# Mechanical properties :
#
#
# Convention : Reuss Voigt Hill
#
# Bulk Modulus (GPa) = 35.55616 66.26931 50.91273
# Shear Modulus (GPa) = 25.57836 37.10153 31.33995
#
# Velocity S-wave (km/s) = 3.18041 3.83039 3.52043
# Velocity P-wave (km/s) = 5.24856 6.76526 6.05459
#
# Compressibility (1/GPa) = 0.02812452
#
# Stress axis : x y z
#
# Youngs Moduli (GPa) = 94.06342 31.37640 110.06093
#
# Poissons Ratio (x) = 0.12514 0.13602
# Poissons Ratio (y) = 0.37515 0.71624
# Poissons Ratio (z) = 0.11625 0.20419
#
# Static dielectric constant tensor:
#      x y z
#    x 2.129650 -0.132040 0.014660 
#    y -0.132040 2.089700 -0.007740 
#    z 0.014660 -0.007740 2.055500 
# 
# From -- ./inp_files/38779.got.cif
#   From: 2010.05.17/outbox.cif.g08.bks.cpg/sg2_20_cif.got.tgz:38779.got - 2010.06.03 11:33:40.
