data_PCOD9005660
_publ_section_title
;
Structure prediction by ZEFSAII (Michael W. Deem and Ramdas Pophale) SiO2 
 PCOD9005660
Probable space group: P -1
;
_chemical_formula_sum "Si O2"
_cell_formula_units_Z 16
_cell_length_a 15.320609
_cell_length_b 14.100685
_cell_length_c 6.578416
_cell_angle_alpha 107.692807
_cell_angle_beta 136.640662
_cell_angle_gamma 50.926874
_cell_volume 725.028833
_symmetry_space_group_name_H-M "P -1"
_symmetry_group_IT_number 2
_symmetry_cell_setting 'triclinic'
loop_
_space_group_symop_operation_xyz
x,y,z
-x,-y,-z
loop_
_atom_site_type_symbol
_atom_site_label
_atom_site_fract_x
_atom_site_fract_y
_atom_site_fract_z
Si Si1 0.595980 0.075055 0.525726
Si Si2 0.299945 0.197003 0.406930
Si Si3 0.819418 0.098215 0.177837
Si Si4 0.972161 0.402940 0.802180
Si Si5 0.704717 0.506987 0.737223
Si Si6 0.754240 0.596928 0.244734
Si Si7 0.675906 0.323790 0.808521
Si Si8 0.400270 0.781798 0.735762
O O1 0.446280 0.164539 0.488503
O O2 0.558843 0.145486 0.294488
O O3 0.635803 0.939361 0.489664
O O4 0.755442 0.051953 0.871201
O O5 0.249623 0.296154 0.570553
O O6 0.139776 0.263766 0.037287
O O7 0.704718 0.136354 0.200147
O O8 0.784173 0.223665 0.102401
O O9 0.000000 0.000000 0.500000
O O10 0.826339 0.429628 0.708826
O O11 0.898105 0.460001 0.492774
O O12 0.000000 0.500000 0.000000
O O13 0.712961 0.416180 0.860469
O O14 0.515476 0.599676 0.411311
O O15 0.757336 0.581629 0.996311
O O16 0.569411 0.650856 0.011313
O O17 0.693742 0.250123 0.585341
#
# Coordination Sequence:
#
# PCOD9005660 Si02
#       8
#     2   2   2   2   2   2   2   2
#     4  10  23  43  61  87 126 162 211 250 302 366
#     4  10  22  42  60  89 127 166 201 256 299 363
#     4  11  23  40  63  90 118 159 208 258 311 356
#     4  10  23  37  60  91 128 157 199 259 309 354
#     4  10  21  40  61  93 122 165 201 251 311 370
#     4  10  21  38  63  88 121 163 202 243 309 368
#     4   9  22  39  63  87 125 158 205 255 302 371
#     4  10  21  39  65  85 119 164 200 256 307 366
#
# _framework density 22.068086999999998
#
# number of rings (size 3 to 8) (size 9 to 14) (size 15 to 20)
#    0.000    2.000    1.250    0.750    8.750    8.500 
#    0.000    3.750    0.000    0.000    0.000    0.000 
#    0.000    0.000    0.000    0.000    0.000    0.000 
#
# Total GULP energy -89314.538783 kJ/mol
# GULP energy per Si atom -5582.158674 kJ/mol
# Density = 2.201786 g / cm^3
# Si number density = 22.068087 Si / 1000 Ang^3
#
#
#
# Elastic Constant Matrix: (Units=GPa)
#
#
# Indices 1 2 3 4 5 6 
#
# 1 39.9187 14.8409 5.5139 -9.6985 1.1171 14.7459
# 2 14.8409 67.8243 20.1228 -12.1097 -8.1549 14.9071
# 3 5.5139 20.1228 107.4718 -30.1871 8.8333 5.7138
# 4 -9.6985 -12.1097 -30.1871 33.2343 0.3274 -3.8016
# 5 1.1171 -8.1549 8.8333 0.3274 13.6624 -10.8878
# 6 14.7459 14.9071 5.7138 -3.8016 -10.8878 24.8963
#
#
#
# Elastic Compliance Matrix: (Units=1/GPa)
#
#
# Indices 1 2 3 4 5 6 
#
# 1 0.049773 -0.006798 0.010408 0.016425 -0.054344 -0.049056
# 2 -0.006798 0.019467 -0.004195 0.001154 0.014870 0.000012
# 3 0.010408 -0.004195 0.017246 0.015396 -0.029265 -0.018058
# 4 0.016425 0.001154 0.015396 0.047467 -0.026231 -0.018176
# 5 -0.054344 0.014870 -0.029265 -0.026231 0.194597 0.111097
# 6 -0.049056 0.000012 -0.018058 -0.018176 0.111097 0.119169
#
#
# Mechanical properties :
#
#
# Convention : Reuss Voigt Hill
#
# Bulk Modulus (GPa) = 11.72118 32.90777 22.31448
# Shear Modulus (GPa) = 10.47493 26.00774 18.24134
#
# Velocity S-wave (km/s) = 2.18104 3.43669 2.87817
# Velocity P-wave (km/s) = 3.41548 5.54004 4.60204
#
# Compressibility (1/GPa) = 0.08531563
#
# Stress axis : x y z
#
# Youngs Moduli (GPa) = 20.09103 51.36779 57.98391
#
# Poissons Ratio (x) = 0.34921 -0.60347
# Poissons Ratio (y) = 0.13659 0.24324
# Poissons Ratio (z) = -0.20910 0.21548
#
# Static dielectric constant tensor:
#      x y z
#    x 1.817840 0.004830 0.011900 
#    y 0.004830 1.854520 0.018880 
#    z 0.011900 0.018880 1.839880 
# 
# From -- ./inp_files/98368.got.cif
#   From: 2010.05.17/outbox.cif.g08.bks.cpg/sg2_50_cif.got.tgz:98368.got - 2010.06.03 11:33:40.
