data_PCOD9005493
_publ_section_title
;
Structure prediction by ZEFSAII (Michael W. Deem and Ramdas Pophale) SiO2 
 PCOD9005493
Probable space group: P -1
;
_chemical_formula_sum "Si O2"
_cell_formula_units_Z 16
_cell_length_a 11.193723
_cell_length_b 24.894458
_cell_length_c 5.718284
_cell_angle_alpha 75.354648
_cell_angle_beta 119.809884
_cell_angle_gamma 149.719756
_cell_volume 637.934040
_symmetry_space_group_name_H-M "P -1"
_symmetry_group_IT_number 2
_symmetry_cell_setting 'triclinic'
loop_
_space_group_symop_operation_xyz
x,y,z
-x,-y,-z
loop_
_atom_site_type_symbol
_atom_site_label
_atom_site_fract_x
_atom_site_fract_y
_atom_site_fract_z
Si Si1 0.270668 0.616111 0.276906
Si Si2 0.382909 0.343044 0.739140
Si Si3 0.772223 0.174194 0.275018
Si Si4 0.673514 0.158087 0.704686
Si Si5 0.597964 0.747752 0.841091
Si Si6 0.791182 0.568544 0.160359
Si Si7 0.844214 0.936391 0.667594
Si Si8 0.230126 0.697584 0.842717
O O1 0.518503 0.663770 0.361260
O O2 0.304689 0.622170 0.575709
O O3 0.242262 0.671459 0.131287
O O4 0.000000 0.500000 0.000000
O O5 0.118054 0.288346 0.479476
O O6 0.261854 0.256191 0.908329
O O7 0.656590 0.474512 0.958353
O O8 0.667827 0.122397 0.492718
O O9 0.699385 0.213734 0.159922
O O10 0.664979 0.118053 0.975880
O O11 0.413844 0.110355 0.515969
O O12 0.968512 0.300733 0.830917
O O13 0.762857 0.842033 0.706269
O O14 0.482809 0.752273 0.904637
O O15 0.943603 0.595609 0.511055
O O16 0.500000 0.500000 0.000000
O O17 0.000000 0.000000 0.500000
O O18 0.000000 0.000000 0.000000
#
# Coordination Sequence:
#
# PCOD9005493 Si02
#       8
#     2   2   2   2   2   2   2   2
#     4  11  24  37  64  98 147 198 235 287 361 440
#     4  11  25  39  64 105 148 196 234 275 368 446
#     4  11  23  41  70 101 143 196 228 292 348 430
#     4  11  24  44  70 105 147 175 252 299 352 417
#     4  11  24  46  66 101 148 179 244 308 361 429
#     4  11  20  40  64 106 145 201 233 282 346 451
#     4  12  27  48  83 108 133 186 257 321 376 413
#     4  10  21  38  62  90 140 183 244 282 346 402
#
# _framework density 25.080963000000001
#
# number of rings (size 3 to 8) (size 9 to 14) (size 15 to 20)
#    0.000    1.000    5.000    3.000    7.000    3.500 
#    0.000    0.000    0.000    4.500    0.000    0.000 
#    0.000    0.000    0.000    0.000    0.000    0.000 
#
# Total GULP energy -89275.994248 kJ/mol
# GULP energy per Si atom -5579.749640 kJ/mol
# Density = 2.502388 g / cm^3
# Si number density = 25.080963 Si / 1000 Ang^3
#
#
#
# Elastic Constant Matrix: (Units=GPa)
#
#
# Indices 1 2 3 4 5 6 
#
# 1 84.3213 30.5441 28.8635 -6.6887 2.5305 15.5885
# 2 30.5441 84.8196 24.8524 -7.1811 1.7292 14.8276
# 3 28.8635 24.8524 139.3397 -8.2466 -10.4816 12.8172
# 4 -6.6887 -7.1811 -8.2466 23.3124 7.3457 2.7638
# 5 2.5305 1.7292 -10.4816 7.3457 34.5674 -1.2542
# 6 15.5885 14.8276 12.8172 2.7638 -1.2542 38.3921
#
#
#
# Elastic Compliance Matrix: (Units=1/GPa)
#
#
# Indices 1 2 3 4 5 6 
#
# 1 0.015075 -0.003701 -0.002025 0.003772 -0.002492 -0.004368
# 2 -0.003701 0.014608 -0.001371 0.004022 -0.001876 -0.004032
# 3 -0.002025 -0.001371 0.008228 0.001325 0.002379 -0.001413
# 4 0.003772 0.004022 0.001325 0.050033 -0.010979 -0.007488
# 5 -0.002492 -0.001876 0.002379 -0.010979 0.032361 0.002790
# 6 -0.004368 -0.004032 -0.001413 -0.007488 0.002790 0.030480
#
#
# Mechanical properties :
#
#
# Convention : Reuss Voigt Hill
#
# Bulk Modulus (GPa) = 42.16522 53.00006 47.58264
# Shear Modulus (GPa) = 28.92100 34.20242 31.56171
#
# Velocity S-wave (km/s) = 3.39942 3.69681 3.55123
# Velocity P-wave (km/s) = 5.67946 6.27689 5.98563
#
# Compressibility (1/GPa) = 0.02371623
#
# Stress axis : x y z
#
# Youngs Moduli (GPa) = 66.33529 68.45577 121.53580
#
# Poissons Ratio (x) = 0.25339 0.24610
# Poissons Ratio (y) = 0.24554 0.16662
# Poissons Ratio (z) = 0.13432 0.09385
#
# Static dielectric constant tensor:
#      x y z
#    x 1.972510 -0.009110 -0.104240 
#    y -0.009110 2.216800 0.039660 
#    z -0.104240 0.039660 1.994320 
# 
# From -- ./inp_files/85400.got.cif
#   From: 2010.05.17/outbox.cif.g08.bks.cpg/sg2_43_cif.got.tgz:85400.got - 2010.06.03 11:33:40.
