data_PCOD9005717
_publ_section_title
;
Structure prediction by ZEFSAII (Michael W. Deem and Ramdas Pophale) SiO2 
 PCOD9005717
Probable space group: P -1
;
_chemical_formula_sum "Si O2"
_cell_formula_units_Z 14
_cell_length_a 7.601597
_cell_length_b 14.458762
_cell_length_c 15.059359
_cell_angle_alpha 34.713148
_cell_angle_beta 76.717441
_cell_angle_gamma 51.648184
_cell_volume 575.448900
_symmetry_space_group_name_H-M "P -1"
_symmetry_group_IT_number 2
_symmetry_cell_setting 'triclinic'
loop_
_space_group_symop_operation_xyz
x,y,z
-x,-y,-z
loop_
_atom_site_type_symbol
_atom_site_label
_atom_site_fract_x
_atom_site_fract_y
_atom_site_fract_z
Si Si1 0.308777 0.981055 0.644343
Si Si2 0.785558 0.351759 0.516024
Si Si3 0.329181 0.813541 0.078559
Si Si4 0.057613 0.840060 0.820333
Si Si5 0.715474 0.469458 0.792040
Si Si6 0.989337 0.334004 0.677115
Si Si7 0.773603 0.917725 0.618207
O O1 0.605251 0.867339 0.691663
O O2 0.108037 0.188190 0.582222
O O3 0.321205 0.780258 0.818102
O O4 0.126102 0.142872 0.447392
O O5 0.561922 0.621141 0.278753
O O6 0.774922 0.380887 0.599796
O O7 0.815991 0.144662 0.639483
O O8 0.392956 0.636791 0.135070
O O9 0.000000 0.000000 0.000000
O O10 0.290971 0.024885 0.886497
O O11 0.102926 0.685179 0.017811
O O12 0.977798 0.812295 0.759467
O O13 0.881140 0.411365 0.730047
O O14 0.463807 0.772489 0.597547
O O15 0.000000 0.500000 0.500000
#
# Coordination Sequence:
#
# PCOD9005717 Si02
#       7
#     2   2   2   2   2   2   2
#     4   9  22  42  68  97 136 173 220 279 331 392
#     4  10  21  42  65  91 135 173 218 274 328 392
#     4  10  21  38  63  91 123 173 223 265 329 396
#     4  10  22  40  66  96 133 176 216 272 334 389
#     4  11  22  38  65  98 127 175 230 263 332 405
#     4  11  24  41  62  94 135 171 221 281 334 393
#     4  11  21  43  69  97 134 177 219 277 333 392
#
# _framework density 24.328831999999998
#
# number of rings (size 3 to 8) (size 9 to 14) (size 15 to 20)
#    0.857    0.857    2.857    1.286    0.000    5.714 
#    0.000   12.857    0.000    0.000    0.000    0.000 
#    0.000    0.000    0.000    0.000    0.000    0.000 
#
# Total GULP energy -78211.695141 kJ/mol
# GULP energy per Si atom -5586.549653 kJ/mol
# Density = 2.427346 g / cm^3
# Si number density = 24.328832 Si / 1000 Ang^3
#
#
#
# Elastic Constant Matrix: (Units=GPa)
#
#
# Indices 1 2 3 4 5 6 
#
# 1 67.2568 23.0852 38.2122 11.8921 -18.9510 11.2888
# 2 23.0852 81.0743 29.9638 24.0853 -10.5925 1.7949
# 3 38.2122 29.9638 172.7554 25.5876 -12.6669 3.5237
# 4 11.8921 24.0853 25.5876 48.2242 2.8948 1.4934
# 5 -18.9510 -10.5925 -12.6669 2.8948 34.4334 7.6644
# 6 11.2888 1.7949 3.5237 1.4934 7.6644 28.2165
#
#
#
# Elastic Compliance Matrix: (Units=1/GPa)
#
#
# Indices 1 2 3 4 5 6 
#
# 1 0.024493 -0.002538 -0.003092 -0.003614 0.014776 -0.013074
# 2 -0.002538 0.016025 -0.000859 -0.007141 0.003949 -0.000591
# 3 -0.003092 -0.000859 0.007058 -0.002610 0.000775 0.000338
# 4 -0.003614 -0.007141 -0.002610 0.026971 -0.008080 0.002993
# 5 0.014776 0.003949 0.000775 -0.008080 0.043267 -0.017584
# 6 -0.013074 -0.000591 0.000338 0.002993 -0.017584 0.045284
#
#
# Mechanical properties :
#
#
# Convention : Reuss Voigt Hill
#
# Bulk Modulus (GPa) = 28.90331 55.95656 42.42993
# Shear Modulus (GPa) = 26.65124 37.49649 32.07386
#
# Velocity S-wave (km/s) = 3.31336 3.93012 3.63484
# Velocity P-wave (km/s) = 5.15208 6.60640 5.92403
#
# Compressibility (1/GPa) = 0.03459812
#
# Stress axis : x y z
#
# Youngs Moduli (GPa) = 40.82788 62.40344 141.68308
#
# Poissons Ratio (x) = 0.15837 0.43811
# Poissons Ratio (y) = 0.10361 0.12168
# Poissons Ratio (z) = 0.12625 0.05359
#
# Static dielectric constant tensor:
#      x y z
#    x 2.040280 -0.019320 -0.002640 
#    y -0.019320 1.980750 0.005310 
#    z -0.002640 0.005310 1.944680 
# 
# From -- ./inp_files/503834.got.cif
#   From: 2010.05.17/outbox.cif.g08.bks.cpg/sg2_252_cif.got.tgz:503834.got - 2010.06.03 11:33:40.
