data_PCOD9005754
_publ_section_title
;
Structure prediction by ZEFSAII (Michael W. Deem and Ramdas Pophale) SiO2 
 PCOD9005754
Probable space group: P -1
;
_chemical_formula_sum "Si O2"
_cell_formula_units_Z 16
_cell_length_a 11.631120
_cell_length_b 12.578281
_cell_length_c 13.386532
_cell_angle_alpha 148.435029
_cell_angle_beta 77.304949
_cell_angle_gamma 122.568902
_cell_volume 726.301792
_symmetry_space_group_name_H-M "P -1"
_symmetry_group_IT_number 2
_symmetry_cell_setting 'triclinic'
loop_
_space_group_symop_operation_xyz
x,y,z
-x,-y,-z
loop_
_atom_site_type_symbol
_atom_site_label
_atom_site_fract_x
_atom_site_fract_y
_atom_site_fract_z
Si Si1 0.648363 0.302775 0.502348
Si Si2 0.157326 0.643136 0.658327
Si Si3 0.982652 0.722121 0.880528
Si Si4 0.588017 0.322123 0.887168
Si Si5 0.489519 0.357000 0.728538
Si Si6 0.141608 0.830895 0.437943
Si Si7 0.010550 0.081175 0.324898
Si Si8 0.046837 0.322357 0.833680
O O1 0.683224 0.233388 0.334276
O O2 0.554248 0.391079 0.632006
O O3 0.831226 0.565055 0.710469
O O4 0.549045 0.012290 0.347489
O O5 0.141976 0.823895 0.875952
O O6 0.000000 0.500000 0.500000
O O7 0.125297 0.409346 0.547286
O O8 0.920511 0.464493 0.757719
O O9 0.000989 0.951044 0.119193
O O10 0.600393 0.390301 0.821673
O O11 0.532263 0.441808 0.064600
O O12 0.763165 0.469868 0.014029
O O13 0.313241 0.043314 0.521796
O O14 0.010378 0.781051 0.351098
O O15 0.147981 0.984827 0.657105
O O16 0.042614 0.938683 0.283260
O O17 0.000000 0.500000 0.000000
#
# Coordination Sequence:
#
# PCOD9005754 Si02
#       8
#     2   2   2   2   2   2   2   2
#     4  11  22  37  60  90 131 162 206 257 323 379
#     4   9  23  40  61  91 125 170 217 266 309 369
#     4  10  21  38  63  92 124 167 212 263 310 372
#     4  11  24  38  58  97 135 160 204 263 324 383
#     4  11  23  36  63  93 132 168 199 261 331 378
#     4  11  22  39  62  97 131 163 210 259 316 385
#     4  11  22  39  63  91 128 162 217 263 309 370
#     4  12  23  39  66  98 129 171 210 256 323 383
#
# _framework density 22.029409999999999
#
# number of rings (size 3 to 8) (size 9 to 14) (size 15 to 20)
#    0.000    1.250    3.750    2.250    1.750    3.000 
#    0.000    0.000    0.000    6.000    0.000    0.000 
#    0.000    0.000    0.000    0.000    0.000    0.000 
#
# Total GULP energy -89194.037163 kJ/mol
# GULP energy per Si atom -5574.627323 kJ/mol
# Density = 2.197927 g / cm^3
# Si number density = 22.029410 Si / 1000 Ang^3
#
#
#
# Elastic Constant Matrix: (Units=GPa)
#
#
# Indices 1 2 3 4 5 6 
#
# 1 93.3630 31.5719 19.7448 -5.0429 -10.2996 18.5185
# 2 31.5719 98.7697 13.7092 -13.7337 -15.4291 34.7275
# 3 19.7448 13.7092 62.9712 -20.4691 -12.5542 20.4880
# 4 -5.0429 -13.7337 -20.4691 22.7160 3.9617 -18.9043
# 5 -10.2996 -15.4291 -12.5542 3.9617 33.4453 -6.2721
# 6 18.5185 34.7275 20.4880 -18.9043 -6.2721 44.8822
#
#
#
# Elastic Compliance Matrix: (Units=1/GPa)
#
#
# Indices 1 2 3 4 5 6 
#
# 1 0.013062 -0.003005 -0.003862 -0.005465 0.001189 -0.003437
# 2 -0.003005 0.015416 0.002389 0.001101 0.004961 -0.010622
# 3 -0.003862 0.002389 0.025206 0.020220 0.006542 -0.002330
# 4 -0.005465 0.001101 0.020220 0.084814 0.001643 0.028126
# 5 0.001189 0.004961 0.006542 0.001643 0.034477 -0.001805
# 6 -0.003437 -0.010622 -0.002330 0.028126 -0.001805 0.044575
#
#
# Mechanical properties :
#
#
# Convention : Reuss Voigt Hill
#
# Bulk Modulus (GPa) = 22.35793 42.79508 32.57651
# Shear Modulus (GPa) = 20.71113 32.88056 26.79585
#
# Velocity S-wave (km/s) = 3.06953 3.86758 3.49143
# Velocity P-wave (km/s) = 4.76800 6.27796 5.57434
#
# Compressibility (1/GPa) = 0.04472686
#
# Stress axis : x y z
#
# Youngs Moduli (GPa) = 76.56073 64.86695 39.67280
#
# Poissons Ratio (x) = 0.19491 0.15324
# Poissons Ratio (y) = 0.23005 -0.09477
# Poissons Ratio (z) = 0.29571 -0.15495
#
# Static dielectric constant tensor:
#      x y z
#    x 1.821980 0.003850 -0.021540 
#    y 0.003850 1.911030 -0.077620 
#    z -0.021540 -0.077620 1.877770 
# 
# From -- ./inp_files/521905.got.cif
#   From: 2010.05.17/outbox.cif.g08.bks.cpg/sg2_261_cif.got.tgz:521905.got - 2010.06.03 11:33:40.
