data_PCOD9005724
_publ_section_title
;
Structure prediction by ZEFSAII (Michael W. Deem and Ramdas Pophale) SiO2 
 PCOD9005724
Probable space group: P -1
;
_chemical_formula_sum "Si O2"
_cell_formula_units_Z 16
_cell_length_a 9.162653
_cell_length_b 6.732603
_cell_length_c 24.818273
_cell_angle_alpha 52.324673
_cell_angle_beta 48.769079
_cell_angle_gamma 83.866601
_cell_volume 790.668416
_symmetry_space_group_name_H-M "P -1"
_symmetry_group_IT_number 2
_symmetry_cell_setting 'triclinic'
loop_
_space_group_symop_operation_xyz
x,y,z
-x,-y,-z
loop_
_atom_site_type_symbol
_atom_site_label
_atom_site_fract_x
_atom_site_fract_y
_atom_site_fract_z
Si Si1 0.444327 0.663866 0.120317
Si Si2 0.999861 0.778141 0.431124
Si Si3 0.857873 0.656190 0.650758
Si Si4 0.481507 0.654451 0.406711
Si Si5 0.646332 0.352783 0.970564
Si Si6 0.652883 0.260458 0.460788
Si Si7 0.410428 0.842780 0.277687
Si Si8 0.231294 0.574600 0.957075
O O1 0.302712 0.491110 0.234593
O O2 0.290615 0.562194 0.120778
O O3 0.649763 0.604331 0.065242
O O4 0.525564 0.002362 0.055322
O O5 0.204379 0.907356 0.318575
O O6 0.000000 0.500000 0.500000
O O7 0.754800 0.652059 0.488204
O O8 0.070729 0.010171 0.421930
O O9 0.707595 0.472667 0.668042
O O10 0.093751 0.668321 0.601934
O O11 0.660811 0.550114 0.387804
O O12 0.462973 0.801839 0.441501
O O13 0.494095 0.822915 0.320649
O O14 0.500000 0.500000 0.000000
O O15 0.812448 0.454595 0.963324
O O16 0.500000 0.000000 0.500000
O O17 0.597764 0.091730 0.155031
O O18 0.000000 0.500000 0.000000
#
# Coordination Sequence:
#
# PCOD9005724 Si02
#       8
#     2   2   2   2   2   2   2   2
#     4  10  21  41  66  94 122 167 222 258 319 393
#     4  10  21  38  63  91 125 167 209 262 313 373
#     4  12  22  39  70  94 124 173 219 265 312 390
#     4  10  23  42  59  91 133 167 207 265 313 380
#     4   9  20  42  66  89 124 164 212 266 320 385
#     4  11  23  41  61  90 130 168 206 257 321 371
#     4  11  23  42  63  94 125 169 220 262 319 390
#     4  11  23  43  64  94 131 168 208 275 332 379
#
# _framework density 20.236042999999999
#
# number of rings (size 3 to 8) (size 9 to 14) (size 15 to 20)
#    0.000    1.500    5.000    0.000    0.000    4.500 
#    9.000    0.000    0.000    0.000    0.000    0.000 
#    0.000    0.000    0.000    0.000    0.000    0.000 
#
# Total GULP energy -89135.424429 kJ/mol
# GULP energy per Si atom -5570.964027 kJ/mol
# Density = 2.018999 g / cm^3
# Si number density = 20.236043 Si / 1000 Ang^3
#
#
#
# Elastic Constant Matrix: (Units=GPa)
#
#
# Indices 1 2 3 4 5 6 
#
# 1 99.6280 38.6390 6.0772 3.8526 2.1906 10.3352
# 2 38.6390 139.8065 18.4684 -7.8740 6.4172 11.8979
# 3 6.0772 18.4684 38.7927 2.5365 0.3612 -1.4098
# 4 3.8526 -7.8740 2.5365 30.7751 6.2274 8.0918
# 5 2.1906 6.4172 0.3612 6.2274 31.7312 6.7947
# 6 10.3352 11.8979 -1.4098 8.0918 6.7947 41.9000
#
#
#
# Elastic Compliance Matrix: (Units=1/GPa)
#
#
# Indices 1 2 3 4 5 6 
#
# 1 0.011504 -0.003136 -0.000252 -0.001896 0.000575 -0.001683
# 2 -0.003136 0.009093 -0.004176 0.004079 -0.001854 -0.002436
# 3 -0.000252 -0.004176 0.028183 -0.004276 0.000759 0.002899
# 4 -0.001896 0.004079 -0.004276 0.037272 -0.006465 -0.006984
# 5 0.000575 -0.001854 0.000759 -0.006465 0.033933 -0.003844
# 6 -0.001683 -0.002436 0.002899 -0.006984 -0.003844 0.027043
#
#
# Mechanical properties :
#
#
# Convention : Reuss Voigt Hill
#
# Bulk Modulus (GPa) = 29.71464 44.95515 37.33489
# Shear Modulus (GPa) = 28.83942 35.21743 32.02842
#
# Velocity S-wave (km/s) = 3.77921 4.17625 3.98268
# Velocity P-wave (km/s) = 5.81026 6.74673 6.29593
#
# Compressibility (1/GPa) = 0.03365345
#
# Stress axis : x y z
#
# Youngs Moduli (GPa) = 86.92447 109.97143 35.48195
#
# Poissons Ratio (x) = 0.34489 0.00893
# Poissons Ratio (y) = 0.27261 0.14817
# Poissons Ratio (z) = 0.02188 0.45922
#
# Static dielectric constant tensor:
#      x y z
#    x 1.749900 -0.007200 0.007100 
#    y -0.007200 1.811780 0.042700 
#    z 0.007100 0.042700 1.763350 
# 
# From -- ./inp_files/511171.got.cif
#   From: 2010.05.17/outbox.cif.g08.bks.cpg/sg2_256_cif.got.tgz:511171.got - 2010.06.03 11:33:40.
