data_PCOD9005598
_publ_section_title
;
Structure prediction by ZEFSAII (Michael W. Deem and Ramdas Pophale) SiO2 
 PCOD9005598
Probable space group: P -1
;
_chemical_formula_sum "Si O2"
_cell_formula_units_Z 14
_cell_length_a 13.010396
_cell_length_b 18.049825
_cell_length_c 16.414093
_cell_angle_alpha 31.976808
_cell_angle_beta 17.006857
_cell_angle_gamma 38.020864
_cell_volume 590.213015
_symmetry_space_group_name_H-M "P -1"
_symmetry_group_IT_number 2
_symmetry_cell_setting 'triclinic'
loop_
_space_group_symop_operation_xyz
x,y,z
-x,-y,-z
loop_
_atom_site_type_symbol
_atom_site_label
_atom_site_fract_x
_atom_site_fract_y
_atom_site_fract_z
Si Si1 0.004392 0.904897 0.308765
Si Si2 0.659272 0.168220 0.322337
Si Si3 0.851911 0.867648 0.136731
Si Si4 0.769035 0.580772 0.785473
Si Si5 0.734936 0.853974 0.845969
Si Si6 0.135811 0.679214 0.824924
Si Si7 0.574384 0.585931 0.115913
O O1 0.812575 0.749173 0.586156
O O2 0.343658 0.893811 0.118017
O O3 0.767220 0.020122 0.411093
O O4 0.143703 0.979018 0.048749
O O5 0.255419 0.160023 0.663263
O O6 0.891464 0.287525 0.088931
O O7 0.780000 0.174948 0.132374
O O8 0.527166 0.769973 0.427960
O O9 0.170549 0.548954 0.490858
O O10 0.500000 0.500000 0.000000
O O11 0.614640 0.556280 0.017038
O O12 0.856714 0.752709 0.917858
O O13 0.703564 0.749684 0.888266
O O14 0.000000 0.000000 0.500000
O O15 0.175244 0.516563 0.936749
#
# Coordination Sequence:
#
# PCOD9005598 Si02
#       7
#     2   2   2   2   2   2   2
#     4   9  20  36  62  96 126 160 237 263 310 371
#     4   8  17  32  56  87 121 171 206 253 306 363
#     4   8  17  32  56  86 122 169 208 250 308 359
#     4  11  26  47  73  92 124 173 230 288 338 383
#     4  11  20  40  65 104 135 188 219 254 315 405
#     4  10  21  38  62  95 149 173 210 251 340 393
#     4  11  27  44  66 102 136 171 217 278 335 396
#
# _framework density 23.72025
#
# number of rings (size 3 to 8) (size 9 to 14) (size 15 to 20)
#    1.714    0.571    1.429    0.857    8.000    0.571 
#    7.714    3.571    0.000    5.143    0.000    0.000 
#    0.000    0.000    0.000    0.000    0.000    0.000 
#
# Total GULP energy -78031.241466 kJ/mol
# GULP energy per Si atom -5573.660105 kJ/mol
# Density = 2.366626 g / cm^3
# Si number density = 23.720250 Si / 1000 Ang^3
#
#
#
# Elastic Constant Matrix: (Units=GPa)
#
#
# Indices 1 2 3 4 5 6 
#
# 1 109.7473 -40.1450 22.9721 48.3651 -17.0867 100.8256
# 2 -40.1450 301.5114 37.8413 -76.6644 34.4572 -236.2699
# 3 22.9721 37.8413 64.1761 4.7425 3.5138 3.1618
# 4 48.3651 -76.6644 4.7425 89.3314 6.9190 108.7077
# 5 -17.0867 34.4572 3.5138 6.9190 27.0765 -29.7582
# 6 100.8256 -236.2699 3.1618 108.7077 -29.7582 341.6238
#
#
#
# Elastic Compliance Matrix: (Units=1/GPa)
#
#
# Indices 1 2 3 4 5 6 
#
# 1 0.019349 -0.004809 -0.004032 -0.010727 0.017092 -0.004097
# 2 -0.004809 0.010751 -0.004740 0.005175 -0.010454 0.006341
# 3 -0.004032 -0.004740 0.020032 0.000296 -0.001979 -0.002541
# 4 -0.010727 0.005175 0.000296 0.029464 -0.026338 -0.004928
# 5 0.017092 -0.010454 -0.001979 -0.026338 0.070499 0.002266
# 6 -0.004097 0.006341 -0.002541 -0.004928 0.002266 0.010311
#
#
# Mechanical properties :
#
#
# Convention : Reuss Voigt Hill
#
# Bulk Modulus (GPa) = 43.53521 57.41907 50.47714
# Shear Modulus (GPa) = 25.61159 121.92410 73.76785
#
# Velocity S-wave (km/s) = 3.28950 7.17722 5.58271
# Velocity P-wave (km/s) = 5.72898 9.64067 7.92981
#
# Compressibility (1/GPa) = 0.02296991
#
# Stress axis : x y z
#
# Youngs Moduli (GPa) = 51.68274 93.01579 49.92012
#
# Poissons Ratio (x) = 0.44731 0.20126
# Poissons Ratio (y) = 0.24854 0.23664
# Poissons Ratio (z) = 0.20837 0.44092
#
# Static dielectric constant tensor:
#      x y z
#    x 1.980870 0.082440 0.047850 
#    y 0.082440 1.941850 0.033600 
#    z 0.047850 0.033600 1.910120 
# 
# From -- ./inp_files/574150.got.cif
#   From: 2010.05.17/outbox.cif.g08.bks.cpg/sg2_288_cif.got.tgz:574150.got - 2010.06.03 11:33:40.
