data_PCOD9005687
_publ_section_title
;
Structure prediction by ZEFSAII (Michael W. Deem and Ramdas Pophale) SiO2 
 PCOD9005687
Probable space group: P -1
;
_chemical_formula_sum "Si O2"
_cell_formula_units_Z 10
_cell_length_a 15.489171
_cell_length_b 5.190494
_cell_length_c 13.330909
_cell_angle_alpha 60.158844
_cell_angle_beta 28.002477
_cell_angle_gamma 74.634456
_cell_volume 394.451280
_symmetry_space_group_name_H-M "P -1"
_symmetry_group_IT_number 2
_symmetry_cell_setting 'triclinic'
loop_
_space_group_symop_operation_xyz
x,y,z
-x,-y,-z
loop_
_atom_site_type_symbol
_atom_site_label
_atom_site_fract_x
_atom_site_fract_y
_atom_site_fract_z
Si Si1 0.643761 0.820579 0.357929
Si Si2 0.281990 0.425207 0.135090
Si Si3 0.950516 0.240742 0.368138
Si Si4 0.049378 0.880772 0.841098
Si Si5 0.671494 0.364820 0.757515
O O1 0.500000 0.500000 0.500000
O O2 0.500000 0.000000 0.500000
O O3 0.760985 0.864109 0.337254
O O4 0.851505 0.950068 0.052971
O O5 0.240458 0.641113 0.220660
O O6 0.182931 0.404309 0.134146
O O7 0.164364 0.080799 0.381733
O O8 0.524077 0.547921 0.861608
O O9 0.922242 0.145241 0.301360
O O10 0.837803 0.452045 0.485120
O O11 0.000000 0.500000 0.000000
O O12 0.500000 0.000000 0.000000
#
# Coordination Sequence:
#
# PCOD9005687 Si02
#       5
#     2   2   2   2   2
#     4  11  24  49  73  98 141 185 232 293 350 413
#     4   9  19  38  58  90 126 165 212 263 331 396
#     4  10  21  38  63  89 125 169 212 275 330 396
#     4  11  25  44  69 104 138 182 238 286 345 421
#     4   9  18  35  58  88 126 163 208 262 324 402
#
# _framework density 25.351669999999999
#
# number of rings (size 3 to 8) (size 9 to 14) (size 15 to 20)
#    0.000    2.000    2.000    0.600    0.000    4.800 
#   10.800    0.000    0.000    0.000    0.000    0.000 
#    0.000    0.000    0.000    0.000    0.000    0.000 
#
# Total GULP energy -55672.871963 kJ/mol
# GULP energy per Si atom -5567.287196 kJ/mol
# Density = 2.529397 g / cm^3
# Si number density = 25.351670 Si / 1000 Ang^3
#
#
#
# Elastic Constant Matrix: (Units=GPa)
#
#
# Indices 1 2 3 4 5 6 
#
# 1 162.8568 68.8612 80.7275 2.6948 -5.0069 61.5310
# 2 68.8612 126.5333 38.5085 19.8195 -3.4805 43.9711
# 3 80.7275 38.5085 134.8018 33.3229 -20.1445 20.8934
# 4 2.6948 19.8195 33.3229 50.1135 13.7908 2.2839
# 5 -5.0069 -3.4805 -20.1445 13.7908 48.5859 -3.8956
# 6 61.5310 43.9711 20.8934 2.2839 -3.8956 61.6852
#
#
#
# Elastic Compliance Matrix: (Units=1/GPa)
#
#
# Indices 1 2 3 4 5 6 
#
# 1 0.017156 -0.003802 -0.010987 0.010313 -0.006909 -0.011500
# 2 -0.003802 0.012326 0.001383 -0.006008 0.002362 -0.005091
# 3 -0.010987 0.001383 0.018363 -0.015532 0.011394 0.005049
# 4 0.010313 -0.006008 -0.015532 0.036789 -0.016502 -0.003148
# 5 -0.006909 0.002362 0.011394 -0.016502 0.029755 0.003839
# 6 -0.011500 -0.005091 0.005049 -0.003148 0.003839 0.029960
#
#
# Mechanical properties :
#
#
# Convention : Reuss Voigt Hill
#
# Bulk Modulus (GPa) = 47.54647 88.93181 68.23914
# Shear Modulus (GPa) = 28.06251 47.81658 37.93954
#
# Velocity S-wave (km/s) = 3.33066 4.34767 3.87270
# Velocity P-wave (km/s) = 5.79539 7.76907 6.85365
#
# Compressibility (1/GPa) = 0.02103205
#
# Stress axis : x y z
#
# Youngs Moduli (GPa) = 58.28793 81.12634 54.45792
#
# Poissons Ratio (x) = 0.30843 0.59835
# Poissons Ratio (y) = 0.22160 -0.07530
# Poissons Ratio (z) = 0.64044 -0.11217
#
# Static dielectric constant tensor:
#      x y z
#    x 2.068700 -0.106360 -0.011360 
#    y -0.106360 2.632530 0.018860 
#    z -0.011360 0.018860 2.000530 
# 
# From -- ./inp_files/77875.got.cif
#   From: 2010.05.17/outbox.cif.g08.bks.cpg/sg2_39_cif.got.tgz:77875.got - 2010.06.03 11:33:40.
