data_PCOD9005605
_publ_section_title
;
Structure prediction by ZEFSAII (Michael W. Deem and Ramdas Pophale) SiO2 
 PCOD9005605
Probable space group: P -1
;
_chemical_formula_sum "Si O2"
_cell_formula_units_Z 14
_cell_length_a 12.143469
_cell_length_b 8.260616
_cell_length_c 21.040315
_cell_angle_alpha 145.158443
_cell_angle_beta 39.086606
_cell_angle_gamma 116.295500
_cell_volume 640.506793
_symmetry_space_group_name_H-M "P -1"
_symmetry_group_IT_number 2
_symmetry_cell_setting 'triclinic'
loop_
_space_group_symop_operation_xyz
x,y,z
-x,-y,-z
loop_
_atom_site_type_symbol
_atom_site_label
_atom_site_fract_x
_atom_site_fract_y
_atom_site_fract_z
Si Si1 0.746553 0.584574 0.626727
Si Si2 0.128073 0.218786 0.255549
Si Si3 0.076544 0.752932 0.039210
Si Si4 0.702427 0.205617 0.774976
Si Si5 0.099965 0.199784 0.562752
Si Si6 0.434509 0.381703 0.661034
Si Si7 0.712766 0.411592 0.343808
O O1 0.707139 0.730983 0.763506
O O2 0.619261 0.425043 0.611420
O O3 0.977275 0.300366 0.409597
O O4 0.698638 0.890293 0.701110
O O5 0.028399 0.502382 0.336488
O O6 0.146777 0.893195 0.111467
O O7 0.275370 0.547819 0.841749
O O8 0.895602 0.075191 0.186197
O O9 0.000000 0.500000 0.000000
O O10 0.921346 0.190224 0.680033
O O11 0.735853 0.131255 0.658991
O O12 0.500000 0.500000 0.000000
O O13 0.229644 0.310516 0.580645
O O14 0.322978 0.594755 0.716514
O O15 0.500000 0.000000 0.500000
O O16 0.500000 0.500000 0.500000
#
# Coordination Sequence:
#
# PCOD9005605 Si02
#       7
#     2   2   2   2   2   2   2
#     4  10  22  42  66  93 130 172 223 278 341 406
#     4   9  20  42  66  91 130 172 217 281 334 399
#     4  11  24  44  67 100 137 177 230 281 343 417
#     4  10  21  38  62  96 132 171 219 274 339 412
#     4   9  21  41  64  93 135 172 223 281 341 407
#     4  12  26  44  68  98 136 184 228 280 347 415
#     4  11  23  45  70  96 134 182 229 289 345 408
#
# _framework density 21.857690999999999
#
# number of rings (size 3 to 8) (size 9 to 14) (size 15 to 20)
#    0.000    1.714    0.000    4.714    4.000    6.286 
#   10.286    0.000    0.000    0.000    0.000    0.000 
#    0.000    0.000    0.000    0.000    0.000    0.000 
#
# Total GULP energy -77960.903506 kJ/mol
# GULP energy per Si atom -5568.635965 kJ/mol
# Density = 2.180794 g / cm^3
# Si number density = 21.857691 Si / 1000 Ang^3
#
#
#
# Elastic Constant Matrix: (Units=GPa)
#
#
# Indices 1 2 3 4 5 6 
#
# 1 107.6076 41.5029 29.7543 9.1743 38.6333 28.6810
# 2 41.5029 124.2295 48.2970 1.0130 17.2121 26.5130
# 3 29.7543 48.2970 146.4117 -3.3877 33.3334 19.6888
# 4 9.1743 1.0130 -3.3877 34.6458 3.4207 1.9637
# 5 38.6333 17.2121 33.3334 3.4207 37.8777 4.8097
# 6 28.6810 26.5130 19.6888 1.9637 4.8097 39.5748
#
#
#
# Elastic Compliance Matrix: (Units=1/GPa)
#
#
# Indices 1 2 3 4 5 6 
#
# 1 0.019973 -0.002491 0.002844 -0.002297 -0.020054 -0.011670
# 2 -0.002491 0.010701 -0.002555 0.000290 0.000428 -0.004159
# 3 0.002844 -0.002555 0.010002 0.001538 -0.010152 -0.004168
# 4 -0.002297 0.000290 0.001538 0.029820 -0.001765 -0.000560
# 5 -0.020054 0.000428 -0.010152 -0.001765 0.054127 0.012806
# 6 -0.011670 -0.004159 -0.004168 -0.000560 0.012806 0.037058
#
#
# Mechanical properties :
#
#
# Convention : Reuss Voigt Hill
#
# Bulk Modulus (GPa) = 27.56827 68.59525 48.08176
# Shear Modulus (GPa) = 28.06221 39.66596 33.86409
#
# Velocity S-wave (km/s) = 3.58699 4.26459 3.94038
# Velocity P-wave (km/s) = 5.45851 7.46323 6.53816
#
# Compressibility (1/GPa) = 0.03627359
#
# Stress axis : x y z
#
# Youngs Moduli (GPa) = 50.06720 93.44834 99.97672
#
# Poissons Ratio (x) = 0.23275 -0.28438
# Poissons Ratio (y) = 0.12470 0.25547
# Poissons Ratio (z) = -0.14241 0.23879
#
# Static dielectric constant tensor:
#      x y z
#    x 1.673680 -0.067510 -0.021650 
#    y -0.067510 1.752690 0.000270 
#    z -0.021650 0.000270 1.841390 
# 
# From -- ./inp_files/245791.got.cif
#   From: 2010.05.17/outbox.cif.g08.bks.cpg/sg2_123_cif.got.tgz:245791.got - 2010.06.03 11:33:40.
