data_PCOD9005049
_publ_section_title
;
Structure prediction by ZEFSAII (Michael W. Deem and Ramdas Pophale) SiO2 
 PCOD9005049
Probable space group: P -1
;
_chemical_formula_sum "Si O2"
_cell_formula_units_Z 14
_cell_length_a 14.003134
_cell_length_b 14.091957
_cell_length_c 8.653062
_cell_angle_alpha 57.914263
_cell_angle_beta 100.307566
_cell_angle_gamma 148.436863
_cell_volume 595.877653
_symmetry_space_group_name_H-M "P -1"
_symmetry_group_IT_number 2
_symmetry_cell_setting 'triclinic'
loop_
_space_group_symop_operation_xyz
x,y,z
-x,-y,-z
loop_
_atom_site_type_symbol
_atom_site_label
_atom_site_fract_x
_atom_site_fract_y
_atom_site_fract_z
Si Si1 0.281002 0.235027 0.269092
Si Si2 0.695535 0.395951 0.573307
Si Si3 0.078942 0.523233 0.201942
Si Si4 0.295938 0.711265 0.771659
Si Si5 0.443320 0.538554 0.322251
Si Si6 0.073689 0.961541 0.132540
Si Si7 0.389729 0.102464 0.462651
O O1 0.264111 0.305458 0.341790
O O2 0.349992 0.190424 0.405087
O O3 0.093967 0.010159 0.278406
O O4 0.500000 0.500000 0.000000
O O5 0.621954 0.413167 0.659983
O O6 0.490249 0.157948 0.601629
O O7 0.786079 0.379167 0.695232
O O8 0.899607 0.676901 0.301215
O O9 0.949572 0.507941 0.185742
O O10 0.855383 0.207212 0.388092
O O11 0.239066 0.673917 0.966716
O O12 0.408638 0.709016 0.769618
O O13 0.500000 0.000000 0.500000
O O14 0.500000 0.500000 0.500000
O O15 0.678739 0.807367 0.064689
O O16 0.000000 0.000000 0.000000
#
# Coordination Sequence:
#
# PCOD9005049 Si02
#       7
#     2   2   2   2   2   2   2
#     4  10  21  38  60  88 132 172 212 257 310 365
#     4  12  24  39  63  94 129 168 213 260 309 380
#     4  10  23  44  67  96 121 164 214 259 327 380
#     4   9  22  45  71  91 127 159 205 273 323 380
#     4  11  22  39  56  87 130 171 216 261 300 368
#     4  11  22  40  58  88 130 173 217 260 307 367
#     4  11  22  42  63  95 129 165 211 261 316 375
#
# _framework density 23.494755999999999
#
# number of rings (size 3 to 8) (size 9 to 14) (size 15 to 20)
#    0.000    1.429    4.286    0.857    4.000    2.286 
#    2.571    6.429    0.000    0.000    0.000    0.000 
#    0.000    0.000    0.000    0.000    0.000    0.000 
#
# Total GULP energy -78199.466000 kJ/mol
# GULP energy per Si atom -5585.676143 kJ/mol
# Density = 2.344128 g / cm^3
# Si number density = 23.494756 Si / 1000 Ang^3
#
#
#
# Elastic Constant Matrix: (Units=GPa)
#
#
# Indices 1 2 3 4 5 6 
#
# 1 65.3080 6.4229 25.6637 2.3524 -17.7508 -1.2207
# 2 6.4229 98.8343 3.8116 20.4344 1.3020 12.0657
# 3 25.6637 3.8116 83.7549 5.1303 -27.6246 4.2890
# 4 2.3524 20.4344 5.1303 26.5943 7.9308 10.6753
# 5 -17.7508 1.3020 -27.6246 7.9308 44.1278 12.9296
# 6 -1.2207 12.0657 4.2890 10.6753 12.9296 38.6779
#
#
#
# Elastic Compliance Matrix: (Units=1/GPa)
#
#
# Indices 1 2 3 4 5 6 
#
# 1 0.018386 -0.000705 -0.003658 -0.001987 0.005509 -0.000087
# 2 -0.000705 0.012310 0.001141 -0.009458 0.002407 -0.002183
# 3 -0.003658 0.001141 0.017512 -0.005522 0.011873 -0.004858
# 4 -0.001987 -0.009458 -0.005522 0.052357 -0.011283 -0.007179
# 5 0.005509 0.002407 0.011873 -0.011283 0.037592 -0.011346
# 6 -0.000087 -0.002183 -0.004858 -0.007179 -0.011346 0.032846
#
#
# Mechanical properties :
#
#
# Convention : Reuss Voigt Hill
#
# Bulk Modulus (GPa) = 23.94469 35.52151 29.73310
# Shear Modulus (GPa) = 26.12763 36.01328 31.07045
#
# Velocity S-wave (km/s) = 3.33838 3.91937 3.64048
# Velocity P-wave (km/s) = 5.00733 5.96940 5.50940
#
# Compressibility (1/GPa) = 0.04176291
#
# Stress axis : x y z
#
# Youngs Moduli (GPa) = 54.38803 81.23476 57.10434
#
# Poissons Ratio (x) = 0.05726 0.20891
# Poissons Ratio (y) = 0.03834 -0.06514
# Poissons Ratio (z) = 0.19898 -0.09267
#
# Static dielectric constant tensor:
#      x y z
#    x 1.959540 -0.001740 0.025950 
#    y -0.001740 1.914380 -0.003220 
#    z 0.025950 -0.003220 1.918730 
# 
# From -- ./inp_files/241513.got.cif
#   From: 2010.05.17/outbox.cif.g08.bks.cpg/sg2_121_cif.got.tgz:241513.got - 2010.06.03 11:33:40.
