data_PCOD9005416
_publ_section_title
;
Structure prediction by ZEFSAII (Michael W. Deem and Ramdas Pophale) SiO2 
 PCOD9005416
Probable space group: P -1
;
_chemical_formula_sum "Si O2"
_cell_formula_units_Z 14
_cell_length_a 25.188766
_cell_length_b 5.355944
_cell_length_c 5.295706
_cell_angle_alpha 59.218339
_cell_angle_beta 66.946914
_cell_angle_gamma 64.450632
_cell_volume 540.151151
_symmetry_space_group_name_H-M "P -1"
_symmetry_group_IT_number 2
_symmetry_cell_setting 'triclinic'
loop_
_space_group_symop_operation_xyz
x,y,z
-x,-y,-z
loop_
_atom_site_type_symbol
_atom_site_label
_atom_site_fract_x
_atom_site_fract_y
_atom_site_fract_z
Si Si1 0.752637 0.856436 0.565567
Si Si2 0.365713 0.805909 0.631203
Si Si3 0.070870 0.827050 0.468957
Si Si4 0.114213 0.425172 0.098535
Si Si5 0.342483 0.250538 0.833459
Si Si6 0.521960 0.298541 0.814640
Si Si7 0.224246 0.589602 0.633240
O O1 0.781184 0.517280 0.586276
O O2 0.705888 0.023736 0.343610
O O3 0.796322 0.057291 0.439465
O O4 0.705349 0.866205 0.866297
O O5 0.371061 0.455712 0.849629
O O6 0.405598 0.802796 0.310757
O O7 0.386224 0.998249 0.709345
O O8 0.911837 0.395493 0.690007
O O9 0.085698 0.630084 0.800682
O O10 0.102915 0.097470 0.268211
O O11 0.000000 0.000000 0.500000
O O12 0.184359 0.418681 0.950027
O O13 0.295922 0.495521 0.608825
O O14 0.500000 0.500000 0.500000
O O15 0.500000 0.500000 0.000000
O O16 0.500000 0.000000 0.000000
#
# Coordination Sequence:
#
# PCOD9005416 Si02
#       7
#     2   2   2   2   2   2   2
#     4  10  21  38  62  86 130 163 217 264 324 409
#     4  10  23  39  61  93 120 174 214 268 334 391
#     4  12  26  47  71 102 136 184 233 283 340 403
#     4  12  26  44  74 100 141 179 227 289 340 403
#     4  10  21  38  63  87 128 163 217 264 324 409
#     4  12  28  47  73 102 138 177 230 289 340 403
#     4  10  23  37  58  97 122 171 214 268 334 391
#
# _framework density 25.918669000000001
#
# number of rings (size 3 to 8) (size 9 to 14) (size 15 to 20)
#    0.000    1.143    0.000    5.143    8.000    0.000 
#    0.000    0.000    0.000    0.000    0.000    0.000 
#    0.000    0.000    0.000    0.000    0.000    0.000 
#
# Total GULP energy -78342.037891 kJ/mol
# GULP energy per Si atom -5595.859849 kJ/mol
# Density = 2.585968 g / cm^3
# Si number density = 25.918669 Si / 1000 Ang^3
#
#
#
# Elastic Constant Matrix: (Units=GPa)
#
#
# Indices 1 2 3 4 5 6 
#
# 1 91.0031 41.6729 24.8940 -10.0421 -3.4437 -7.5559
# 2 41.6729 182.5063 52.7976 14.1908 6.8671 39.0445
# 3 24.8940 52.7976 114.3644 -5.1831 7.7986 22.3029
# 4 -10.0421 14.1908 -5.1831 64.9594 9.1564 -9.3328
# 5 -3.4437 6.8671 7.7986 9.1564 51.1583 -2.2753
# 6 -7.5559 39.0445 22.3029 -9.3328 -2.2753 53.0513
#
#
#
# Elastic Compliance Matrix: (Units=1/GPa)
#
#
# Indices 1 2 3 4 5 6 
#
# 1 0.014880 -0.004616 -0.002467 0.003935 0.001618 0.007315
# 2 -0.004616 0.008909 -0.001824 -0.003706 -0.000883 -0.007137
# 3 -0.002467 -0.001824 0.010980 0.000641 -0.001869 -0.003592
# 4 0.003935 -0.003706 0.000641 0.018063 -0.002297 0.006098
# 5 0.001618 -0.000883 -0.001869 -0.002297 0.020566 0.002144
# 6 0.007315 -0.007137 -0.003592 0.006098 0.002144 0.027819
#
#
# Mechanical properties :
#
#
# Convention : Reuss Voigt Hill
#
# Bulk Modulus (GPa) = 58.97591 69.62254 64.29922
# Shear Modulus (GPa) = 40.10159 51.73441 45.91800
#
# Velocity S-wave (km/s) = 3.93772 4.47254 4.21363
# Velocity P-wave (km/s) = 6.59377 7.32064 6.96669
#
# Compressibility (1/GPa) = 0.01695608
#
# Stress axis : x y z
#
# Youngs Moduli (GPa) = 67.20484 112.24210 91.07360
#
# Poissons Ratio (x) = 0.51809 0.22464
# Poissons Ratio (y) = 0.31021 0.16614
# Poissons Ratio (z) = 0.16577 0.20475
#
# Static dielectric constant tensor:
#      x y z
#    x 2.193390 -0.031400 0.139040 
#    y -0.031400 2.128090 -0.065410 
#    z 0.139040 -0.065410 2.050770 
# 
# From -- ./inp_files/13922.got.cif
#   From: 2010.05.17/outbox.cif.g08.bks.cpg/sg2_7_cif.got.tgz:13922.got - 2010.06.03 11:33:40.
