data_PCOD9005807
_publ_section_title
;
Structure prediction by ZEFSAII (Michael W. Deem and Ramdas Pophale) SiO2 
 PCOD9005807
Probable space group: P -1
;
_chemical_formula_sum "Si O2"
_cell_formula_units_Z 16
_cell_length_a 11.744584
_cell_length_b 10.207201
_cell_length_c 18.279568
_cell_angle_alpha 40.139356
_cell_angle_beta 127.220493
_cell_angle_gamma 95.584313
_cell_volume 790.752844
_symmetry_space_group_name_H-M "P -1"
_symmetry_group_IT_number 2
_symmetry_cell_setting 'triclinic'
loop_
_space_group_symop_operation_xyz
x,y,z
-x,-y,-z
loop_
_atom_site_type_symbol
_atom_site_label
_atom_site_fract_x
_atom_site_fract_y
_atom_site_fract_z
Si Si1 0.813544 0.230643 0.714589
Si Si2 0.264611 0.814670 0.900206
Si Si3 0.573220 0.154989 0.449448
Si Si4 0.000645 0.233760 0.486265
Si Si5 0.682712 0.220168 0.312717
Si Si6 0.974643 0.762552 0.865933
Si Si7 0.194133 0.134261 0.879373
Si Si8 0.417438 0.656402 0.279815
O O1 0.626224 0.476701 0.482789
O O2 0.736691 0.266012 0.751026
O O3 0.987273 0.222309 0.780474
O O4 0.905058 0.934204 0.841474
O O5 0.160383 0.709262 0.931244
O O6 0.106509 0.080011 0.670345
O O7 0.286449 0.938089 0.926265
O O8 0.485413 0.540788 0.069810
O O9 0.594280 0.176301 0.363104
O O10 0.439890 0.457223 0.312141
O O11 0.500000 0.000000 0.500000
O O12 0.793903 0.964716 0.651477
O O13 0.843751 0.214407 0.412589
O O14 0.872803 0.569224 0.288154
O O15 0.187864 0.037215 0.585453
O O16 0.000000 0.500000 0.000000
O O17 0.343639 0.931846 0.091231
#
# Coordination Sequence:
#
# PCOD9005807 Si02
#       8
#     2   2   2   2   2   2   2   2
#     4   9  22  39  61  92 132 159 207 263 315 378
#     4  11  22  44  65  91 127 167 216 265 315 381
#     4  11  22  38  68  94 127 166 209 262 321 383
#     4  11  26  43  63  95 127 170 214 272 308 380
#     4  11  24  45  64  91 130 167 213 262 322 377
#     4  10  21  38  63  94 127 163 206 261 321 383
#     4  11  23  39  68  90 125 170 212 261 317 376
#     4  10  21  42  60  95 129 164 207 265 314 384
#
# _framework density 20.233882000000001
#
# number of rings (size 3 to 8) (size 9 to 14) (size 15 to 20)
#    0.000    1.500    2.500    1.875    3.500    2.500 
#    2.250    0.000    0.000    0.000    0.000    0.000 
#    0.000    0.000    0.000    0.000    0.000    0.000 
#
# Total GULP energy -89389.832421 kJ/mol
# GULP energy per Si atom -5586.864526 kJ/mol
# Density = 2.018783 g / cm^3
# Si number density = 20.233882 Si / 1000 Ang^3
#
#
#
# Elastic Constant Matrix: (Units=GPa)
#
#
# Indices 1 2 3 4 5 6 
#
# 1 73.7187 29.8565 35.8736 -9.4402 -8.6432 -16.7359
# 2 29.8565 51.0532 30.5140 -6.0964 -11.9414 -8.5833
# 3 35.8736 30.5140 109.7122 -9.8473 -15.5521 -7.3505
# 4 -9.4402 -6.0964 -9.8473 23.1420 3.9560 -4.7531
# 5 -8.6432 -11.9414 -15.5521 3.9560 40.1884 0.0772
# 6 -16.7359 -8.5833 -7.3505 -4.7531 0.0772 20.4218
#
#
#
# Elastic Compliance Matrix: (Units=1/GPa)
#
#
# Indices 1 2 3 4 5 6 
#
# 1 0.023452 -0.007503 -0.003520 0.009503 0.000484 0.017008
# 2 -0.007503 0.028916 -0.004269 0.002935 0.005028 0.005132
# 3 -0.003520 -0.004269 0.011997 0.002160 0.002404 0.000132
# 4 0.009503 0.002935 0.002160 0.053626 -0.001570 0.022286
# 5 0.000484 0.005028 0.002404 -0.001570 0.027560 0.002905
# 6 0.017008 0.005132 0.000132 0.022286 0.002905 0.070286
#
#
# Mechanical properties :
#
#
# Convention : Reuss Voigt Hill
#
# Bulk Modulus (GPa) = 29.60397 47.44135 38.52266
# Shear Modulus (GPa) = 19.40370 25.96644 22.68507
#
# Velocity S-wave (km/s) = 3.10009 3.58622 3.35198
# Velocity P-wave (km/s) = 5.24182 6.37537 5.83618
#
# Compressibility (1/GPa) = 0.03377925
#
# Stress axis : x y z
#
# Youngs Moduli (GPa) = 42.64021 34.58259 83.35601
#
# Poissons Ratio (x) = 0.25949 0.29345
# Poissons Ratio (y) = 0.31995 0.35585
# Poissons Ratio (z) = 0.15011 0.14763
#
# Static dielectric constant tensor:
#      x y z
#    x 1.695540 -0.009240 0.005300 
#    y -0.009240 1.693920 -0.000320 
#    z 0.005300 -0.000320 1.768340 
# 
# From -- ./inp_files/399948.got.cif
#   From: 2010.05.17/outbox.cif.g08.bks.cpg/sg2_200_cif.got.tgz:399948.got - 2010.06.03 11:33:40.
