data_PCOD9005554
_publ_section_title
;
Structure prediction by ZEFSAII (Michael W. Deem and Ramdas Pophale) SiO2 
 PCOD9005554
Probable space group: P -1
;
_chemical_formula_sum "Si O2"
_cell_formula_units_Z 16
_cell_length_a 7.320943
_cell_length_b 11.079969
_cell_length_c 13.216092
_cell_angle_alpha 49.158629
_cell_angle_beta 83.034002
_cell_angle_gamma 69.974933
_cell_volume 753.997361
_symmetry_space_group_name_H-M "P -1"
_symmetry_group_IT_number 2
_symmetry_cell_setting 'triclinic'
loop_
_space_group_symop_operation_xyz
x,y,z
-x,-y,-z
loop_
_atom_site_type_symbol
_atom_site_label
_atom_site_fract_x
_atom_site_fract_y
_atom_site_fract_z
Si Si1 0.326034 0.312938 0.570494
Si Si2 0.648397 0.371166 0.182618
Si Si3 0.043653 0.805714 0.572894
Si Si4 0.378145 0.074856 0.866615
Si Si5 0.118330 0.696761 0.407269
Si Si6 0.951150 0.194871 0.867206
Si Si7 0.660420 0.273400 0.015054
Si Si8 0.387138 0.202664 0.403223
O O1 0.274846 0.506677 0.500406
O O2 0.413588 0.269322 0.476783
O O3 0.107339 0.300003 0.583698
O O4 0.447065 0.179759 0.720078
O O5 0.804148 0.314776 0.292452
O O6 0.734393 0.289562 0.113735
O O7 0.479302 0.294850 0.265445
O O8 0.546919 0.573685 0.066148
O O9 0.126048 0.783133 0.465510
O O10 0.842260 0.766261 0.611861
O O11 0.000000 0.000000 0.500000
O O12 0.353402 0.911874 0.901175
O O13 0.165560 0.208748 0.842079
O O14 0.500000 0.000000 0.000000
O O15 0.138901 0.775956 0.254600
O O16 0.802507 0.300341 0.903833
O O17 0.000000 0.000000 0.000000
O O18 0.500000 0.000000 0.500000
#
# Coordination Sequence:
#
# PCOD9005554 Si02
#       8
#     2   2   2   2   2   2   2   2
#     4   9  19  36  62  90 126 163 206 273 326 374
#     4  11  24  44  65  91 131 175 215 273 315 388
#     4  11  24  40  68  97 127 168 217 270 326 398
#     4  10  21  38  62  93 125 166 211 265 323 394
#     4   9  19  37  62  94 121 160 216 267 323 381
#     4   9  19  38  63  82 123 171 203 259 319 380
#     4  10  23  44  61  88 132 172 217 262 328 380
#     4  11  21  41  65  94 130 170 213 265 333 383
#
# _framework density 21.220230999999998
#
# number of rings (size 3 to 8) (size 9 to 14) (size 15 to 20)
#    0.000    2.000    1.250    1.500    7.000    1.000 
#    9.000    2.500    0.000    0.000    0.000    0.000 
#    0.000    0.000    0.000    0.000    0.000    0.000 
#
# Total GULP energy -89359.968150 kJ/mol
# GULP energy per Si atom -5584.998009 kJ/mol
# Density = 2.117193 g / cm^3
# Si number density = 21.220231 Si / 1000 Ang^3
#
#
#
# Elastic Constant Matrix: (Units=GPa)
#
#
# Indices 1 2 3 4 5 6 
#
# 1 69.9217 11.4157 24.6072 15.8118 16.3228 -3.5675
# 2 11.4157 150.9242 61.2229 29.4232 7.5746 0.5970
# 3 24.6072 61.2229 144.0599 24.1027 23.2334 5.5691
# 4 15.8118 29.4232 24.1027 48.6794 1.6558 -3.1966
# 5 16.3228 7.5746 23.2334 1.6558 31.3366 1.4266
# 6 -3.5675 0.5970 5.5691 -3.1966 1.4266 12.7861
#
#
#
# Elastic Compliance Matrix: (Units=1/GPa)
#
#
# Indices 1 2 3 4 5 6 
#
# 1 0.018049 0.000531 -0.001319 -0.004891 -0.008535 0.005315
# 2 0.000531 0.008592 -0.003137 -0.003809 0.000168 0.000143
# 3 -0.001319 -0.003137 0.010055 -0.002768 -0.005651 -0.004663
# 4 -0.004891 -0.003809 -0.002768 0.026073 0.003864 0.006106
# 5 -0.008535 0.000168 -0.005651 0.003864 0.040460 -0.003476
# 6 0.005315 0.000143 -0.004663 0.006106 -0.003476 0.083632
#
#
# Mechanical properties :
#
#
# Convention : Reuss Voigt Hill
#
# Bulk Modulus (GPa) = 34.66921 62.15527 48.41224
# Shear Modulus (GPa) = 24.47053 36.40442 30.43748
#
# Velocity S-wave (km/s) = 3.39952 4.14642 3.79140
# Velocity P-wave (km/s) = 5.63758 7.23034 6.48306
#
# Compressibility (1/GPa) = 0.02884404
#
# Stress axis : x y z
#
# Youngs Moduli (GPa) = 55.40470 116.38871 99.45443
#
# Poissons Ratio (x) = -0.06178 0.13120
# Poissons Ratio (y) = -0.02941 0.31203
# Poissons Ratio (z) = 0.07309 0.36516
#
# Static dielectric constant tensor:
#      x y z
#    x 1.863720 -0.045220 -0.048310 
#    y -0.045220 1.779990 0.029030 
#    z -0.048310 0.029030 1.775480 
# 
# From -- ./inp_files/392067.got.cif
#   From: 2010.05.17/outbox.cif.g08.bks.cpg/sg2_197_cif.got.tgz:392067.got - 2010.06.03 11:33:40.
