data_PCOD9005601
_publ_section_title
;
Structure prediction by ZEFSAII (Michael W. Deem and Ramdas Pophale) SiO2 
 PCOD9005601
Probable space group: P -1
;
_chemical_formula_sum "Si O2"
_cell_formula_units_Z 14
_cell_length_a 12.528919
_cell_length_b 12.170804
_cell_length_c 7.422706
_cell_angle_alpha 69.557553
_cell_angle_beta 64.543443
_cell_angle_gamma 122.002996
_cell_volume 569.633818
_symmetry_space_group_name_H-M "P -1"
_symmetry_group_IT_number 2
_symmetry_cell_setting 'triclinic'
loop_
_space_group_symop_operation_xyz
x,y,z
-x,-y,-z
loop_
_atom_site_type_symbol
_atom_site_label
_atom_site_fract_x
_atom_site_fract_y
_atom_site_fract_z
Si Si1 0.193560 0.069317 0.842766
Si Si2 0.322024 0.610220 0.417571
Si Si3 0.323029 0.956490 0.245377
Si Si4 0.238534 0.692968 0.739432
Si Si5 0.144233 0.759261 0.097206
Si Si6 0.653855 0.608577 0.666548
Si Si7 0.059246 0.934762 0.387618
O O1 0.342830 0.262561 0.505615
O O2 0.171221 0.913365 0.906436
O O3 0.000000 0.000000 0.000000
O O4 0.219620 0.090175 0.026951
O O5 0.324833 0.644728 0.609876
O O6 0.370882 0.515425 0.386936
O O7 0.093089 0.452665 0.613604
O O8 0.475022 0.815296 0.080995
O O9 0.330019 0.863405 0.442891
O O10 0.228382 0.834407 0.195392
O O11 0.158037 0.918273 0.451464
O O12 0.256597 0.752936 0.895919
O O13 0.000000 0.500000 0.000000
O O14 0.862872 0.740825 0.535120
O O15 0.500000 0.500000 0.000000
O O16 0.000000 0.000000 0.500000
#
# Coordination Sequence:
#
# PCOD9005601 Si02
#       7
#     2   2   2   2   2   2   2
#     4   9  18  37  64  83 132 170 197 275 317 377
#     4  11  22  42  64  97 128 168 222 261 327 385
#     4  11  23  43  67  91 136 168 212 280 312 388
#     4  10  25  42  70  95 126 178 217 265 331 386
#     4  10  22  45  64  98 128 170 220 260 334 379
#     4  11  22  39  65  96 131 171 212 269 322 384
#     4  10  21  38  62  96 125 173 216 258 335 380
#
# _framework density 24.577190999999999
#
# number of rings (size 3 to 8) (size 9 to 14) (size 15 to 20)
#    0.000    1.714    4.286    1.286    6.000    2.857 
#    0.000   15.000    0.000    0.000    0.000    0.000 
#    0.000    0.000    0.000    0.000    0.000    0.000 
#
# Total GULP energy -78242.487542 kJ/mol
# GULP energy per Si atom -5588.749110 kJ/mol
# Density = 2.452125 g / cm^3
# Si number density = 24.577191 Si / 1000 Ang^3
#
#
#
# Elastic Constant Matrix: (Units=GPa)
#
#
# Indices 1 2 3 4 5 6 
#
# 1 59.1797 17.1100 13.8332 -11.6472 -14.9841 -1.4386
# 2 17.1100 156.3153 50.7665 19.1361 -14.3404 -8.3206
# 3 13.8332 50.7665 142.6987 -8.2282 -1.7630 2.3713
# 4 -11.6472 19.1361 -8.2282 52.0161 -0.7236 -12.0139
# 5 -14.9841 -14.3404 -1.7630 -0.7236 25.7223 5.4968
# 6 -1.4386 -8.3206 2.3713 -12.0139 5.4968 35.6915
#
#
#
# Elastic Compliance Matrix: (Units=1/GPa)
#
#
# Indices 1 2 3 4 5 6 
#
# 1 0.021686 -0.001601 -0.001077 0.005588 0.011684 0.000654
# 2 -0.001601 0.008328 -0.002989 -0.003782 0.003337 0.000288
# 3 -0.001077 -0.002989 0.008281 0.002066 -0.001593 -0.000350
# 4 0.005588 -0.003782 0.002066 0.023856 0.000427 0.007171
# 5 0.011684 0.003337 -0.001593 0.000427 0.048730 -0.006006
# 6 0.000654 0.000288 -0.000350 0.007171 -0.006006 0.031473
#
#
# Mechanical properties :
#
#
# Convention : Reuss Voigt Hill
#
# Bulk Modulus (GPa) = 37.09159 57.95701 47.52430
# Shear Modulus (GPa) = 30.73585 41.11824 35.92704
#
# Velocity S-wave (km/s) = 3.54020 4.09470 3.82750
# Velocity P-wave (km/s) = 5.64228 6.78146 6.23793
#
# Compressibility (1/GPa) = 0.02696029
#
# Stress axis : x y z
#
# Youngs Moduli (GPa) = 46.11171 120.07823 120.76121
#
# Poissons Ratio (x) = 0.19230 0.13004
# Poissons Ratio (y) = 0.07385 0.36097
# Poissons Ratio (z) = 0.04965 0.35893
#
# Static dielectric constant tensor:
#      x y z
#    x 2.064860 -0.038160 -0.039320 
#    y -0.038160 1.973520 0.033660 
#    z -0.039320 0.033660 1.982970 
# 
# From -- ./inp_files/211788.got.cif
#   From: 2010.05.17/outbox.cif.g08.bks.cpg/sg2_106_cif.got.tgz:211788.got - 2010.06.03 11:33:40.
