data_PCOD9005847
_publ_section_title
;
Structure prediction by ZEFSAII (Michael W. Deem and Ramdas Pophale) SiO2 
 PCOD9005847
Probable space group: P -1
;
_chemical_formula_sum "Si O2"
_cell_formula_units_Z 14
_cell_length_a 11.963721
_cell_length_b 18.008546
_cell_length_c 14.503207
_cell_angle_alpha 22.526502
_cell_angle_beta 141.513238
_cell_angle_gamma 141.796999
_cell_volume 718.697332
_symmetry_space_group_name_H-M "P -1"
_symmetry_group_IT_number 2
_symmetry_cell_setting 'triclinic'
loop_
_space_group_symop_operation_xyz
x,y,z
-x,-y,-z
loop_
_atom_site_type_symbol
_atom_site_label
_atom_site_fract_x
_atom_site_fract_y
_atom_site_fract_z
Si Si1 0.966136 0.919104 0.468367
Si Si2 0.753778 0.111450 0.968191
Si Si3 0.685162 0.163098 0.318801
Si Si4 0.745665 0.013283 0.733465
Si Si5 0.014242 0.735710 0.238109
Si Si6 0.782697 0.484079 0.879628
Si Si7 0.566197 0.299408 0.777187
O O1 0.795700 0.714788 0.599327
O O2 0.159657 0.895347 0.578000
O O3 0.896113 0.063136 0.189290
O O4 0.000000 0.000000 0.500000
O O5 0.593358 0.907152 0.081610
O O6 0.854573 0.178029 0.862050
O O7 0.673164 0.275825 0.779492
O O8 0.741095 0.117753 0.510861
O O9 0.468368 0.046472 0.301591
O O10 0.702971 0.391157 0.032933
O O11 0.883572 0.165570 0.716069
O O12 0.829172 0.816944 0.011073
O O13 0.000000 0.500000 0.500000
O O14 0.688001 0.335147 0.907822
O O15 0.000000 0.500000 0.000000
O O16 0.500000 0.500000 0.500000
#
# Coordination Sequence:
#
# PCOD9005847 Si02
#       7
#     2   2   2   2   2   2   2
#     4  11  22  39  63  97 134 164 211 268 330 394
#     4  11  23  41  65  97 132 167 217 272 319 392
#     4  10  21  43  68  91 129 171 215 267 327 381
#     4  10  23  46  67  92 129 173 219 274 318 374
#     4  11  25  43  67  94 127 175 224 265 324 379
#     4  10  21  38  63  96 126 172 204 254 339 385
#     4  11  23  41  67  98 133 172 213 264 334 389
#
# _framework density 19.479689
#
# number of rings (size 3 to 8) (size 9 to 14) (size 15 to 20)
#    0.000    1.429    2.857    2.571    0.000    8.000 
#    2.571    1.429    0.000    0.000    0.000    0.000 
#    0.000    0.000    0.000    0.000    0.000    0.000 
#
# Total GULP energy -78064.500341 kJ/mol
# GULP energy per Si atom -5576.035739 kJ/mol
# Density = 1.943535 g / cm^3
# Si number density = 19.479689 Si / 1000 Ang^3
#
#
#
# Elastic Constant Matrix: (Units=GPa)
#
#
# Indices 1 2 3 4 5 6 
#
# 1 105.3240 44.8092 32.5661 -1.7076 1.6969 2.5062
# 2 44.8092 111.7584 34.4427 12.0508 3.5613 -9.5813
# 3 32.5661 34.4427 78.7684 -2.4022 14.5450 -6.9016
# 4 -1.7076 12.0508 -2.4022 29.6525 -4.2011 1.1024
# 5 1.6969 3.5613 14.5450 -4.2011 34.1782 2.2102
# 6 2.5062 -9.5813 -6.9016 1.1024 2.2102 25.7713
#
#
#
# Elastic Compliance Matrix: (Units=1/GPa)
#
#
# Indices 1 2 3 4 5 6 
#
# 1 0.012813 -0.004659 -0.003953 0.002778 0.002154 -0.004340
# 2 -0.004659 0.012934 -0.003369 -0.006075 -0.000732 0.004682
# 3 -0.003953 -0.003369 0.017525 0.001404 -0.007020 0.004367
# 4 0.002778 -0.006075 0.001404 0.037294 0.004750 -0.004155
# 5 0.002154 -0.000732 -0.007020 0.004750 0.033149 -0.005408
# 6 -0.004340 0.004682 0.004367 -0.004155 -0.005408 0.042777
#
#
# Mechanical properties :
#
#
# Convention : Reuss Voigt Hill
#
# Bulk Modulus (GPa) = 51.79070 57.72075 54.75573
# Shear Modulus (GPa) = 26.75351 30.18925 28.47138
#
# Velocity S-wave (km/s) = 3.70997 3.94100 3.82723
# Velocity P-wave (km/s) = 6.70795 7.09959 6.90655
#
# Compressibility (1/GPa) = 0.01930849
#
# Stress axis : x y z
#
# Youngs Moduli (GPa) = 78.04780 77.31485 57.06132
#
# Poissons Ratio (x) = 0.36021 0.22558
# Poissons Ratio (y) = 0.36363 0.19225
# Poissons Ratio (z) = 0.30855 0.26049
#
# Static dielectric constant tensor:
#      x y z
#    x 1.611610 0.040110 -0.001350 
#    y 0.040110 1.668590 0.036160 
#    z -0.001350 0.036160 1.804430 
# 
# From -- ./inp_files/387329.got.cif
#   From: 2010.05.17/outbox.cif.g08.bks.cpg/sg2_194_cif.got.tgz:387329.got - 2010.06.03 11:33:40.
