data_PCOD9005059
_publ_section_title
;
Structure prediction by ZEFSAII (Michael W. Deem and Ramdas Pophale) SiO2 
 PCOD9005059
Probable space group: P -1
;
_chemical_formula_sum "Si O2"
_cell_formula_units_Z 13
_cell_length_a 8.150643
_cell_length_b 10.385619
_cell_length_c 11.203748
_cell_angle_alpha 117.389606
_cell_angle_beta 37.100930
_cell_angle_gamma 103.861278
_cell_volume 493.391644
_symmetry_space_group_name_H-M "P -1"
_symmetry_group_IT_number 2
_symmetry_cell_setting 'triclinic'
loop_
_space_group_symop_operation_xyz
x,y,z
-x,-y,-z
loop_
_atom_site_type_symbol
_atom_site_label
_atom_site_fract_x
_atom_site_fract_y
_atom_site_fract_z
Si Si1 0.642319 0.106516 0.563978
Si Si2 0.578471 0.464840 0.188203
Si Si3 0.500000 0.000000 0.000000
Si Si4 0.760256 0.285276 0.364319
Si Si5 0.091946 0.281439 0.943407
Si Si6 0.718203 0.817532 0.551532
Si Si7 0.350980 0.732877 0.131794
O O1 0.822988 0.160458 0.379317
O O2 0.600855 0.232554 0.744975
O O3 0.747217 0.960482 0.517099
O O4 0.320580 0.128890 0.714285
O O5 0.336202 0.550864 0.453032
O O6 0.800951 0.326062 0.059821
O O7 0.757247 0.587933 0.118299
O O8 0.477971 0.410500 0.099633
O O9 0.382676 0.124360 0.233143
O O10 0.407437 0.871195 0.080702
O O11 0.504935 0.252541 0.419837
O O12 0.011990 0.270513 0.122104
O O13 0.029711 0.716147 0.316274
#
# Coordination Sequence:
#
# PCOD9005059 Si02
#       7
#     2   2   1   2   2   2   2
#     4  10  23  38  58  91 124 158 201 251 302 353
#     4  10  22  41  62  89 122 159 205 248 296 359
#     4  10  22  38  62  90 114 156 204 240 296 358
#     4  11  23  40  64  91 121 162 203 246 303 360
#     4  10  21  38  60  89 121 156 203 250 296 355
#     4  11  23  41  64  89 124 162 201 251 299 356
#     4  11  23  42  64  89 125 161 199 250 301 358
#
# _framework density 26.348237000000001
#
# number of rings (size 3 to 8) (size 9 to 14) (size 15 to 20)
#    0.000    1.538    0.000    6.462    0.000    9.231 
#    0.000    1.538    0.000    0.000    0.000    0.000 
#    0.000    0.000    0.000    0.000    0.000    0.000 
#
# Total GULP energy -72502.030683 kJ/mol
# GULP energy per Si atom -5577.079283 kJ/mol
# Density = 2.628827 g / cm^3
# Si number density = 26.348237 Si / 1000 Ang^3
#
#
#
# Elastic Constant Matrix: (Units=GPa)
#
#
# Indices 1 2 3 4 5 6 
#
# 1 48.7935 0.5675 6.4453 -14.0076 27.5911 -7.8143
# 2 0.5675 39.7617 16.5685 -23.0290 -4.1107 -19.7322
# 3 6.4453 16.5685 123.9729 -31.7831 36.8675 -9.8384
# 4 -14.0076 -23.0290 -31.7831 55.2231 -10.6612 16.9655
# 5 27.5911 -4.1107 36.8675 -10.6612 54.3454 -1.9531
# 6 -7.8143 -19.7322 -9.8384 16.9655 -1.9531 39.2151
#
#
#
# Elastic Compliance Matrix: (Units=1/GPa)
#
#
# Indices 1 2 3 4 5 6 
#
# 1 0.033584 0.001744 0.006108 0.007513 -0.019412 0.004885
# 2 0.001744 0.042707 -0.003590 0.012862 0.007870 0.015764
# 3 0.006108 -0.003590 0.012885 0.005408 -0.011061 -0.000248
# 4 0.007513 0.012862 0.005408 0.029375 -0.000871 -0.003426
# 5 -0.019412 0.007870 -0.011061 -0.000871 0.036167 -0.000505
# 6 0.004885 0.015764 -0.000248 -0.003426 -0.000505 0.035801
#
#
# Mechanical properties :
#
#
# Convention : Reuss Voigt Hill
#
# Bulk Modulus (GPa) = 10.23557 28.85453 19.54505
# Shear Modulus (GPa) = 23.30342 42.35318 32.82830
#
# Velocity S-wave (km/s) = 2.97718 4.01364 3.53362
# Velocity P-wave (km/s) = 3.96375 5.69684 4.90741
#
# Compressibility (1/GPa) = 0.09769856
#
# Stress axis : x y z
#
# Youngs Moduli (GPa) = 29.77643 23.41538 77.60996
#
# Poissons Ratio (x) = -0.04084 -0.47400
# Poissons Ratio (y) = -0.05194 0.27864
# Poissons Ratio (z) = -0.18186 0.08407
#
# Static dielectric constant tensor:
#      x y z
#    x 2.107860 0.082430 0.121680 
#    y 0.082430 1.996980 -0.004350 
#    z 0.121680 -0.004350 1.956610 
# 
# From -- ./inp_files/388107.got.cif
#   From: 2010.05.17/outbox.cif.g08.bks.cpg/sg2_195_cif.got.tgz:388107.got - 2010.06.03 11:33:40.
