data_PCOD9005790
_publ_section_title
;
Structure prediction by ZEFSAII (Michael W. Deem and Ramdas Pophale) SiO2 
 PCOD9005790
Probable space group: P -1
;
_chemical_formula_sum "Si O2"
_cell_formula_units_Z 16
_cell_length_a 8.133341
_cell_length_b 11.380834
_cell_length_c 8.871857
_cell_angle_alpha 63.232267
_cell_angle_beta 81.660314
_cell_angle_gamma 81.045049
_cell_volume 721.658218
_symmetry_space_group_name_H-M "P -1"
_symmetry_group_IT_number 2
_symmetry_cell_setting 'triclinic'
loop_
_space_group_symop_operation_xyz
x,y,z
-x,-y,-z
loop_
_atom_site_type_symbol
_atom_site_label
_atom_site_fract_x
_atom_site_fract_y
_atom_site_fract_z
Si Si1 0.292774 0.744931 0.562928
Si Si2 0.408214 0.776686 0.865484
Si Si3 0.985837 0.710048 0.240756
Si Si4 0.049885 0.126940 0.552555
Si Si5 0.043906 0.909953 0.900420
Si Si6 0.302021 0.453817 0.591805
Si Si7 0.365451 0.024737 0.370968
Si Si8 0.626659 0.386396 0.755376
O O1 0.376424 0.737112 0.720392
O O2 0.311953 0.601954 0.567762
O O3 0.094365 0.788497 0.568921
O O4 0.352766 0.875633 0.397178
O O5 0.241362 0.871859 0.876796
O O6 0.563088 0.864995 0.806880
O O7 0.414086 0.650704 0.047321
O O8 0.911455 0.793150 0.347208
O O9 0.880293 0.586004 0.327901
O O10 0.186706 0.690454 0.250129
O O11 0.964660 0.779066 0.039779
O O12 0.205320 0.084717 0.451786
O O13 0.987343 0.994877 0.713380
O O14 0.000000 0.000000 0.000000
O O15 0.454209 0.363721 0.702807
O O16 0.336294 0.470503 0.398803
O O17 0.500000 0.000000 0.500000
#
# Coordination Sequence:
#
# PCOD9005790 Si02
#       8
#     2   2   2   2   2   2   2   2
#     4  11  23  39  64  99 134 169 218 257 326 401
#     4  10  22  44  62  94 135 165 213 274 324 384
#     4  10  22  43  70  97 129 173 223 268 332 380
#     4  11  20  39  67  94 133 172 208 275 320 388
#     4   9  19  37  64  95 126 165 212 266 326 378
#     4  11  24  44  68  97 126 179 222 267 325 390
#     4  10  21  38  63  93 132 170 210 259 335 389
#     4  10  23  45  67  91 134 168 225 277 312 382
#
# _framework density 22.171158999999999
#
# number of rings (size 3 to 8) (size 9 to 14) (size 15 to 20)
#    0.000    1.750    3.750    0.750    0.000    5.500 
#    2.250    3.125    0.000    0.000    0.000    0.000 
#    0.000    0.000    0.000    0.000    0.000    0.000 
#
# Total GULP energy -89074.593662 kJ/mol
# GULP energy per Si atom -5567.162104 kJ/mol
# Density = 2.212070 g / cm^3
# Si number density = 22.171159 Si / 1000 Ang^3
#
#
#
# Elastic Constant Matrix: (Units=GPa)
#
#
# Indices 1 2 3 4 5 6 
#
# 1 78.3720 49.0901 50.7123 -4.2119 -4.2349 -2.3399
# 2 49.0901 91.6170 19.8126 1.1814 -17.0576 2.7298
# 3 50.7123 19.8126 139.5303 -18.4733 -16.7428 4.8969
# 4 -4.2119 1.1814 -18.4733 22.8877 -1.5935 -5.2487
# 5 -4.2349 -17.0576 -16.7428 -1.5935 39.0081 -10.9809
# 6 -2.3399 2.7298 4.8969 -5.2487 -10.9809 25.3293
#
#
#
# Elastic Compliance Matrix: (Units=1/GPa)
#
#
# Indices 1 2 3 4 5 6 
#
# 1 0.026578 -0.013549 -0.008726 -0.001254 -0.006073 0.002710
# 2 -0.013549 0.019012 0.003139 -0.000506 0.008018 -0.000536
# 3 -0.008726 0.003139 0.011683 0.008297 0.006042 0.000936
# 4 -0.001254 -0.000506 0.008297 0.053921 0.009207 0.013499
# 5 -0.006073 0.008018 0.006042 0.009207 0.035604 0.014750
# 6 0.002710 -0.000536 0.000936 0.013499 0.014750 0.048799
#
#
# Mechanical properties :
#
#
# Convention : Reuss Voigt Hill
#
# Bulk Modulus (GPa) = 52.62967 60.97213 56.80090
# Shear Modulus (GPa) = 20.81577 30.10533 25.46055
#
# Velocity S-wave (km/s) = 3.06742 3.68891 3.39243
# Velocity P-wave (km/s) = 6.02784 6.76051 6.40466
#
# Compressibility (1/GPa) = 0.01900069
#
# Stress axis : x y z
#
# Youngs Moduli (GPa) = 37.62492 52.59965 85.59229
#
# Poissons Ratio (x) = 0.71269 0.74685
# Poissons Ratio (y) = 0.50979 -0.26867
# Poissons Ratio (z) = 0.32830 -0.16511
#
# Static dielectric constant tensor:
#      x y z
#    x 1.853870 0.010010 0.015460 
#    y 0.010010 1.899830 -0.031110 
#    z 0.015460 -0.031110 1.893420 
# 
# From -- ./inp_files/174959.got.cif
#   From: 2010.05.17/outbox.cif.g08.bks.cpg/sg2_88_cif.got.tgz:174959.got - 2010.06.03 11:33:40.
