data_PCOD9005982
_publ_section_title
;
Structure prediction by ZEFSAII (Michael W. Deem and Ramdas Pophale) SiO2 
 PCOD9005982
Probable space group: P -1
;
_chemical_formula_sum "Si O2"
_cell_formula_units_Z 12
_cell_length_a 14.294173
_cell_length_b 5.200370
_cell_length_c 13.202987
_cell_angle_alpha 111.875972
_cell_angle_beta 30.348221
_cell_angle_gamma 108.066324
_cell_volume 460.035001
_symmetry_space_group_name_H-M "P -1"
_symmetry_group_IT_number 2
_symmetry_cell_setting 'triclinic'
loop_
_space_group_symop_operation_xyz
x,y,z
-x,-y,-z
loop_
_atom_site_type_symbol
_atom_site_label
_atom_site_fract_x
_atom_site_fract_y
_atom_site_fract_z
Si Si1 0.760699 0.549525 0.537992
Si Si2 0.274446 0.305109 0.091431
Si Si3 0.945060 0.178411 0.806669
Si Si4 0.382724 0.427532 0.782499
Si Si5 0.321322 0.816924 0.244208
Si Si6 0.112417 0.206395 0.855653
O O1 0.959210 0.568559 0.302674
O O2 0.598093 0.492205 0.600177
O O3 0.733976 0.344995 0.625718
O O4 0.735226 0.864195 0.648823
O O5 0.245662 0.625182 0.197296
O O6 0.329620 0.289301 0.919252
O O7 0.455494 0.202951 0.969482
O O8 0.111398 0.098754 0.237994
O O9 0.094344 0.100431 0.742942
O O10 0.750577 0.297822 0.050571
O O11 0.310751 0.255606 0.728709
O O12 0.000000 0.500000 0.000000
O O13 0.000000 0.000000 0.000000
#
# Coordination Sequence:
#
# PCOD9005982 Si02
#       6
#     2   2   2   2   2   2
#     4  11  25  40  62  92 127 155 206 248 302 358
#     4  10  21  39  68  82 126 164 204 244 310 352
#     4  11  23  39  65  91 120 163 203 249 304 361
#     4  10  22  42  63  88 126 160 199 254 304 354
#     4  10  24  41  60  94 121 163 204 250 296 364
#     4  10  21  38  64  91 117 156 205 244 300 362
#
# _framework density 26.084970999999999
#
# number of rings (size 3 to 8) (size 9 to 14) (size 15 to 20)
#    0.000    1.667    3.333    0.000    4.667    4.000 
#    0.000    0.000    0.000    7.000    0.000    0.000 
#    0.000    0.000    0.000    0.000    0.000    0.000 
#
# Total GULP energy -67228.265209 kJ/mol
# GULP energy per Si atom -5602.355434 kJ/mol
# Density = 2.602560 g / cm^3
# Si number density = 26.084971 Si / 1000 Ang^3
#
#
#
# Elastic Constant Matrix: (Units=GPa)
#
#
# Indices 1 2 3 4 5 6 
#
# 1 135.7545 46.1124 27.4944 -32.5322 -13.9782 27.4074
# 2 46.1124 152.0343 39.0709 -28.0524 -6.0950 9.8772
# 3 27.4944 39.0709 66.3798 -26.0910 -25.8256 15.7987
# 4 -32.5322 -28.0524 -26.0910 45.9529 3.8472 -11.2603
# 5 -13.9782 -6.0950 -25.8256 3.8472 33.6023 -15.6730
# 6 27.4074 9.8772 15.7987 -11.2603 -15.6730 52.7765
#
#
#
# Elastic Compliance Matrix: (Units=1/GPa)
#
#
# Indices 1 2 3 4 5 6 
#
# 1 0.010054 -0.001950 0.000752 0.005365 0.002271 -0.003263
# 2 -0.001950 0.008552 -0.004972 0.001342 -0.003112 0.000262
# 3 0.000752 -0.004972 0.031686 0.013769 0.022502 0.000675
# 4 0.005365 0.001342 0.013769 0.034109 0.010688 0.003292
# 5 0.002271 -0.003112 0.022502 0.010688 0.050905 0.010065
# 6 -0.003263 0.000262 0.000675 0.003292 0.010065 0.024082
#
#
# Mechanical properties :
#
#
# Convention : Reuss Voigt Hill
#
# Bulk Modulus (GPa) = 26.34865 64.39156 45.37011
# Shear Modulus (GPa) = 27.11791 42.56574 34.84182
#
# Velocity S-wave (km/s) = 3.22778 4.04395 3.65869
# Velocity P-wave (km/s) = 4.90045 6.82229 5.93961
#
# Compressibility (1/GPa) = 0.03795260
#
# Stress axis : x y z
#
# Youngs Moduli (GPa) = 99.45868 116.92495 31.55976
#
# Poissons Ratio (x) = 0.22799 -0.02373
# Poissons Ratio (y) = 0.19393 0.15692
# Poissons Ratio (z) = -0.07478 0.58136
#
# Static dielectric constant tensor:
#      x y z
#    x 2.108160 -0.005500 0.006260 
#    y -0.005500 1.995840 0.046790 
#    z 0.006260 0.046790 2.061660 
# 
# From -- ./inp_files/22105.got.cif
#   From: 2010.05.17/outbox.cif.g08.bks.cpg/sg2_12_cif.got.tgz:22105.got - 2010.06.03 11:33:40.
