data_PCOD9005330
_publ_section_title
;
Structure prediction by ZEFSAII (Michael W. Deem and Ramdas Pophale) SiO2 
 PCOD9005330
Probable space group: P -1
;
_chemical_formula_sum "Si O2"
_cell_formula_units_Z 16
_cell_length_a 15.218623
_cell_length_b 11.791493
_cell_length_c 12.991215
_cell_angle_alpha 74.204262
_cell_angle_beta 161.491613
_cell_angle_gamma 105.593923
_cell_volume 711.667114
_symmetry_space_group_name_H-M "P -1"
_symmetry_group_IT_number 2
_symmetry_cell_setting 'triclinic'
loop_
_space_group_symop_operation_xyz
x,y,z
-x,-y,-z
loop_
_atom_site_type_symbol
_atom_site_label
_atom_site_fract_x
_atom_site_fract_y
_atom_site_fract_z
Si Si1 0.976074 0.152732 0.529681
Si Si2 0.086148 0.052977 0.322068
Si Si3 0.475584 0.077838 0.556569
Si Si4 0.820912 0.622701 0.177920
Si Si5 0.029973 0.555761 0.129740
Si Si6 0.718408 0.535387 0.366504
Si Si7 0.627432 0.809682 0.213774
Si Si8 0.430678 0.307395 0.327131
O O1 0.045217 0.282249 0.620583
O O2 0.215646 0.122881 0.722686
O O3 0.942280 0.061918 0.608354
O O4 0.691170 0.159750 0.149679
O O5 0.265760 0.032343 0.423702
O O6 0.235056 0.151962 0.535343
O O7 0.780361 0.088750 0.941414
O O8 0.379164 0.201292 0.374087
O O9 0.500000 0.000000 0.500000
O O10 0.035259 0.524546 0.406839
O O11 0.549353 0.549265 0.930680
O O12 0.717402 0.700137 0.946323
O O13 0.185740 0.477972 0.405058
O O14 0.241924 0.669349 0.329878
O O15 0.726072 0.583020 0.825802
O O16 0.000000 0.500000 0.000000
O O17 0.658474 0.671944 0.256140
#
# Coordination Sequence:
#
# PCOD9005330 Si02
#       8
#     2   2   2   2   2   2   2   2
#     4  12  25  45  72  92 132 183 231 281 343 388
#     4  12  27  47  69 100 137 176 228 287 336 400
#     4  12  26  44  71 103 135 176 223 278 335 405
#     4  10  22  42  64  97 133 174 219 278 328 403
#     4  10  21  38  61  92 131 175 207 260 323 408
#     4  10  23  39  63  98 137 167 223 273 335 395
#     4  12  26  44  68 100 133 178 226 284 333 406
#     4  10  22  39  62  95 130 169 213 262 330 395
#
# _framework density 22.482422
#
# number of rings (size 3 to 8) (size 9 to 14) (size 15 to 20)
#    0.000    1.000    0.000    6.000    3.500    6.000 
#    0.000    0.000    0.000    0.000    0.000    0.000 
#    0.000    0.000    0.000    0.000    0.000    0.000 
#
# Total GULP energy -89555.264346 kJ/mol
# GULP energy per Si atom -5597.204022 kJ/mol
# Density = 2.243125 g / cm^3
# Si number density = 22.482422 Si / 1000 Ang^3
#
#
#
# Elastic Constant Matrix: (Units=GPa)
#
#
# Indices 1 2 3 4 5 6 
#
# 1 98.8188 7.7995 16.8359 6.8652 -0.2847 7.6948
# 2 7.7995 82.9762 29.2090 -0.9191 -9.1524 8.5604
# 3 16.8359 29.2090 120.5118 6.7191 3.2523 -0.7925
# 4 6.8652 -0.9191 6.7191 25.2510 0.6063 -9.6508
# 5 -0.2847 -9.1524 3.2523 0.6063 36.2740 -3.5623
# 6 7.6948 8.5604 -0.7925 -9.6508 -3.5623 33.4717
#
#
#
# Elastic Compliance Matrix: (Units=1/GPa)
#
#
# Indices 1 2 3 4 5 6 
#
# 1 0.010919 -0.000271 -0.001254 -0.004036 -0.000161 -0.003652
# 2 -0.000271 0.014025 -0.003490 0.000217 0.003535 -0.003169
# 3 -0.001254 -0.003490 0.009480 -0.002022 -0.001643 0.000648
# 4 -0.004036 0.000217 -0.002022 0.046724 0.000836 0.014385
# 5 -0.000161 0.003535 -0.001643 0.000836 0.028828 0.002403
# 6 -0.003652 -0.003169 0.000648 0.014385 0.002403 0.035945
#
#
# Mechanical properties :
#
#
# Convention : Reuss Voigt Hill
#
# Bulk Modulus (GPa) = 40.99286 45.55507 43.27397
# Shear Modulus (GPa) = 30.47277 35.56350 33.01813
#
# Velocity S-wave (km/s) = 3.68558 3.98154 3.83642
# Velocity P-wave (km/s) = 6.03193 6.43766 6.23809
#
# Compressibility (1/GPa) = 0.02439449
#
# Stress axis : x y z
#
# Youngs Moduli (GPa) = 91.58428 71.30277 105.48153
#
# Poissons Ratio (x) = 0.01929 0.13232
# Poissons Ratio (y) = 0.02478 0.36810
# Poissons Ratio (z) = 0.11489 0.24883
#
# Static dielectric constant tensor:
#      x y z
#    x 1.997190 -0.403140 -0.034590 
#    y -0.403140 3.053870 0.022810 
#    z -0.034590 0.022810 1.837440 
# 
# From -- ./inp_files/434128.got.cif
#   From: 2010.05.17/outbox.cif.g08.bks.cpg/sg2_218_cif.got.tgz:434128.got - 2010.06.03 11:33:40.
