data_PCOD9005160
_publ_section_title
;
Structure prediction by ZEFSAII (Michael W. Deem and Ramdas Pophale) SiO2 
 PCOD9005160
Probable space group: P -1
;
_chemical_formula_sum "Si O2"
_cell_formula_units_Z 14
_cell_length_a 8.227692
_cell_length_b 19.122818
_cell_length_c 11.809490
_cell_angle_alpha 145.880997
_cell_angle_beta 45.493762
_cell_angle_gamma 150.397439
_cell_volume 513.643899
_symmetry_space_group_name_H-M "P -1"
_symmetry_group_IT_number 2
_symmetry_cell_setting 'triclinic'
loop_
_space_group_symop_operation_xyz
x,y,z
-x,-y,-z
loop_
_atom_site_type_symbol
_atom_site_label
_atom_site_fract_x
_atom_site_fract_y
_atom_site_fract_z
Si Si1 0.322555 0.476468 0.360340
Si Si2 0.643767 0.245863 0.245222
Si Si3 0.464290 0.254978 0.989086
Si Si4 0.728793 0.087155 0.393145
Si Si5 0.711764 0.034672 0.771147
Si Si6 0.422541 0.351513 0.762166
Si Si7 0.895718 0.414245 0.767824
O O1 0.381747 0.620786 0.603112
O O2 0.317816 0.329948 0.198351
O O3 0.583594 0.603882 0.302654
O O4 0.976618 0.359225 0.307160
O O5 0.365307 0.100159 0.278011
O O6 0.656045 0.143796 0.009143
O O7 0.802104 0.380131 0.064817
O O8 0.610379 0.319021 0.875432
O O9 0.220058 0.040193 0.825003
O O10 0.521258 0.050866 0.338000
O O11 0.987193 0.302819 0.573042
O O12 0.500000 0.000000 0.500000
O O13 0.921500 0.836013 0.279665
O O14 0.726177 0.383893 0.692251
O O15 0.500000 0.500000 0.000000
#
# Coordination Sequence:
#
# PCOD9005160 Si02
#       7
#     2   2   2   2   2   2   2
#     4  11  23  43  70 102 135 184 234 283 349 416
#     4  10  24  44  69  98 146 184 223 284 354 422
#     4  10  21  40  62  96 139 176 218 285 349 406
#     4  10  23  40  65  98 139 180 226 288 345 405
#     4  11  23  45  68 103 139 181 232 290 345 410
#     4  12  21  38  73 105 129 175 241 297 334 398
#     4  10  21  38  61 102 137 168 220 295 350 391
#
# _framework density 27.256238
#
# number of rings (size 3 to 8) (size 9 to 14) (size 15 to 20)
#    0.000    1.429    2.857    1.714    4.000    2.286 
#    7.714    1.429    0.000    0.000    0.000    0.000 
#    0.000    0.000    0.000    0.000    0.000    0.000 
#
# Total GULP energy -78434.434919 kJ/mol
# GULP energy per Si atom -5602.459637 kJ/mol
# Density = 2.719420 g / cm^3
# Si number density = 27.256238 Si / 1000 Ang^3
#
#
#
# Elastic Constant Matrix: (Units=GPa)
#
#
# Indices 1 2 3 4 5 6 
#
# 1 80.0801 4.7652 19.5657 -2.5294 -3.2684 -17.5469
# 2 4.7652 112.7447 23.1371 4.0430 -4.1121 -4.9643
# 3 19.5657 23.1371 201.4949 31.7301 -20.9775 -17.9998
# 4 -2.5294 4.0430 31.7301 47.2900 -16.3205 -3.0794
# 5 -3.2684 -4.1121 -20.9775 -16.3205 52.9738 -2.0352
# 6 -17.5469 -4.9643 -17.9998 -3.0794 -2.0352 27.6301
#
#
#
# Elastic Compliance Matrix: (Units=1/GPa)
#
#
# Indices 1 2 3 4 5 6 
#
# 1 0.014887 -0.000078 -0.000828 0.002563 0.001732 0.009314
# 2 -0.000078 0.009118 -0.000912 0.000030 0.000391 0.001027
# 3 -0.000828 -0.000912 0.006091 -0.003388 0.001362 0.003001
# 4 0.002563 0.000030 -0.003388 0.026150 0.006985 0.002855
# 5 0.001732 0.000391 0.001362 0.006985 0.021877 0.004447
# 6 0.009314 0.001027 0.003001 0.002855 0.004447 0.044893
#
#
# Mechanical properties :
#
#
# Convention : Reuss Voigt Hill
#
# Bulk Modulus (GPa) = 37.79046 54.36175 46.07610
# Shear Modulus (GPa) = 36.90796 48.70225 42.80510
#
# Velocity S-wave (km/s) = 3.68382 4.23168 3.96721
# Velocity P-wave (km/s) = 5.65588 6.62300 6.15845
#
# Compressibility (1/GPa) = 0.02646171
#
# Stress axis : x y z
#
# Youngs Moduli (GPa) = 67.17331 109.66848 164.16557
#
# Poissons Ratio (x) = 0.00855 0.13589
# Poissons Ratio (y) = 0.00524 0.14968
# Poissons Ratio (z) = 0.05561 0.09999
#
# Static dielectric constant tensor:
#      x y z
#    x 2.271780 0.056450 -0.291420 
#    y 0.056450 2.174540 -0.075640 
#    z -0.291420 -0.075640 2.440410 
# 
# From -- ./inp_files/171565.got.cif
#   From: 2010.05.17/outbox.cif.g08.bks.cpg/sg2_86_cif.got.tgz:171565.got - 2010.06.03 11:33:40.
