data_PCOD9005828
_publ_section_title
;
Structure prediction by ZEFSAII (Michael W. Deem and Ramdas Pophale) SiO2 
 PCOD9005828
Probable space group: P -1
;
_chemical_formula_sum "Si O2"
_cell_formula_units_Z 16
_cell_length_a 9.550610
_cell_length_b 18.665371
_cell_length_c 9.525985
_cell_angle_alpha 61.382634
_cell_angle_beta 118.233076
_cell_angle_gamma 148.218187
_cell_volume 777.113491
_symmetry_space_group_name_H-M "P -1"
_symmetry_group_IT_number 2
_symmetry_cell_setting 'triclinic'
loop_
_space_group_symop_operation_xyz
x,y,z
-x,-y,-z
loop_
_atom_site_type_symbol
_atom_site_label
_atom_site_fract_x
_atom_site_fract_y
_atom_site_fract_z
Si Si1 0.409675 0.777023 0.217010
Si Si2 0.960359 0.225178 0.863268
Si Si3 0.279072 0.699724 0.794532
Si Si4 0.366957 0.376496 0.152128
Si Si5 0.236332 0.032633 0.048036
Si Si6 0.433115 0.448282 0.673912
Si Si7 0.303995 0.643828 0.564401
Si Si8 0.279729 0.580711 0.138368
O O1 0.239636 0.786450 0.169273
O O2 0.460899 0.746925 0.410454
O O3 0.251888 0.647591 0.162209
O O4 0.658628 0.905367 0.118066
O O5 0.158343 0.348324 0.724699
O O6 0.839141 0.093448 0.861840
O O7 0.110128 0.253050 0.049170
O O8 0.509664 0.846227 0.841880
O O9 0.295973 0.703591 0.633012
O O10 0.968209 0.582062 0.798707
O O11 0.308858 0.622625 0.954081
O O12 0.345687 0.415406 0.251855
O O13 0.546845 0.373173 0.283408
O O14 0.500000 0.500000 0.000000
O O15 0.000000 0.000000 0.000000
O O16 0.500000 0.500000 0.500000
O O17 0.456134 0.360129 0.762918
O O18 0.000000 0.500000 0.500000
#
# Coordination Sequence:
#
# PCOD9005828 Si02
#       8
#     2   2   2   2   2   2   2   2
#     4  11  24  41  69  98 129 170 223 274 330 383
#     4  11  24  45  67  94 134 175 221 267 322 397
#     4  10  22  36  67  90 125 168 218 255 325 383
#     4  10  22  37  62  94 132 170 214 265 326 385
#     4  11  24  47  68  89 128 179 228 265 319 405
#     4  11  23  37  62 100 133 163 208 269 334 379
#     4  12  21  38  64 101 135 166 210 276 337 382
#     4  10  21  38  63  95 128 166 215 264 321 392
#
# _framework density 20.589015
#
# number of rings (size 3 to 8) (size 9 to 14) (size 15 to 20)
#    0.000    1.250    1.250    6.375    7.000    0.000 
#    0.000    4.375    0.000    0.000    0.000    0.000 
#    0.000    0.000    0.000    0.000    0.000    0.000 
#
# Total GULP energy -89119.867193 kJ/mol
# GULP energy per Si atom -5569.991700 kJ/mol
# Density = 2.054215 g / cm^3
# Si number density = 20.589015 Si / 1000 Ang^3
#
#
#
# Elastic Constant Matrix: (Units=GPa)
#
#
# Indices 1 2 3 4 5 6 
#
# 1 143.1869 40.0879 43.4413 -5.6676 1.0342 0.6272
# 2 40.0879 95.8982 12.1189 11.5584 -16.6704 -10.4389
# 3 43.4413 12.1189 135.3072 5.9115 -27.4362 7.5281
# 4 -5.6676 11.5584 5.9115 22.9444 0.1026 -13.7686
# 5 1.0342 -16.6704 -27.4362 0.1026 42.5359 -0.1364
# 6 0.6272 -10.4389 7.5281 -13.7686 -0.1364 22.9099
#
#
#
# Elastic Compliance Matrix: (Units=1/GPa)
#
#
# Indices 1 2 3 4 5 6 
#
# 1 0.010147 -0.005188 -0.004441 0.008695 -0.005153 0.004013
# 2 -0.005188 0.014753 0.002158 -0.008731 0.007324 0.000951
# 3 -0.004441 0.002158 0.011225 -0.010376 0.008191 -0.008771
# 4 0.008695 -0.008731 -0.010376 0.081846 -0.010368 0.048320
# 5 -0.005153 0.007324 0.008191 -0.010368 0.031797 -0.005255
# 6 0.004013 0.000951 -0.008771 0.048320 -0.005255 0.075863
#
#
# Mechanical properties :
#
#
# Convention : Reuss Voigt Hill
#
# Bulk Modulus (GPa) = 47.20688 62.85429 55.03059
# Shear Modulus (GPa) = 20.19106 36.26099 28.22603
#
# Velocity S-wave (km/s) = 3.13497 4.20120 3.70662
# Velocity P-wave (km/s) = 6.00683 7.35716 6.71602
#
# Compressibility (1/GPa) = 0.02118335
#
# Stress axis : x y z
#
# Youngs Moduli (GPa) = 98.54693 67.78492 89.08329
#
# Poissons Ratio (x) = 0.35164 0.39564
# Poissons Ratio (y) = 0.51121 -0.19221
# Poissons Ratio (z) = 0.43767 -0.14626
#
# Static dielectric constant tensor:
#      x y z
#    x 1.796460 0.009110 0.038840 
#    y 0.009110 1.802840 0.030620 
#    z 0.038840 0.030620 1.792070 
# 
# From -- ./inp_files/217343.got.cif
#   From: 2010.05.17/outbox.cif.g08.bks.cpg/sg2_109_cif.got.tgz:217343.got - 2010.06.03 11:33:40.
