data_PCOD9005362
_publ_section_title
;
Structure prediction by ZEFSAII (Michael W. Deem and Ramdas Pophale) SiO2 
 PCOD9005362
Probable space group: P -1
;
_chemical_formula_sum "Si O2"
_cell_formula_units_Z 16
_cell_length_a 13.421522
_cell_length_b 13.714449
_cell_length_c 11.878918
_cell_angle_alpha 31.696130
_cell_angle_beta 134.622882
_cell_angle_gamma 120.623367
_cell_volume 794.573231
_symmetry_space_group_name_H-M "P -1"
_symmetry_group_IT_number 2
_symmetry_cell_setting 'triclinic'
loop_
_space_group_symop_operation_xyz
x,y,z
-x,-y,-z
loop_
_atom_site_type_symbol
_atom_site_label
_atom_site_fract_x
_atom_site_fract_y
_atom_site_fract_z
Si Si1 0.783215 0.884577 0.098596
Si Si2 0.470924 0.910851 0.746829
Si Si3 0.809317 0.151926 0.291111
Si Si4 0.808684 0.411024 0.224739
Si Si5 0.467071 0.281160 0.251850
Si Si6 0.802338 0.187687 0.646689
Si Si7 0.928096 0.438988 0.673393
Si Si8 0.100096 0.862795 0.873239
O O1 0.846476 0.660145 0.381696
O O2 0.835122 0.000742 0.126519
O O3 0.610853 0.919404 0.921609
O O4 0.831069 0.978023 0.929975
O O5 0.343480 0.864439 0.764032
O O6 0.525675 0.766954 0.827671
O O7 0.415702 0.112106 0.441485
O O8 0.841729 0.336430 0.198443
O O9 0.814092 0.169400 0.144031
O O10 0.936617 0.971515 0.605369
O O11 0.839530 0.221373 0.514273
O O12 0.906192 0.550464 0.205481
O O13 0.645252 0.524460 0.000513
O O14 0.629084 0.266330 0.438001
O O15 0.880268 0.319376 0.652705
O O16 0.896404 0.331541 0.866066
#
# Coordination Sequence:
#
# PCOD9005362 Si02
#       8
#     2   2   2   2   2   2   2   2
#     4  10  22  42  63  89 126 164 202 250 310 362
#     4  10  21  39  65  90 127 164 197 252 312 366
#     4  11  23  42  66  89 121 164 208 261 302 354
#     4  12  22  37  63  97 123 161 207 248 310 371
#     4  10  21  38  61  96 128 159 200 247 309 377
#     4  10  22  38  62  90 131 156 194 255 307 372
#     4  11  23  41  63  90 124 167 203 251 308 364
#     4  10  24  47  62  86 125 161 215 261 295 354
#
# _framework density 20.136595
#
# number of rings (size 3 to 8) (size 9 to 14) (size 15 to 20)
#    0.000    1.500    2.500    2.250    1.750    1.500 
#    4.500    0.625    0.000    0.000    0.000    0.000 
#    0.000    0.000    0.000    0.000    0.000    0.000 
#
# Total GULP energy -89439.251625 kJ/mol
# GULP energy per Si atom -5589.953227 kJ/mol
# Density = 2.009076 g / cm^3
# Si number density = 20.136595 Si / 1000 Ang^3
#
#
#
# Elastic Constant Matrix: (Units=GPa)
#
#
# Indices 1 2 3 4 5 6 
#
# 1 95.1800 34.7701 43.2795 3.5404 -8.1812 -2.8898
# 2 34.7701 86.0638 33.2419 3.7463 -7.8400 11.2008
# 3 43.2795 33.2419 112.0315 -10.9127 -11.3505 -9.1798
# 4 3.5404 3.7463 -10.9127 33.4512 2.9927 1.4971
# 5 -8.1812 -7.8400 -11.3505 2.9927 21.2014 1.5418
# 6 -2.8898 11.2008 -9.1798 1.4971 1.5418 33.0452
#
#
#
# Elastic Compliance Matrix: (Units=1/GPa)
#
#
# Indices 1 2 3 4 5 6 
#
# 1 0.014211 -0.003989 -0.004246 -0.002687 0.002010 0.001443
# 2 -0.003989 0.015939 -0.003665 -0.002544 0.003247 -0.006806
# 3 -0.004246 -0.003665 0.012724 0.004571 0.002877 0.004064
# 4 -0.002687 -0.002544 0.004571 0.032297 -0.004135 0.000627
# 5 0.002010 0.003247 0.002877 -0.004135 0.051437 -0.002338
# 6 0.001443 -0.006806 0.004064 0.000627 -0.002338 0.033904
#
#
# Mechanical properties :
#
#
# Convention : Reuss Voigt Hill
#
# Bulk Modulus (GPa) = 52.42945 57.31758 54.87352
# Shear Modulus (GPa) = 26.22352 29.67182 27.94767
#
# Velocity S-wave (km/s) = 3.61263 3.84282 3.72950
# Velocity P-wave (km/s) = 6.59506 6.94376 6.77166
#
# Compressibility (1/GPa) = 0.01907325
#
# Stress axis : x y z
#
# Youngs Moduli (GPa) = 70.36862 62.74080 78.59404
#
# Poissons Ratio (x) = 0.25027 0.33372
# Poissons Ratio (y) = 0.28070 0.28803
# Poissons Ratio (z) = 0.29879 0.22993
#
# Static dielectric constant tensor:
#      x y z
#    x 1.696770 0.029160 0.001770 
#    y 0.029160 1.720560 0.007700 
#    z 0.001770 0.007700 1.733710 
# 
# From -- ./inp_files/432353.got.cif
#   From: 2010.05.17/outbox.cif.g08.bks.cpg/sg2_217_cif.got.tgz:432353.got - 2010.06.03 11:33:40.
