data_PCOD9005477
_publ_section_title
;
Structure prediction by ZEFSAII (Michael W. Deem and Ramdas Pophale) SiO2 
 PCOD9005477
Probable space group: P -1
;
_chemical_formula_sum "Si O2"
_cell_formula_units_Z 14
_cell_length_a 25.904542
_cell_length_b 11.847460
_cell_length_c 8.167287
_cell_angle_alpha 141.389004
_cell_angle_beta 31.864649
_cell_angle_gamma 151.845822
_cell_volume 619.003547
_symmetry_space_group_name_H-M "P -1"
_symmetry_group_IT_number 2
_symmetry_cell_setting 'triclinic'
loop_
_space_group_symop_operation_xyz
x,y,z
-x,-y,-z
loop_
_atom_site_type_symbol
_atom_site_label
_atom_site_fract_x
_atom_site_fract_y
_atom_site_fract_z
Si Si1 0.617021 0.137847 0.709376
Si Si2 0.638491 0.565746 0.176500
Si Si3 0.927862 0.539403 0.870158
Si Si4 0.759737 0.647959 0.306284
Si Si5 0.500626 0.800059 0.344495
Si Si6 0.744914 0.015631 0.758922
Si Si7 0.197843 0.901658 0.683957
O O1 0.750806 0.218757 0.509452
O O2 0.570522 0.927451 0.471499
O O3 0.628070 0.360962 0.878727
O O4 0.500000 0.000000 0.000000
O O5 0.500000 0.500000 0.500000
O O6 0.701958 0.588136 0.208563
O O7 0.733074 0.829679 0.138309
O O8 0.000000 0.500000 0.500000
O O9 0.042281 0.731114 0.903496
O O10 0.812093 0.272121 0.949209
O O11 0.866034 0.627930 0.037234
O O12 0.639065 0.452023 0.527542
O O13 0.816159 0.915966 0.491484
O O14 0.500000 0.000000 0.500000
O O15 0.597400 0.807393 0.978018
O O16 0.749721 0.050790 0.591375
#
# Coordination Sequence:
#
# PCOD9005477 Si02
#       7
#     2   2   2   2   2   2   2
#     4  12  22  39  62  87 123 158 197 251 309 353
#     4  11  21  35  61  90 120 154 201 251 299 354
#     4  10  21  38  62  90 125 160 204 248 297 360
#     4  11  22  38  63  92 125 159 204 249 307 357
#     4  12  23  39  64  89 125 159 199 254 310 357
#     4  10  22  39  62  93 122 160 201 250 302 358
#     4  10  22  40  64  90 122 154 207 248 296 363
#
# _framework density 22.616996
#
# number of rings (size 3 to 8) (size 9 to 14) (size 15 to 20)
#    0.000    1.143    4.286    3.000    2.000    6.286 
#    2.571    0.714    0.000    1.714    0.000    0.000 
#    0.000    0.000    0.000    0.000    0.000    0.000 
#
# Total GULP energy -78192.834330 kJ/mol
# GULP energy per Si atom -5585.202452 kJ/mol
# Density = 2.256552 g / cm^3
# Si number density = 22.616996 Si / 1000 Ang^3
#
#
#
# Elastic Constant Matrix: (Units=GPa)
#
#
# Indices 1 2 3 4 5 6 
#
# 1 73.9220 14.6698 33.0683 4.3883 -44.5133 -0.4974
# 2 14.6698 74.7944 10.4866 21.5911 -25.6868 4.4890
# 3 33.0683 10.4866 70.0412 9.4172 -41.3737 -7.4578
# 4 4.3883 21.5911 9.4172 38.9060 -11.2907 -8.5232
# 5 -44.5133 -25.6868 -41.3737 -11.2907 53.8672 0.9594
# 6 -0.4974 4.4890 -7.4578 -8.5232 0.9594 26.7756
#
#
#
# Elastic Compliance Matrix: (Units=1/GPa)
#
#
# Indices 1 2 3 4 5 6 
#
# 1 0.027752 0.002357 0.001412 0.002788 0.025718 0.000480
# 2 0.002357 0.019847 0.004045 -0.009877 0.012552 -0.005751
# 3 0.001412 0.004045 0.028237 -0.000794 0.024509 0.006082
# 4 0.002788 -0.009877 -0.000794 0.034983 0.004095 0.012476
# 5 0.025718 0.012552 0.024509 0.004095 0.065411 0.004160
# 6 0.000480 -0.005751 0.006082 0.012476 0.004160 0.043837
#
#
# Mechanical properties :
#
#
# Convention : Reuss Voigt Hill
#
# Bulk Modulus (GPa) = 10.93286 37.24524 24.08905
# Shear Modulus (GPa) = 21.28334 34.61195 27.94765
#
# Velocity S-wave (km/s) = 3.07095 3.91621 3.51906
# Velocity P-wave (km/s) = 4.17358 6.07886 5.21399
#
# Compressibility (1/GPa) = 0.09146737
#
# Stress axis : x y z
#
# Youngs Moduli (GPa) = 36.03307 50.38448 35.41458
#
# Poissons Ratio (x) = -0.11878 -0.05002
# Poissons Ratio (y) = -0.08495 -0.14327
# Poissons Ratio (z) = -0.05089 -0.20383
#
# Static dielectric constant tensor:
#      x y z
#    x 1.985580 0.092210 0.079480 
#    y 0.092210 1.943930 0.043770 
#    z 0.079480 0.043770 1.901670 
# 
# From -- ./inp_files/269947.got.cif
#   From: 2010.05.17/outbox.cif.g08.bks.cpg/sg2_135_cif.got.tgz:269947.got - 2010.06.03 11:33:40.
