data_PCOD9005213
_publ_section_title
;
Structure prediction by ZEFSAII (Michael W. Deem and Ramdas Pophale) SiO2 
 PCOD9005213
Probable space group: P -1
;
_chemical_formula_sum "Si O2"
_cell_formula_units_Z 16
_cell_length_a 5.046506
_cell_length_b 11.918087
_cell_length_c 15.706784
_cell_angle_alpha 125.756758
_cell_angle_beta 105.535015
_cell_angle_gamma 65.685623
_cell_volume 698.140246
_symmetry_space_group_name_H-M "P -1"
_symmetry_group_IT_number 2
_symmetry_cell_setting 'triclinic'
loop_
_space_group_symop_operation_xyz
x,y,z
-x,-y,-z
loop_
_atom_site_type_symbol
_atom_site_label
_atom_site_fract_x
_atom_site_fract_y
_atom_site_fract_z
Si Si1 0.317247 0.480174 0.054743
Si Si2 0.797185 0.718967 0.426717
Si Si3 0.804285 0.280275 0.701200
Si Si4 0.335101 0.116268 0.108906
Si Si5 0.031026 0.962234 0.586201
Si Si6 0.845469 0.417594 0.359297
Si Si7 0.673246 0.284908 0.130727
Si Si8 0.505410 0.223486 0.332215
O O1 0.264367 0.595103 0.178697
O O2 0.533800 0.330708 0.047823
O O3 0.500000 0.500000 0.000000
O O4 0.000000 0.500000 0.000000
O O5 0.028471 0.686472 0.353064
O O6 0.847833 0.583070 0.435471
O O7 0.487921 0.742461 0.368490
O O8 0.816167 0.866966 0.536922
O O9 0.973120 0.123674 0.689865
O O10 0.406149 0.258223 0.145230
O O11 0.501453 0.099270 0.206262
O O12 0.986201 0.154507 0.100053
O O13 0.500000 0.000000 0.000000
O O14 0.323570 0.854234 0.604713
O O15 0.000000 0.000000 0.500000
O O16 0.168090 0.309062 0.349041
O O17 0.749203 0.405205 0.247454
O O18 0.649027 0.345397 0.366344
#
# Coordination Sequence:
#
# PCOD9005213 Si02
#       8
#     2   2   2   2   2   2   2   2
#     4  12  25  40  64 101 129 174 227 277 341 402
#     4  11  22  41  71  93 128 179 226 269 347 402
#     4  11  24  43  66  94 135 180 223 274 336 409
#     4  10  21  39  64  92 124 173 218 272 342 394
#     4  10  25  45  66  98 138 184 224 276 341 414
#     4  10  21  39  66  93 123 171 214 279 330 389
#     4  10  21  38  61  87 128 164 210 277 330 392
#     4  10  23  39  63  97 131 168 224 276 333 398
#
# _framework density 22.918033000000001
#
# number of rings (size 3 to 8) (size 9 to 14) (size 15 to 20)
#    0.000    1.500    1.250    3.000    3.500    7.000 
#    0.000    0.000    0.000    0.000    0.000    0.000 
#    0.000    0.000    0.000    0.000    0.000    0.000 
#
# Total GULP energy -89250.085384 kJ/mol
# GULP energy per Si atom -5578.130336 kJ/mol
# Density = 2.286587 g / cm^3
# Si number density = 22.918033 Si / 1000 Ang^3
#
#
#
# Elastic Constant Matrix: (Units=GPa)
#
#
# Indices 1 2 3 4 5 6 
#
# 1 121.1122 8.8507 28.0861 -20.2447 17.8938 2.0300
# 2 8.8507 109.0420 29.8230 -23.7470 15.6352 -4.0284
# 3 28.0861 29.8230 100.0850 -9.1042 6.5478 -2.2334
# 4 -20.2447 -23.7470 -9.1042 49.4228 -8.2540 5.9889
# 5 17.8938 15.6352 6.5478 -8.2540 34.8304 -7.7076
# 6 2.0300 -4.0284 -2.2334 5.9889 -7.7076 24.5937
#
#
#
# Elastic Compliance Matrix: (Units=1/GPa)
#
#
# Indices 1 2 3 4 5 6 
#
# 1 0.010259 0.001370 -0.002667 0.003916 -0.005221 -0.003454
# 2 0.001370 0.011580 -0.003122 0.004949 -0.004381 -0.001078
# 3 -0.002667 -0.003122 0.011605 -0.000468 0.000723 0.001103
# 4 0.003916 0.004949 -0.000468 0.024880 0.000546 -0.005443
# 5 -0.005221 -0.004381 0.000723 0.000546 0.035754 0.010851
# 6 -0.003454 -0.001078 0.001103 -0.005443 0.010851 0.045596
#
#
# Mechanical properties :
#
#
# Convention : Reuss Voigt Hill
#
# Bulk Modulus (GPa) = 40.63941 51.52875 46.08408
# Shear Modulus (GPa) = 31.90562 39.33468 35.62015
#
# Velocity S-wave (km/s) = 3.73522 4.14734 3.94666
# Velocity P-wave (km/s) = 6.03104 6.74290 6.39688
#
# Compressibility (1/GPa) = 0.02460666
#
# Stress axis : x y z
#
# Youngs Moduli (GPa) = 97.47659 86.35858 86.17027
#
# Poissons Ratio (x) = -0.11835 0.22978
# Poissons Ratio (y) = -0.13359 0.26905
# Poissons Ratio (z) = 0.25992 0.26964
#
# Static dielectric constant tensor:
#      x y z
#    x 1.854580 0.004440 -0.031810 
#    y 0.004440 1.942080 -0.026230 
#    z -0.031810 -0.026230 2.103160 
# 
# From -- ./inp_files/549264.got.cif
#   From: 2010.05.17/outbox.cif.g08.bks.cpg/sg2_275_cif.got.tgz:549264.got - 2010.06.03 11:33:40.
