data_PCOD9005107
_publ_section_title
;
Structure prediction by ZEFSAII (Michael W. Deem and Ramdas Pophale) SiO2 
 PCOD9005107
Probable space group: P -1
;
_chemical_formula_sum "Si O2"
_cell_formula_units_Z 12
_cell_length_a 17.320375
_cell_length_b 5.366783
_cell_length_c 6.347858
_cell_angle_alpha 106.118887
_cell_angle_beta 54.204673
_cell_angle_gamma 95.793045
_cell_volume 458.360027
_symmetry_space_group_name_H-M "P -1"
_symmetry_group_IT_number 2
_symmetry_cell_setting 'triclinic'
loop_
_space_group_symop_operation_xyz
x,y,z
-x,-y,-z
loop_
_atom_site_type_symbol
_atom_site_label
_atom_site_fract_x
_atom_site_fract_y
_atom_site_fract_z
Si Si1 0.034357 0.870219 0.201968
Si Si2 0.380396 0.766066 0.818577
Si Si3 0.756150 0.978122 0.210256
Si Si4 0.445498 0.367370 0.244507
Si Si5 0.125147 0.351057 0.787525
Si Si6 0.725184 0.465013 0.680045
O O1 0.938444 0.888719 0.214434
O O2 0.138744 0.964696 0.021077
O O3 0.059620 0.560115 0.074006
O O4 0.000000 0.000000 0.500000
O O5 0.319673 0.999067 0.850054
O O6 0.415449 0.568074 0.528809
O O7 0.475451 0.828922 0.811844
O O8 0.311349 0.621460 0.054579
O O9 0.723652 0.199606 0.483104
O O10 0.782848 0.713869 0.228451
O O11 0.349603 0.319883 0.259424
O O12 0.500000 0.500000 0.000000
O O13 0.169019 0.447243 0.519400
#
# Coordination Sequence:
#
# PCOD9005107 Si02
#       6
#     2   2   2   2   2   2
#     4  10  23  43  64  92 124 175 216 262 323 388
#     4   9  17  33  61  91 125 170 207 256 326 375
#     4  10  21  38  60  91 129 163 213 270 316 374
#     4   8  15  32  60  90 124 170 207 253 317 375
#     4  10  22  43  64  92 131 166 214 274 315 376
#     4   9  19  37  60  90 130 167 210 265 312 376
#
# _framework density 26.180292999999999
#
# number of rings (size 3 to 8) (size 9 to 14) (size 15 to 20)
#    0.000    2.667    0.000    0.500    2.333    0.667 
#    9.000    0.833    0.000   34.000    0.000    0.000 
#    0.000    0.000    0.000    0.000    0.000    0.000 
#
# Total GULP energy -66948.409729 kJ/mol
# GULP energy per Si atom -5579.034144 kJ/mol
# Density = 2.612071 g / cm^3
# Si number density = 26.180293 Si / 1000 Ang^3
#
#
#
# Elastic Constant Matrix: (Units=GPa)
#
#
# Indices 1 2 3 4 5 6 
#
# 1 123.7653 23.3885 57.1331 8.5286 1.9839 -28.4003
# 2 23.3885 32.9844 35.3202 -3.6431 -3.1875 -11.8220
# 3 57.1331 35.3202 206.7645 -14.1250 -2.4411 6.0294
# 4 8.5286 -3.6431 -14.1250 25.3581 1.3151 -8.4082
# 5 1.9839 -3.1875 -2.4411 1.3151 35.4813 4.3690
# 6 -28.4003 -11.8220 6.0294 -8.4082 4.3690 52.3239
#
#
#
# Elastic Compliance Matrix: (Units=1/GPa)
#
#
# Indices 1 2 3 4 5 6 
#
# 1 0.011766 -0.003784 -0.003078 -0.004361 -0.001704 0.005328
# 2 -0.003784 0.044166 -0.006260 0.007198 0.002298 0.009611
# 3 -0.003078 -0.006260 0.007060 0.002897 0.000415 -0.003468
# 4 -0.004361 0.007198 0.002897 0.045741 -0.001393 0.006392
# 5 -0.001704 0.002298 0.000415 -0.001393 0.028947 -0.003094
# 6 0.005328 0.009611 -0.003468 0.006392 -0.003094 0.025860
#
#
# Mechanical properties :
#
#
# Convention : Reuss Voigt Hill
#
# Bulk Modulus (GPa) = 27.21244 66.13307 46.67275
# Shear Modulus (GPa) = 24.74815 39.14417 31.94616
#
# Velocity S-wave (km/s) = 3.07790 3.87095 3.49698
# Velocity P-wave (km/s) = 4.80085 6.73011 5.84562
#
# Compressibility (1/GPa) = 0.03674790
#
# Stress axis : x y z
#
# Youngs Moduli (GPa) = 84.98922 22.64180 141.63512
#
# Poissons Ratio (x) = 0.08567 0.43599
# Poissons Ratio (y) = 0.32157 0.88671
# Poissons Ratio (z) = 0.26162 0.14175
#
# Static dielectric constant tensor:
#      x y z
#    x 2.223290 -0.026580 -0.028830 
#    y -0.026580 2.102950 -0.025440 
#    z -0.028830 -0.025440 2.039180 
# 
# From -- ./inp_files/4658.got.cif
#   From: 2010.05.17/outbox.cif.g08.bks.cpg/sg2_3_cif.got.tgz:4658.got - 2010.06.03 11:33:40.
