data_PCOD9005668
_publ_section_title
;
Structure prediction by ZEFSAII (Michael W. Deem and Ramdas Pophale) SiO2 
 PCOD9005668
Probable space group: P -1
;
_chemical_formula_sum "Si O2"
_cell_formula_units_Z 16
_cell_length_a 12.747512
_cell_length_b 16.385337
_cell_length_c 9.366945
_cell_angle_alpha 105.638865
_cell_angle_beta 144.922047
_cell_angle_gamma 55.909187
_cell_volume 854.474712
_symmetry_space_group_name_H-M "P -1"
_symmetry_group_IT_number 2
_symmetry_cell_setting 'triclinic'
loop_
_space_group_symop_operation_xyz
x,y,z
-x,-y,-z
loop_
_atom_site_type_symbol
_atom_site_label
_atom_site_fract_x
_atom_site_fract_y
_atom_site_fract_z
Si Si1 0.781431 0.601238 0.390373
Si Si2 0.533393 0.724670 0.898071
Si Si3 0.887542 0.258301 0.630799
Si Si4 0.755461 0.546261 0.825532
Si Si5 0.960585 0.725302 0.636457
Si Si6 0.716245 0.445122 0.321924
Si Si7 0.742544 0.354740 0.807904
Si Si8 0.315936 0.126119 0.835331
O O1 0.828672 0.681958 0.537714
O O2 0.733587 0.539733 0.417841
O O3 0.000000 0.500000 0.500000
O O4 0.585169 0.667804 0.082864
O O5 0.276725 0.774963 0.589608
O O6 0.703459 0.632225 0.928687
O O7 0.573403 0.812427 0.996874
O O8 0.739210 0.379661 0.454696
O O9 0.905270 0.273537 0.823887
O O10 0.119188 0.178702 0.762895
O O11 0.758829 0.452490 0.859973
O O12 0.516040 0.605544 0.495024
O O13 0.000000 0.500000 0.000000
O O14 0.799211 0.840435 0.435836
O O15 0.078376 0.648100 0.593082
O O16 0.153177 0.700456 0.949489
O O17 0.500000 0.500000 0.000000
O O18 0.500000 0.000000 0.000000
#
# Coordination Sequence:
#
# PCOD9005668 Si02
#       8
#     2   2   2   2   2   2   2   2
#     4   9  16  28  47  72 108 141 178 216 260 313
#     4  10  19  35  52  79 108 139 185 228 267 323
#     4  10  21  35  56  80 109 148 180 221 271 328
#     4  10  20  32  52  79 118 158 178 203 256 330
#     4   9  20  35  49  77 109 141 181 230 273 325
#     4  10  17  28  50  76 109 144 182 213 257 325
#     4  10  21  35  51  81 120 148 180 209 264 339
#     4  10  22  41  61  78  99 137 193 248 287 316
#
# _framework density 18.724955000000001
#
# number of rings (size 3 to 8) (size 9 to 14) (size 15 to 20)
#    0.000    2.250    1.250    3.000    3.500    1.500 
#    0.000    0.625    0.000    3.000    0.000    0.000 
#    0.000    0.000    0.000    0.000    0.000    0.000 
#
# Total GULP energy -89217.500277 kJ/mol
# GULP energy per Si atom -5576.093767 kJ/mol
# Density = 1.868234 g / cm^3
# Si number density = 18.724955 Si / 1000 Ang^3
#
#
#
# Elastic Constant Matrix: (Units=GPa)
#
#
# Indices 1 2 3 4 5 6 
#
# 1 75.4252 32.5115 31.1650 -2.1280 2.2349 -5.0630
# 2 32.5115 79.8980 51.6579 -12.1980 -0.2318 -0.0942
# 3 31.1650 51.6579 94.0832 -11.6409 -19.7431 6.5112
# 4 -2.1280 -12.1980 -11.6409 23.5297 -3.2432 1.3704
# 5 2.2349 -0.2318 -19.7431 -3.2432 28.0338 4.6294
# 6 -5.0630 -0.0942 6.5112 1.3704 4.6294 15.6220
#
#
#
# Elastic Compliance Matrix: (Units=1/GPa)
#
#
# Indices 1 2 3 4 5 6 
#
# 1 0.019216 -0.003360 -0.008429 -0.006393 -0.010444 0.013377
# 2 -0.003360 0.023440 -0.014110 0.002980 -0.010412 0.007757
# 3 -0.008429 -0.014110 0.030024 0.011936 0.027112 -0.024412
# 4 -0.006393 0.002980 0.011936 0.052819 0.017850 -0.016952
# 5 -0.010444 -0.010412 0.027112 0.017850 0.063372 -0.035094
# 6 0.013377 0.007757 -0.024412 -0.016952 -0.035094 0.090456
#
#
# Mechanical properties :
#
#
# Convention : Reuss Voigt Hill
#
# Bulk Modulus (GPa) = 47.88807 53.34167 50.61487
# Shear Modulus (GPa) = 14.78911 22.37522 18.58217
#
# Velocity S-wave (km/s) = 2.81340 3.46054 3.15362
# Velocity P-wave (km/s) = 6.01528 6.67203 6.35215
#
# Compressibility (1/GPa) = 0.02088203
#
# Stress axis : x y z
#
# Youngs Moduli (GPa) = 52.03899 42.66219 33.30667
#
# Poissons Ratio (x) = 0.14335 0.28074
# Poissons Ratio (y) = 0.17486 0.46996
# Poissons Ratio (z) = 0.43863 0.60197
#
# Static dielectric constant tensor:
#      x y z
#    x 1.720400 0.020490 0.015960 
#    y 0.020490 1.635890 0.018290 
#    z 0.015960 0.018290 1.717090 
# 
# From -- ./inp_files/273518.got.cif
#   From: 2010.05.17/outbox.cif.g08.bks.cpg/sg2_137_cif.got.tgz:273518.got - 2010.06.03 11:33:40.
