data_PCOD9005003
_publ_section_title
;
Structure prediction by ZEFSAII (Michael W. Deem and Ramdas Pophale) SiO2 
 PCOD9005003
Probable space group: P -1
;
_chemical_formula_sum "Si O2"
_cell_formula_units_Z 16
_cell_length_a 16.296500
_cell_length_b 8.869242
_cell_length_c 6.322687
_cell_angle_alpha 128.055241
_cell_angle_beta 85.457589
_cell_angle_gamma 79.767143
_cell_volume 686.828930
_symmetry_space_group_name_H-M "P -1"
_symmetry_group_IT_number 2
_symmetry_cell_setting 'triclinic'
loop_
_space_group_symop_operation_xyz
x,y,z
-x,-y,-z
loop_
_atom_site_type_symbol
_atom_site_label
_atom_site_fract_x
_atom_site_fract_y
_atom_site_fract_z
Si Si1 0.671362 0.198866 0.354926
Si Si2 0.031515 0.161337 0.770625
Si Si3 0.077192 0.540979 0.653332
Si Si4 0.187356 0.134231 0.415319
Si Si5 0.624922 0.960672 0.804690
Si Si6 0.478756 0.787217 0.283394
Si Si7 0.145386 0.897330 0.838110
Si Si8 0.578128 0.555821 0.414574
O O1 0.601522 0.235551 0.583665
O O2 0.769403 0.142491 0.356202
O O3 0.656671 0.381024 0.344501
O O4 0.655199 0.014344 0.070712
O O5 0.116199 0.178655 0.650423
O O6 0.067515 0.069346 0.909028
O O7 0.000000 0.000000 0.500000
O O8 0.958786 0.361951 0.026111
O O9 0.155393 0.340602 0.472496
O O10 0.113987 0.704025 0.679302
O O11 0.000000 0.500000 0.500000
O O12 0.288553 0.090057 0.400343
O O13 0.171661 0.961306 0.117620
O O14 0.588945 0.771214 0.663969
O O15 0.557168 0.162468 0.902502
O O16 0.555432 0.606006 0.211647
O O17 0.500000 0.000000 0.500000
O O18 0.500000 0.500000 0.500000
#
# Coordination Sequence:
#
# PCOD9005003 Si02
#       8
#     2   2   2   2   2   2   2   2
#     4  10  21  38  61  85 120 161 193 245 310 357
#     4  12  23  41  66  90 125 164 209 257 311 365
#     4  12  23  41  66  90 123 164 211 256 309 366
#     4  11  23  40  61  90 124 162 206 257 309 370
#     4  10  21  38  60  86 120 160 196 243 308 360
#     4   9  19  36  59  88 119 151 200 246 285 360
#     4  11  23  41  60  90 126 159 205 261 309 366
#     4   9  19  36  59  88 117 151 202 245 285 360
#
# _framework density 23.295466000000001
#
# number of rings (size 3 to 8) (size 9 to 14) (size 15 to 20)
#    0.000    1.500    2.500    3.000    0.000    5.000 
#    0.000    3.750    5.500    0.000    0.000    0.000 
#    0.000    0.000    0.000    0.000    0.000    0.000 
#
# Total GULP energy -89273.263686 kJ/mol
# GULP energy per Si atom -5579.578980 kJ/mol
# Density = 2.324244 g / cm^3
# Si number density = 23.295466 Si / 1000 Ang^3
#
#
#
# Elastic Constant Matrix: (Units=GPa)
#
#
# Indices 1 2 3 4 5 6 
#
# 1 97.2090 38.5886 33.4697 5.5499 2.5327 12.3664
# 2 38.5886 108.3773 6.6601 23.2993 11.6456 2.0601
# 3 33.4697 6.6601 79.7869 17.8734 0.7529 16.2630
# 4 5.5499 23.2993 17.8734 25.2683 1.4751 -2.6440
# 5 2.5327 11.6456 0.7529 1.4751 33.6711 2.7246
# 6 12.3664 2.0601 16.2630 -2.6440 2.7246 46.9539
#
#
#
# Elastic Compliance Matrix: (Units=1/GPa)
#
#
# Indices 1 2 3 4 5 6 
#
# 1 0.015143 -0.006765 -0.007454 0.008047 0.001073 -0.000719
# 2 -0.006765 0.015309 0.005611 -0.016521 -0.004064 -0.001528
# 3 -0.007454 0.005611 0.020748 -0.018864 -0.000491 -0.006503
# 4 0.008047 -0.016521 -0.018864 0.067198 0.001873 0.008815
# 5 0.001073 -0.004064 -0.000491 0.001873 0.031085 -0.001632
# 6 -0.000719 -0.001528 -0.006503 0.008815 -0.001632 0.024397
#
#
# Mechanical properties :
#
#
# Convention : Reuss Voigt Hill
#
# Bulk Modulus (GPa) = 29.42656 49.20110 39.31383
# Shear Modulus (GPa) = 24.70060 34.95564 29.82812
#
# Velocity S-wave (km/s) = 3.25978 3.87788 3.58219
# Velocity P-wave (km/s) = 5.17953 6.42004 5.83286
#
# Compressibility (1/GPa) = 0.03398291
#
# Stress axis : x y z
#
# Youngs Moduli (GPa) = 66.03611 65.32296 48.19781
#
# Poissons Ratio (x) = 0.44193 0.35926
# Poissons Ratio (y) = 0.44676 -0.27043
# Poissons Ratio (z) = 0.49222 -0.36652
#
# Static dielectric constant tensor:
#      x y z
#    x 1.908890 -0.025560 0.012610 
#    y -0.025560 1.936740 -0.049780 
#    z 0.012610 -0.049780 1.946380 
# 
# From -- ./inp_files/105783.got.cif
#   From: 2010.05.17/outbox.cif.g08.bks.cpg/sg2_53_cif.got.tgz:105783.got - 2010.06.03 11:33:40.
