data_PCOD9005469
_publ_section_title
;
Structure prediction by ZEFSAII (Michael W. Deem and Ramdas Pophale) SiO2 
 PCOD9005469
Probable space group: P -1
;
_chemical_formula_sum "Si O2"
_cell_formula_units_Z 14
_cell_length_a 7.329206
_cell_length_b 11.172668
_cell_length_c 9.152524
_cell_angle_alpha 57.713950
_cell_angle_beta 111.867304
_cell_angle_gamma 88.990502
_cell_volume 565.163461
_symmetry_space_group_name_H-M "P -1"
_symmetry_group_IT_number 2
_symmetry_cell_setting 'triclinic'
loop_
_space_group_symop_operation_xyz
x,y,z
-x,-y,-z
loop_
_atom_site_type_symbol
_atom_site_label
_atom_site_fract_x
_atom_site_fract_y
_atom_site_fract_z
Si Si1 0.770561 0.454315 0.456741
Si Si2 0.259531 0.924232 0.178020
Si Si3 0.808449 0.048087 0.524174
Si Si4 0.700565 0.367618 0.182190
Si Si5 0.608391 0.676934 0.494938
Si Si6 0.878333 0.718088 0.797479
Si Si7 0.953702 0.760536 0.109999
O O1 0.797474 0.425588 0.313783
O O2 0.701682 0.609768 0.414330
O O3 0.577329 0.389825 0.475631
O O4 0.963922 0.359902 0.665565
O O5 0.157681 0.924188 0.310710
O O6 0.496055 0.847169 0.323107
O O7 0.149816 0.829687 0.103566
O O8 0.217488 0.089673 0.001973
O O9 0.669345 0.206551 0.321620
O O10 0.759489 0.891535 0.625048
O O11 0.000000 0.000000 0.500000
O O12 0.881995 0.325966 0.145308
O O13 0.500000 0.500000 0.000000
O O14 0.764465 0.641074 0.699100
O O15 0.881785 0.695165 0.986083
#
# Coordination Sequence:
#
# PCOD9005469 Si02
#       7
#     2   2   2   2   2   2   2
#     4  10  22  41  62  82 125 165 195 239 308 358
#     4   9  17  34  61  85 116 154 200 232 297 357
#     4   9  18  37  58  87 117 156 190 245 295 351
#     4  11  23  40  61  88 120 164 201 239 304 361
#     4  10  21  38  62  90 123 155 199 248 297 351
#     4  10  23  37  63  93 121 149 205 253 293 348
#     4   9  18  34  60  91 110 157 194 246 287 354
#
# _framework density 24.771594
#
# number of rings (size 3 to 8) (size 9 to 14) (size 15 to 20)
#    0.000    2.286    2.857    0.000    6.000    3.429 
#    0.000    0.000    0.000    1.714    0.000    0.000 
#    0.000    0.000    0.000    0.000    0.000    0.000 
#
# Total GULP energy -78131.617589 kJ/mol
# GULP energy per Si atom -5580.829828 kJ/mol
# Density = 2.471521 g / cm^3
# Si number density = 24.771594 Si / 1000 Ang^3
#
#
#
# Elastic Constant Matrix: (Units=GPa)
#
#
# Indices 1 2 3 4 5 6 
#
# 1 60.2941 23.3059 15.6600 -9.2119 4.3242 -4.0872
# 2 23.3059 112.0601 63.9159 -6.2812 10.6702 -27.7231
# 3 15.6600 63.9159 154.9610 -29.4841 23.2497 -12.2836
# 4 -9.2119 -6.2812 -29.4841 49.9626 -5.4337 7.6676
# 5 4.3242 10.6702 23.2497 -5.4337 27.8271 3.6221
# 6 -4.0872 -27.7231 -12.2836 7.6676 3.6221 22.6798
#
#
#
# Elastic Compliance Matrix: (Units=1/GPa)
#
#
# Indices 1 2 3 4 5 6 
#
# 1 0.018648 -0.004801 0.000583 0.003652 -0.000393 -0.003364
# 2 -0.004801 0.018904 -0.005857 -0.005951 -0.005632 0.021981
# 3 0.000583 -0.005857 0.010412 0.005316 -0.005196 -0.002382
# 4 0.003652 -0.005951 0.005316 0.025499 0.003942 -0.012987
# 5 -0.000393 -0.005632 -0.005196 0.003942 0.045663 -0.018395
# 6 -0.003364 0.021981 -0.002382 -0.012987 -0.018395 0.076393
#
#
# Mechanical properties :
#
#
# Convention : Reuss Voigt Hill
#
# Bulk Modulus (GPa) = 35.95277 59.23099 47.59188
# Shear Modulus (GPa) = 22.22816 35.05611 28.64213
#
# Velocity S-wave (km/s) = 2.99879 3.76596 3.40406
# Velocity P-wave (km/s) = 5.15126 6.54773 5.89102
#
# Compressibility (1/GPa) = 0.02781427
#
# Stress axis : x y z
#
# Youngs Moduli (GPa) = 53.62553 52.90017 96.04032
#
# Poissons Ratio (x) = 0.25397 -0.05598
# Poissons Ratio (y) = 0.25745 0.56247
# Poissons Ratio (z) = -0.03126 0.30982
#
# Static dielectric constant tensor:
#      x y z
#    x 2.030620 0.049330 -0.020610 
#    y 0.049330 2.013320 -0.043510 
#    z -0.020610 -0.043510 1.973610 
# 
# From -- ./inp_files/176849.got.cif
#   From: 2010.05.17/outbox.cif.g08.bks.cpg/sg2_89_cif.got.tgz:176849.got - 2010.06.03 11:33:40.
