data_PCOD9005159
_publ_section_title
;
Structure prediction by ZEFSAII (Michael W. Deem and Ramdas Pophale) SiO2 
 PCOD9005159
Probable space group: P -1
;
_chemical_formula_sum "Si O2"
_cell_formula_units_Z 16
_cell_length_a 9.184632
_cell_length_b 19.697018
_cell_length_c 9.267313
_cell_angle_alpha 139.392360
_cell_angle_beta 47.023105
_cell_angle_gamma 144.998031
_cell_volume 617.841322
_symmetry_space_group_name_H-M "P -1"
_symmetry_group_IT_number 2
_symmetry_cell_setting 'triclinic'
loop_
_space_group_symop_operation_xyz
x,y,z
-x,-y,-z
loop_
_atom_site_type_symbol
_atom_site_label
_atom_site_fract_x
_atom_site_fract_y
_atom_site_fract_z
Si Si1 0.877978 0.567494 0.800314
Si Si2 0.756513 0.886634 0.156583
Si Si3 0.246148 0.828330 0.062504
Si Si4 0.107065 0.187891 0.497731
Si Si5 0.123989 0.397241 0.465923
Si Si6 0.217522 0.889520 0.843811
Si Si7 0.604901 0.707645 0.247006
Si Si8 0.504100 0.651957 0.767636
O O1 0.873716 0.548191 0.602257
O O2 0.693953 0.422431 0.762800
O O3 0.741220 0.638053 0.025676
O O4 0.168316 0.684152 0.845656
O O5 0.673077 0.810834 0.243518
O O6 0.535896 0.776865 0.017421
O O7 0.888862 0.040929 0.341103
O O8 0.001981 0.900278 0.965165
O O9 0.066576 0.789700 0.259641
O O10 0.516486 0.968641 0.143326
O O11 0.203613 0.865673 0.988876
O O12 0.287390 0.205995 0.537438
O O13 0.311439 0.290591 0.405861
O O14 0.224652 0.510601 0.699891
O O15 0.351005 0.384409 0.286584
O O16 0.862403 0.243007 0.398203
#
# Coordination Sequence:
#
# PCOD9005159 Si02
#       8
#     2   2   2   2   2   2   2   2
#     4   9  15  28  49  74  98 119 160 213 241 276
#     4  11  20  33  48  73 106 129 159 198 247 288
#     4   9  18  30  51  74  98 124 164 199 247 285
#     4  11  20  31  50  74 101 131 162 198 240 293
#     4   9  16  30  49  70 100 123 164 203 243 279
#     4   9  17  32  50  74  97 128 157 205 245 286
#     4  10  17  28  49  73  96 124 160 207 245 272
#     4  10  19  30  48  74  99 131 162 203 240 280
#
# _framework density 25.896616999999999
#
# number of rings (size 3 to 8) (size 9 to 14) (size 15 to 20)
#    0.000    2.250    6.250    0.750    0.000    0.000 
#    0.000    2.500    0.000    3.000    0.000    0.000 
#    0.000    0.000    0.000    0.000    0.000    0.000 
#
# Total GULP energy -89300.516604 kJ/mol
# GULP energy per Si atom -5581.282288 kJ/mol
# Density = 2.583767 g / cm^3
# Si number density = 25.896617 Si / 1000 Ang^3
#
#
#
# Elastic Constant Matrix: (Units=GPa)
#
#
# Indices 1 2 3 4 5 6 
#
# 1 52.2921 27.6880 29.9214 8.1449 13.9925 -0.6346
# 2 27.6880 160.0614 40.9116 32.1577 25.5669 16.5566
# 3 29.9214 40.9116 121.8409 37.5132 25.4398 8.1538
# 4 8.1449 32.1577 37.5132 59.8834 10.9955 17.3788
# 5 13.9925 25.5669 25.4398 10.9955 41.4348 10.1588
# 6 -0.6346 16.5566 8.1538 17.3788 10.1588 40.8352
#
#
#
# Elastic Compliance Matrix: (Units=1/GPa)
#
#
# Indices 1 2 3 4 5 6 
#
# 1 0.024385 -0.002826 -0.004577 0.001012 -0.004731 0.003185
# 2 -0.002826 0.007966 -0.000519 -0.002693 -0.002590 -0.001380
# 3 -0.004577 -0.000519 0.012294 -0.006440 -0.004343 0.001506
# 4 0.001012 -0.002693 -0.006440 0.024249 0.000833 -0.008134
# 5 -0.004731 -0.002590 -0.004343 0.000833 0.031321 -0.006303
# 6 0.003185 -0.001380 0.001506 -0.008134 -0.006303 0.029827
#
#
# Mechanical properties :
#
#
# Convention : Reuss Voigt Hill
#
# Bulk Modulus (GPa) = 34.71773 59.02625 46.87199
# Shear Modulus (GPa) = 32.15727 44.14223 38.14975
#
# Velocity S-wave (km/s) = 3.52768 4.13311 3.84234
# Velocity P-wave (km/s) = 5.47979 6.75420 6.15009
#
# Compressibility (1/GPa) = 0.02880373
#
# Stress axis : x y z
#
# Youngs Moduli (GPa) = 41.00874 125.52698 81.33782
#
# Poissons Ratio (x) = 0.35468 0.37225
# Poissons Ratio (y) = 0.11587 0.04221
# Poissons Ratio (z) = 0.18768 0.06514
#
# Static dielectric constant tensor:
#      x y z
#    x 2.196240 0.086860 -0.012590 
#    y 0.086860 2.027820 0.041800 
#    z -0.012590 0.041800 2.121380 
# 
# From -- ./inp_files/285011.got.cif
#   From: 2010.05.17/outbox.cif.g08.bks.cpg/sg2_143_cif.got.tgz:285011.got - 2010.06.03 11:33:40.
