data_PCOD9005142
_publ_section_title
;
Structure prediction by ZEFSAII (Michael W. Deem and Ramdas Pophale) SiO2 
 PCOD9005142
Probable space group: P -1
;
_chemical_formula_sum "Si O2"
_cell_formula_units_Z 16
_cell_length_a 21.790738
_cell_length_b 10.481403
_cell_length_c 6.592301
_cell_angle_alpha 117.087846
_cell_angle_beta 116.272465
_cell_angle_gamma 32.278473
_cell_volume 710.595119
_symmetry_space_group_name_H-M "P -1"
_symmetry_group_IT_number 2
_symmetry_cell_setting 'triclinic'
loop_
_space_group_symop_operation_xyz
x,y,z
-x,-y,-z
loop_
_atom_site_type_symbol
_atom_site_label
_atom_site_fract_x
_atom_site_fract_y
_atom_site_fract_z
Si Si1 0.588544 0.270049 0.675235
Si Si2 0.703596 0.513251 0.550901
Si Si3 0.043828 0.521754 0.891520
Si Si4 0.255102 0.348689 0.649971
Si Si5 0.832461 0.803436 0.521067
Si Si6 0.108483 0.735068 0.064162
Si Si7 0.462447 0.356526 0.887414
Si Si8 0.501520 0.816460 0.768100
O O1 0.573466 0.179711 0.773869
O O2 0.505461 0.336489 0.436141
O O3 0.712200 0.076306 0.609842
O O4 0.555056 0.468190 0.888765
O O5 0.723886 0.609822 0.499829
O O6 0.648176 0.486595 0.303491
O O7 0.603160 0.713830 0.712170
O O8 0.820535 0.290697 0.686864
O O9 0.145286 0.264022 0.733042
O O10 0.078673 0.629854 0.046235
O O11 0.938776 0.704007 0.707079
O O12 0.000000 0.500000 0.000000
O O13 0.174968 0.344418 0.504905
O O14 0.193087 0.555648 0.870553
O O15 0.375374 0.088887 0.730110
O O16 0.000000 0.000000 0.000000
O O17 0.475027 0.220653 0.985963
#
# Coordination Sequence:
#
# PCOD9005142 Si02
#       8
#     2   2   2   2   2   2   2   2
#     4   9  20  38  60  89 129 166 204 257 318 385
#     4  11  23  39  63  90 126 168 210 259 321 389
#     4  10  21  41  67  92 120 162 219 271 319 376
#     4  10  22  41  64  93 127 163 208 263 326 390
#     4   9  20  38  62  90 119 161 214 265 313 376
#     4  11  26  45  64  92 130 171 218 270 324 385
#     4  10  21  38  60  94 130 166 208 254 319 390
#     4  10  21  38  65  96 126 162 209 261 319 387
#
# _framework density 22.516338999999999
#
# number of rings (size 3 to 8) (size 9 to 14) (size 15 to 20)
#    0.000    2.000    0.000    2.250    0.000   10.500 
#    0.000    7.500    0.000    0.000    0.000    0.000 
#    0.000    0.000    0.000    0.000    0.000    0.000 
#
# Total GULP energy -89316.386102 kJ/mol
# GULP energy per Si atom -5582.274131 kJ/mol
# Density = 2.246509 g / cm^3
# Si number density = 22.516339 Si / 1000 Ang^3
#
#
#
# Elastic Constant Matrix: (Units=GPa)
#
#
# Indices 1 2 3 4 5 6 
#
# 1 104.0387 31.4875 42.1413 3.2781 -28.2222 -17.7866
# 2 31.4875 90.5205 58.3170 -6.4119 -12.4367 -11.6807
# 3 42.1413 58.3170 122.3919 -9.4292 -3.9413 -3.4353
# 4 3.2781 -6.4119 -9.4292 37.6506 -3.5467 -1.2043
# 5 -28.2222 -12.4367 -3.9413 -3.5467 47.1399 2.5727
# 6 -17.7866 -11.6807 -3.4353 -1.2043 2.5727 26.5731
#
#
#
# Elastic Compliance Matrix: (Units=1/GPa)
#
#
# Indices 1 2 3 4 5 6 
#
# 1 0.015371 -0.000059 -0.004871 -0.001517 0.008187 0.008771
# 2 -0.000059 0.017651 -0.007969 0.001571 0.003724 0.006399
# 3 -0.004871 -0.007969 0.013557 0.001987 -0.003486 -0.004583
# 4 -0.001517 0.001571 0.001987 0.027650 0.001697 0.001021
# 5 0.008187 0.003724 -0.003486 0.001697 0.026707 0.004157
# 6 0.008771 0.006399 -0.004583 0.001021 0.004157 0.045367
#
#
# Mechanical properties :
#
#
# Convention : Reuss Voigt Hill
#
# Bulk Modulus (GPa) = 48.12502 64.53807 56.33155
# Shear Modulus (GPa) = 27.92863 34.60641 31.26752
#
# Velocity S-wave (km/s) = 3.52571 3.92464 3.73051
# Velocity P-wave (km/s) = 6.16393 7.01870 6.60515
#
# Compressibility (1/GPa) = 0.02077921
#
# Stress axis : x y z
#
# Youngs Moduli (GPa) = 65.05762 56.65557 73.76261
#
# Poissons Ratio (x) = 0.00336 0.35931
# Poissons Ratio (y) = 0.00386 0.58782
# Poissons Ratio (z) = 0.31691 0.45149
#
# Static dielectric constant tensor:
#      x y z
#    x 1.911270 0.032170 0.024900 
#    y 0.032170 1.815830 0.003930 
#    z 0.024900 0.003930 1.849970 
# 
# From -- ./inp_files/123806.got.cif
#   From: 2010.05.17/outbox.cif.g08.bks.cpg/sg2_62_cif.got.tgz:123806.got - 2010.06.03 11:33:40.
