data_PCOD9005511
_publ_section_title
;
Structure prediction by ZEFSAII (Michael W. Deem and Ramdas Pophale) SiO2 
 PCOD9005511
Probable space group: P -1
;
_chemical_formula_sum "Si O2"
_cell_formula_units_Z 16
_cell_length_a 18.522097
_cell_length_b 5.690347
_cell_length_c 8.010546
_cell_angle_alpha 55.449734
_cell_angle_beta 99.869664
_cell_angle_gamma 94.575256
_cell_volume 684.930933
_symmetry_space_group_name_H-M "P -1"
_symmetry_group_IT_number 2
_symmetry_cell_setting 'triclinic'
loop_
_space_group_symop_operation_xyz
x,y,z
-x,-y,-z
loop_
_atom_site_type_symbol
_atom_site_label
_atom_site_fract_x
_atom_site_fract_y
_atom_site_fract_z
Si Si1 0.292800 0.087850 0.500709
Si Si2 0.050877 0.098029 0.630536
Si Si3 0.828572 0.275326 0.256677
Si Si4 0.214824 0.080693 0.108662
Si Si5 0.569190 0.192850 0.475645
Si Si6 0.093542 0.709388 0.355918
Si Si7 0.658476 0.294862 0.783538
Si Si8 0.517341 0.330735 0.902758
O O1 0.254073 0.085498 0.303952
O O2 0.311130 0.417352 0.404502
O O3 0.238920 0.935165 0.667034
O O4 0.367681 0.903214 0.589103
O O5 0.092917 0.370839 0.465428
O O6 0.992090 0.191936 0.709683
O O7 0.110646 0.854606 0.792872
O O8 0.000000 0.000000 0.500000
O O9 0.869346 0.267348 0.455735
O O10 0.803984 0.597162 0.079751
O O11 0.142436 0.895668 0.179563
O O12 0.272829 0.917376 0.077337
O O13 0.604648 0.153169 0.685915
O O14 0.537189 0.508836 0.312862
O O15 0.500000 0.000000 0.500000
O O16 0.603513 0.373589 0.879431
O O17 0.500000 0.500000 0.000000
O O18 0.500000 0.000000 0.000000
#
# Coordination Sequence:
#
# PCOD9005511 Si02
#       8
#     2   2   2   2   2   2   2   2
#     4  10  23  40  64  89 128 168 222 273 335 405
#     4   9  18  36  63  90 128 168 211 264 322 392
#     4  10  21  38  62  91 126 171 218 266 330 396
#     4  10  23  40  61  94 129 169 219 275 329 403
#     4  11  23  45  68  90 126 178 226 278 353 416
#     4   9  19  39  61  91 128 168 214 265 327 391
#     4  11  24  44  66  90 130 179 219 281 349 410
#     4  12  28  43  68 103 135 168 229 294 348 417
#
# _framework density 23.360019000000001
#
# number of rings (size 3 to 8) (size 9 to 14) (size 15 to 20)
#    0.000    1.750    1.250    1.875    5.250    1.500 
#    0.000    5.625    0.000    0.000    0.000    0.000 
#    0.000    0.000    0.000    0.000    0.000    0.000 
#
# Total GULP energy -89480.084077 kJ/mol
# GULP energy per Si atom -5592.505255 kJ/mol
# Density = 2.330685 g / cm^3
# Si number density = 23.360019 Si / 1000 Ang^3
#
#
#
# Elastic Constant Matrix: (Units=GPa)
#
#
# Indices 1 2 3 4 5 6 
#
# 1 180.9940 58.2693 75.7379 -37.9450 -1.3738 -26.4098
# 2 58.2693 102.9165 44.7162 -30.5906 -5.5774 -4.9831
# 3 75.7379 44.7162 97.3646 -28.2786 3.5204 -18.9014
# 4 -37.9450 -30.5906 -28.2786 53.5388 -5.0759 9.0211
# 5 -1.3738 -5.5774 3.5204 -5.0759 20.4476 -20.7691
# 6 -26.4098 -4.9831 -18.9014 9.0211 -20.7691 53.6650
#
#
#
# Elastic Compliance Matrix: (Units=1/GPa)
#
#
# Indices 1 2 3 4 5 6 
#
# 1 0.009603 -0.001744 -0.005117 0.002923 0.006726 0.004873
# 2 -0.001744 0.014351 -0.003724 0.005489 0.006612 0.000799
# 3 -0.005117 -0.003724 0.017271 0.002866 -0.001386 0.002201
# 4 0.002923 0.005489 0.002866 0.025939 0.010239 0.002560
# 5 0.006726 0.006612 -0.001386 0.010239 0.091750 0.037223
# 6 0.004873 0.000799 0.002201 0.002560 0.037223 0.035857
#
#
# Mechanical properties :
#
#
# Convention : Reuss Voigt Hill
#
# Bulk Modulus (GPa) = 49.86418 82.08022 65.97220
# Shear Modulus (GPa) = 22.45934 39.03372 30.74653
#
# Velocity S-wave (km/s) = 3.10408 4.09218 3.63189
# Velocity P-wave (km/s) = 5.85144 7.58559 6.77424
#
# Compressibility (1/GPa) = 0.02005448
#
# Stress axis : x y z
#
# Youngs Moduli (GPa) = 104.13732 69.68330 57.90099
#
# Poissons Ratio (x) = 0.12156 0.29627
# Poissons Ratio (y) = 0.18166 0.21560
# Poissons Ratio (z) = 0.53285 0.25948
#
# Static dielectric constant tensor:
#      x y z
#    x 1.890160 -0.030470 -0.005320 
#    y -0.030470 1.917480 0.028680 
#    z -0.005320 0.028680 1.912670 
# 
# From -- ./inp_files/57055.got.cif
#   From: 2010.05.17/outbox.cif.g08.bks.cpg/sg2_29_cif.got.tgz:57055.got - 2010.06.03 11:33:40.
