data_PCOD9005299
_publ_section_title
;
Structure prediction by ZEFSAII (Michael W. Deem and Ramdas Pophale) SiO2 
 PCOD9005299
Probable space group: P -1
;
_chemical_formula_sum "Si O2"
_cell_formula_units_Z 16
_cell_length_a 11.116643
_cell_length_b 14.978779
_cell_length_c 11.635861
_cell_angle_alpha 150.277855
_cell_angle_beta 78.396981
_cell_angle_gamma 121.318584
_cell_volume 662.044165
_symmetry_space_group_name_H-M "P -1"
_symmetry_group_IT_number 2
_symmetry_cell_setting 'triclinic'
loop_
_space_group_symop_operation_xyz
x,y,z
-x,-y,-z
loop_
_atom_site_type_symbol
_atom_site_label
_atom_site_fract_x
_atom_site_fract_y
_atom_site_fract_z
Si Si1 0.343961 0.546223 0.991464
Si Si2 0.866761 0.318616 0.221720
Si Si3 0.126552 0.796122 0.565198
Si Si4 0.042569 0.757808 0.285085
Si Si5 0.496892 0.953259 0.236399
Si Si6 0.757660 0.881806 0.863116
Si Si7 0.619124 0.365696 0.315738
Si Si8 0.613700 0.795779 0.426667
O O1 0.405983 0.790689 0.188341
O O2 0.457720 0.647662 0.197633
O O3 0.138895 0.338640 0.821000
O O4 0.385636 0.407169 0.756310
O O5 0.699019 0.262100 0.229464
O O6 0.000000 0.500000 0.500000
O O7 0.955367 0.499839 0.296605
O O8 0.852195 0.088749 0.974354
O O9 0.093121 0.856900 0.518262
O O10 0.294966 0.843216 0.567626
O O11 0.176560 0.971848 0.862438
O O12 0.203943 0.977537 0.419285
O O13 0.000000 0.500000 0.000000
O O14 0.427692 0.074222 0.342970
O O15 0.434599 0.740822 0.921023
O O16 0.762914 0.672978 0.632360
O O17 0.557187 0.733685 0.712142
#
# Coordination Sequence:
#
# PCOD9005299 Si02
#       8
#     2   2   2   2   2   2   2   2
#     4  11  23  41  66  94 126 170 215 259 318 373
#     4  10  21  38  61  91 125 158 207 263 316 372
#     4  10  22  39  64  93 126 168 212 256 324 375
#     4  12  22  40  71  94 130 172 208 262 321 377
#     4  11  21  42  63  89 129 169 208 262 316 376
#     4   9  21  42  66  88 125 164 208 268 312 375
#     4  10  21  39  66  92 121 166 212 254 323 379
#     4  11  24  42  65  92 132 169 214 266 311 377
#
# _framework density 24.167572
#
# number of rings (size 3 to 8) (size 9 to 14) (size 15 to 20)
#    0.000    1.500    2.500    2.625    0.000    3.000 
#    0.000    8.750    5.500    0.000    0.000    0.000 
#    0.000    0.000    0.000    0.000    0.000    0.000 
#
# Total GULP energy -89435.728251 kJ/mol
# GULP energy per Si atom -5589.733016 kJ/mol
# Density = 2.411257 g / cm^3
# Si number density = 24.167572 Si / 1000 Ang^3
#
#
#
# Elastic Constant Matrix: (Units=GPa)
#
#
# Indices 1 2 3 4 5 6 
#
# 1 107.0505 2.4474 28.1818 6.3367 9.8082 13.1160
# 2 2.4474 28.1099 8.9719 3.3689 3.6627 6.4512
# 3 28.1818 8.9719 98.0074 10.5939 -18.2635 2.4682
# 4 6.3367 3.3689 10.5939 19.0167 -0.7963 1.1883
# 5 9.8082 3.6627 -18.2635 -0.7963 49.5030 9.6619
# 6 13.1160 6.4512 2.4682 1.1883 9.6619 29.1159
#
#
#
# Elastic Compliance Matrix: (Units=1/GPa)
#
#
# Indices 1 2 3 4 5 6 
#
# 1 0.011119 0.001708 -0.003588 -0.001877 -0.002894 -0.004046
# 2 0.001708 0.039535 -0.003980 -0.004999 -0.003270 -0.007903
# 3 -0.003588 -0.003980 0.013271 -0.005223 0.005889 -0.000368
# 4 -0.001877 -0.004999 -0.005223 0.056982 -0.000302 0.000170
# 5 -0.002894 -0.003270 0.005889 -0.000302 0.024468 -0.006578
# 6 -0.004046 -0.007903 -0.000368 0.000170 -0.006578 0.040126
#
#
# Mechanical properties :
#
#
# Convention : Reuss Voigt Hill
#
# Bulk Modulus (GPa) = 19.15576 34.70779 26.93177
# Shear Modulus (GPa) = 23.29660 32.43157 27.86409
#
# Velocity S-wave (km/s) = 3.10814 3.66723 3.39920
# Velocity P-wave (km/s) = 4.56335 5.68541 5.15500
#
# Compressibility (1/GPa) = 0.05220363
#
# Stress axis : x y z
#
# Youngs Moduli (GPa) = 89.93724 25.29394 75.35437
#
# Poissons Ratio (x) = -0.04319 0.27037
# Poissons Ratio (y) = -0.15359 0.29993
# Poissons Ratio (z) = 0.32269 0.10068
#
# Static dielectric constant tensor:
#      x y z
#    x 1.919420 0.031180 -0.011640 
#    y 0.031180 1.949300 -0.003680 
#    z -0.011640 -0.003680 2.020430 
# 
# From -- ./inp_files/434363.got.cif
#   From: 2010.05.17/outbox.cif.g08.bks.cpg/sg2_218_cif.got.tgz:434363.got - 2010.06.03 11:33:40.
