data_PCOD9005914
_publ_section_title
;
Structure prediction by ZEFSAII (Michael W. Deem and Ramdas Pophale) SiO2 
 PCOD9005914
Probable space group: P -1
;
_chemical_formula_sum "Si O2"
_cell_formula_units_Z 16
_cell_length_a 15.423833
_cell_length_b 8.718206
_cell_length_c 7.515868
_cell_angle_alpha 129.234601
_cell_angle_beta 56.745054
_cell_angle_gamma 112.276848
_cell_volume 653.802725
_symmetry_space_group_name_H-M "P -1"
_symmetry_group_IT_number 2
_symmetry_cell_setting 'triclinic'
loop_
_space_group_symop_operation_xyz
x,y,z
-x,-y,-z
loop_
_atom_site_type_symbol
_atom_site_label
_atom_site_fract_x
_atom_site_fract_y
_atom_site_fract_z
Si Si1 0.741784 0.193209 0.419845
Si Si2 0.076328 0.964866 0.727384
Si Si3 0.188313 0.353123 0.995717
Si Si4 0.399815 0.159626 0.674135
Si Si5 0.211635 0.972090 0.107507
Si Si6 0.835369 0.597151 0.526609
Si Si7 0.441688 0.961909 0.849636
Si Si8 0.946674 0.315786 0.758659
O O1 0.835212 0.189942 0.448064
O O2 0.750995 0.410392 0.482504
O O3 0.641373 0.066940 0.507226
O O4 0.776666 0.031287 0.119373
O O5 0.023925 0.856763 0.541247
O O6 0.139056 0.173787 0.799904
O O7 0.000000 0.000000 0.000000
O O8 0.145823 0.367201 0.256626
O O9 0.143579 0.541814 0.090417
O O10 0.310951 0.314314 0.849718
O O11 0.497795 0.192399 0.455710
O O12 0.424956 0.134409 0.839749
O O13 0.112543 0.825102 0.137297
O O14 0.203741 0.195104 0.347230
O O15 0.322897 0.896476 0.986855
O O16 0.942941 0.558659 0.273764
O O17 0.500000 0.000000 0.000000
#
# Coordination Sequence:
#
# PCOD9005914 Si02
#       8
#     2   2   2   2   2   2   2   2
#     4  10  21  38  64  86 130 167 211 265 326 383
#     4  11  19  34  59  89 124 169 216 260 307 376
#     4  11  21  38  63  95 128 175 219 263 325 395
#     4   9  21  44  67  98 134 167 218 290 331 385
#     4  11  25  44  60  96 134 167 217 277 325 391
#     4  12  21  40  66  94 131 179 215 255 332 400
#     4  10  21  41  75  94 126 177 222 273 347 392
#     4  12  25  37  64  98 135 172 219 263 319 399
#
# _framework density 24.472214000000001
#
# number of rings (size 3 to 8) (size 9 to 14) (size 15 to 20)
#    0.000    1.250    6.250    1.500    3.500    1.500 
#    0.000    1.250    5.500    0.000    0.000    0.000 
#    0.000    0.000    0.000    0.000    0.000    0.000 
#
# Total GULP energy -89074.615944 kJ/mol
# GULP energy per Si atom -5567.163497 kJ/mol
# Density = 2.441651 g / cm^3
# Si number density = 24.472214 Si / 1000 Ang^3
#
#
#
# Elastic Constant Matrix: (Units=GPa)
#
#
# Indices 1 2 3 4 5 6 
#
# 1 99.1279 30.0868 21.3206 9.2002 -18.3592 -3.2763
# 2 30.0868 64.7788 36.9692 16.4061 -10.3671 1.4435
# 3 21.3206 36.9692 67.1081 9.6926 -20.0323 -5.9703
# 4 9.2002 16.4061 9.6926 37.0576 1.7834 0.0386
# 5 -18.3592 -10.3671 -20.0323 1.7834 49.1573 1.4684
# 6 -3.2763 1.4435 -5.9703 0.0386 1.4684 31.2149
#
#
#
# Elastic Compliance Matrix: (Units=1/GPa)
#
#
# Indices 1 2 3 4 5 6 
#
# 1 0.012398 -0.005058 0.000217 -0.001073 0.003649 0.001406
# 2 -0.005058 0.026865 -0.012840 -0.007224 -0.001069 -0.004170
# 3 0.000217 -0.012840 0.024713 -0.001192 0.007338 0.004999
# 4 -0.001073 -0.007224 -0.001192 0.030931 -0.003536 0.000122
# 5 0.003649 -0.001069 0.007338 -0.003536 0.024578 0.000684
# 6 0.001406 -0.004170 0.004999 0.000122 0.000684 0.033300
#
#
# Mechanical properties :
#
#
# Convention : Reuss Voigt Hill
#
# Bulk Modulus (GPa) = 34.94659 45.30755 40.12707
# Shear Modulus (GPa) = 25.29260 32.99518 29.14389
#
# Velocity S-wave (km/s) = 3.21833 3.67586 3.45468
# Velocity P-wave (km/s) = 5.30296 6.04732 5.68733
#
# Compressibility (1/GPa) = 0.02861509
#
# Stress axis : x y z
#
# Youngs Moduli (GPa) = 80.65577 37.22289 40.46451
#
# Poissons Ratio (x) = 0.18826 -0.00876
# Poissons Ratio (y) = 0.40794 0.51955
# Poissons Ratio (z) = -0.01746 0.47792
#
# Static dielectric constant tensor:
#      x y z
#    x 2.246780 0.067540 -0.005210 
#    y 0.067540 2.078170 -0.042450 
#    z -0.005210 -0.042450 1.974270 
# 
# From -- ./inp_files/327951.got.cif
#   From: 2010.05.17/outbox.cif.g08.bks.cpg/sg2_164_cif.got.tgz:327951.got - 2010.06.03 11:33:40.
