data_PCOD9005923
_publ_section_title
;
Structure prediction by ZEFSAII (Michael W. Deem and Ramdas Pophale) SiO2 
 PCOD9005923
Probable space group: P -1
;
_chemical_formula_sum "Si O2"
_cell_formula_units_Z 16
_cell_length_a 24.087757
_cell_length_b 6.904615
_cell_length_c 9.702984
_cell_angle_alpha 133.518025
_cell_angle_beta 43.768251
_cell_angle_gamma 114.932968
_cell_volume 800.232723
_symmetry_space_group_name_H-M "P -1"
_symmetry_group_IT_number 2
_symmetry_cell_setting 'triclinic'
loop_
_space_group_symop_operation_xyz
x,y,z
-x,-y,-z
loop_
_atom_site_type_symbol
_atom_site_label
_atom_site_fract_x
_atom_site_fract_y
_atom_site_fract_z
Si Si1 0.735050 0.815673 0.967915
Si Si2 0.443798 0.229267 0.626589
Si Si3 0.049859 0.663600 0.091413
Si Si4 0.520120 0.175339 0.177225
Si Si5 0.301338 0.109639 0.243818
Si Si6 0.015448 0.753337 0.510044
Si Si7 0.235183 0.572469 0.782216
Si Si8 0.199036 0.652549 0.197506
O O1 0.749175 0.121565 0.122241
O O2 0.647910 0.768092 0.159266
O O3 0.733862 0.786138 0.790331
O O4 0.798983 0.590491 0.817616
O O5 0.455990 0.176050 0.415687
O O6 0.472194 0.521714 0.735995
O O7 0.500000 0.000000 0.500000
O O8 0.009291 0.688322 0.327816
O O9 0.144061 0.544853 0.882697
O O10 0.042201 0.975170 0.211852
O O11 0.000000 0.500000 0.000000
O O12 0.500000 0.000000 0.000000
O O13 0.607279 0.038854 0.012908
O O14 0.295023 0.350622 0.482851
O O15 0.249547 0.879411 0.272282
O O16 0.108551 0.790134 0.389379
O O17 0.000000 0.500000 0.500000
O O18 0.238174 0.539990 0.926503
#
# Coordination Sequence:
#
# PCOD9005923 Si02
#       8
#     2   2   2   2   2   2   2   2
#     4  11  23  41  63  87 124 159 203 248 299 353
#     4  11  24  44  63  89 122 159 200 250 297 350
#     4  10  21  40  61  90 122 160 196 249 300 352
#     4  11  26  40  65  91 121 159 203 245 300 359
#     4  11  23  41  60  91 121 160 199 246 300 357
#     4  10  21  38  64  88 118 157 205 244 296 358
#     4  10  24  38  62  91 123 157 201 246 301 356
#     4  10  22  41  60  87 122 160 197 249 301 352
#
# _framework density 19.994183
#
# number of rings (size 3 to 8) (size 9 to 14) (size 15 to 20)
#    0.000    1.500    2.500    1.500    3.500    6.000 
#    0.000    0.000    0.000    0.000    0.000    0.000 
#    0.000    0.000    0.000    0.000    0.000    0.000 
#
# Total GULP energy -89435.046509 kJ/mol
# GULP energy per Si atom -5589.690407 kJ/mol
# Density = 1.994868 g / cm^3
# Si number density = 19.994183 Si / 1000 Ang^3
#
#
#
# Elastic Constant Matrix: (Units=GPa)
#
#
# Indices 1 2 3 4 5 6 
#
# 1 55.1443 13.0204 -4.8224 11.1645 12.9258 -9.6572
# 2 13.0204 94.8270 10.7883 10.0204 20.6825 -17.7860
# 3 -4.8224 10.7883 54.1838 11.1162 9.9542 -6.8974
# 4 11.1645 10.0204 11.1162 21.0791 3.7778 -13.7058
# 5 12.9258 20.6825 9.9542 3.7778 29.8955 6.9580
# 6 -9.6572 -17.7860 -6.8974 -13.7058 6.9580 28.4245
#
#
#
# Elastic Compliance Matrix: (Units=1/GPa)
#
#
# Indices 1 2 3 4 5 6 
#
# 1 0.026460 0.002763 0.008482 -0.007692 -0.018361 0.013562
# 2 0.002763 0.017098 0.001618 0.005407 -0.018719 0.019219
# 3 0.008482 0.001618 0.024562 -0.010538 -0.013514 0.008081
# 4 -0.007692 0.005407 -0.010538 0.086675 -0.018207 0.044463
# 5 -0.018361 -0.018719 -0.013514 -0.018207 0.072239 -0.047693
# 6 0.013562 0.019219 0.008081 0.044463 -0.047693 0.086889
#
#
# Mechanical properties :
#
#
# Convention : Reuss Voigt Hill
#
# Bulk Modulus (GPa) = 10.65570 26.90308 18.77939
# Shear Modulus (GPa) = 15.65047 28.22441 21.93744
#
# Velocity S-wave (km/s) = 2.80080 3.76124 3.31598
# Velocity P-wave (km/s) = 3.97496 5.68747 4.90651
#
# Compressibility (1/GPa) = 0.09384647
#
# Stress axis : x y z
#
# Youngs Moduli (GPa) = 37.79309 58.48530 40.71353
#
# Poissons Ratio (x) = -0.16160 -0.34535
# Poissons Ratio (y) = -0.10443 -0.06586
# Poissons Ratio (z) = -0.32058 -0.09461
#
# Static dielectric constant tensor:
#      x y z
#    x 1.718370 -0.011620 -0.035900 
#    y -0.011620 1.685840 0.002640 
#    z -0.035900 0.002640 1.699140 
# 
# From -- ./inp_files/10746.got.cif
#   From: 2010.05.17/outbox.cif.g08.bks.cpg/sg2_6_cif.got.tgz:10746.got - 2010.06.03 11:33:40.
