data_PCOD9005626
_publ_section_title
;
Structure prediction by ZEFSAII (Michael W. Deem and Ramdas Pophale) SiO2 
 PCOD9005626
Probable space group: P -1
;
_chemical_formula_sum "Si O2"
_cell_formula_units_Z 12
_cell_length_a 9.428458
_cell_length_b 13.449588
_cell_length_c 5.172657
_cell_angle_alpha 87.094542
_cell_angle_beta 46.283538
_cell_angle_gamma 70.823748
_cell_volume 432.592634
_symmetry_space_group_name_H-M "P -1"
_symmetry_group_IT_number 2
_symmetry_cell_setting 'triclinic'
loop_
_space_group_symop_operation_xyz
x,y,z
-x,-y,-z
loop_
_atom_site_type_symbol
_atom_site_label
_atom_site_fract_x
_atom_site_fract_y
_atom_site_fract_z
Si Si1 0.295238 0.922175 0.666111
Si Si2 0.144916 0.568897 0.769877
Si Si3 0.156148 0.834692 0.361321
Si Si4 0.699220 0.738228 0.299576
Si Si5 0.558807 0.394446 0.168920
Si Si6 0.292710 0.104947 0.335595
O O1 0.177966 0.883719 0.598604
O O2 0.545332 0.841489 0.318252
O O3 0.248483 0.046125 0.656933
O O4 0.236822 0.893337 0.024922
O O5 0.344918 0.501278 0.338954
O O6 0.269931 0.584276 0.864150
O O7 0.000000 0.500000 0.000000
O O8 0.949224 0.680866 0.919753
O O9 0.915216 0.862013 0.580205
O O10 0.308866 0.706199 0.170163
O O11 0.571755 0.659647 0.476154
O O12 0.692315 0.786329 0.590686
O O13 0.500000 0.000000 0.000000
#
# Coordination Sequence:
#
# PCOD9005626 Si02
#       6
#     2   2   2   2   2   2
#     4  11  25  44  69  99 143 188 234 282 346 408
#     4   9  17  35  68  99 134 176 228 282 348 414
#     4  11  24  46  70 101 141 187 232 289 346 411
#     4  10  21  38  63 101 137 180 231 284 341 412
#     4   9  18  37  66  99 136 177 224 287 348 407
#     4  12  24  42  67 104 142 187 237 288 341 414
#
# _framework density 27.739723000000001
#
# number of rings (size 3 to 8) (size 9 to 14) (size 15 to 20)
#    0.000    1.667    1.667    3.500    0.000    2.667 
#    0.000    0.833    0.000   27.000    0.000    0.000 
#    0.000    0.000    0.000    0.000    0.000    0.000 
#
# Total GULP energy -67205.728569 kJ/mol
# GULP energy per Si atom -5600.477381 kJ/mol
# Density = 2.767659 g / cm^3
# Si number density = 27.739723 Si / 1000 Ang^3
#
#
#
# Elastic Constant Matrix: (Units=GPa)
#
#
# Indices 1 2 3 4 5 6 
#
# 1 165.3034 39.1534 30.8389 -0.8199 -44.7105 13.5549
# 2 39.1534 99.9696 14.8344 23.6404 -16.7120 7.5745
# 3 30.8389 14.8344 159.7484 10.0564 -42.9851 -0.1122
# 4 -0.8199 23.6404 10.0564 24.0086 -12.4312 -12.4904
# 5 -44.7105 -16.7120 -42.9851 -12.4312 65.1597 10.9380
# 6 13.5549 7.5745 -0.1122 -12.4904 10.9380 62.5816
#
#
#
# Elastic Compliance Matrix: (Units=1/GPa)
#
#
# Indices 1 2 3 4 5 6 
#
# 1 0.008915 -0.003942 -0.000010 0.006993 0.006639 -0.001218
# 2 -0.003942 0.016232 0.000098 -0.019329 -0.001370 -0.004729
# 3 -0.000010 0.000098 0.007688 -0.001302 0.005032 -0.001135
# 4 0.006993 -0.019329 -0.001302 0.074230 0.010836 0.013744
# 5 0.006639 -0.001370 0.005032 0.010836 0.025536 -0.003563
# 6 -0.001218 -0.004729 -0.001135 0.013744 -0.003563 0.020179
#
#
# Mechanical properties :
#
#
# Convention : Reuss Voigt Hill
#
# Bulk Modulus (GPa) = 39.79519 66.07497 52.93508
# Shear Modulus (GPa) = 29.60982 53.02963 41.31972
#
# Velocity S-wave (km/s) = 3.27068 4.37703 3.86366
# Velocity P-wave (km/s) = 5.35165 7.02964 6.24724
#
# Compressibility (1/GPa) = 0.02512867
#
# Stress axis : x y z
#
# Youngs Moduli (GPa) = 112.16894 61.60540 130.07502
#
# Poissons Ratio (x) = 0.24284 0.00127
# Poissons Ratio (y) = 0.44215 -0.01279
# Poissons Ratio (z) = 0.00110 -0.00606
#
# Static dielectric constant tensor:
#      x y z
#    x 2.045900 -0.035660 -0.008490 
#    y -0.035660 2.330690 -0.088650 
#    z -0.008490 -0.088650 2.304120 
# 
# From -- ./inp_files/35675.got.cif
#   From: 2010.05.17/outbox.cif.g08.bks.cpg/sg2_18_cif.got.tgz:35675.got - 2010.06.03 11:33:40.
