data_PCOD9005814
_publ_section_title
;
Structure prediction by ZEFSAII (Michael W. Deem and Ramdas Pophale) SiO2 
 PCOD9005814
Probable space group: P -1
;
_chemical_formula_sum "Si O2"
_cell_formula_units_Z 14
_cell_length_a 11.936840
_cell_length_b 7.985366
_cell_length_c 8.089447
_cell_angle_alpha 94.332495
_cell_angle_beta 132.137237
_cell_angle_gamma 82.453679
_cell_volume 566.756290
_symmetry_space_group_name_H-M "P -1"
_symmetry_group_IT_number 2
_symmetry_cell_setting 'triclinic'
loop_
_space_group_symop_operation_xyz
x,y,z
-x,-y,-z
loop_
_atom_site_type_symbol
_atom_site_label
_atom_site_fract_x
_atom_site_fract_y
_atom_site_fract_z
Si Si1 0.725239 0.674232 0.194405
Si Si2 0.877882 0.547505 0.030753
Si Si3 0.831165 0.036506 0.259268
Si Si4 0.410214 0.795919 0.746930
Si Si5 0.847038 0.933959 0.910810
Si Si6 0.380266 0.659620 0.360190
Si Si7 0.609078 0.849056 0.395724
O O1 0.685905 0.686868 0.353009
O O2 0.766654 0.863576 0.229937
O O3 0.856975 0.559230 0.214856
O O4 0.560492 0.677023 0.941871
O O5 0.847823 0.746456 0.973970
O O6 0.759157 0.415286 0.866060
O O7 0.000000 0.500000 0.000000
O O8 0.722282 0.185433 0.247715
O O9 0.000000 0.000000 0.500000
O O10 0.819405 0.051929 0.052817
O O11 0.339602 0.732489 0.505548
O O12 0.452632 0.985566 0.760244
O O13 0.731814 0.917904 0.644672
O O14 0.000000 0.000000 0.000000
O O15 0.500000 0.500000 0.500000
O O16 0.472485 0.787868 0.360235
#
# Coordination Sequence:
#
# PCOD9005814 Si02
#       7
#     2   2   2   2   2   2   2
#     4  10  22  44  66  97 134 169 226 280 328 396
#     4  11  26  46  64  93 138 180 216 276 343 398
#     4  10  21  38  63  94 131 171 215 275 326 380
#     4  11  23  42  69 100 131 173 225 277 331 397
#     4  11  23  43  67 100 135 172 229 273 329 405
#     4  12  23  44  66  96 137 173 220 279 334 403
#     4  11  23  41  74 100 128 175 229 278 329 395
#
# _framework density 24.701975000000001
#
# number of rings (size 3 to 8) (size 9 to 14) (size 15 to 20)
#    0.000    1.143    2.857    4.714    6.000    1.714 
#    0.000    0.714    0.000    0.000    0.000    0.000 
#    0.000    0.000    0.000    0.000    0.000    0.000 
#
# Total GULP energy -78071.223419 kJ/mol
# GULP energy per Si atom -5576.515959 kJ/mol
# Density = 2.464575 g / cm^3
# Si number density = 24.701975 Si / 1000 Ang^3
#
#
#
# Elastic Constant Matrix: (Units=GPa)
#
#
# Indices 1 2 3 4 5 6 
#
# 1 179.5614 30.2857 72.7806 30.3858 -22.9194 -28.3371
# 2 30.2857 64.1328 26.4226 14.3488 -5.3810 -5.5359
# 3 72.7806 26.4226 126.0408 30.3233 -5.2384 1.4244
# 4 30.3858 14.3488 30.3233 36.9663 -7.0226 -5.9544
# 5 -22.9194 -5.3810 -5.2384 -7.0226 46.6229 23.4724
# 6 -28.3371 -5.5359 1.4244 -5.9544 23.4724 56.2445
#
#
#
# Elastic Compliance Matrix: (Units=1/GPa)
#
#
# Indices 1 2 3 4 5 6 
#
# 1 0.008588 -0.001435 -0.004075 -0.002320 0.001536 0.003402
# 2 -0.001435 0.018066 -0.001974 -0.004073 0.000259 0.000566
# 3 -0.004075 -0.001974 0.012296 -0.006524 -0.000249 -0.003146
# 4 -0.002320 -0.004073 -0.006524 0.036588 0.002436 0.001452
# 5 0.001536 0.000259 -0.000249 0.002436 0.027899 -0.010579
# 6 0.003402 0.000566 -0.003146 0.001452 -0.010579 0.024198
#
#
# Mechanical properties :
#
#
# Convention : Reuss Voigt Hill
#
# Bulk Modulus (GPa) = 41.69970 69.85699 55.77835
# Shear Modulus (GPa) = 33.20123 43.98313 38.59218
#
# Velocity S-wave (km/s) = 3.67014 4.22424 3.95690
# Velocity P-wave (km/s) = 5.90573 7.22036 6.59588
#
# Compressibility (1/GPa) = 0.02398099
#
# Stress axis : x y z
#
# Youngs Moduli (GPa) = 116.43548 55.35389 81.32999
#
# Poissons Ratio (x) = 0.07945 0.33141
# Poissons Ratio (y) = 0.16712 0.16056
# Poissons Ratio (z) = 0.47446 0.10928
#
# Static dielectric constant tensor:
#      x y z
#    x 2.087940 -0.088330 -0.090370 
#    y -0.088330 1.968040 -0.034530 
#    z -0.090370 -0.034530 2.077440 
# 
# From -- ./inp_files/244771.got.cif
#   From: 2010.05.17/outbox.cif.g08.bks.cpg/sg2_123_cif.got.tgz:244771.got - 2010.06.03 11:33:40.
