data_PCOD9005628
_publ_section_title
;
Structure prediction by ZEFSAII (Michael W. Deem and Ramdas Pophale) SiO2 
 PCOD9005628
Probable space group: P -1
;
_chemical_formula_sum "Si O2"
_cell_formula_units_Z 16
_cell_length_a 10.350300
_cell_length_b 9.818150
_cell_length_c 9.491859
_cell_angle_alpha 81.926775
_cell_angle_beta 62.186984
_cell_angle_gamma 47.812483
_cell_volume 609.736368
_symmetry_space_group_name_H-M "P -1"
_symmetry_group_IT_number 2
_symmetry_cell_setting 'triclinic'
loop_
_space_group_symop_operation_xyz
x,y,z
-x,-y,-z
loop_
_atom_site_type_symbol
_atom_site_label
_atom_site_fract_x
_atom_site_fract_y
_atom_site_fract_z
Si Si1 0.723120 0.352059 0.339259
Si Si2 0.347204 0.310573 0.781750
Si Si3 0.300946 0.926294 0.576385
Si Si4 0.050579 0.302362 0.822366
Si Si5 0.217762 0.278001 0.230941
Si Si6 0.735235 0.311688 0.890381
Si Si7 0.976593 0.224406 0.507718
Si Si8 0.619529 0.091330 0.952345
O O1 0.500000 0.500000 0.500000
O O2 0.740668 0.479695 0.223313
O O3 0.876954 0.265211 0.403019
O O4 0.727984 0.193644 0.300905
O O5 0.179022 0.301944 0.871221
O O6 0.484466 0.216011 0.864438
O O7 0.482237 0.200337 0.588253
O O8 0.218508 0.111660 0.672786
O O9 0.150787 0.009041 0.505093
O O10 0.919223 0.509967 0.787632
O O11 0.885558 0.288949 0.924584
O O12 0.191882 0.677478 0.300092
O O13 0.099114 0.287643 0.419462
O O14 0.259708 0.122055 0.126012
O O15 0.753978 0.135217 0.910218
O O16 0.500000 0.500000 0.000000
O O17 0.549951 0.823088 0.852998
#
# Coordination Sequence:
#
# PCOD9005628 Si02
#       8
#     2   2   2   2   2   2   2   2
#     4  10  21  38  63 103 136 180 230 281 340 407
#     4  11  22  44  67 102 138 182 228 285 347 404
#     4  10  22  38  66 100 139 175 229 291 337 403
#     4  11  24  41  68 102 140 174 225 289 347 401
#     4  11  24  45  69 104 130 187 239 276 338 418
#     4  11  24  44  66 101 139 176 222 286 343 397
#     4  11  22  40  72 100 132 181 239 271 334 424
#     4  11  25  47  72  95 142 185 230 287 335 421
#
# _framework density 26.240849999999998
#
# number of rings (size 3 to 8) (size 9 to 14) (size 15 to 20)
#    0.000    1.250    3.750    2.250    3.500    2.500 
#    0.000    1.250    0.000    3.750    0.000    0.000 
#    0.000    0.000    0.000    0.000    0.000    0.000 
#
# Total GULP energy -89519.250681 kJ/mol
# GULP energy per Si atom -5594.953168 kJ/mol
# Density = 2.618113 g / cm^3
# Si number density = 26.240850 Si / 1000 Ang^3
#
#
#
# Elastic Constant Matrix: (Units=GPa)
#
#
# Indices 1 2 3 4 5 6 
#
# 1 138.8413 65.6779 42.8079 -16.4857 -23.1779 36.1380
# 2 65.6779 168.7202 30.6016 9.9789 8.6443 36.3535
# 3 42.8079 30.6016 148.4728 8.1800 -22.4386 25.7089
# 4 -16.4857 9.9789 8.1800 36.8023 10.4495 -4.9902
# 5 -23.1779 8.6443 -22.4386 10.4495 36.2152 -2.7136
# 6 36.1380 36.3535 25.7089 -4.9902 -2.7136 35.6538
#
#
#
# Elastic Compliance Matrix: (Units=1/GPa)
#
#
# Indices 1 2 3 4 5 6 
#
# 1 0.012827 -0.003839 -0.000794 0.003989 0.006926 -0.007428
# 2 -0.003839 0.009240 -0.000106 -0.003900 -0.004076 -0.006309
# 3 -0.000794 -0.000106 0.009231 -0.004953 0.006219 -0.005964
# 4 0.003989 -0.003900 -0.004953 0.034722 -0.009028 0.007677
# 5 0.006926 -0.004076 0.006219 -0.009028 0.039054 -0.005640
# 6 -0.007428 -0.006309 -0.005964 0.007677 -0.005640 0.046955
#
#
# Mechanical properties :
#
#
# Convention : Reuss Voigt Hill
#
# Bulk Modulus (GPa) = 45.83043 81.57880 63.70462
# Shear Modulus (GPa) = 29.62420 42.86405 36.24412
#
# Velocity S-wave (km/s) = 3.36361 4.04602 3.72050
# Velocity P-wave (km/s) = 5.70862 7.27895 6.54108
#
# Compressibility (1/GPa) = 0.02181956
#
# Stress axis : x y z
#
# Youngs Moduli (GPa) = 77.96173 108.22953 108.32542
#
# Poissons Ratio (x) = 0.41554 0.08598
# Poissons Ratio (y) = 0.29933 0.01149
# Poissons Ratio (z) = 0.06188 0.01148
#
# Static dielectric constant tensor:
#      x y z
#    x 2.109780 -0.020570 -0.044670 
#    y -0.020570 2.083650 -0.000630 
#    z -0.044670 -0.000630 2.116090 
# 
# From -- ./inp_files/513234.got.cif
#   From: 2010.05.17/outbox.cif.g08.bks.cpg/sg2_257_cif.got.tgz:513234.got - 2010.06.03 11:33:40.
