data_PCOD9006839
_publ_section_title
;
Structure prediction by ZEFSAII (Michael W. Deem and Ramdas Pophale) SiO2 
 PCOD9006839
Probable space group: P -1
;
_chemical_formula_sum "Si O2"
_cell_formula_units_Z 16
_cell_length_a 15.216634
_cell_length_b 11.504945
_cell_length_c 8.840697
_cell_angle_alpha 33.804668
_cell_angle_beta 69.786450
_cell_angle_gamma 83.562734
_cell_volume 761.316309
_symmetry_space_group_name_H-M "P -1"
_symmetry_group_IT_number 2
_symmetry_cell_setting 'triclinic'
loop_
_space_group_symop_operation_xyz
x,y,z
-x,-y,-z
loop_
_atom_site_type_symbol
_atom_site_label
_atom_site_fract_x
_atom_site_fract_y
_atom_site_fract_z
Si Si1 0.881439 0.225953 0.974573
Si Si2 0.604280 0.698910 0.715115
Si Si3 0.454480 0.693669 0.313060
Si Si4 0.703875 0.053254 0.494400
Si Si5 0.501315 0.055969 0.673037
Si Si6 0.106278 0.432278 0.671937
Si Si7 0.227838 0.158024 0.760238
Si Si8 0.744425 0.200712 0.647044
O O1 0.795476 0.186988 0.191250
O O2 0.851085 0.999021 0.141172
O O3 0.882674 0.419033 0.647397
O O4 0.990797 0.291565 0.908833
O O5 0.573669 0.902094 0.444577
O O6 0.683227 0.673936 0.572518
O O7 0.661379 0.802181 0.723774
O O8 0.500000 0.500000 0.000000
O O9 0.500000 0.500000 0.500000
O O10 0.503889 0.831628 0.284277
O O11 0.340443 0.683859 0.410262
O O12 0.483390 0.808634 0.007903
O O13 0.612452 0.148521 0.442860
O O14 0.734622 0.081498 0.620560
O O15 0.173054 0.279108 0.769625
O O16 0.151973 0.606197 0.590421
O O17 0.266724 0.988667 0.016039
#
# Coordination Sequence:
#
# PCOD9006839 Si02
#       8
#     2   2   2   2   2   2   2   2
#     4   9  21  42  62  95 122 161 207 263 314 361
#     4  11  24  39  62  92 123 171 213 248 317 369
#     4  10  22  38  62  87 126 167 206 250 306 373
#     4  10  23  42  59  83 136 157 200 268 309 359
#     4  10  22  39  58  89 121 165 208 253 302 370
#     4  10  21  38  70  91 119 163 214 253 312 379
#     4  10  21  41  65  90 129 160 210 258 304 371
#     4  10  22  41  62  94 123 166 205 258 310 372
#
# _framework density 21.016233
#
# number of rings (size 3 to 8) (size 9 to 14) (size 15 to 20)
#    0.000    2.000    1.250    0.750    5.250    0.500 
#    2.250    1.250    0.000    0.000    0.000    0.000 
#    0.000    0.000    0.000    0.000    0.000    0.000 
#
# Total GULP energy -89280.293995 kJ/mol
# GULP energy per Si atom -5580.018375 kJ/mol
# Density = 2.096840 g / cm^3
# Si number density = 21.016233 Si / 1000 Ang^3
#
#
#
# Elastic Constant Matrix: (Units=GPa)
#
#
# Indices 1 2 3 4 5 6 
#
# 1 104.7068 43.4708 33.7531 -2.2304 -19.5330 15.5299
# 2 43.4708 90.7312 31.5353 8.5611 -10.1210 12.1564
# 3 33.7531 31.5353 72.5067 -1.0259 -17.0516 0.4550
# 4 -2.2304 8.5611 -1.0259 24.8829 -10.4380 2.5956
# 5 -19.5330 -10.1210 -17.0516 -10.4380 39.8896 -2.6421
# 6 15.5299 12.1564 0.4550 2.5956 -2.6421 38.5202
#
#
#
# Elastic Compliance Matrix: (Units=1/GPa)
#
#
# Indices 1 2 3 4 5 6 
#
# 1 0.014516 -0.005261 -0.003012 0.005826 0.005735 -0.004156
# 2 -0.005261 0.016091 -0.005290 -0.007125 -0.002792 -0.002606
# 3 -0.003012 -0.005290 0.019156 0.004919 0.006844 0.002796
# 4 0.005826 -0.007125 0.004919 0.050405 0.016176 -0.002445
# 5 0.005735 -0.002792 0.006844 0.016176 0.034311 -0.000248
# 6 -0.004156 -0.002606 0.002796 -0.002445 -0.000248 0.028573
#
#
# Mechanical properties :
#
#
# Convention : Reuss Voigt Hill
#
# Bulk Modulus (GPa) = 44.17658 53.94036 49.05847
# Shear Modulus (GPa) = 25.28759 31.27091 28.27925
#
# Velocity S-wave (km/s) = 3.47254 3.86157 3.67221
# Velocity P-wave (km/s) = 6.09458 6.75308 6.43226
#
# Compressibility (1/GPa) = 0.02263643
#
# Stress axis : x y z
#
# Youngs Moduli (GPa) = 68.88925 62.14619 52.20166
#
# Poissons Ratio (x) = 0.32697 0.15723
# Poissons Ratio (y) = 0.36244 0.27617
# Poissons Ratio (z) = 0.20749 0.32878
#
# Static dielectric constant tensor:
#      x y z
#    x 1.756970 0.014750 -0.024930 
#    y 0.014750 1.773250 -0.038160 
#    z -0.024930 -0.038160 1.828950 
# 
# From -- ./inp_files/306070.got.cif
#   From: 2010.05.17/outbox.cif.g08.bks.cpg/sg2_154_cif.got.tgz:306070.got - 2010.06.03 11:33:40.
