data_PCOD9006382
_publ_section_title
;
Structure prediction by ZEFSAII (Michael W. Deem and Ramdas Pophale) SiO2 
 PCOD9006382
Probable space group: P -1
;
_chemical_formula_sum "Si O2"
_cell_formula_units_Z 14
_cell_length_a 7.936995
_cell_length_b 11.057862
_cell_length_c 10.841280
_cell_angle_alpha 75.934479
_cell_angle_beta 87.232632
_cell_angle_gamma 135.544235
_cell_volume 611.003675
_symmetry_space_group_name_H-M "P -1"
_symmetry_group_IT_number 2
_symmetry_cell_setting 'triclinic'
loop_
_space_group_symop_operation_xyz
x,y,z
-x,-y,-z
loop_
_atom_site_type_symbol
_atom_site_label
_atom_site_fract_x
_atom_site_fract_y
_atom_site_fract_z
Si Si1 0.179421 0.615655 0.343216
Si Si2 0.153860 0.931760 0.031840
Si Si3 0.316900 0.230702 0.771971
Si Si4 0.571573 0.027849 0.347321
Si Si5 0.972498 0.577637 0.097120
Si Si6 0.955401 0.024186 0.359911
Si Si7 0.538572 0.776722 0.831806
O O1 0.378240 0.617265 0.287828
O O2 0.000000 0.500000 0.500000
O O3 0.017079 0.555442 0.241178
O O4 0.366274 0.832094 0.325773
O O5 0.870975 0.780948 0.143059
O O6 0.173638 0.800430 0.025521
O O7 0.355458 0.104751 0.075286
O O8 0.198884 0.039028 0.883536
O O9 0.230138 0.179818 0.646693
O O10 0.829585 0.089651 0.330647
O O11 0.564215 0.161584 0.257634
O O12 0.500000 0.000000 0.500000
O O13 0.679884 0.447124 0.112000
O O14 0.000000 0.500000 0.000000
O O15 0.220605 0.156045 0.251335
O O16 0.000000 0.000000 0.500000
#
# Coordination Sequence:
#
# PCOD9006382 Si02
#       7
#     2   2   2   2   2   2   2
#     4  11  24  44  65 106 145 174 239 294 350 432
#     4  10  22  49  70 100 141 183 241 289 354 421
#     4   9  22  43  74  95 136 193 226 296 358 412
#     4  11  21  40  71  96 139 192 224 285 358 422
#     4  12  27  42  71 108 140 185 237 293 354 432
#     4  10  21  38  65  98 131 179 234 279 347 422
#     4  11  23  44  68 100 139 182 231 285 357 412
#
# _framework density 22.913117
#
# number of rings (size 3 to 8) (size 9 to 14) (size 15 to 20)
#    0.000    1.429    2.857    1.714    6.000    1.143 
#    5.143    7.857    0.000    0.000    0.000    0.000 
#    0.000    0.000    0.000    0.000    0.000    0.000 
#
# Total GULP energy -78000.003315 kJ/mol
# GULP energy per Si atom -5571.428808 kJ/mol
# Density = 2.286097 g / cm^3
# Si number density = 22.913117 Si / 1000 Ang^3
#
#
#
# Elastic Constant Matrix: (Units=GPa)
#
#
# Indices 1 2 3 4 5 6 
#
# 1 113.7761 25.8228 31.6188 7.1883 -25.9159 12.4894
# 2 25.8228 144.3188 40.9016 25.2429 -0.1824 12.3111
# 3 31.6188 40.9016 69.6248 35.8363 3.2078 -3.0260
# 4 7.1883 25.2429 35.8363 34.8445 3.5591 -8.8332
# 5 -25.9159 -0.1824 3.2078 3.5591 33.7018 -0.7855
# 6 12.4894 12.3111 -3.0260 -8.8332 -0.7855 27.8214
#
#
#
# Elastic Compliance Matrix: (Units=1/GPa)
#
#
# Indices 1 2 3 4 5 6 
#
# 1 0.014385 -0.000137 -0.009346 0.004114 0.011381 -0.005786
# 2 -0.000137 0.009209 -0.002988 -0.005144 0.000633 -0.005954
# 3 -0.009346 -0.002988 0.039021 -0.035761 -0.007182 -0.001795
# 4 0.004114 -0.005144 -0.035761 0.073463 -0.000756 0.019843
# 5 0.011381 0.000633 -0.007182 -0.000756 0.039067 -0.005308
# 6 -0.005786 -0.005954 -0.001795 0.019843 -0.005308 0.047131
#
#
# Mechanical properties :
#
#
# Convention : Reuss Voigt Hill
#
# Bulk Modulus (GPa) = 26.54304 58.26734 42.40519
# Shear Modulus (GPa) = 19.24744 34.56529 26.90637
#
# Velocity S-wave (km/s) = 2.90145 3.88820 3.43049
# Velocity P-wave (km/s) = 4.77849 6.75592 5.85134
#
# Compressibility (1/GPa) = 0.03767466
#
# Stress axis : x y z
#
# Youngs Moduli (GPa) = 69.51653 108.59109 25.62707
#
# Poissons Ratio (x) = 0.01486 0.23950
# Poissons Ratio (y) = 0.00951 0.07657
# Poissons Ratio (z) = 0.64967 0.32446
#
# Static dielectric constant tensor:
#      x y z
#    x 2.280500 0.338010 -0.259770 
#    y 0.338010 2.246310 -0.244880 
#    z -0.259770 -0.244880 2.018580 
# 
# From -- ./inp_files/389762.got.cif
#   From: 2010.05.17/outbox.cif.g08.bks.cpg/sg2_195_cif.got.tgz:389762.got - 2010.06.03 11:33:40.
