data_PCOD9006006
_publ_section_title
;
Structure prediction by ZEFSAII (Michael W. Deem and Ramdas Pophale) SiO2 
 PCOD9006006
Probable space group: P -1
;
_chemical_formula_sum "Si O2"
_cell_formula_units_Z 14
_cell_length_a 10.982742
_cell_length_b 11.348448
_cell_length_c 11.516805
_cell_angle_alpha 34.544068
_cell_angle_beta 90.654389
_cell_angle_gamma 114.704050
_cell_volume 564.397099
_symmetry_space_group_name_H-M "P -1"
_symmetry_group_IT_number 2
_symmetry_cell_setting 'triclinic'
loop_
_space_group_symop_operation_xyz
x,y,z
-x,-y,-z
loop_
_atom_site_type_symbol
_atom_site_label
_atom_site_fract_x
_atom_site_fract_y
_atom_site_fract_z
Si Si1 0.722213 0.570485 0.739858
Si Si2 0.291075 0.775072 0.167749
Si Si3 0.137602 0.354967 0.730428
Si Si4 0.336971 0.236573 0.919388
Si Si5 0.152330 0.853508 0.698957
Si Si6 0.434338 0.894975 0.715778
Si Si7 0.799485 0.173152 0.546200
O O1 0.764861 0.414918 0.794593
O O2 0.862706 0.926540 0.442660
O O3 0.537903 0.436533 0.796478
O O4 0.688316 0.451018 0.968193
O O5 0.192867 0.533264 0.466652
O O6 0.280363 0.007443 0.002789
O O7 0.500000 0.000000 0.000000
O O8 0.078207 0.477968 0.709363
O O9 0.299826 0.424598 0.730050
O O10 0.000000 0.000000 0.000000
O O11 0.210358 0.017515 0.203434
O O12 0.318252 0.955158 0.684000
O O13 0.187791 0.895791 0.526629
O O14 0.000000 0.500000 0.000000
O O15 0.500000 0.000000 0.500000
O O16 0.609426 0.052265 0.658629
#
# Coordination Sequence:
#
# PCOD9006006 Si02
#       7
#     2   2   2   2   2   2   2
#     4  10  21  38  64  92 120 162 198 248 309 359
#     4   9  21  39  59  92 122 149 204 252 299 361
#     4  11  23  38  63  88 120 163 204 248 309 357
#     4   9  20  41  66  87 117 157 205 250 297 362
#     4  11  24  38  58  91 128 160 200 249 310 361
#     4   9  20  40  63  86 119 159 209 249 290 368
#     4   9  21  40  60  89 119 156 209 248 291 369
#
# _framework density 24.805230999999999
#
# number of rings (size 3 to 8) (size 9 to 14) (size 15 to 20)
#    0.000    2.286    0.000    1.714    2.000   13.714 
#    2.571    0.000    0.000    0.000    0.000    0.000 
#    0.000    0.000    0.000    0.000    0.000    0.000 
#
# Total GULP energy -78184.751655 kJ/mol
# GULP energy per Si atom -5584.625118 kJ/mol
# Density = 2.474877 g / cm^3
# Si number density = 24.805231 Si / 1000 Ang^3
#
#
#
# Elastic Constant Matrix: (Units=GPa)
#
#
# Indices 1 2 3 4 5 6 
#
# 1 59.6346 16.6071 16.2317 -0.4355 12.5550 -2.3839
# 2 16.6071 72.6909 41.4907 -11.8598 7.4858 -11.9334
# 3 16.2317 41.4907 119.4485 -26.4138 23.2800 -20.6626
# 4 -0.4355 -11.8598 -26.4138 37.0009 -0.1015 3.9001
# 5 12.5550 7.4858 23.2800 -0.1015 27.9551 -13.1926
# 6 -2.3839 -11.9334 -20.6626 3.9001 -13.1926 33.2446
#
#
#
# Elastic Compliance Matrix: (Units=1/GPa)
#
#
# Indices 1 2 3 4 5 6 
#
# 1 0.019825 -0.004187 -0.000289 -0.000933 -0.009372 -0.003871
# 2 -0.004187 0.018388 -0.005435 0.001542 0.003423 0.004100
# 3 -0.000289 -0.005435 0.014306 0.008199 -0.009212 0.002302
# 4 -0.000933 0.001542 0.008199 0.033473 -0.007283 -0.001234
# 5 -0.009372 0.003423 -0.009212 -0.007283 0.054967 0.017498
# 6 -0.003871 0.004100 0.002302 -0.001234 0.017498 0.039794
#
#
# Mechanical properties :
#
#
# Convention : Reuss Voigt Hill
#
# Bulk Modulus (GPa) = 30.58420 44.49255 37.53838
# Shear Modulus (GPa) = 23.64384 31.46976 27.55680
#
# Velocity S-wave (km/s) = 3.09071 3.56571 3.33667
# Velocity P-wave (km/s) = 5.00931 5.91000 5.47819
#
# Compressibility (1/GPa) = 0.03269662
#
# Stress axis : x y z
#
# Youngs Moduli (GPa) = 50.44163 54.38421 69.90293
#
# Poissons Ratio (x) = 0.22769 0.02020
# Poissons Ratio (y) = 0.21119 0.37993
# Poissons Ratio (z) = 0.01457 0.29558
#
# Static dielectric constant tensor:
#      x y z
#    x 2.034280 0.070100 -0.080510 
#    y 0.070100 2.016790 -0.046430 
#    z -0.080510 -0.046430 1.961930 
# 
# From -- ./inp_files/90282.got.cif
#   From: 2010.05.17/outbox.cif.g08.bks.cpg/sg2_46_cif.got.tgz:90282.got - 2010.06.03 11:33:40.
