data_PCOD9006187
_publ_section_title
;
Structure prediction by ZEFSAII (Michael W. Deem and Ramdas Pophale) SiO2 
 PCOD9006187
Probable space group: P -1
;
_chemical_formula_sum "Si O2"
_cell_formula_units_Z 11
_cell_length_a 17.249019
_cell_length_b 8.861549
_cell_length_c 4.800881
_cell_angle_alpha 124.061260
_cell_angle_beta 115.502105
_cell_angle_gamma 41.443540
_cell_volume 402.302965
_symmetry_space_group_name_H-M "P -1"
_symmetry_group_IT_number 2
_symmetry_cell_setting 'triclinic'
loop_
_space_group_symop_operation_xyz
x,y,z
-x,-y,-z
loop_
_atom_site_type_symbol
_atom_site_label
_atom_site_fract_x
_atom_site_fract_y
_atom_site_fract_z
Si Si1 0.623154 0.612362 0.337623
Si Si2 0.752821 0.914276 0.568757
Si Si3 0.000000 0.000000 0.500000
Si Si4 0.397636 0.958466 0.026792
Si Si5 0.860740 0.389010 0.177138
Si Si6 0.198217 0.846855 0.519805
O O1 0.516021 0.706701 0.077319
O O2 0.730679 0.519144 0.213443
O O3 0.679409 0.384075 0.393967
O O4 0.593591 0.837337 0.697905
O O5 0.847871 0.621340 0.348720
O O6 0.711624 0.957424 0.868738
O O7 0.785718 0.054353 0.619297
O O8 0.635087 0.031568 0.330107
O O9 0.050767 0.799161 0.647848
O O10 0.095701 0.038814 0.772617
O O11 0.871469 0.248477 0.769337
#
# Coordination Sequence:
#
# PCOD9006187 Si02
#       6
#     2   2   1   2   2   2
#     4  10  21  38  65  81 131 155 204 236 310 345
#     4  11  23  39  63  90 128 149 210 238 306 346
#     4   8  20  40  62  82 118 154 208 238 322 332
#     4  10  23  39  62  94 119 171 188 249 293 370
#     4   9  21  41  57  89 117 160 195 256 285 367
#     4  10  22  39  60  89 116 161 198 255 289 369
#
# _framework density 27.342578
#
# number of rings (size 3 to 8) (size 9 to 14) (size 15 to 20)
#    1.091    1.091    1.818    0.000    5.091    5.091 
#    0.000    0.000    0.000    6.545    0.000    0.000 
#    0.000    0.000    0.000    0.000    0.000    0.000 
#
# Total GULP energy -61508.792104 kJ/mol
# GULP energy per Si atom -5591.708373 kJ/mol
# Density = 2.728035 g / cm^3
# Si number density = 27.342578 Si / 1000 Ang^3
#
#
#
# Elastic Constant Matrix: (Units=GPa)
#
#
# Indices 1 2 3 4 5 6 
#
# 1 102.2940 22.0863 -3.5378 8.1689 -2.9391 11.2378
# 2 22.0863 174.6746 33.5373 -23.0209 4.5971 14.8670
# 3 -3.5378 33.5373 81.0001 -12.0653 -22.4759 8.4650
# 4 8.1689 -23.0209 -12.0653 45.7068 2.8198 4.3934
# 5 -2.9391 4.5971 -22.4759 2.8198 36.7130 -4.8277
# 6 11.2378 14.8670 8.4650 4.3934 -4.8277 57.0533
#
#
#
# Elastic Compliance Matrix: (Units=1/GPa)
#
#
# Indices 1 2 3 4 5 6 
#
# 1 0.010660 -0.001908 0.001627 -0.002423 0.002079 -0.001481
# 2 -0.001908 0.007320 -0.003440 0.003499 -0.003654 -0.001600
# 3 0.001627 -0.003440 0.017266 0.001985 0.010818 -0.001223
# 4 -0.002423 0.003499 0.001985 0.024972 -0.001703 -0.002796
# 5 0.002079 -0.003654 0.010818 -0.001703 0.034882 0.002020
# 6 -0.001481 -0.001600 -0.001223 -0.002796 0.002020 0.018804
#
#
# Mechanical properties :
#
#
# Convention : Reuss Voigt Hill
#
# Bulk Modulus (GPa) = 35.96660 51.34891 43.65775
# Shear Modulus (GPa) = 38.28069 48.28681 43.28375
#
# Velocity S-wave (km/s) = 3.74577 4.20693 3.98303
# Velocity P-wave (km/s) = 5.64715 6.51293 6.09543
#
# Compressibility (1/GPa) = 0.02780358
#
# Stress axis : x y z
#
# Youngs Moduli (GPa) = 93.80930 136.60928 57.91664
#
# Poissons Ratio (x) = 0.26067 -0.09420
# Poissons Ratio (y) = 0.17900 0.19922
# Poissons Ratio (z) = -0.15258 0.46990
#
# Static dielectric constant tensor:
#      x y z
#    x 2.186880 -0.057080 0.083960 
#    y -0.057080 2.077530 0.095330 
#    z 0.083960 0.095330 2.279740 
# 
# From -- ./inp_files/18853.got.cif
#   From: 2010.05.17/outbox.cif.g08.bks.cpg/sg2_10_cif.got.tgz:18853.got - 2010.06.03 11:33:40.
