data_PCOD9006992
_publ_section_title
;
Structure prediction by ZEFSAII (Michael W. Deem and Ramdas Pophale) SiO2 
 PCOD9006992
Probable space group: P -1
;
_chemical_formula_sum "Si O2"
_cell_formula_units_Z 16
_cell_length_a 14.999210
_cell_length_b 9.406137
_cell_length_c 9.872016
_cell_angle_alpha 56.212718
_cell_angle_beta 110.558867
_cell_angle_gamma 72.271592
_cell_volume 830.742162
_symmetry_space_group_name_H-M "P -1"
_symmetry_group_IT_number 2
_symmetry_cell_setting 'triclinic'
loop_
_space_group_symop_operation_xyz
x,y,z
-x,-y,-z
loop_
_atom_site_type_symbol
_atom_site_label
_atom_site_fract_x
_atom_site_fract_y
_atom_site_fract_z
Si Si1 0.439420 0.386379 0.996908
Si Si2 0.434255 0.095778 0.632460
Si Si3 0.370822 0.539562 0.407139
Si Si4 0.749636 0.356983 0.004688
Si Si5 0.671380 0.922866 0.676055
Si Si6 0.900599 0.966659 0.484216
Si Si7 0.922219 0.479292 0.075593
Si Si8 0.276817 0.761013 0.508516
O O1 0.352428 0.524615 0.749089
O O2 0.500000 0.500000 0.000000
O O3 0.351869 0.450953 0.045877
O O4 0.533660 0.121334 0.164983
O O5 0.396181 0.310427 0.575694
O O6 0.337012 0.169392 0.421080
O O7 0.560335 0.002508 0.672102
O O8 0.500000 0.500000 0.500000
O O9 0.313620 0.610343 0.188708
O O10 0.272573 0.720281 0.369996
O O11 0.857782 0.376688 0.042047
O O12 0.800463 0.127931 0.229778
O O13 0.651688 0.141212 0.507268
O O14 0.803875 0.732418 0.915951
O O15 0.977317 0.702223 0.664800
O O16 0.838804 0.064551 0.547532
O O17 0.000000 0.000000 0.500000
O O18 0.000000 0.500000 0.000000
#
# Coordination Sequence:
#
# PCOD9006992 Si02
#       8
#     2   2   2   2   2   2   2   2
#     4  11  20  35  61  89 119 165 213 256 301 366
#     4  11  21  36  61  86 129 165 204 256 314 372
#     4  12  23  38  61  94 133 169 199 250 328 380
#     4  10  21  39  58  89 126 159 206 261 307 375
#     4  11  19  36  61  92 115 161 214 259 296 373
#     4   9  21  38  60  88 112 157 210 262 300 352
#     4  11  19  34  66  93 112 152 220 270 300 349
#     4  11  22  36  59  92 119 158 207 252 311 373
#
# _framework density 19.259886999999999
#
# number of rings (size 3 to 8) (size 9 to 14) (size 15 to 20)
#    0.000    1.250    6.250    1.500    0.000    0.500 
#    0.000    2.500    0.000    0.750    0.000    0.000 
#    0.000    0.000    0.000    0.000    0.000    0.000 
#
# Total GULP energy -89136.440786 kJ/mol
# GULP energy per Si atom -5571.027549 kJ/mol
# Density = 1.921605 g / cm^3
# Si number density = 19.259887 Si / 1000 Ang^3
#
#
#
# Elastic Constant Matrix: (Units=GPa)
#
#
# Indices 1 2 3 4 5 6 
#
# 1 79.6449 18.4326 15.6034 1.9336 -10.8332 8.8201
# 2 18.4326 69.1245 35.1363 0.2784 -4.8545 6.9660
# 3 15.6034 35.1363 109.1247 -14.5825 -7.3870 -7.9172
# 4 1.9336 0.2784 -14.5825 36.5162 0.9740 -5.7110
# 5 -10.8332 -4.8545 -7.3870 0.9740 22.7666 -3.6642
# 6 8.8201 6.9660 -7.9172 -5.7110 -3.6642 23.9842
#
#
#
# Elastic Compliance Matrix: (Units=1/GPa)
#
#
# Indices 1 2 3 4 5 6 
#
# 1 0.014740 -0.002138 -0.001759 -0.002413 0.005261 -0.005151
# 2 -0.002138 0.019503 -0.007157 -0.004180 -0.000336 -0.008287
# 3 -0.001759 -0.007157 0.013543 0.006930 0.003238 0.009341
# 4 -0.002413 -0.004180 0.006930 0.032195 0.000792 0.012176
# 5 0.005261 -0.000336 0.003238 0.000792 0.048471 0.006825
# 6 -0.005151 -0.008287 0.009341 0.012176 0.006825 0.053021
#
#
# Mechanical properties :
#
#
# Convention : Reuss Voigt Hill
#
# Bulk Modulus (GPa) = 38.94395 44.02652 41.48524
# Shear Modulus (GPa) = 23.56940 29.23485 26.40213
#
# Velocity S-wave (km/s) = 3.50202 3.90027 3.70650
# Velocity P-wave (km/s) = 6.05114 6.57203 6.31696
#
# Compressibility (1/GPa) = 0.02567793
#
# Stress axis : x y z
#
# Youngs Moduli (GPa) = 67.84348 51.27451 73.84090
#
# Poissons Ratio (x) = 0.10963 0.12990
# Poissons Ratio (y) = 0.14505 0.52844
# Poissons Ratio (z) = 0.11935 0.36695
#
# Static dielectric constant tensor:
#      x y z
#    x 1.707260 0.022100 0.001380 
#    y 0.022100 1.678190 -0.041170 
#    z 0.001380 -0.041170 1.769280 
# 
# From -- ./inp_files/223056.got.cif
#   From: 2010.05.17/outbox.cif.g08.bks.cpg/sg2_112_cif.got.tgz:223056.got - 2010.06.03 11:33:40.
