data_PCOD9006059
_publ_section_title
;
Structure prediction by ZEFSAII (Michael W. Deem and Ramdas Pophale) SiO2 
 PCOD9006059
Probable space group: P -1
;
_chemical_formula_sum "Si O2"
_cell_formula_units_Z 16
_cell_length_a 14.432703
_cell_length_b 9.077456
_cell_length_c 14.282639
_cell_angle_alpha 131.538174
_cell_angle_beta 42.441252
_cell_angle_gamma 98.754278
_cell_volume 703.802798
_symmetry_space_group_name_H-M "P -1"
_symmetry_group_IT_number 2
_symmetry_cell_setting 'triclinic'
loop_
_space_group_symop_operation_xyz
x,y,z
-x,-y,-z
loop_
_atom_site_type_symbol
_atom_site_label
_atom_site_fract_x
_atom_site_fract_y
_atom_site_fract_z
Si Si1 0.077224 0.111167 0.428215
Si Si2 0.424715 0.881747 0.187467
Si Si3 0.758801 0.668200 0.144601
Si Si4 0.836370 0.084769 0.089827
Si Si5 0.764698 0.715642 0.942971
Si Si6 0.644925 0.338959 0.684164
Si Si7 0.067448 0.873747 0.160459
Si Si8 0.588036 0.218437 0.488185
O O1 0.907634 0.422460 0.670028
O O2 0.235640 0.076306 0.352314
O O3 0.149564 0.936827 0.206659
O O4 0.000000 0.000000 0.500000
O O5 0.377384 0.822146 0.295941
O O6 0.570276 0.913829 0.116761
O O7 0.547899 0.610520 0.922519
O O8 0.591925 0.745101 0.364675
O O9 0.755354 0.906335 0.259834
O O10 0.723235 0.680832 0.065138
O O11 0.925138 0.361930 0.913021
O O12 0.652644 0.260185 0.363868
O O13 0.835809 0.203176 0.044028
O O14 0.858240 0.837119 0.936968
O O15 0.000000 0.000000 0.000000
O O16 0.556912 0.388197 0.669921
O O17 0.860679 0.151313 0.425072
#
# Coordination Sequence:
#
# PCOD9006059 Si02
#       8
#     2   2   2   2   2   2   2   2
#     4  12  21  39  68 106 132 164 217 273 331 386
#     4  11  21  37  67 103 132 161 212 281 327 381
#     4  10  21  38  64  94 125 162 224 278 314 376
#     4  11  26  46  63  89 133 183 217 264 331 392
#     4  11  22  43  68  98 132 171 217 273 326 388
#     4  11  19  35  65  93 130 165 204 266 333 372
#     4  12  23  40  64  96 133 170 219 268 324 394
#     4  10  21  40  63  90 124 172 217 265 326 379
#
# _framework density 22.733640999999999
#
# number of rings (size 3 to 8) (size 9 to 14) (size 15 to 20)
#    0.000    1.000    6.250    1.500    0.000    1.500 
#    2.250    1.875    0.000    0.000    0.000    0.000 
#    0.000    0.000    0.000    0.000    0.000    0.000 
#
# Total GULP energy -89337.345113 kJ/mol
# GULP energy per Si atom -5583.584070 kJ/mol
# Density = 2.268190 g / cm^3
# Si number density = 22.733641 Si / 1000 Ang^3
#
#
#
# Elastic Constant Matrix: (Units=GPa)
#
#
# Indices 1 2 3 4 5 6 
#
# 1 109.4891 34.0015 24.5856 -6.0170 0.4177 0.1140
# 2 34.0015 56.9300 17.4806 -11.3578 2.9237 -5.3442
# 3 24.5856 17.4806 87.1359 -11.7711 2.0856 -7.3557
# 4 -6.0170 -11.3578 -11.7711 21.4375 -0.5099 7.5153
# 5 0.4177 2.9237 2.0856 -0.5099 33.3314 -10.1429
# 6 0.1140 -5.3442 -7.3557 7.5153 -10.1429 30.5904
#
#
#
# Elastic Compliance Matrix: (Units=1/GPa)
#
#
# Indices 1 2 3 4 5 6 
#
# 1 0.011627 -0.006594 -0.002209 -0.000928 0.000112 -0.001461
# 2 -0.006594 0.024077 -0.001543 0.009675 -0.001483 0.000991
# 3 -0.002209 -0.001543 0.013260 0.005281 -0.000100 0.001596
# 4 -0.000928 0.009675 0.005281 0.058827 -0.004186 -0.012877
# 5 0.000112 -0.001483 -0.000100 -0.004186 0.033700 0.011919
# 6 -0.001461 0.000991 0.001596 -0.012877 0.011919 0.040368
#
#
# Mechanical properties :
#
#
# Convention : Reuss Voigt Hill
#
# Bulk Modulus (GPa) = 35.37240 45.07672 40.22456
# Shear Modulus (GPa) = 23.58755 28.90433 26.24594
#
# Velocity S-wave (km/s) = 3.22461 3.56959 3.40148
# Velocity P-wave (km/s) = 5.42747 6.07129 5.75838
#
# Compressibility (1/GPa) = 0.02827063
#
# Stress axis : x y z
#
# Youngs Moduli (GPa) = 86.00453 41.53310 75.41545
#
# Poissons Ratio (x) = 0.27388 0.16661
# Poissons Ratio (y) = 0.56713 0.11640
# Poissons Ratio (z) = 0.19000 0.06410
#
# Static dielectric constant tensor:
#      x y z
#    x 1.894550 0.008830 -0.017980 
#    y 0.008830 1.842850 0.008900 
#    z -0.017980 0.008900 1.879700 
# 
# From -- ./inp_files/530119.got.cif
#   From: 2010.05.17/outbox.cif.g08.bks.cpg/sg2_266_cif.got.tgz:530119.got - 2010.06.03 11:33:40.
