data_PCOD9006803
_publ_section_title
;
Structure prediction by ZEFSAII (Michael W. Deem and Ramdas Pophale) SiO2 
 PCOD9006803
Probable space group: P -1
;
_chemical_formula_sum "Si O2"
_cell_formula_units_Z 16
_cell_length_a 18.903309
_cell_length_b 22.138871
_cell_length_c 13.273372
_cell_angle_alpha 145.350098
_cell_angle_beta 27.785161
_cell_angle_gamma 162.891081
_cell_volume 751.082496
_symmetry_space_group_name_H-M "P -1"
_symmetry_group_IT_number 2
_symmetry_cell_setting 'triclinic'
loop_
_space_group_symop_operation_xyz
x,y,z
-x,-y,-z
loop_
_atom_site_type_symbol
_atom_site_label
_atom_site_fract_x
_atom_site_fract_y
_atom_site_fract_z
Si Si1 0.134576 0.969677 0.255195
Si Si2 0.808756 0.490775 0.855252
Si Si3 0.224667 0.293764 0.853332
Si Si4 0.180111 0.586217 0.041676
Si Si5 0.145393 0.801389 0.177189
Si Si6 0.249231 0.763628 0.514185
Si Si7 0.891074 0.642549 0.492232
Si Si8 0.850038 0.686066 0.817220
O O1 0.055708 0.830575 0.243587
O O2 0.000109 0.864834 0.170935
O O3 0.489024 0.192323 0.109562
O O4 0.000000 0.000000 0.500000
O O5 0.675314 0.307458 0.716692
O O6 0.145494 0.699573 0.672672
O O7 0.672700 0.521717 0.039595
O O8 0.800129 0.464043 0.946666
O O9 0.532422 0.415446 0.627208
O O10 0.064931 0.192708 0.025309
O O11 0.003738 0.402222 0.937092
O O12 0.026463 0.606559 0.283189
O O13 0.027323 0.768025 0.388888
O O14 0.500000 0.000000 0.000000
O O15 0.959018 0.634224 0.642906
O O16 0.500000 0.000000 0.500000
O O17 0.961149 0.756917 0.659459
O O18 0.500000 0.500000 0.000000
#
# Coordination Sequence:
#
# PCOD9006803 Si02
#       8
#     2   2   2   2   2   2   2   2
#     4  12  28  46  71 104 137 184 235 292 352 413
#     4  10  22  39  64 104 132 171 230 284 337 405
#     4  10  23  44  70  99 142 178 232 290 347 410
#     4  12  25  44  71 101 137 182 234 286 350 418
#     4  12  27  46  70 102 139 178 237 288 350 421
#     4  10  21  38  69  95 134 182 228 279 338 404
#     4  11  23  43  71  98 140 189 223 289 351 413
#     4   9  20  39  65  97 133 177 218 274 346 401
#
# _framework density 21.302586000000002
#
# number of rings (size 3 to 8) (size 9 to 14) (size 15 to 20)
#    0.000    1.250    3.750    1.125    7.000    2.000 
#    0.000    0.000    0.000    8.250    0.000    0.000 
#    0.000    0.000    0.000    0.000    0.000    0.000 
#
# Total GULP energy -89315.173569 kJ/mol
# GULP energy per Si atom -5582.198348 kJ/mol
# Density = 2.125410 g / cm^3
# Si number density = 21.302586 Si / 1000 Ang^3
#
#
#
# Elastic Constant Matrix: (Units=GPa)
#
#
# Indices 1 2 3 4 5 6 
#
# 1 97.9232 32.6619 50.7496 -0.5099 26.2996 7.7742
# 2 32.6619 93.1316 53.4907 -2.7562 1.0818 -9.1261
# 3 50.7496 53.4907 145.9956 0.9138 7.9151 7.8429
# 4 -0.5099 -2.7562 0.9138 25.7227 -2.5943 1.8411
# 5 26.2996 1.0818 7.9151 -2.5943 64.1096 -2.2505
# 6 7.7742 -9.1261 7.8429 1.8411 -2.2505 24.8057
#
#
#
# Elastic Compliance Matrix: (Units=1/GPa)
#
#
# Indices 1 2 3 4 5 6 
#
# 1 0.015290 -0.004028 -0.003200 -0.000207 -0.006021 -0.005793
# 2 -0.004028 0.015929 -0.005048 0.001414 0.002374 0.008829
# 3 -0.003200 -0.005048 0.010030 -0.000677 -0.000007 -0.003976
# 4 -0.000207 0.001414 -0.000677 0.039357 0.001668 -0.001971
# 5 -0.006021 0.002374 -0.000007 0.001668 0.018247 0.004294
# 6 -0.005793 0.008829 -0.003976 -0.001971 0.004294 0.047170
#
#
# Mechanical properties :
#
#
# Convention : Reuss Voigt Hill
#
# Bulk Modulus (GPa) = 59.89335 67.87275 63.88305
# Shear Modulus (GPa) = 28.38644 36.27081 32.32862
#
# Velocity S-wave (km/s) = 3.65435 4.13079 3.89985
# Velocity P-wave (km/s) = 6.78102 7.39471 7.09450
#
# Compressibility (1/GPa) = 0.01669635
#
# Stress axis : x y z
#
# Youngs Moduli (GPa) = 65.40147 62.77935 99.70534
#
# Poissons Ratio (x) = 0.25289 0.31908
# Poissons Ratio (y) = 0.26345 0.50328
# Poissons Ratio (z) = 0.20930 0.31689
#
# Static dielectric constant tensor:
#      x y z
#    x 1.823940 0.018210 0.029270 
#    y 0.018210 1.772940 0.003710 
#    z 0.029270 0.003710 1.769980 
# 
# From -- ./inp_files/467134.got.cif
#   From: 2010.05.17/outbox.cif.g08.bks.cpg/sg2_234_cif.got.tgz:467134.got - 2010.06.03 11:33:40.
