data_PCOD9006706
_publ_section_title
;
Structure prediction by ZEFSAII (Michael W. Deem and Ramdas Pophale) SiO2 
 PCOD9006706
Probable space group: P -1
;
_chemical_formula_sum "Si O2"
_cell_formula_units_Z 12
_cell_length_a 10.504449
_cell_length_b 11.247136
_cell_length_c 5.032962
_cell_angle_alpha 126.522803
_cell_angle_beta 89.530158
_cell_angle_gamma 105.287920
_cell_volume 452.375756
_symmetry_space_group_name_H-M "P -1"
_symmetry_group_IT_number 2
_symmetry_cell_setting 'triclinic'
loop_
_space_group_symop_operation_xyz
x,y,z
-x,-y,-z
loop_
_atom_site_type_symbol
_atom_site_label
_atom_site_fract_x
_atom_site_fract_y
_atom_site_fract_z
Si Si1 0.766377 0.915157 0.357065
Si Si2 0.647452 0.614930 0.581243
Si Si3 0.968110 0.328399 0.161767
Si Si4 0.328776 0.703310 0.855724
Si Si5 0.519168 0.791788 0.470726
Si Si6 0.007787 0.172409 0.457114
O O1 0.635955 0.937126 0.534676
O O2 0.876765 0.895347 0.537841
O O3 0.858938 0.053268 0.354787
O O4 0.704583 0.762177 0.968742
O O5 0.500000 0.500000 0.500000
O O6 0.722572 0.487293 0.430235
O O7 0.612573 0.683434 0.396510
O O8 0.806756 0.254738 0.076465
O O9 0.024220 0.227049 0.228839
O O10 0.000000 0.500000 0.500000
O O11 0.018848 0.315266 0.847839
O O12 0.433740 0.789964 0.736891
O O13 0.409083 0.728274 0.162896
#
# Coordination Sequence:
#
# PCOD9006706 Si02
#       6
#     2   2   2   2   2   2
#     4  11  25  45  73 103 142 176 234 292 348 396
#     4  10  21  38  68 104 134 172 224 289 336 397
#     4  12  27  50  70  99 140 188 234 277 342 425
#     4  11  24  40  69 103 137 176 232 280 345 406
#     4  11  22  40  68 104 133 175 225 291 343 390
#     4  11  29  46  71 102 138 188 232 281 345 417
#
# _framework density 26.526619
#
# number of rings (size 3 to 8) (size 9 to 14) (size 15 to 20)
#    0.000    1.000    3.333    3.000    9.333    1.333 
#    0.000    5.000    0.000    0.000    0.000    0.000 
#    0.000    0.000    0.000    0.000    0.000    0.000 
#
# Total GULP energy -67201.694594 kJ/mol
# GULP energy per Si atom -5600.141216 kJ/mol
# Density = 2.646624 g / cm^3
# Si number density = 26.526619 Si / 1000 Ang^3
#
#
#
# Elastic Constant Matrix: (Units=GPa)
#
#
# Indices 1 2 3 4 5 6 
#
# 1 97.4081 23.6573 16.6055 -21.9242 -1.1912 25.8949
# 2 23.6573 82.7438 39.5874 -16.3085 22.0969 13.5065
# 3 16.6055 39.5874 143.8842 -5.1140 16.6935 3.0083
# 4 -21.9242 -16.3085 -5.1140 49.3777 7.0514 7.2167
# 5 -1.1912 22.0969 16.6935 7.0514 38.1646 2.0512
# 6 25.8949 13.5065 3.0083 7.2167 2.0512 42.7133
#
#
#
# Elastic Compliance Matrix: (Units=1/GPa)
#
#
# Indices 1 2 3 4 5 6 
#
# 1 0.015090 -0.000721 -0.001111 0.007765 0.000487 -0.010177
# 2 -0.000721 0.019637 -0.003615 0.008296 -0.011000 -0.006391
# 3 -0.001111 -0.003615 0.008180 -0.000846 -0.001441 0.001453
# 4 0.007765 0.008296 -0.000846 0.029359 -0.008981 -0.011800
# 5 0.000487 -0.011000 -0.001441 -0.008981 0.034708 0.003135
# 6 -0.010177 -0.006391 0.001453 -0.011800 0.003135 0.033344
#
#
# Mechanical properties :
#
#
# Convention : Reuss Voigt Hill
#
# Bulk Modulus (GPa) = 31.23769 53.74851 42.49310
# Shear Modulus (GPa) = 30.88678 42.33019 36.60848
#
# Velocity S-wave (km/s) = 3.41599 3.99903 3.71895
# Velocity P-wave (km/s) = 5.23069 6.45206 5.87321
#
# Compressibility (1/GPa) = 0.03201261
#
# Stress axis : x y z
#
# Youngs Moduli (GPa) = 66.27073 50.92359 122.25620
#
# Poissons Ratio (x) = 0.03673 0.13580
# Poissons Ratio (y) = 0.04780 0.44194
# Poissons Ratio (z) = 0.07361 0.18408
#
# Static dielectric constant tensor:
#      x y z
#    x 2.113220 -0.009650 -0.057900 
#    y -0.009650 2.171110 0.075320 
#    z -0.057900 0.075320 2.077360 
# 
# From -- ./inp_files/68033.got.cif
#   From: 2010.05.17/outbox.cif.g08.bks.cpg/sg2_35_cif.got.tgz:68033.got - 2010.06.03 11:33:40.
