data_PCOD9006440
_publ_section_title
;
Structure prediction by ZEFSAII (Michael W. Deem and Ramdas Pophale) SiO2 
 PCOD9006440
Probable space group: P -1
;
_chemical_formula_sum "Si O2"
_cell_formula_units_Z 14
_cell_length_a 8.330253
_cell_length_b 7.838890
_cell_length_c 12.519070
_cell_angle_alpha 48.143462
_cell_angle_beta 72.675928
_cell_angle_gamma 61.380608
_cell_volume 534.193356
_symmetry_space_group_name_H-M "P -1"
_symmetry_group_IT_number 2
_symmetry_cell_setting 'triclinic'
loop_
_space_group_symop_operation_xyz
x,y,z
-x,-y,-z
loop_
_atom_site_type_symbol
_atom_site_label
_atom_site_fract_x
_atom_site_fract_y
_atom_site_fract_z
Si Si1 0.897289 0.606832 0.296736
Si Si2 0.557895 0.303038 0.331984
Si Si3 0.012595 0.250208 0.000209
Si Si4 0.374164 0.267267 0.965849
Si Si5 0.350498 0.851284 0.853778
Si Si6 0.186161 0.741728 0.264896
Si Si7 0.306667 0.729888 0.467135
O O1 0.843869 0.379790 0.427366
O O2 0.009697 0.678017 0.336167
O O3 0.718536 0.861193 0.217366
O O4 0.003173 0.596763 0.169173
O O5 0.586432 0.159668 0.276140
O O6 0.347800 0.479061 0.319400
O O7 0.652921 0.152168 0.482175
O O8 0.637321 0.516040 0.205155
O O9 0.164025 0.311891 0.012405
O O10 0.819866 0.237441 0.074629
O O11 0.137492 0.947636 0.095058
O O12 0.487783 0.289172 0.036978
O O13 0.500000 0.000000 0.000000
O O14 0.238446 0.854845 0.313981
O O15 0.500000 0.500000 0.500000
#
# Coordination Sequence:
#
# PCOD9006440 Si02
#       7
#     2   2   2   2   2   2   2
#     4  11  20  41  63  88 120 161 208 246 299 370
#     4  11  21  40  57  93 127 154 199 261 301 353
#     4  11  22  39  65  93 119 162 206 245 300 370
#     4  12  20  36  65  88 123 163 203 239 306 361
#     4  11  24  37  60  97 129 151 199 263 307 349
#     4  10  21  38  66  88 118 163 207 247 296 368
#     4  10  22  39  63  86 118 164 210 243 297 371
#
# _framework density 26.207735
#
# number of rings (size 3 to 8) (size 9 to 14) (size 15 to 20)
#    0.000    1.143    4.286    3.429    2.000    0.571 
#    2.571    5.714    0.000    0.000    0.000    0.000 
#    0.000    0.000    0.000    0.000    0.000    0.000 
#
# Total GULP energy -78241.955373 kJ/mol
# GULP energy per Si atom -5588.711098 kJ/mol
# Density = 2.614809 g / cm^3
# Si number density = 26.207735 Si / 1000 Ang^3
#
#
#
# Elastic Constant Matrix: (Units=GPa)
#
#
# Indices 1 2 3 4 5 6 
#
# 1 166.5520 28.1759 35.6549 11.8438 20.5299 -1.0230
# 2 28.1759 48.4957 12.3330 19.4400 6.2669 -2.5233
# 3 35.6549 12.3330 103.2503 21.8899 9.4080 -0.4569
# 4 11.8438 19.4400 21.8899 34.3751 20.9154 6.8361
# 5 20.5299 6.2669 9.4080 20.9154 48.1549 3.5407
# 6 -1.0230 -2.5233 -0.4569 6.8361 3.5407 33.4842
#
#
#
# Elastic Compliance Matrix: (Units=1/GPa)
#
#
# Indices 1 2 3 4 5 6 
#
# 1 0.007580 -0.005043 -0.002597 0.004425 -0.003941 -0.000671
# 2 -0.005043 0.031694 0.002257 -0.023265 0.007230 0.006250
# 3 -0.002597 0.002257 0.012246 -0.010244 0.002719 0.002062
# 4 0.004425 -0.023265 -0.010244 0.064205 -0.023836 -0.012345
# 5 -0.003941 0.007230 0.002719 -0.023836 0.031178 0.002031
# 6 -0.000671 0.006250 0.002062 -0.012345 0.002031 0.032649
#
#
# Mechanical properties :
#
#
# Convention : Reuss Voigt Hill
#
# Bulk Modulus (GPa) = 24.53831 52.29173 38.41502
# Shear Modulus (GPa) = 24.52154 39.34512 31.93333
#
# Velocity S-wave (km/s) = 3.06218 3.87884 3.49445
# Velocity P-wave (km/s) = 4.67824 6.32903 5.56518
#
# Compressibility (1/GPa) = 0.04075260
#
# Stress axis : x y z
#
# Youngs Moduli (GPa) = 131.92135 31.55217 81.66135
#
# Poissons Ratio (x) = 0.15912 0.21211
# Poissons Ratio (y) = 0.66531 -0.18432
# Poissons Ratio (z) = 0.34265 -0.07122
#
# Static dielectric constant tensor:
#      x y z
#    x 2.068950 0.051750 -0.000250 
#    y 0.051750 2.147180 0.009500 
#    z -0.000250 0.009500 2.041980 
# 
# From -- ./inp_files/159277.got.cif
#   From: 2010.05.17/outbox.cif.g08.bks.cpg/sg2_80_cif.got.tgz:159277.got - 2010.06.03 11:33:40.
