data_PCOD9006419
_publ_section_title
;
Structure prediction by ZEFSAII (Michael W. Deem and Ramdas Pophale) SiO2 
 PCOD9006419
Probable space group: P -1
;
_chemical_formula_sum "Si O2"
_cell_formula_units_Z 14
_cell_length_a 8.629786
_cell_length_b 10.599009
_cell_length_c 8.933232
_cell_angle_alpha 76.442528
_cell_angle_beta 47.581678
_cell_angle_gamma 80.932075
_cell_volume 586.405273
_symmetry_space_group_name_H-M "P -1"
_symmetry_group_IT_number 2
_symmetry_cell_setting 'triclinic'
loop_
_space_group_symop_operation_xyz
x,y,z
-x,-y,-z
loop_
_atom_site_type_symbol
_atom_site_label
_atom_site_fract_x
_atom_site_fract_y
_atom_site_fract_z
Si Si1 0.429943 0.355152 0.636804
Si Si2 0.313512 0.089155 0.664419
Si Si3 0.115852 0.101953 0.501607
Si Si4 0.352929 0.652074 0.068214
Si Si5 0.575180 0.061225 0.088783
Si Si6 0.860098 0.348904 0.504588
Si Si7 0.781170 0.563965 0.956557
O O1 0.500000 0.500000 0.500000
O O2 0.358892 0.244374 0.598309
O O3 0.641757 0.298150 0.590987
O O4 0.253969 0.378457 0.872555
O O5 0.121217 0.067626 0.683040
O O6 0.500000 0.000000 0.500000
O O7 0.302804 0.038212 0.855763
O O8 0.358962 0.102243 0.298307
O O9 0.011590 0.237271 0.493745
O O10 0.000000 0.000000 0.500000
O O11 0.222050 0.583323 0.308325
O O12 0.285560 0.586194 0.975829
O O13 0.309036 0.803706 0.053616
O O14 0.595804 0.629386 0.958804
O O15 0.500000 0.000000 0.000000
O O16 0.991795 0.419107 0.269692
#
# Coordination Sequence:
#
# PCOD9006419 Si02
#       7
#     2   2   2   2   2   2   2
#     4  11  26  45  72 102 147 189 236 303 372 432
#     4  10  24  43  72 104 145 191 237 298 371 431
#     4  11  23  42  70 103 139 188 247 301 357 435
#     4  10  21  38  66 102 137 187 235 292 357 429
#     4  11  21  41  71 101 146 190 237 293 369 432
#     4  11  22  43  69 101 137 185 244 297 360 430
#     4  10  22  40  67 101 139 188 239 291 361 431
#
# _framework density 23.874272999999999
#
# number of rings (size 3 to 8) (size 9 to 14) (size 15 to 20)
#    0.000    1.429    1.429    4.714    4.000    2.857 
#    0.000    2.857    6.286    0.000    0.000    0.000 
#    0.000    0.000    0.000    0.000    0.000    0.000 
#
# Total GULP energy -78205.796568 kJ/mol
# GULP energy per Si atom -5586.128326 kJ/mol
# Density = 2.381993 g / cm^3
# Si number density = 23.874273 Si / 1000 Ang^3
#
#
#
# Elastic Constant Matrix: (Units=GPa)
#
#
# Indices 1 2 3 4 5 6 
#
# 1 115.3791 36.1311 23.1747 2.9299 26.2489 -2.3211
# 2 36.1311 121.5959 25.2078 3.1760 18.9327 14.5090
# 3 23.1747 25.2078 116.2602 5.1920 -11.7496 8.7490
# 4 2.9299 3.1760 5.1920 33.5113 -1.4332 7.8414
# 5 26.2489 18.9327 -11.7496 -1.4332 38.0083 5.6596
# 6 -2.3211 14.5090 8.7490 7.8414 5.6596 40.2089
#
#
#
# Elastic Compliance Matrix: (Units=1/GPa)
#
#
# Indices 1 2 3 4 5 6 
#
# 1 0.012031 -0.001944 -0.003077 -0.001622 -0.008894 0.003633
# 2 -0.001944 0.010160 -0.002002 0.000003 -0.003922 -0.002791
# 3 -0.003077 -0.002002 0.010544 -0.000265 0.006766 -0.002650
# 4 -0.001622 0.000003 -0.000265 0.031724 0.003227 -0.006678
# 5 -0.008894 -0.003922 0.006766 0.003227 0.037586 -0.006490
# 6 0.003633 -0.002791 -0.002650 -0.006678 -0.006490 0.028879
#
#
# Mechanical properties :
#
#
# Convention : Reuss Voigt Hill
#
# Bulk Modulus (GPa) = 53.50200 58.02916 55.76558
# Shear Modulus (GPa) = 33.06896 40.26048 36.66472
#
# Velocity S-wave (km/s) = 3.72577 4.11098 3.92311
# Velocity P-wave (km/s) = 6.40055 6.84781 6.62795
#
# Compressibility (1/GPa) = 0.01869089
#
# Stress axis : x y z
#
# Youngs Moduli (GPa) = 83.11590 98.42407 94.84210
#
# Poissons Ratio (x) = 0.19129 0.29181
# Poissons Ratio (y) = 0.16154 0.18987
# Poissons Ratio (z) = 0.25573 0.19704
#
# Static dielectric constant tensor:
#      x y z
#    x 1.906580 -0.009050 -0.010170 
#    y -0.009050 1.934420 -0.045460 
#    z -0.010170 -0.045460 1.956890 
# 
# From -- ./inp_files/186336.got.cif
#   From: 2010.05.17/outbox.cif.g08.bks.cpg/sg2_94_cif.got.tgz:186336.got - 2010.06.03 11:33:40.
