data_PCOD9006821
_publ_section_title
;
Structure prediction by ZEFSAII (Michael W. Deem and Ramdas Pophale) SiO2 
 PCOD9006821
Probable space group: P -1
;
_chemical_formula_sum "Si O2"
_cell_formula_units_Z 16
_cell_length_a 12.266768
_cell_length_b 16.117100
_cell_length_c 12.023530
_cell_angle_alpha 44.631259
_cell_angle_beta 55.379311
_cell_angle_gamma 27.665173
_cell_volume 761.193657
_symmetry_space_group_name_H-M "P -1"
_symmetry_group_IT_number 2
_symmetry_cell_setting 'triclinic'
loop_
_space_group_symop_operation_xyz
x,y,z
-x,-y,-z
loop_
_atom_site_type_symbol
_atom_site_label
_atom_site_fract_x
_atom_site_fract_y
_atom_site_fract_z
Si Si1 0.906906 0.632404 0.814603
Si Si2 0.086387 0.014384 0.782305
Si Si3 0.816879 0.200559 0.280700
Si Si4 0.104162 0.569327 0.305997
Si Si5 0.289759 0.678752 0.140228
Si Si6 0.767850 0.991675 0.645258
Si Si7 0.777887 0.632345 0.336917
Si Si8 0.474573 0.153382 0.335254
O O1 0.676611 0.735287 0.797792
O O2 0.100063 0.485257 0.740755
O O3 0.832746 0.822892 0.703561
O O4 0.000000 0.500000 0.000000
O O5 0.099580 0.907826 0.782143
O O6 0.260260 0.992522 0.678246
O O7 0.214328 0.858505 0.961899
O O8 0.815462 0.247371 0.745102
O O9 0.566666 0.452510 0.182211
O O10 0.767495 0.114137 0.457934
O O11 0.016194 0.138806 0.272570
O O12 0.153331 0.670722 0.168942
O O13 0.118032 0.524089 0.471588
O O14 0.318386 0.341114 0.336883
O O15 0.865043 0.697665 0.264794
O O16 0.507511 0.169136 0.682490
O O17 0.500000 0.000000 0.500000
#
# Coordination Sequence:
#
# PCOD9006821 Si02
#       8
#     2   2   2   2   2   2   2   2
#     4  11  27  43  64  99 140 180 218 283 350 410
#     4  11  25  41  67  99 132 175 223 289 344 393
#     4  11  24  43  67  91 136 174 229 276 322 415
#     4  10  21  38  70 100 130 170 230 292 334 386
#     4  11  24  41  65 101 130 171 224 280 348 390
#     4  11  25  43  65  96 130 186 223 262 342 412
#     4  10  22  42  65  99 131 176 227 284 334 404
#     4  11  23  41  72 103 134 174 232 289 337 404
#
# _framework density 21.019618000000001
#
# number of rings (size 3 to 8) (size 9 to 14) (size 15 to 20)
#    0.000    1.250    2.500    1.875   10.500    2.500 
#    2.250    2.500    0.000    0.000    0.000    0.000 
#    0.000    0.000    0.000    0.000    0.000    0.000 
#
# Total GULP energy -89356.484121 kJ/mol
# GULP energy per Si atom -5584.780258 kJ/mol
# Density = 2.097178 g / cm^3
# Si number density = 21.019618 Si / 1000 Ang^3
#
#
#
# Elastic Constant Matrix: (Units=GPa)
#
#
# Indices 1 2 3 4 5 6 
#
# 1 101.7666 65.0682 13.9464 11.9640 6.5271 -8.7055
# 2 65.0682 209.4106 46.6104 14.6709 29.1357 -23.0013
# 3 13.9464 46.6104 68.5284 7.1067 14.3886 -10.7596
# 4 11.9640 14.6709 7.1067 24.6354 6.2436 -2.4909
# 5 6.5271 29.1357 14.3886 6.2436 42.2267 -10.3556
# 6 -8.7055 -23.0013 -10.7596 -2.4909 -10.3556 50.1474
#
#
#
# Elastic Compliance Matrix: (Units=1/GPa)
#
#
# Indices 1 2 3 4 5 6 
#
# 1 0.012703 -0.003836 0.000269 -0.004249 0.001360 0.000573
# 2 -0.003836 0.007297 -0.003296 -0.000663 -0.002891 0.001344
# 3 0.000269 -0.003296 0.017938 -0.002385 -0.003130 0.001619
# 4 -0.004249 -0.000663 -0.002385 0.044922 -0.004791 -0.000312
# 5 0.001360 -0.002891 -0.003130 -0.004791 0.028178 0.003819
# 6 0.000573 0.001344 0.001619 -0.000312 0.003819 0.021778
#
#
# Mechanical properties :
#
#
# Convention : Reuss Voigt Hill
#
# Bulk Modulus (GPa) = 41.29953 70.10619 55.70286
# Shear Modulus (GPa) = 32.33892 40.34060 36.33976
#
# Velocity S-wave (km/s) = 3.92664 4.38561 4.16245
# Velocity P-wave (km/s) = 6.34419 7.68569 7.04694
#
# Compressibility (1/GPa) = 0.02421335
#
# Stress axis : x y z
#
# Youngs Moduli (GPa) = 78.71917 137.04242 55.74685
#
# Poissons Ratio (x) = 0.52563 -0.01497
# Poissons Ratio (y) = 0.30193 0.18372
# Poissons Ratio (z) = -0.02114 0.45165
#
# Static dielectric constant tensor:
#      x y z
#    x 1.735970 -0.058670 -0.005850 
#    y -0.058670 1.704880 -0.021780 
#    z -0.005850 -0.021780 1.775270 
# 
# From -- ./inp_files/432564.got.cif
#   From: 2010.05.17/outbox.cif.g08.bks.cpg/sg2_217_cif.got.tgz:432564.got - 2010.06.03 11:33:40.
