data_PCOD9006333
_publ_section_title
;
Structure prediction by ZEFSAII (Michael W. Deem and Ramdas Pophale) SiO2 
 PCOD9006333
Probable space group: P -1
;
_chemical_formula_sum "Si O2"
_cell_formula_units_Z 14
_cell_length_a 18.407627
_cell_length_b 7.745527
_cell_length_c 7.020758
_cell_angle_alpha 54.337821
_cell_angle_beta 56.266079
_cell_angle_gamma 47.196925
_cell_volume 575.024754
_symmetry_space_group_name_H-M "P -1"
_symmetry_group_IT_number 2
_symmetry_cell_setting 'triclinic'
loop_
_space_group_symop_operation_xyz
x,y,z
-x,-y,-z
loop_
_atom_site_type_symbol
_atom_site_label
_atom_site_fract_x
_atom_site_fract_y
_atom_site_fract_z
Si Si1 0.938230 0.800624 0.400094
Si Si2 0.840286 0.681729 0.102832
Si Si3 0.249815 0.155175 0.472569
Si Si4 0.396527 0.593520 0.708395
Si Si5 0.367730 0.244973 0.728473
Si Si6 0.418997 0.255278 0.207479
Si Si7 0.022834 0.125561 0.130286
O O1 0.821807 0.870343 0.559767
O O2 0.000000 0.500000 0.500000
O O3 0.933234 0.913000 0.123944
O O4 0.995435 0.917577 0.353467
O O5 0.823535 0.671536 0.361561
O O6 0.727997 0.790517 0.112384
O O7 0.919062 0.399185 0.104324
O O8 0.894923 0.839697 0.893400
O O9 0.326572 0.243652 0.247893
O O10 0.326537 0.887769 0.627234
O O11 0.500000 0.500000 0.500000
O O12 0.340729 0.484447 0.736813
O O13 0.422451 0.474390 0.955882
O O14 0.391867 0.288582 0.448608
O O15 0.472378 0.003008 0.805924
#
# Coordination Sequence:
#
# PCOD9006333 Si02
#       7
#     2   2   2   2   2   2   2
#     4  10  21  38  65  95 126 167 224 278 340 398
#     4   9  19  39  63  87 131 178 218 271 333 395
#     4  10  22  40  60  94 131 173 225 275 334 407
#     4  12  24  41  67  95 133 180 228 276 337 400
#     4  10  21  41  65  94 132 177 225 276 335 403
#     4  10  23  43  62  92 137 172 221 284 330 400
#     4   9  19  39  62  89 130 169 216 279 330 396
#
# _framework density 24.346776999999999
#
# number of rings (size 3 to 8) (size 9 to 14) (size 15 to 20)
#    0.000    2.000    1.429    1.286    0.000    5.143 
#    0.000    9.286    0.000    0.000    0.000    0.000 
#    0.000    0.000    0.000    0.000    0.000    0.000 
#
# Total GULP energy -78295.368178 kJ/mol
# GULP energy per Si atom -5592.526298 kJ/mol
# Density = 2.429136 g / cm^3
# Si number density = 24.346777 Si / 1000 Ang^3
#
#
#
# Elastic Constant Matrix: (Units=GPa)
#
#
# Indices 1 2 3 4 5 6 
#
# 1 133.1059 12.1546 39.0968 2.7474 -36.7318 -5.7519
# 2 12.1546 56.4751 25.8791 2.2665 -5.6386 2.5543
# 3 39.0968 25.8791 131.1671 -2.8352 -14.6398 -9.7877
# 4 2.7474 2.2665 -2.8352 34.6004 1.0513 -8.1271
# 5 -36.7318 -5.6386 -14.6398 1.0513 38.9387 5.6444
# 6 -5.7519 2.5543 -9.7877 -8.1271 5.6444 38.9618
#
#
#
# Elastic Compliance Matrix: (Units=1/GPa)
#
#
# Indices 1 2 3 4 5 6 
#
# 1 0.010790 -0.000295 -0.002180 -0.001445 0.009442 -0.000605
# 2 -0.000295 0.019980 -0.003953 -0.002383 0.001640 -0.003081
# 3 -0.002180 -0.003953 0.009337 0.001792 0.000457 0.002590
# 4 -0.001445 -0.002383 0.001792 0.031125 -0.002935 0.007311
# 5 0.009442 0.001640 0.000457 -0.002935 0.035713 -0.004385
# 6 -0.000605 -0.003081 0.002590 0.007311 -0.004385 0.028590
#
#
# Mechanical properties :
#
#
# Convention : Reuss Voigt Hill
#
# Bulk Modulus (GPa) = 36.69606 52.77877 44.73742
# Shear Modulus (GPa) = 31.75136 38.74134 35.24635
#
# Velocity S-wave (km/s) = 3.61519 3.99335 3.80897
# Velocity P-wave (km/s) = 5.70361 6.55648 6.14486
#
# Compressibility (1/GPa) = 0.02725088
#
# Stress axis : x y z
#
# Youngs Moduli (GPa) = 92.68228 50.04925 107.10498
#
# Poissons Ratio (x) = 0.01476 0.23352
# Poissons Ratio (y) = 0.02734 0.42334
# Poissons Ratio (z) = 0.20208 0.19782
#
# Static dielectric constant tensor:
#      x y z
#    x 2.043030 0.042720 -0.012570 
#    y 0.042720 1.865030 0.037420 
#    z -0.012570 0.037420 1.933150 
# 
# From -- ./inp_files/55118.got.cif
#   From: 2010.05.17/outbox.cif.g08.bks.cpg/sg2_28_cif.got.tgz:55118.got - 2010.06.03 11:33:40.
