data_PCOD9006634
_publ_section_title
;
Structure prediction by ZEFSAII (Michael W. Deem and Ramdas Pophale) SiO2 
 PCOD9006634
Probable space group: P -1
;
_chemical_formula_sum "Si O2"
_cell_formula_units_Z 16
_cell_length_a 17.080550
_cell_length_b 5.590699
_cell_length_c 10.436036
_cell_angle_alpha 120.567405
_cell_angle_beta 44.529022
_cell_angle_gamma 120.238028
_cell_volume 585.090966
_symmetry_space_group_name_H-M "P -1"
_symmetry_group_IT_number 2
_symmetry_cell_setting 'triclinic'
loop_
_space_group_symop_operation_xyz
x,y,z
-x,-y,-z
loop_
_atom_site_type_symbol
_atom_site_label
_atom_site_fract_x
_atom_site_fract_y
_atom_site_fract_z
Si Si1 0.753277 0.306615 0.096193
Si Si2 0.386168 0.250858 0.573522
Si Si3 0.181565 0.935407 0.291898
Si Si4 0.854415 0.633014 0.730667
Si Si5 0.388074 0.247693 0.858217
Si Si6 0.171048 0.552976 0.689921
Si Si7 0.621082 0.701146 0.686212
Si Si8 0.044146 0.940682 0.790565
O O1 0.720707 0.604242 0.236343
O O2 0.816121 0.267155 0.143549
O O3 0.636887 0.065717 0.135084
O O4 0.827464 0.259643 0.877539
O O5 0.500000 0.500000 0.500000
O O6 0.396020 0.136320 0.672231
O O7 0.377755 0.134093 0.406875
O O8 0.134069 0.691609 0.383382
O O9 0.128788 0.192738 0.375101
O O10 0.309278 0.084530 0.232315
O O11 0.940854 0.793374 0.779251
O O12 0.725096 0.644237 0.935223
O O13 0.498299 0.506840 0.818002
O O14 0.297501 0.518484 0.494544
O O15 0.122745 0.725655 0.684899
O O16 0.102967 0.234379 0.725628
O O17 0.000000 0.000000 0.000000
#
# Coordination Sequence:
#
# PCOD9006634 Si02
#       8
#     2   2   2   2   2   2   2   2
#     4  10  21  38  67  93 137 176 230 279 337 404
#     4   9  19  38  59  94 128 175 215 279 333 395
#     4  11  23  45  65 104 133 189 223 280 339 415
#     4  11  24  43  74  97 138 175 237 284 338 398
#     4  10  21  43  67 102 133 183 225 285 341 402
#     4  11  26  44  70 106 136 175 229 289 344 402
#     4  10  25  43  66 102 145 179 225 278 350 418
#     4  12  24  45  73 105 131 178 235 291 334 399
#
# _framework density 27.346174000000001
#
# number of rings (size 3 to 8) (size 9 to 14) (size 15 to 20)
#    0.000    1.500    1.250    3.375    5.250    8.000 
#    9.000    3.750    0.000    0.000    0.000    0.000 
#    0.000    0.000    0.000    0.000    0.000    0.000 
#
# Total GULP energy -89424.419359 kJ/mol
# GULP energy per Si atom -5589.026210 kJ/mol
# Density = 2.728393 g / cm^3
# Si number density = 27.346174 Si / 1000 Ang^3
#
#
#
# Elastic Constant Matrix: (Units=GPa)
#
#
# Indices 1 2 3 4 5 6 
#
# 1 135.8889 57.6729 41.8334 -2.1218 20.1016 4.0897
# 2 57.6729 184.7836 27.4724 -20.2753 2.5856 1.8081
# 3 41.8334 27.4724 116.4992 -3.7467 2.9837 -5.0233
# 4 -2.1218 -20.2753 -3.7467 40.0151 4.5380 1.5847
# 5 20.1016 2.5856 2.9837 4.5380 51.9681 2.2338
# 6 4.0897 1.8081 -5.0233 1.5847 2.2338 57.3348
#
#
#
# Elastic Compliance Matrix: (Units=1/GPa)
#
#
# Indices 1 2 3 4 5 6 
#
# 1 0.009907 -0.002682 -0.002890 -0.000686 -0.003442 -0.000722
# 2 -0.002682 0.006667 -0.000527 0.003140 0.000469 -0.000170
# 3 -0.002890 -0.000527 0.009791 0.000398 0.000502 0.001050
# 4 -0.000686 0.003140 0.000398 0.026862 -0.002231 -0.000671
# 5 -0.003442 0.000469 0.000502 -0.002231 0.020737 -0.000472
# 6 -0.000722 -0.000170 0.001050 -0.000671 -0.000472 0.017627
#
#
# Mechanical properties :
#
#
# Convention : Reuss Voigt Hill
#
# Bulk Modulus (GPa) = 70.59304 76.79210 73.69257
# Shear Modulus (GPa) = 46.07739 50.54315 48.31027
#
# Velocity S-wave (km/s) = 4.10929 4.30382 4.20768
# Velocity P-wave (km/s) = 6.95598 7.26908 7.11425
#
# Compressibility (1/GPa) = 0.01416570
#
# Stress axis : x y z
#
# Youngs Moduli (GPa) = 100.93546 149.99240 102.13364
#
# Poissons Ratio (x) = 0.40235 0.29517
# Poissons Ratio (y) = 0.27076 0.05386
# Poissons Ratio (z) = 0.29171 0.07909
#
# Static dielectric constant tensor:
#      x y z
#    x 2.214050 -0.093000 0.005340 
#    y -0.093000 2.248890 -0.047540 
#    z 0.005340 -0.047540 2.180340 
# 
# From -- ./inp_files/459611.got.cif
#   From: 2010.05.17/outbox.cif.g08.bks.cpg/sg2_230_cif.got.tgz:459611.got - 2010.06.03 11:33:40.
