data_PCOD9006917
_publ_section_title
;
Structure prediction by ZEFSAII (Michael W. Deem and Ramdas Pophale) SiO2 
 PCOD9006917
Probable space group: P -1
;
_chemical_formula_sum "Si O2"
_cell_formula_units_Z 16
_cell_length_a 7.860251
_cell_length_b 20.174424
_cell_length_c 18.741402
_cell_angle_alpha 160.249399
_cell_angle_beta 59.247033
_cell_angle_gamma 131.623426
_cell_volume 670.213378
_symmetry_space_group_name_H-M "P -1"
_symmetry_group_IT_number 2
_symmetry_cell_setting 'triclinic'
loop_
_space_group_symop_operation_xyz
x,y,z
-x,-y,-z
loop_
_atom_site_type_symbol
_atom_site_label
_atom_site_fract_x
_atom_site_fract_y
_atom_site_fract_z
Si Si1 0.915536 0.939789 0.624680
Si Si2 0.807548 0.569042 0.736189
Si Si3 0.098603 0.457889 0.841420
Si Si4 0.536649 0.095009 0.241696
Si Si5 0.565143 0.596694 0.948966
Si Si6 0.300347 0.144324 0.223287
Si Si7 0.925335 0.732352 0.200622
Si Si8 0.494395 0.370102 0.255838
O O1 0.184327 0.160636 0.824590
O O2 0.926505 0.005999 0.605784
O O3 0.892912 0.691344 0.375088
O O4 0.695628 0.930098 0.697640
O O5 0.783750 0.332175 0.471089
O O6 0.672271 0.614137 0.749321
O O7 0.648067 0.492663 0.766110
O O8 0.071045 0.845563 0.974479
O O9 0.963195 0.282014 0.763517
O O10 0.392621 0.652815 0.001814
O O11 0.958572 0.573052 0.976639
O O12 0.535689 0.176160 0.242800
O O13 0.469159 0.824437 0.981360
O O14 0.365272 0.400507 0.852644
O O15 0.342818 0.229532 0.219154
O O16 0.286431 0.341995 0.470810
#
# Coordination Sequence:
#
# PCOD9006917 Si02
#       8
#     2   2   2   2   2   2   2   2
#     4  12  21  37  61  82 119 160 192 244 295 345
#     4  11  22  41  62  88 125 156 196 250 299 350
#     4   9  21  39  57  81 116 152 195 249 288 343
#     4  11  23  37  63  92 121 157 200 245 297 356
#     4  10  21  39  56  86 120 153 198 245 291 344
#     4  10  22  44  62  89 124 153 195 252 300 352
#     4   9  21  39  58  84 116 152 201 241 292 351
#     4  10  24  40  66  90 117 160 199 241 302 364
#
# _framework density 23.872996000000001
#
# number of rings (size 3 to 8) (size 9 to 14) (size 15 to 20)
#    0.750    1.000    2.500    1.500    1.750    2.000 
#    0.000    0.000    0.000    0.000    0.000    0.000 
#    0.000    0.000    0.000    0.000    0.000    0.000 
#
# Total GULP energy -89225.197212 kJ/mol
# GULP energy per Si atom -5576.574826 kJ/mol
# Density = 2.381866 g / cm^3
# Si number density = 23.872996 Si / 1000 Ang^3
#
#
#
# Elastic Constant Matrix: (Units=GPa)
#
#
# Indices 1 2 3 4 5 6 
#
# 1 30.2769 -0.7074 42.4252 -2.1722 6.3781 -4.1258
# 2 -0.7074 67.1132 30.1869 2.5694 -1.3157 0.1322
# 3 42.4252 30.1869 209.5003 -3.0102 -8.1590 18.9557
# 4 -2.1722 2.5694 -3.0102 31.9050 5.9607 -1.2560
# 5 6.3781 -1.3157 -8.1590 5.9607 43.6172 4.1774
# 6 -4.1258 0.1322 18.9557 -1.2560 4.1774 25.0717
#
#
#
# Elastic Compliance Matrix: (Units=1/GPa)
#
#
# Indices 1 2 3 4 5 6 
#
# 1 0.064569 0.007783 -0.017118 0.006145 -0.015783 0.026464
# 2 0.007783 0.017013 -0.004554 -0.000732 -0.001847 0.004905
# 3 -0.017118 -0.004554 0.010128 -0.001328 0.005537 -0.011439
# 4 0.006145 -0.000732 -0.001328 0.033025 -0.006132 0.004695
# 5 -0.015783 -0.001847 0.005537 -0.006132 0.028181 -0.011777
# 6 0.026464 0.004905 -0.011439 0.004695 -0.011777 0.055061
#
#
# Mechanical properties :
#
#
# Convention : Reuss Voigt Hill
#
# Bulk Modulus (GPa) = 15.64159 50.07776 32.85968
# Shear Modulus (GPa) = 19.45041 35.78450 27.61745
#
# Velocity S-wave (km/s) = 2.85747 3.87583 3.40494
# Velocity P-wave (km/s) = 4.17769 6.40716 5.40855
#
# Compressibility (1/GPa) = 0.06393212
#
# Stress axis : x y z
#
# Youngs Moduli (GPa) = 15.48732 58.77983 98.74075
#
# Poissons Ratio (x) = -0.45750 1.69025
# Poissons Ratio (y) = -0.12054 0.44964
# Poissons Ratio (z) = 0.26511 0.26767
#
# Static dielectric constant tensor:
#      x y z
#    x 1.878710 -0.016370 0.004450 
#    y -0.016370 1.988950 -0.030570 
#    z 0.004450 -0.030570 2.008870 
# 
# From -- ./inp_files/562761.got.cif
#   From: 2010.05.17/outbox.cif.g08.bks.cpg/sg2_282_cif.got.tgz:562761.got - 2010.06.03 11:33:40.
