data_PCOD9006229
_publ_section_title
;
Structure prediction by ZEFSAII (Michael W. Deem and Ramdas Pophale) SiO2 
 PCOD9006229
Probable space group: P -1
;
_chemical_formula_sum "Si O2"
_cell_formula_units_Z 16
_cell_length_a 7.712254
_cell_length_b 12.920417
_cell_length_c 11.164715
_cell_angle_alpha 79.419410
_cell_angle_beta 48.702555
_cell_angle_gamma 59.559428
_cell_volume 700.822391
_symmetry_space_group_name_H-M "P -1"
_symmetry_group_IT_number 2
_symmetry_cell_setting 'triclinic'
loop_
_space_group_symop_operation_xyz
x,y,z
-x,-y,-z
loop_
_atom_site_type_symbol
_atom_site_label
_atom_site_fract_x
_atom_site_fract_y
_atom_site_fract_z
Si Si1 0.580680 0.360628 0.509465
Si Si2 0.775700 0.221450 0.837563
Si Si3 0.801070 0.143052 0.571042
Si Si4 0.673234 0.087636 0.113338
Si Si5 0.094372 0.403935 0.872289
Si Si6 0.276874 0.148704 0.794238
Si Si7 0.364388 0.316061 0.375345
Si Si8 0.807034 0.445887 0.742509
O O1 0.500000 0.500000 0.500000
O O2 0.856441 0.239988 0.455413
O O3 0.386617 0.376081 0.705211
O O4 0.515509 0.322276 0.421872
O O5 0.783765 0.171788 0.713200
O O6 0.664827 0.367335 0.845163
O O7 0.072563 0.166529 0.776424
O O8 0.626977 0.174413 0.002466
O O9 0.531673 0.154563 0.632668
O O10 0.000000 0.000000 0.500000
O O11 0.518744 0.182274 0.272313
O O12 0.606903 0.979907 0.163049
O O13 0.000000 0.000000 0.000000
O O14 0.115092 0.274272 0.920168
O O15 0.927705 0.449950 0.814971
O O16 0.000000 0.500000 0.000000
O O17 0.353503 0.418037 0.267743
O O18 0.058656 0.366421 0.551964
#
# Coordination Sequence:
#
# PCOD9006229 Si02
#       8
#     2   2   2   2   2   2   2   2
#     4  10  22  39  59  92 127 166 213 272 323 382
#     4  10  22  42  65  93 132 163 223 267 321 401
#     4  11  25  40  64 100 126 171 221 263 335 395
#     4  10  23  40  63  94 126 179 218 258 333 394
#     4   9  19  39  63  91 127 169 209 265 331 384
#     4   9  22  43  62  93 132 170 212 266 328 388
#     4  10  21  38  65  90 130 172 218 275 326 394
#     4   9  20  39  63  99 122 169 226 267 335 383
#
# _framework density 22.830321000000001
#
# number of rings (size 3 to 8) (size 9 to 14) (size 15 to 20)
#    0.000    2.250    0.000    1.500    5.250    6.500 
#    0.000    0.000    0.000    0.000    0.000    0.000 
#    0.000    0.000    0.000    0.000    0.000    0.000 
#
# Total GULP energy -89219.089548 kJ/mol
# GULP energy per Si atom -5576.193097 kJ/mol
# Density = 2.277836 g / cm^3
# Si number density = 22.830321 Si / 1000 Ang^3
#
#
#
# Elastic Constant Matrix: (Units=GPa)
#
#
# Indices 1 2 3 4 5 6 
#
# 1 66.7960 38.7925 21.5441 8.0490 23.7812 5.8876
# 2 38.7925 229.0006 74.6181 -9.3939 28.3799 6.2954
# 3 21.5441 74.6181 63.0906 8.9962 22.9223 4.0053
# 4 8.0490 -9.3939 8.9962 44.3213 2.8683 0.3880
# 5 23.7812 28.3799 22.9223 2.8683 31.5805 6.1495
# 6 5.8876 6.2954 4.0053 0.3880 6.1495 23.4853
#
#
#
# Elastic Compliance Matrix: (Units=1/GPa)
#
#
# Indices 1 2 3 4 5 6 
#
# 1 0.021690 -0.002446 0.001398 -0.003787 -0.014583 -0.001139
# 2 -0.002446 0.007892 -0.009545 0.003968 0.001377 -0.000300
# 3 0.001398 -0.009545 0.033708 -0.008067 -0.016380 0.000882
# 4 -0.003787 0.003968 -0.008067 0.025547 0.002800 0.000106
# 5 -0.014583 0.001377 -0.016380 0.002800 0.054656 -0.008277
# 6 -0.001139 -0.000300 0.000882 0.000106 -0.008277 0.044961
#
#
# Mechanical properties :
#
#
# Convention : Reuss Voigt Hill
#
# Bulk Modulus (GPa) = 23.75222 69.86629 46.80926
# Shear Modulus (GPa) = 22.35379 34.80626 28.58002
#
# Velocity S-wave (km/s) = 3.13250 3.90880 3.54198
# Velocity P-wave (km/s) = 4.84869 7.14426 6.10534
#
# Compressibility (1/GPa) = 0.04210132
#
# Stress axis : x y z
#
# Youngs Moduli (GPa) = 46.10462 126.71156 29.66659
#
# Poissons Ratio (x) = 0.30998 -0.04146
# Poissons Ratio (y) = 0.11279 0.28318
# Poissons Ratio (z) = -0.06444 1.20951
#
# Static dielectric constant tensor:
#      x y z
#    x 1.864620 -0.009140 -0.073800 
#    y -0.009140 1.999110 -0.043640 
#    z -0.073800 -0.043640 1.864280 
# 
# From -- ./inp_files/392498.got.cif
#   From: 2010.05.17/outbox.cif.g08.bks.cpg/sg2_197_cif.got.tgz:392498.got - 2010.06.03 11:33:40.
