data_PCOD9006156
_publ_section_title
;
Structure prediction by ZEFSAII (Michael W. Deem and Ramdas Pophale) SiO2 
 PCOD9006156
Probable space group: P -1
;
_chemical_formula_sum "Si O2"
_cell_formula_units_Z 16
_cell_length_a 16.312094
_cell_length_b 17.836130
_cell_length_c 5.745672
_cell_angle_alpha 75.788086
_cell_angle_beta 94.715536
_cell_angle_gamma 154.727409
_cell_volume 651.168905
_symmetry_space_group_name_H-M "P -1"
_symmetry_group_IT_number 2
_symmetry_cell_setting 'triclinic'
loop_
_space_group_symop_operation_xyz
x,y,z
-x,-y,-z
loop_
_atom_site_type_symbol
_atom_site_label
_atom_site_fract_x
_atom_site_fract_y
_atom_site_fract_z
Si Si1 0.836344 0.365920 0.356254
Si Si2 0.898929 0.204655 0.745296
Si Si3 0.052329 0.924116 0.993417
Si Si4 0.750227 0.477130 0.723029
Si Si5 0.554971 0.712740 0.504367
Si Si6 0.096045 0.713760 0.873404
Si Si7 0.814695 0.840279 0.761413
Si Si8 0.495765 0.812317 0.721699
O O1 0.799110 0.248855 0.326407
O O2 0.620109 0.223293 0.432365
O O3 0.000000 0.500000 0.500000
O O4 0.944529 0.517697 0.087641
O O5 0.102367 0.422671 0.532297
O O6 0.724804 0.037100 0.645463
O O7 0.978775 0.189110 0.846486
O O8 0.794697 0.159337 0.970860
O O9 0.850742 0.792141 0.946758
O O10 0.233295 0.080879 0.726768
O O11 0.138738 0.050977 0.127937
O O12 0.615508 0.431408 0.628490
O O13 0.937850 0.646549 0.817488
O O14 0.599234 0.288793 0.966244
O O15 0.611494 0.685779 0.687743
O O16 0.494764 0.730082 0.650383
O O17 0.000000 0.000000 0.500000
#
# Coordination Sequence:
#
# PCOD9006156 Si02
#       8
#     2   2   2   2   2   2   2   2
#     4  10  21  45  67  92 134 176 217 273 330 388
#     4  12  24  40  66 101 131 171 223 273 326 388
#     4  10  21  38  64  99 134 169 221 268 330 390
#     4  11  23  40  64  93 134 172 217 271 323 388
#     4  11  19  40  66  94 131 177 222 267 329 391
#     4  10  23  40  64  95 132 173 219 270 331 386
#     4   9  19  36  65  96 130 177 215 268 328 392
#     4  11  24  41  67  98 129 177 221 268 330 392
#
# _framework density 24.571197000000002
#
# number of rings (size 3 to 8) (size 9 to 14) (size 15 to 20)
#    0.000    1.500    2.500    3.000    1.750    0.500 
#    0.000    3.125    0.000   13.500    0.000    0.000 
#    0.000    0.000    0.000    0.000    0.000    0.000 
#
# Total GULP energy -89192.160362 kJ/mol
# GULP energy per Si atom -5574.510023 kJ/mol
# Density = 2.451527 g / cm^3
# Si number density = 24.571197 Si / 1000 Ang^3
#
#
#
# Elastic Constant Matrix: (Units=GPa)
#
#
# Indices 1 2 3 4 5 6 
#
# 1 130.0807 29.8181 41.0227 12.4577 7.5035 31.9471
# 2 29.8181 80.0765 31.3722 1.0207 4.2975 25.8833
# 3 41.0227 31.3722 81.8694 -2.6688 -0.9805 10.7118
# 4 12.4577 1.0207 -2.6688 36.8344 3.7796 11.3388
# 5 7.5035 4.2975 -0.9805 3.7796 35.5985 15.1560
# 6 31.9471 25.8833 10.7118 11.3388 15.1560 43.8491
#
#
#
# Elastic Compliance Matrix: (Units=1/GPa)
#
#
# Indices 1 2 3 4 5 6 
#
# 1 0.010925 -0.000208 -0.004629 -0.002127 0.000518 -0.006335
# 2 -0.000208 0.017839 -0.005290 0.002170 0.001901 -0.010305
# 3 -0.004629 -0.005290 0.016461 0.002334 0.001200 0.001455
# 4 -0.002127 0.002170 0.002334 0.030500 0.000584 -0.008390
# 5 0.000518 0.001901 0.001200 0.000584 0.033477 -0.013515
# 6 -0.006335 -0.010305 0.001455 -0.008390 -0.013515 0.039989
#
#
# Mechanical properties :
#
#
# Convention : Reuss Voigt Hill
#
# Bulk Modulus (GPa) = 40.04519 55.16139 47.60329
# Shear Modulus (GPa) = 28.12669 35.91065 32.01867
#
# Velocity S-wave (km/s) = 3.38701 3.82710 3.61376
# Velocity P-wave (km/s) = 5.62395 6.48284 6.06861
#
# Compressibility (1/GPa) = 0.02497179
#
# Stress axis : x y z
#
# Youngs Moduli (GPa) = 91.53704 56.05693 60.74930
#
# Poissons Ratio (x) = 0.01164 0.28119
# Poissons Ratio (y) = 0.01900 0.32137
# Poissons Ratio (z) = 0.42370 0.29655
#
# Static dielectric constant tensor:
#      x y z
#    x 1.973950 0.065350 0.018270 
#    y 0.065350 1.906470 0.062810 
#    z 0.018270 0.062810 2.119680 
# 
# From -- ./inp_files/99684.got.cif
#   From: 2010.05.17/outbox.cif.g08.bks.cpg/sg2_50_cif.got.tgz:99684.got - 2010.06.03 11:33:40.
