data_PCOD9006082
_publ_section_title
;
Structure prediction by ZEFSAII (Michael W. Deem and Ramdas Pophale) SiO2 
 PCOD9006082
Probable space group: P -1
;
_chemical_formula_sum "Si O2"
_cell_formula_units_Z 16
_cell_length_a 6.700805
_cell_length_b 12.526208
_cell_length_c 17.134846
_cell_angle_alpha 48.688709
_cell_angle_beta 97.251525
_cell_angle_gamma 128.239805
_cell_volume 744.991071
_symmetry_space_group_name_H-M "P -1"
_symmetry_group_IT_number 2
_symmetry_cell_setting 'triclinic'
loop_
_space_group_symop_operation_xyz
x,y,z
-x,-y,-z
loop_
_atom_site_type_symbol
_atom_site_label
_atom_site_fract_x
_atom_site_fract_y
_atom_site_fract_z
Si Si1 0.912310 0.064362 0.178338
Si Si2 0.936012 0.752937 0.391979
Si Si3 0.291439 0.023717 0.967718
Si Si4 0.384016 0.885959 0.731998
Si Si5 0.438078 0.332025 0.168730
Si Si6 0.338862 0.354686 0.839661
Si Si7 0.515453 0.417603 0.421478
Si Si8 0.098224 0.965997 0.597290
O O1 0.811803 0.018041 0.106880
O O2 0.739128 0.089442 0.211501
O O3 0.249706 0.272818 0.111407
O O4 0.875975 0.881322 0.292208
O O5 0.815510 0.587133 0.399858
O O6 0.732180 0.628841 0.517272
O O7 0.272219 0.910460 0.351741
O O8 0.446529 0.247562 0.893861
O O9 0.004505 0.844801 0.089863
O O10 0.500000 0.000000 0.000000
O O11 0.365670 0.705701 0.820651
O O12 0.198134 0.853726 0.665404
O O13 0.592622 0.528986 0.133302
O O14 0.171192 0.151492 0.300954
O O15 0.459018 0.505209 0.700481
O O16 0.393642 0.197255 0.522077
O O17 0.000000 0.000000 0.500000
#
# Coordination Sequence:
#
# PCOD9006082 Si02
#       8
#     2   2   2   2   2   2   2   2
#     4  10  21  43  67  92 133 169 219 279 314 387
#     4  10  21  39  63  98 130 172 216 260 334 388
#     4  11  27  47  68  97 124 171 227 276 329 382
#     4  10  21  38  64  95 133 177 212 258 323 400
#     4  10  22  42  66  98 128 174 217 262 332 391
#     4  11  25  46  68  93 133 171 213 281 329 373
#     4  11  20  40  64  97 136 169 206 269 328 385
#     4  11  21  38  57  94 142 170 206 261 317 391
#
# _framework density 21.476769000000001
#
# number of rings (size 3 to 8) (size 9 to 14) (size 15 to 20)
#    0.000    1.500    6.250    0.000    1.750    4.500 
#    2.250    1.250    0.000    0.000    0.000    0.000 
#    0.000    0.000    0.000    0.000    0.000    0.000 
#
# Total GULP energy -89237.920543 kJ/mol
# GULP energy per Si atom -5577.370034 kJ/mol
# Density = 2.142789 g / cm^3
# Si number density = 21.476769 Si / 1000 Ang^3
#
#
#
# Elastic Constant Matrix: (Units=GPa)
#
#
# Indices 1 2 3 4 5 6 
#
# 1 128.1904 25.8333 16.2275 8.5962 19.2099 -5.1030
# 2 25.8333 102.3508 13.6258 -2.1399 20.1097 -9.4483
# 3 16.2275 13.6258 82.3002 9.5307 -1.3113 -4.5407
# 4 8.5962 -2.1399 9.5307 37.1053 1.0446 6.9663
# 5 19.2099 20.1097 -1.3113 1.0446 16.4153 -0.9204
# 6 -5.1030 -9.4483 -4.5407 6.9663 -0.9204 24.1739
#
#
#
# Elastic Compliance Matrix: (Units=1/GPa)
#
#
# Indices 1 2 3 4 5 6 
#
# 1 0.009971 0.000194 -0.001868 -0.001845 -0.011831 0.001911
# 2 0.000194 0.013832 -0.002514 0.001134 -0.017221 0.003993
# 3 -0.001868 -0.002514 0.013634 -0.003885 0.006745 0.002560
# 4 -0.001845 0.001134 -0.003885 0.030276 -0.001998 -0.009477
# 5 -0.011831 -0.017221 0.006745 -0.001998 0.096319 -0.003718
# 6 0.001911 0.003993 0.002560 -0.009477 -0.003718 0.046401
#
#
# Mechanical properties :
#
#
# Convention : Reuss Voigt Hill
#
# Bulk Modulus (GPa) = 34.40865 47.13496 40.77180
# Shear Modulus (GPa) = 21.88242 32.68256 27.28249
#
# Velocity S-wave (km/s) = 3.19547 3.90521 3.56803
# Velocity P-wave (km/s) = 5.44709 6.50606 5.99998
#
# Compressibility (1/GPa) = 0.02906246
#
# Stress axis : x y z
#
# Youngs Moduli (GPa) = 100.29217 72.29727 73.34781
#
# Poissons Ratio (x) = -0.01405 0.13699
# Poissons Ratio (y) = -0.01950 0.18438
# Poissons Ratio (z) = 0.18731 0.18173
#
# Static dielectric constant tensor:
#      x y z
#    x 1.779150 -0.025890 0.016620 
#    y -0.025890 1.868830 -0.006490 
#    z 0.016620 -0.006490 1.811870 
# 
# From -- ./inp_files/549440.got.cif
#   From: 2010.05.17/outbox.cif.g08.bks.cpg/sg2_275_cif.got.tgz:549440.got - 2010.06.03 11:33:40.
