data_PCOD9006063
_publ_section_title
;
Structure prediction by ZEFSAII (Michael W. Deem and Ramdas Pophale) SiO2 
 PCOD9006063
Probable space group: P -1
;
_chemical_formula_sum "Si O2"
_cell_formula_units_Z 16
_cell_length_a 11.766173
_cell_length_b 7.961925
_cell_length_c 8.649586
_cell_angle_alpha 73.294753
_cell_angle_beta 126.622919
_cell_angle_gamma 82.802873
_cell_volume 574.599666
_symmetry_space_group_name_H-M "P -1"
_symmetry_group_IT_number 2
_symmetry_cell_setting 'triclinic'
loop_
_space_group_symop_operation_xyz
x,y,z
-x,-y,-z
loop_
_atom_site_type_symbol
_atom_site_label
_atom_site_fract_x
_atom_site_fract_y
_atom_site_fract_z
Si Si1 0.815506 0.955355 0.733557
Si Si2 0.350807 0.618228 0.552747
Si Si3 0.539864 0.728846 0.056439
Si Si4 0.186178 0.288237 0.944502
Si Si5 0.038442 0.244778 0.558142
Si Si6 0.316242 0.476036 0.244279
Si Si7 0.659796 0.916547 0.339524
Si Si8 0.120750 0.810280 0.833428
O O1 0.685660 0.912436 0.542763
O O2 0.981646 0.829343 0.832804
O O3 0.781160 0.173564 0.607788
O O4 0.807177 0.904714 0.917194
O O5 0.404322 0.486532 0.782379
O O6 0.301522 0.506810 0.406636
O O7 0.505756 0.642632 0.615493
O O8 0.667628 0.736973 0.036300
O O9 0.539166 0.846471 0.181329
O O10 0.384009 0.865029 0.810113
O O11 0.044567 0.354879 0.691015
O O12 0.200568 0.407293 0.073539
O O13 0.181372 0.221968 0.570036
O O14 0.896887 0.289423 0.315792
O O15 0.087063 0.025777 0.707467
O O16 0.276219 0.683155 0.077618
#
# Coordination Sequence:
#
# PCOD9006063 Si02
#       8
#     2   2   2   2   2   2   2   2
#     4  11  24  42  66  93 128 170 214 259 318 382
#     4  11  25  43  66  97 129 167 216 265 315 377
#     4  10  21  38  64  94 130 168 211 263 319 377
#     4  11  24  40  63  96 131 168 211 263 320 378
#     4   9  20  39  64  94 127 166 212 259 319 383
#     4  11  25  42  65  94 130 166 213 268 318 374
#     4   9  19  37  63  93 128 168 210 261 321 379
#     4  10  22  43  67  92 127 171 213 261 318 380
#
# _framework density 27.845476999999999
#
# number of rings (size 3 to 8) (size 9 to 14) (size 15 to 20)
#    0.000    1.750    0.000    3.000    0.000   15.000 
#    0.000    2.500    0.000    0.000    0.000    0.000 
#    0.000    0.000    0.000    0.000    0.000    0.000 
#
# Total GULP energy -89571.828573 kJ/mol
# GULP energy per Si atom -5598.239286 kJ/mol
# Density = 2.778210 g / cm^3
# Si number density = 27.845477 Si / 1000 Ang^3
#
#
#
# Elastic Constant Matrix: (Units=GPa)
#
#
# Indices 1 2 3 4 5 6 
#
# 1 94.7246 20.7491 32.5294 -6.7776 -5.4137 -8.7824
# 2 20.7491 113.8633 37.7098 8.2855 -0.5364 -12.1843
# 3 32.5294 37.7098 193.0672 8.7973 -28.3883 -15.5900
# 4 -6.7776 8.2855 8.7973 58.3233 -2.9002 4.0742
# 5 -5.4137 -0.5364 -28.3883 -2.9002 43.7233 -8.3821
# 6 -8.7824 -12.1843 -15.5900 4.0742 -8.3821 30.7244
#
#
#
# Elastic Compliance Matrix: (Units=1/GPa)
#
#
# Indices 1 2 3 4 5 6 
#
# 1 0.011766 -0.001567 -0.001439 0.001713 0.001012 0.002060
# 2 -0.001567 0.009970 -0.001471 -0.001602 -0.000594 0.002810
# 3 -0.001439 -0.001471 0.006793 -0.001013 0.004899 0.003923
# 4 0.001713 -0.001602 -0.001013 0.017942 0.000150 -0.002998
# 5 0.001012 -0.000594 0.004899 0.000150 0.028134 0.010195
# 6 0.002060 0.002810 0.003923 -0.002998 0.010195 0.039420
#
#
# Mechanical properties :
#
#
# Convention : Reuss Voigt Hill
#
# Bulk Modulus (GPa) = 51.08762 64.84797 57.96780
# Shear Modulus (GPa) = 38.60923 47.26534 42.93729
#
# Velocity S-wave (km/s) = 3.72768 4.12444 3.93107
# Velocity P-wave (km/s) = 6.07570 6.78383 6.43951
#
# Compressibility (1/GPa) = 0.01957421
#
# Stress axis : x y z
#
# Youngs Moduli (GPa) = 84.99184 100.30548 147.22002
#
# Poissons Ratio (x) = 0.15716 0.21189
# Poissons Ratio (y) = 0.13317 0.21652
# Poissons Ratio (z) = 0.12233 0.14752
#
# Static dielectric constant tensor:
#      x y z
#    x 2.131530 0.121810 -0.037590 
#    y 0.121810 2.328670 -0.028700 
#    z -0.037590 -0.028700 2.102030 
# 
# From -- ./inp_files/243554.got.cif
#   From: 2010.05.17/outbox.cif.g08.bks.cpg/sg2_122_cif.got.tgz:243554.got - 2010.06.03 11:33:40.
