data_PCOD9006641
_publ_section_title
;
Structure prediction by ZEFSAII (Michael W. Deem and Ramdas Pophale) SiO2 
 PCOD9006641
Probable space group: P -1
;
_chemical_formula_sum "Si O2"
_cell_formula_units_Z 16
_cell_length_a 8.825325
_cell_length_b 14.864900
_cell_length_c 9.466777
_cell_angle_alpha 126.571720
_cell_angle_beta 116.041170
_cell_angle_gamma 103.391463
_cell_volume 654.162225
_symmetry_space_group_name_H-M "P -1"
_symmetry_group_IT_number 2
_symmetry_cell_setting 'triclinic'
loop_
_space_group_symop_operation_xyz
x,y,z
-x,-y,-z
loop_
_atom_site_type_symbol
_atom_site_label
_atom_site_fract_x
_atom_site_fract_y
_atom_site_fract_z
Si Si1 0.800731 0.300566 0.657486
Si Si2 0.197066 0.099012 0.553217
Si Si3 0.744196 0.635938 0.150980
Si Si4 0.412524 0.366322 0.233813
Si Si5 0.025994 0.856664 0.029752
Si Si6 0.614912 0.035717 0.928899
Si Si7 0.330248 0.685561 0.876816
Si Si8 0.982104 0.575919 0.841829
O O1 0.589670 0.120696 0.383919
O O2 0.041497 0.352449 0.751824
O O3 0.775640 0.407823 0.666124
O O4 0.840270 0.341647 0.876359
O O5 0.165471 0.210952 0.590750
O O6 0.446440 0.215333 0.836789
O O7 0.180559 0.992430 0.334494
O O8 0.000000 0.000000 0.500000
O O9 0.500000 0.500000 0.000000
O O10 0.691197 0.635720 0.961138
O O11 0.500000 0.500000 0.500000
O O12 0.621712 0.383931 0.286459
O O13 0.226408 0.209301 0.098862
O O14 0.149271 0.917687 0.985851
O O15 0.980115 0.705103 0.912930
O O16 0.668765 0.187770 0.055032
O O17 0.500000 0.000000 0.000000
O O18 0.100654 0.559778 0.751374
#
# Coordination Sequence:
#
# PCOD9006641 Si02
#       8
#     2   2   2   2   2   2   2   2
#     4  11  21  39  65  96 130 161 213 269 315 375
#     4  11  18  36  68  94 125 159 215 263 312 372
#     4  11  23  40  67 101 130 164 217 272 320 373
#     4  11  24  43  66  93 131 172 216 261 324 397
#     4  11  22  43  65  96 124 173 215 262 320 388
#     4  11  26  42  62  93 133 167 215 265 325 383
#     4  10  21  40  64  90 122 173 208 257 319 387
#     4  10  21  38  67  94 125 163 213 261 318 374
#
# _framework density 24.458763000000001
#
# number of rings (size 3 to 8) (size 9 to 14) (size 15 to 20)
#    0.000    1.250    3.750    3.750    0.000    6.000 
#    2.250    3.125    0.000    0.000    0.000    0.000 
#    0.000    0.000    0.000    0.000    0.000    0.000 
#
# Total GULP energy -89340.526480 kJ/mol
# GULP energy per Si atom -5583.782905 kJ/mol
# Density = 2.440309 g / cm^3
# Si number density = 24.458763 Si / 1000 Ang^3
#
#
#
# Elastic Constant Matrix: (Units=GPa)
#
#
# Indices 1 2 3 4 5 6 
#
# 1 128.4684 33.9556 28.5365 -0.2869 -15.7064 44.0703
# 2 33.9556 88.0630 19.9063 14.4076 -2.9311 26.1902
# 3 28.5365 19.9063 88.7738 4.7595 -19.0170 9.5120
# 4 -0.2869 14.4076 4.7595 36.8467 -0.4781 -5.5632
# 5 -15.7064 -2.9311 -19.0170 -0.4781 42.0055 3.4903
# 6 44.0703 26.1902 9.5120 -5.5632 3.4903 45.0251
#
#
#
# Elastic Compliance Matrix: (Units=1/GPa)
#
#
# Indices 1 2 3 4 5 6 
#
# 1 0.013404 -0.000520 -0.001575 -0.001393 0.005333 -0.013070
# 2 -0.000520 0.016009 -0.001851 -0.007433 0.000781 -0.009391
# 3 -0.001575 -0.001851 0.013495 -0.001080 0.005445 -0.000789
# 4 -0.001393 -0.007433 -0.001080 0.031655 -0.001998 0.009981
# 5 0.005333 0.000781 0.005445 -0.001998 0.029072 -0.009324
# 6 -0.013070 -0.009391 -0.000789 0.009981 -0.009324 0.042588
#
#
# Mechanical properties :
#
#
# Convention : Reuss Voigt Hill
#
# Bulk Modulus (GPa) = 28.55751 52.23355 40.39553
# Shear Modulus (GPa) = 30.15947 39.63593 34.89770
#
# Velocity S-wave (km/s) = 3.51533 4.02994 3.78140
# Velocity P-wave (km/s) = 5.30828 6.56170 5.96799
#
# Compressibility (1/GPa) = 0.03501706
#
# Stress axis : x y z
#
# Youngs Moduli (GPa) = 74.60712 62.46346 74.10426
#
# Poissons Ratio (x) = 0.03247 0.11668
# Poissons Ratio (y) = 0.03878 0.13715
# Poissons Ratio (z) = 0.11747 0.11561
#
# Static dielectric constant tensor:
#      x y z
#    x 2.192580 0.012510 0.055500 
#    y 0.012510 2.240660 0.145400 
#    z 0.055500 0.145400 2.092760 
# 
# From -- ./inp_files/209057.got.cif
#   From: 2010.05.17/outbox.cif.g08.bks.cpg/sg2_105_cif.got.tgz:209057.got - 2010.06.03 11:33:40.
