data_PCOD9006683
_publ_section_title
;
Structure prediction by ZEFSAII (Michael W. Deem and Ramdas Pophale) SiO2 
 PCOD9006683
Probable space group: P -1
;
_chemical_formula_sum "Si O2"
_cell_formula_units_Z 15
_cell_length_a 8.409748
_cell_length_b 9.032587
_cell_length_c 11.549985
_cell_angle_alpha 110.255942
_cell_angle_beta 105.305113
_cell_angle_gamma 113.921181
_cell_volume 663.514791
_symmetry_space_group_name_H-M "P -1"
_symmetry_group_IT_number 2
_symmetry_cell_setting 'triclinic'
loop_
_space_group_symop_operation_xyz
x,y,z
-x,-y,-z
loop_
_atom_site_type_symbol
_atom_site_label
_atom_site_fract_x
_atom_site_fract_y
_atom_site_fract_z
Si Si1 0.197213 0.029367 0.600063
Si Si2 0.272476 0.561126 0.000752
Si Si3 0.754415 0.758842 0.726686
Si Si4 0.932481 0.576496 0.837536
Si Si5 0.732896 0.799480 0.104782
Si Si6 0.337588 0.379531 0.593640
Si Si7 0.035511 0.621299 0.425610
Si Si8 0.000000 0.000000 0.000000
O O1 0.183911 0.044662 0.738175
O O2 0.360299 0.228135 0.627502
O O3 0.196198 0.844114 0.525993
O O4 0.000000 0.000000 0.500000
O O5 0.220939 0.535900 0.120315
O O6 0.498207 0.690703 0.044580
O O7 0.209025 0.350622 0.895906
O O8 0.142298 0.628662 0.937046
O O9 0.917413 0.750835 0.840635
O O10 0.540843 0.583058 0.677957
O O11 0.745025 0.709346 0.575426
O O12 0.844161 0.970319 0.842285
O O13 0.897191 0.458034 0.684083
O O14 0.805507 0.881090 0.015213
O O15 0.175387 0.401397 0.633344
O O16 0.000000 0.500000 0.500000
#
# Coordination Sequence:
#
# PCOD9006683 Si02
#       8
#     2   2   2   2   2   2   2   1
#     4  10  21  38  67  99 124 175 224 274 325 404
#     4  10  23  42  67  94 127 178 217 276 334 406
#     4  11  23  42  66  96 134 176 230 283 332 403
#     4  11  22  40  66  93 134 172 217 271 347 398
#     4  11  23  42  69  95 128 171 231 271 329 414
#     4  10  22  43  69  94 130 183 233 273 333 404
#     4  11  22  39  67  97 138 173 211 286 346 393
#     4  12  24  38  68  98 132 172 224 284 332 402
#
# _framework density 22.606881000000001
#
# number of rings (size 3 to 8) (size 9 to 14) (size 15 to 20)
#    0.000    1.333    2.667    4.000    3.733    0.000 
#    0.000    4.667    2.933    0.000    0.000    0.000 
#    0.000    0.000    0.000    0.000    0.000    0.000 
#
# Total GULP energy -83572.275611 kJ/mol
# GULP energy per Si atom -5571.485041 kJ/mol
# Density = 2.255543 g / cm^3
# Si number density = 22.606881 Si / 1000 Ang^3
#
#
#
# Elastic Constant Matrix: (Units=GPa)
#
#
# Indices 1 2 3 4 5 6 
#
# 1 87.3617 51.0047 25.2837 -1.2143 -13.0458 15.0653
# 2 51.0047 88.9713 20.8787 -5.7328 -4.4695 7.1783
# 3 25.2837 20.8787 108.4218 -4.8054 -17.7804 9.4369
# 4 -1.2143 -5.7328 -4.8054 40.8393 8.7093 3.6646
# 5 -13.0458 -4.4695 -17.7804 8.7093 47.8467 -3.5443
# 6 15.0653 7.1783 9.4369 3.6646 -3.5443 37.4165
#
#
#
# Elastic Compliance Matrix: (Units=1/GPa)
#
#
# Indices 1 2 3 4 5 6 
#
# 1 0.019184 -0.010142 -0.001566 -0.001361 0.003586 -0.004911
# 2 -0.010142 0.017347 -0.001254 0.002352 -0.001991 0.000653
# 3 -0.001566 -0.001254 0.010502 0.000476 0.003159 -0.001525
# 4 -0.001361 0.002352 0.000476 0.026165 -0.004964 -0.003056
# 5 0.003586 -0.001991 0.003159 -0.004964 0.023835 0.000885
# 6 -0.004911 0.000653 -0.001525 -0.003056 0.000885 0.029346
#
#
# Mechanical properties :
#
#
# Convention : Reuss Voigt Hill
#
# Bulk Modulus (GPa) = 47.37295 53.23208 50.30252
# Shear Modulus (GPa) = 31.37976 37.72633 34.55304
#
# Velocity S-wave (km/s) = 3.72971 4.08952 3.91376
# Velocity P-wave (km/s) = 6.28874 6.77473 6.53625
#
# Compressibility (1/GPa) = 0.02110909
#
# Stress axis : x y z
#
# Youngs Moduli (GPa) = 52.12609 57.64751 95.22179
#
# Poissons Ratio (x) = 0.58465 0.14908
# Poissons Ratio (y) = 0.52865 0.11945
# Poissons Ratio (z) = 0.08161 0.07232
#
# Static dielectric constant tensor:
#      x y z
#    x 2.320150 -1.095540 -1.130850 
#    y -1.095540 4.305080 2.602580 
#    z -1.130850 2.602580 4.683530 
# 
# From -- ./inp_files/380099.got.cif
#   From: 2010.05.17/outbox.cif.g08.bks.cpg/sg2_191_cif.got.tgz:380099.got - 2010.06.03 11:33:40.
