data_PCOD9006875
_publ_section_title
;
Structure prediction by ZEFSAII (Michael W. Deem and Ramdas Pophale) SiO2 
 PCOD9006875
Probable space group: P -1
;
_chemical_formula_sum "Si O2"
_cell_formula_units_Z 15
_cell_length_a 26.479902
_cell_length_b 5.609274
_cell_length_c 8.512603
_cell_angle_alpha 77.744110
_cell_angle_beta 148.051980
_cell_angle_gamma 106.217796
_cell_volume 641.674443
_symmetry_space_group_name_H-M "P -1"
_symmetry_group_IT_number 2
_symmetry_cell_setting 'triclinic'
loop_
_space_group_symop_operation_xyz
x,y,z
-x,-y,-z
loop_
_atom_site_type_symbol
_atom_site_label
_atom_site_fract_x
_atom_site_fract_y
_atom_site_fract_z
Si Si1 0.531067 0.146969 0.896954
Si Si2 0.313075 0.526647 0.533603
Si Si3 0.696684 0.922216 0.253289
Si Si4 0.326713 0.615220 0.214102
Si Si5 0.146237 0.664103 0.256537
Si Si6 0.234340 0.111151 0.885846
Si Si7 0.500000 0.500000 0.500000
Si Si8 0.956849 0.828779 0.765467
O O1 0.611663 0.375044 0.143882
O O2 0.589405 0.971266 0.979463
O O3 0.469659 0.279772 0.594732
O O4 0.500000 0.000000 0.000000
O O5 0.286891 0.233818 0.528639
O O6 0.361005 0.603908 0.484999
O O7 0.215037 0.624511 0.299362
O O8 0.781849 0.161702 0.458004
O O9 0.711278 0.789900 0.148219
O O10 0.415438 0.641890 0.323312
O O11 0.272770 0.852680 0.043179
O O12 0.258694 0.346417 0.033975
O O13 0.104051 0.416926 0.277613
O O14 0.052128 0.769310 0.941361
O O15 0.119214 0.061045 0.555236
O O16 0.000000 0.000000 0.000000
#
# Coordination Sequence:
#
# PCOD9006875 Si02
#       8
#     2   2   2   2   2   2   1   2
#     4  11  26  46  74 109 148 195 254 316 380 455
#     4  11  25  47  70 103 150 200 242 308 386 451
#     4  11  21  43  73  98 146 188 249 307 371 445
#     4  12  30  46  73 104 155 195 247 314 381 448
#     4  10  21  38  72 108 137 192 248 306 371 454
#     4  12  25  47  69 110 141 190 245 312 370 443
#     4  12  26  48  76 112 146 198 262 310 382 456
#     4  11  21  38  74 108 143 186 254 309 371 457
#
# _framework density 23.376339000000002
#
# number of rings (size 3 to 8) (size 9 to 14) (size 15 to 20)
#    0.000    0.800    4.000    2.400    7.467    3.733 
#    0.000    1.333    0.000    0.000    0.000    0.000 
#    0.000    0.000    0.000    0.000    0.000    0.000 
#
# Total GULP energy -83546.348237 kJ/mol
# GULP energy per Si atom -5569.756549 kJ/mol
# Density = 2.332313 g / cm^3
# Si number density = 23.376339 Si / 1000 Ang^3
#
#
#
# Elastic Constant Matrix: (Units=GPa)
#
#
# Indices 1 2 3 4 5 6 
#
# 1 68.5650 12.1864 21.2615 -13.1891 12.4775 -1.4267
# 2 12.1864 112.6305 41.5562 -5.8500 3.9839 -3.2930
# 3 21.2615 41.5562 69.2806 -7.2373 1.4156 -19.2216
# 4 -13.1891 -5.8500 -7.2373 40.0234 1.0186 7.8711
# 5 12.4775 3.9839 1.4156 1.0186 28.4203 -14.8802
# 6 -1.4267 -3.2930 -19.2216 7.8711 -14.8802 32.8204
#
#
#
# Elastic Compliance Matrix: (Units=1/GPa)
#
#
# Indices 1 2 3 4 5 6 
#
# 1 0.022537 0.002480 -0.011525 0.009346 -0.018446 -0.016125
# 2 0.002480 0.012479 -0.010127 0.002606 -0.006750 -0.008256
# 3 -0.011525 -0.010127 0.030330 -0.005399 0.018812 0.026070
# 4 0.009346 0.002606 -0.005399 0.031002 -0.013781 -0.016177
# 5 -0.018446 -0.006750 0.018812 -0.013781 0.066235 0.042873
# 6 -0.016125 -0.008256 0.026070 -0.016177 0.042873 0.067525
#
#
# Mechanical properties :
#
#
# Convention : Reuss Voigt Hill
#
# Bulk Modulus (GPa) = 37.03349 44.49825 40.76587
# Shear Modulus (GPa) = 18.02115 31.95095 24.98605
#
# Velocity S-wave (km/s) = 2.77955 3.70105 3.27289
# Velocity P-wave (km/s) = 5.11643 6.11069 5.63553
#
# Compressibility (1/GPa) = 0.02700258
#
# Stress axis : x y z
#
# Youngs Moduli (GPa) = 44.37225 80.13150 32.97076
#
# Poissons Ratio (x) = -0.19874 0.37998
# Poissons Ratio (y) = -0.11005 0.33390
# Poissons Ratio (z) = 0.51137 0.81151
#
# Static dielectric constant tensor:
#      x y z
#    x 1.928930 -0.031520 -0.055450 
#    y -0.031520 2.025790 -0.016430 
#    z -0.055450 -0.016430 2.000550 
# 
# From -- ./inp_files/207481.got.cif
#   From: 2010.05.17/outbox.cif.g08.bks.cpg/sg2_104_cif.got.tgz:207481.got - 2010.06.03 11:33:40.
