data_PCOD9006623
_publ_section_title
;
Structure prediction by ZEFSAII (Michael W. Deem and Ramdas Pophale) SiO2 
 PCOD9006623
Probable space group: P -1
;
_chemical_formula_sum "Si O2"
_cell_formula_units_Z 16
_cell_length_a 21.075440
_cell_length_b 11.771643
_cell_length_c 8.974601
_cell_angle_alpha 88.072818
_cell_angle_beta 115.733110
_cell_angle_gamma 147.919539
_cell_volume 762.169304
_symmetry_space_group_name_H-M "P -1"
_symmetry_group_IT_number 2
_symmetry_cell_setting 'triclinic'
loop_
_space_group_symop_operation_xyz
x,y,z
-x,-y,-z
loop_
_atom_site_type_symbol
_atom_site_label
_atom_site_fract_x
_atom_site_fract_y
_atom_site_fract_z
Si Si1 0.757679 0.968965 0.925660
Si Si2 0.755202 0.125258 0.628149
Si Si3 0.824983 0.480166 0.646482
Si Si4 0.718990 0.315224 0.197254
Si Si5 0.388923 0.486928 0.204362
Si Si6 0.186033 0.283369 0.275814
Si Si7 0.890302 0.352642 0.241469
Si Si8 0.924656 0.842574 0.275470
O O1 0.768469 0.064004 0.078023
O O2 0.956818 0.203086 0.109805
O O3 0.743706 0.030245 0.766543
O O4 0.611378 0.649316 0.798006
O O5 0.738684 0.235868 0.636990
O O6 0.952909 0.401399 0.737481
O O7 0.588594 0.839255 0.362254
O O8 0.796077 0.426734 0.440921
O O9 0.761300 0.507895 0.639756
O O10 0.766725 0.276934 0.149823
O O11 0.816568 0.565245 0.203332
O O12 0.500000 0.000000 0.000000
O O13 0.337672 0.448947 0.322578
O O14 0.226027 0.296304 0.944272
O O15 0.109700 0.108489 0.352528
O O16 0.000000 0.000000 0.000000
O O17 0.000000 0.500000 0.500000
O O18 0.000000 0.000000 0.500000
#
# Coordination Sequence:
#
# PCOD9006623 Si02
#       8
#     2   2   2   2   2   2   2   2
#     4  11  22  43  67  91 133 177 222 265 328 401
#     4  11  25  41  67  95 130 177 222 272 333 388
#     4  11  20  43  64  95 132 167 222 279 317 392
#     4  12  25  42  69 102 134 166 224 277 324 395
#     4  11  24  43  63 100 138 166 227 281 317 396
#     4  10  21  38  67  92 131 172 211 268 336 376
#     4  11  24  44  70  92 133 182 216 268 341 390
#     4  11  22  41  68  93 134 180 213 270 339 387
#
# _framework density 20.992711
#
# number of rings (size 3 to 8) (size 9 to 14) (size 15 to 20)
#    0.000    1.000    6.250    2.625    1.750    3.500 
#    0.000    0.625    0.000    0.000    0.000    0.000 
#    0.000    0.000    0.000    0.000    0.000    0.000 
#
# Total GULP energy -89384.568618 kJ/mol
# GULP energy per Si atom -5586.535539 kJ/mol
# Density = 2.094493 g / cm^3
# Si number density = 20.992711 Si / 1000 Ang^3
#
#
#
# Elastic Constant Matrix: (Units=GPa)
#
#
# Indices 1 2 3 4 5 6 
#
# 1 152.8133 55.9678 29.8931 15.9643 -25.8799 -21.0710
# 2 55.9678 55.8372 20.7188 13.7391 3.4906 -19.2868
# 3 29.8931 20.7188 71.3844 3.5282 -3.9172 -1.6599
# 4 15.9643 13.7391 3.5282 41.3182 -3.3543 -7.0377
# 5 -25.8799 3.4906 -3.9172 -3.3543 32.5360 3.0974
# 6 -21.0710 -19.2868 -1.6599 -7.0377 3.0974 39.3294
#
#
#
# Elastic Compliance Matrix: (Units=1/GPa)
#
#
# Indices 1 2 3 4 5 6 
#
# 1 0.014378 -0.015291 -0.000909 0.000539 0.013096 -0.000769
# 2 -0.015291 0.043132 -0.006529 -0.007263 -0.019555 0.012924
# 3 -0.000909 -0.006529 0.016301 0.000800 0.002312 -0.003040
# 4 0.000539 -0.007263 0.000800 0.026876 0.003955 0.001259
# 5 0.013096 -0.019555 0.002312 0.003955 0.044438 -0.005268
# 6 -0.000769 0.012924 -0.003040 0.001259 -0.005268 0.031864
#
#
# Mechanical properties :
#
#
# Convention : Reuss Voigt Hill
#
# Bulk Modulus (GPa) = 35.26917 54.79935 45.03426
# Shear Modulus (GPa) = 21.56123 34.20039 27.88081
#
# Velocity S-wave (km/s) = 3.20829 4.04066 3.64829
# Velocity P-wave (km/s) = 5.52823 6.92314 6.26463
#
# Compressibility (1/GPa) = 0.02835338
#
# Stress axis : x y z
#
# Youngs Moduli (GPa) = 69.55308 23.18439 61.34652
#
# Poissons Ratio (x) = 0.35451 0.05574
# Poissons Ratio (y) = 1.06353 0.40054
# Poissons Ratio (z) = 0.06319 0.15138
#
# Static dielectric constant tensor:
#      x y z
#    x 1.776610 -0.000320 0.001140 
#    y -0.000320 1.744760 -0.020630 
#    z 0.001140 -0.020630 1.779860 
# 
# From -- ./inp_files/345357.got.cif
#   From: 2010.05.17/outbox.cif.g08.bks.cpg/sg2_173_cif.got.tgz:345357.got - 2010.06.03 11:33:40.
