data_PCOD9006746
_publ_section_title
;
Structure prediction by ZEFSAII (Michael W. Deem and Ramdas Pophale) SiO2 
 PCOD9006746
Probable space group: P -1
;
_chemical_formula_sum "Si O2"
_cell_formula_units_Z 16
_cell_length_a 11.366955
_cell_length_b 19.474737
_cell_length_c 17.521091
_cell_angle_alpha 148.584538
_cell_angle_beta 156.924853
_cell_angle_gamma 42.713398
_cell_volume 767.911255
_symmetry_space_group_name_H-M "P -1"
_symmetry_group_IT_number 2
_symmetry_cell_setting 'triclinic'
loop_
_space_group_symop_operation_xyz
x,y,z
-x,-y,-z
loop_
_atom_site_type_symbol
_atom_site_label
_atom_site_fract_x
_atom_site_fract_y
_atom_site_fract_z
Si Si1 0.187024 0.830400 0.212438
Si Si2 0.889173 0.630105 0.255195
Si Si3 0.189915 0.858745 0.909707
Si Si4 0.535427 0.843996 0.588369
Si Si5 0.895029 0.576994 0.706963
Si Si6 0.747079 0.388219 0.199279
Si Si7 0.733807 0.406458 0.700822
Si Si8 0.145502 0.126883 0.430601
O O1 0.284177 0.825242 0.353225
O O2 0.506836 0.836616 0.362573
O O3 0.084895 0.968573 0.265728
O O4 0.939353 0.698104 0.909841
O O5 0.871130 0.774854 0.415787
O O6 0.970263 0.539888 0.286213
O O7 0.125394 0.635331 0.332517
O O8 0.552522 0.561001 0.954018
O O9 0.338987 0.742732 0.921947
O O10 0.863966 0.838482 0.741667
O O11 0.089251 0.850196 0.753502
O O12 0.399839 0.006737 0.194921
O O13 0.428539 0.726691 0.474577
O O14 0.541187 0.523918 0.420064
O O15 0.095057 0.638352 0.810678
O O16 0.000000 0.500000 0.500000
O O17 0.000000 0.500000 0.000000
#
# Coordination Sequence:
#
# PCOD9006746 Si02
#       8
#     2   2   2   2   2   2   2   2
#     4  10  21  38  68  95 133 173 229 275 335 397
#     4  12  26  42  65 102 138 176 227 284 339 400
#     4  10  21  39  68  97 131 169 230 277 331 392
#     4  10  21  40  67  96 129 180 224 273 329 404
#     4  12  24  43  68  97 133 183 230 276 339 399
#     4  12  24  39  66 101 134 173 227 288 333 389
#     4  12  26  46  67  99 141 185 224 272 347 417
#     4  10  21  39  63 100 136 174 217 284 338 392
#
# _framework density 20.835740999999999
#
# number of rings (size 3 to 8) (size 9 to 14) (size 15 to 20)
#    0.000    1.000    2.500    4.500    7.000    0.000 
#    0.000    5.000    0.000    1.500    0.000    0.000 
#    0.000    0.000    0.000    0.000    0.000    0.000 
#
# Total GULP energy -89529.065466 kJ/mol
# GULP energy per Si atom -5595.566592 kJ/mol
# Density = 2.078832 g / cm^3
# Si number density = 20.835741 Si / 1000 Ang^3
#
#
#
# Elastic Constant Matrix: (Units=GPa)
#
#
# Indices 1 2 3 4 5 6 
#
# 1 44.9911 13.1470 -9.3311 -11.8784 -10.3165 13.3737
# 2 13.1470 109.9921 34.3083 -13.6753 -7.3850 17.8247
# 3 -9.3311 34.3083 92.7153 -14.4317 -13.1485 14.6400
# 4 -11.8784 -13.6753 -14.4317 41.5139 0.0748 -4.7967
# 5 -10.3165 -7.3850 -13.1485 0.0748 26.0587 -5.1451
# 6 13.3737 17.8247 14.6400 -4.7967 -5.1451 21.2071
#
#
#
# Elastic Compliance Matrix: (Units=1/GPa)
#
#
# Indices 1 2 3 4 5 6 
#
# 1 0.040547 -0.002082 0.013325 0.012506 0.017004 -0.026064
# 2 -0.002082 0.011475 -0.003395 0.001336 -0.000433 -0.005791
# 3 0.013325 -0.003395 0.018253 0.007419 0.010765 -0.013861
# 4 0.012506 0.001336 0.007419 0.030046 0.007918 -0.005414
# 5 0.017004 -0.000433 0.010765 0.007918 0.049611 -0.003964
# 6 -0.026064 -0.005791 -0.013861 -0.005414 -0.003964 0.075840
#
#
# Mechanical properties :
#
#
# Convention : Reuss Voigt Hill
#
# Bulk Modulus (GPa) = 11.63191 35.99411 23.81301
# Shear Modulus (GPa) = 20.94392 31.72754 26.33573
#
# Velocity S-wave (km/s) = 3.17392 3.90647 3.55909
# Velocity P-wave (km/s) = 4.36193 6.13678 5.32384
#
# Compressibility (1/GPa) = 0.08597037
#
# Stress axis : x y z
#
# Youngs Moduli (GPa) = 24.66274 87.14763 54.78536
#
# Poissons Ratio (x) = 0.18147 -0.73001
# Poissons Ratio (y) = 0.05136 0.18598
# Poissons Ratio (z) = -0.32863 0.29585
#
# Static dielectric constant tensor:
#      x y z
#    x 1.745010 -0.010810 -0.010060 
#    y -0.010810 1.740320 -0.013730 
#    z -0.010060 -0.013730 1.736580 
# 
# From -- ./inp_files/529085.got.cif
#   From: 2010.05.17/outbox.cif.g08.bks.cpg/sg2_265_cif.got.tgz:529085.got - 2010.06.03 11:33:40.
