data_PCOD9006274
_publ_section_title
;
Structure prediction by ZEFSAII (Michael W. Deem and Ramdas Pophale) SiO2 
 PCOD9006274
Probable space group: P -1
;
_chemical_formula_sum "Si O2"
_cell_formula_units_Z 16
_cell_length_a 8.468830
_cell_length_b 8.067503
_cell_length_c 27.250207
_cell_angle_alpha 39.710589
_cell_angle_beta 141.373294
_cell_angle_gamma 136.296442
_cell_volume 706.994698
_symmetry_space_group_name_H-M "P -1"
_symmetry_group_IT_number 2
_symmetry_cell_setting 'triclinic'
loop_
_space_group_symop_operation_xyz
x,y,z
-x,-y,-z
loop_
_atom_site_type_symbol
_atom_site_label
_atom_site_fract_x
_atom_site_fract_y
_atom_site_fract_z
Si Si1 0.739101 0.538126 0.822661
Si Si2 0.169905 0.869297 0.275622
Si Si3 0.617534 0.755667 0.837920
Si Si4 0.761346 0.663659 0.302936
Si Si5 0.105421 0.325525 0.488762
Si Si6 0.645357 0.629284 0.563911
Si Si7 0.909230 0.067724 0.333953
Si Si8 0.212002 0.308884 0.995881
O O1 0.643086 0.520047 0.860383
O O2 0.538829 0.353301 0.777520
O O3 0.733627 0.841732 0.739762
O O4 0.022939 0.497958 0.899639
O O5 0.357323 0.683851 0.368809
O O6 0.900248 0.707674 0.273298
O O7 0.178497 0.969197 0.199149
O O8 0.707365 0.720772 0.921796
O O9 0.325079 0.791668 0.753750
O O10 0.881564 0.909611 0.312752
O O11 0.833512 0.402184 0.401025
O O12 0.340861 0.612845 0.490760
O O13 0.189115 0.241797 0.474196
O O14 0.118526 0.145353 0.579640
O O15 0.802325 0.730767 0.628615
O O16 0.500000 0.500000 0.000000
O O17 0.000000 0.000000 0.000000
#
# Coordination Sequence:
#
# PCOD9006274 Si02
#       8
#     2   2   2   2   2   2   2   2
#     4  10  24  47  71  97 139 182 234 283 352 433
#     4   9  22  42  66  96 130 183 233 275 348 418
#     4  10  23  45  71 101 133 187 232 283 351 431
#     4  11  24  40  67  97 140 183 231 298 354 418
#     4  10  21  39  59  94 136 184 239 278 353 421
#     4  10  21  38  65  92 134 185 233 292 335 434
#     4  12  23  38  63 100 138 175 236 293 360 407
#     4  12  29  50  78 115 148 183 234 303 369 427
#
# _framework density 22.631004000000001
#
# number of rings (size 3 to 8) (size 9 to 14) (size 15 to 20)
#    0.750    0.750    1.250    3.375    3.500    6.500 
#    0.000    1.875    0.000    0.000    0.000    0.000 
#    0.000    0.000    0.000    0.000    0.000    0.000 
#
# Total GULP energy -89082.195922 kJ/mol
# GULP energy per Si atom -5567.637245 kJ/mol
# Density = 2.257949 g / cm^3
# Si number density = 22.631004 Si / 1000 Ang^3
#
#
#
# Elastic Constant Matrix: (Units=GPa)
#
#
# Indices 1 2 3 4 5 6 
#
# 1 76.7357 28.0724 55.8797 17.9364 6.8596 3.5682
# 2 28.0724 80.0156 54.1579 25.7667 -7.4946 -9.7743
# 3 55.8797 54.1579 117.9819 40.3177 -4.7179 6.6311
# 4 17.9364 25.7667 40.3177 42.8320 4.4515 -2.5537
# 5 6.8596 -7.4946 -4.7179 4.4515 36.6981 0.6656
# 6 3.5682 -9.7743 6.6311 -2.5537 0.6656 25.3036
#
#
#
# Elastic Compliance Matrix: (Units=1/GPa)
#
#
# Indices 1 2 3 4 5 6 
#
# 1 0.021127 -0.001986 -0.010137 0.002466 -0.005944 -0.000684
# 2 -0.001986 0.021574 -0.007767 -0.004668 0.004162 0.010069
# 3 -0.010137 -0.007767 0.021855 -0.012674 0.004813 -0.008704
# 4 0.002466 -0.004668 -0.012674 0.038172 -0.007769 0.005227
# 5 -0.005944 0.004162 0.004813 -0.007769 0.030779 -0.000409
# 6 -0.000684 0.010069 -0.008704 0.005227 -0.000409 0.046325
#
#
# Mechanical properties :
#
#
# Convention : Reuss Voigt Hill
#
# Bulk Modulus (GPa) = 40.35999 61.21703 50.78851
# Shear Modulus (GPa) = 21.94238 30.07496 26.00867
#
# Velocity S-wave (km/s) = 3.11717 3.64940 3.39374
# Velocity P-wave (km/s) = 5.55233 6.69823 6.15202
#
# Compressibility (1/GPa) = 0.02477701
#
# Stress axis : x y z
#
# Youngs Moduli (GPa) = 47.33387 46.35136 45.75600
#
# Poissons Ratio (x) = 0.09203 0.46381
# Poissons Ratio (y) = 0.09398 0.35540
# Poissons Ratio (z) = 0.47981 0.36002
#
# Static dielectric constant tensor:
#      x y z
#    x 1.896490 0.072530 -0.002050 
#    y 0.072530 2.026920 -0.022040 
#    z -0.002050 -0.022040 1.800390 
# 
# From -- ./inp_files/616632.got.cif
#   From: 2010.05.17/outbox.cif.g08.bks.cpg/sg2_309_cif.got.tgz:616632.got - 2010.06.03 11:33:40.
