data_PCOD9006871
_publ_section_title
;
Structure prediction by ZEFSAII (Michael W. Deem and Ramdas Pophale) SiO2 
 PCOD9006871
Probable space group: P -1
;
_chemical_formula_sum "Si O2"
_cell_formula_units_Z 14
_cell_length_a 9.058776
_cell_length_b 8.798635
_cell_length_c 18.569829
_cell_angle_alpha 62.376480
_cell_angle_beta 121.457631
_cell_angle_gamma 147.203725
_cell_volume 682.875123
_symmetry_space_group_name_H-M "P -1"
_symmetry_group_IT_number 2
_symmetry_cell_setting 'triclinic'
loop_
_space_group_symop_operation_xyz
x,y,z
-x,-y,-z
loop_
_atom_site_type_symbol
_atom_site_label
_atom_site_fract_x
_atom_site_fract_y
_atom_site_fract_z
Si Si1 0.179285 0.710965 0.277672
Si Si2 0.829850 0.740807 0.961198
Si Si3 0.011643 0.213577 0.164436
Si Si4 0.571734 0.176347 0.820614
Si Si5 0.630927 0.355420 0.119150
Si Si6 0.374850 0.178269 0.311710
Si Si7 0.983533 0.374947 0.594253
O O1 0.105983 0.585841 0.366103
O O2 0.390494 0.771047 0.267620
O O3 0.309646 0.999975 0.266742
O O4 0.893381 0.511937 0.202636
O O5 0.542754 0.621547 0.896940
O O6 0.003515 0.839257 0.912179
O O7 0.741488 0.508273 0.036698
O O8 0.000000 0.000000 0.000000
O O9 0.714956 0.983383 0.180717
O O10 0.212711 0.227083 0.247854
O O11 0.169248 0.518916 0.145632
O O12 0.562846 0.963572 0.872328
O O13 0.238842 0.956774 0.390080
O O14 0.707578 0.458435 0.345657
O O15 0.000000 0.500000 0.500000
#
# Coordination Sequence:
#
# PCOD9006871 Si02
#       7
#     2   2   2   2   2   2   2
#     4  10  22  42  68  91 130 165 216 262 317 381
#     4  11  26  42  68  88 132 164 227 270 319 362
#     4  12  26  41  65  95 128 176 209 263 314 381
#     4  12  25  41  63  93 132 168 218 254 326 379
#     4  11  23  45  63  94 122 176 212 271 319 374
#     4  10  22  40  69  94 132 160 218 256 316 375
#     4  10  21  38  72 103 124 159 215 269 308 374
#
# _framework density 20.501553999999999
#
# number of rings (size 3 to 8) (size 9 to 14) (size 15 to 20)
#    0.857    0.286    1.429    5.571    6.000    1.143 
#    0.000    0.000    0.000    5.143    0.000    0.000 
#    0.000    0.000    0.000    0.000    0.000    0.000 
#
# Total GULP energy -78199.793753 kJ/mol
# GULP energy per Si atom -5585.699554 kJ/mol
# Density = 2.045489 g / cm^3
# Si number density = 20.501554 Si / 1000 Ang^3
#
#
#
# Elastic Constant Matrix: (Units=GPa)
#
#
# Indices 1 2 3 4 5 6 
#
# 1 123.5093 25.1702 48.9475 -2.2380 -31.7058 21.0549
# 2 25.1702 65.6344 7.4532 -8.2812 -11.9348 11.7963
# 3 48.9475 7.4532 99.9055 -20.9877 -33.6974 6.2114
# 4 -2.2380 -8.2812 -20.9877 27.0116 8.9668 -1.3632
# 5 -31.7058 -11.9348 -33.6974 8.9668 26.1136 -12.1677
# 6 21.0549 11.7963 6.2114 -1.3632 -12.1677 38.4491
#
#
#
# Elastic Compliance Matrix: (Units=1/GPa)
#
#
# Indices 1 2 3 4 5 6 
#
# 1 0.013373 -0.003080 -0.003864 -0.006594 0.010928 -0.002529
# 2 -0.003080 0.018305 0.003624 0.006016 0.006138 -0.002359
# 3 -0.003864 0.003624 0.021323 0.009787 0.023629 0.005384
# 4 -0.006594 0.006016 0.009787 0.049219 -0.010122 -0.001274
# 5 0.010928 0.006138 0.023629 -0.010122 0.097031 0.018663
# 6 -0.002529 -0.002359 0.005384 -0.001274 0.018663 0.033108
#
#
# Mechanical properties :
#
#
# Convention : Reuss Voigt Hill
#
# Bulk Modulus (GPa) = 21.56965 50.24347 35.90656
# Shear Modulus (GPa) = 19.65013 32.14676 25.89844
#
# Velocity S-wave (km/s) = 3.09928 3.96411 3.55807
# Velocity P-wave (km/s) = 4.83230 6.74630 5.86787
#
# Compressibility (1/GPa) = 0.04636145
#
# Stress axis : x y z
#
# Youngs Moduli (GPa) = 74.78022 54.63118 46.89742
#
# Poissons Ratio (x) = 0.16825 0.18120
# Poissons Ratio (y) = 0.23030 -0.16996
# Poissons Ratio (z) = 0.28894 -0.19799
#
# Static dielectric constant tensor:
#      x y z
#    x 1.763150 0.028810 -0.021240 
#    y 0.028810 1.763800 -0.017720 
#    z -0.021240 -0.017720 1.733400 
# 
# From -- ./inp_files/492490.got.cif
#   From: 2010.05.17/outbox.cif.g08.bks.cpg/sg2_247_cif.got.tgz:492490.got - 2010.06.03 11:33:40.
