data_PCOD9006574
_publ_section_title
;
Structure prediction by ZEFSAII (Michael W. Deem and Ramdas Pophale) SiO2 
 PCOD9006574
Probable space group: P -1
;
_chemical_formula_sum "Si O2"
_cell_formula_units_Z 16
_cell_length_a 12.589716
_cell_length_b 18.776236
_cell_length_c 6.631808
_cell_angle_alpha 61.279744
_cell_angle_beta 44.270341
_cell_angle_gamma 41.593109
_cell_volume 721.308755
_symmetry_space_group_name_H-M "P -1"
_symmetry_group_IT_number 2
_symmetry_cell_setting 'triclinic'
loop_
_space_group_symop_operation_xyz
x,y,z
-x,-y,-z
loop_
_atom_site_type_symbol
_atom_site_label
_atom_site_fract_x
_atom_site_fract_y
_atom_site_fract_z
Si Si1 0.550307 0.491617 0.210859
Si Si2 0.827312 0.245063 0.177204
Si Si3 0.113843 0.046095 0.771972
Si Si4 0.763270 0.502101 0.611484
Si Si5 0.187959 0.273055 0.317027
Si Si6 0.434807 0.127339 0.562620
Si Si7 0.579862 0.713083 0.342665
Si Si8 0.850729 0.857857 0.773131
O O1 0.500000 0.500000 0.500000
O O2 0.735963 0.364868 0.090636
O O3 0.354458 0.526617 0.314955
O O4 0.631532 0.547870 0.935512
O O5 0.633162 0.255732 0.443545
O O6 0.955025 0.205346 0.261524
O O7 0.968075 0.160865 0.924881
O O8 0.158115 0.059235 0.465641
O O9 0.334025 0.970150 0.679869
O O10 0.000000 0.000000 0.000000
O O11 0.731014 0.594731 0.401153
O O12 0.992678 0.395045 0.474057
O O13 0.292130 0.194786 0.474194
O O14 0.135194 0.222633 0.291446
O O15 0.339115 0.279694 0.985323
O O16 0.441953 0.206070 0.580488
O O17 0.338220 0.093496 0.887759
#
# Coordination Sequence:
#
# PCOD9006574 Si02
#       8
#     2   2   2   2   2   2   2   2
#     4  10  21  38  66  99 136 171 219 273 333 396
#     4  11  24  43  69 103 131 177 227 275 330 400
#     4  12  26  45  71  99 134 177 224 281 338 392
#     4  10  21  39  63  98 133 173 223 272 332 398
#     4  11  24  44  68  97 137 178 221 277 336 402
#     4  11  25  46  65  99 134 178 225 276 335 403
#     4  10  24  41  65  98 137 175 225 278 333 391
#     4  11  25  43  71  96 136 173 226 275 337 399
#
# _framework density 22.181902000000001
#
# number of rings (size 3 to 8) (size 9 to 14) (size 15 to 20)
#    0.000    1.250    1.250    3.750    1.750   10.000 
#    0.000    0.000    0.000    0.000    0.000    0.000 
#    0.000    0.000    0.000    0.000    0.000    0.000 
#
# Total GULP energy -89533.467084 kJ/mol
# GULP energy per Si atom -5595.841693 kJ/mol
# Density = 2.213141 g / cm^3
# Si number density = 22.181902 Si / 1000 Ang^3
#
#
#
# Elastic Constant Matrix: (Units=GPa)
#
#
# Indices 1 2 3 4 5 6 
#
# 1 83.5833 22.4660 34.4165 -6.8631 -3.7007 -20.5112
# 2 22.4660 95.3069 46.0419 7.1722 -8.5109 -19.0722
# 3 34.4165 46.0419 154.6117 -17.7842 -10.7225 -5.8702
# 4 -6.8631 7.1722 -17.7842 36.6571 -3.2267 -2.2843
# 5 -3.7007 -8.5109 -10.7225 -3.2267 30.4284 -3.2259
# 6 -20.5112 -19.0722 -5.8702 -2.2843 -3.2259 35.1247
#
#
#
# Elastic Compliance Matrix: (Units=1/GPa)
#
#
# Indices 1 2 3 4 5 6 
#
# 1 0.015613 -0.000768 -0.002483 0.002583 0.001998 0.008637
# 2 -0.000768 0.014661 -0.004254 -0.004412 0.002758 0.006768
# 3 -0.002483 -0.004254 0.008902 0.004747 0.001959 -0.001784
# 4 0.002583 -0.004412 0.004747 0.031458 0.004338 0.002350
# 5 0.001998 0.002758 0.001959 0.004338 0.035724 0.006555
# 6 0.008637 0.006768 -0.001784 0.002350 0.006555 0.037645
#
#
# Mechanical properties :
#
#
# Convention : Reuss Voigt Hill
#
# Bulk Modulus (GPa) = 41.38280 59.92784 50.65532
# Shear Modulus (GPa) = 29.92777 35.81389 32.87083
#
# Velocity S-wave (km/s) = 3.67713 4.02251 3.85369
# Velocity P-wave (km/s) = 6.06011 6.97491 6.53354
#
# Compressibility (1/GPa) = 0.02416463
#
# Stress axis : x y z
#
# Youngs Moduli (GPa) = 64.04901 68.20681 112.33898
#
# Poissons Ratio (x) = 0.05241 0.27894
# Poissons Ratio (y) = 0.04922 0.47791
# Poissons Ratio (z) = 0.15903 0.29017
#
# Static dielectric constant tensor:
#      x y z
#    x 1.803770 0.015440 0.004770 
#    y 0.015440 1.818870 -0.010470 
#    z 0.004770 -0.010470 1.866810 
# 
# From -- ./inp_files/83013.got.cif
#   From: 2010.05.17/outbox.cif.g08.bks.cpg/sg2_42_cif.got.tgz:83013.got - 2010.06.03 11:33:40.
