data_PCOD9006766
_publ_section_title
;
Structure prediction by ZEFSAII (Michael W. Deem and Ramdas Pophale) SiO2 
 PCOD9006766
Probable space group: P -1
;
_chemical_formula_sum "Si O2"
_cell_formula_units_Z 16
_cell_length_a 20.392624
_cell_length_b 13.564004
_cell_length_c 8.433840
_cell_angle_alpha 107.033721
_cell_angle_beta 96.478271
_cell_angle_gamma 20.918884
_cell_volume 702.516009
_symmetry_space_group_name_H-M "P -1"
_symmetry_group_IT_number 2
_symmetry_cell_setting 'triclinic'
loop_
_space_group_symop_operation_xyz
x,y,z
-x,-y,-z
loop_
_atom_site_type_symbol
_atom_site_label
_atom_site_fract_x
_atom_site_fract_y
_atom_site_fract_z
Si Si1 0.696970 0.743078 0.826925
Si Si2 0.952867 0.258367 0.434168
Si Si3 0.082904 0.907064 0.656540
Si Si4 0.239997 0.161385 0.354866
Si Si5 0.633949 0.217332 0.999103
Si Si6 0.044212 0.692164 0.039104
Si Si7 0.618641 0.410625 0.589398
Si Si8 0.700170 0.762844 0.383526
O O1 0.762863 0.548751 0.643256
O O2 0.695475 0.845313 0.761003
O O3 0.901150 0.453511 0.857590
O O4 0.500000 0.000000 0.000000
O O5 0.939168 0.169414 0.299478
O O6 0.900896 0.427535 0.382524
O O7 0.169117 0.947280 0.439447
O O8 0.308703 0.614453 0.533081
O O9 0.000000 0.000000 0.500000
O O10 0.971633 0.165457 0.840410
O O11 0.333055 0.069185 0.501304
O O12 0.000000 0.500000 0.500000
O O13 0.316410 0.944797 0.189949
O O14 0.508049 0.361807 0.186327
O O15 0.500000 0.500000 0.000000
O O16 0.836040 0.968904 0.020530
O O17 0.237183 0.373161 0.832168
O O18 0.500000 0.500000 0.500000
O O19 0.500000 0.000000 0.500000
#
# Coordination Sequence:
#
# PCOD9006766 Si02
#       8
#     2   2   2   2   2   2   2   2
#     4  11  24  43  75 101 142 194 247 299 356 431
#     4  10  22  42  64  95 143 183 225 304 355 410
#     4  10  21  38  68  98 136 173 225 299 361 411
#     4  11  26  50  73 103 149 197 240 299 368 428
#     4  12  27  44  71 104 145 191 236 298 363 436
#     4  12  22  44  68 106 141 181 247 300 354 424
#     4  11  21  41  66  99 134 175 231 290 355 423
#     4  11  25  45  67  97 141 190 243 291 352 433
#
# _framework density 22.775279999999999
#
# number of rings (size 3 to 8) (size 9 to 14) (size 15 to 20)
#    0.000    1.000    5.000    2.250    3.500    4.000 
#    0.000    0.000    0.000    0.000    0.000    0.000 
#    0.000    0.000    0.000    0.000    0.000    0.000 
#
# Total GULP energy -89160.061202 kJ/mol
# GULP energy per Si atom -5572.503825 kJ/mol
# Density = 2.272344 g / cm^3
# Si number density = 22.775280 Si / 1000 Ang^3
#
#
#
# Elastic Constant Matrix: (Units=GPa)
#
#
# Indices 1 2 3 4 5 6 
#
# 1 105.6293 32.3301 47.8149 3.2545 30.0984 -13.4460
# 2 32.3301 97.9180 19.6481 -4.4984 12.8125 -6.4534
# 3 47.8149 19.6481 200.2030 14.3524 31.3626 -9.0508
# 4 3.2545 -4.4984 14.3524 28.1055 -6.3178 -1.6422
# 5 30.0984 12.8125 31.3626 -6.3178 49.5449 0.2137
# 6 -13.4460 -6.4534 -9.0508 -1.6422 0.2137 37.9192
#
#
#
# Elastic Compliance Matrix: (Units=1/GPa)
#
#
# Indices 1 2 3 4 5 6 
#
# 1 0.013652 -0.003172 -0.001509 -0.002637 -0.006871 0.003866
# 2 -0.003172 0.011577 -0.000434 0.002381 -0.000492 0.000848
# 3 -0.001509 -0.000434 0.006238 -0.003803 -0.003408 0.000734
# 4 -0.002637 0.002381 -0.003803 0.040136 0.008510 0.000253
# 5 -0.006871 -0.000492 -0.003408 0.008510 0.027741 -0.003121
# 6 0.003866 0.000848 0.000734 0.000253 -0.003121 0.028091
#
#
# Mechanical properties :
#
#
# Convention : Reuss Voigt Hill
#
# Bulk Modulus (GPa) = 47.08891 67.03738 57.06315
# Shear Modulus (GPa) = 34.54391 43.37773 38.96082
#
# Velocity S-wave (km/s) = 3.89874 4.36890 4.14050
# Velocity P-wave (km/s) = 6.40213 7.41269 6.92586
#
# Compressibility (1/GPa) = 0.02123642
#
# Stress axis : x y z
#
# Youngs Moduli (GPa) = 73.24814 86.38063 160.31818
#
# Poissons Ratio (x) = 0.27401 0.24194
# Poissons Ratio (y) = 0.23235 0.06954
# Poissons Ratio (z) = 0.11054 0.03747
#
# Static dielectric constant tensor:
#      x y z
#    x 1.921370 0.018070 0.001250 
#    y 0.018070 1.929180 -0.050140 
#    z 0.001250 -0.050140 2.033220 
# 
# From -- ./inp_files/347654.got.cif
#   From: 2010.05.17/outbox.cif.g08.bks.cpg/sg2_174_cif.got.tgz:347654.got - 2010.06.03 11:33:40.
