data_PCOD9006424
_publ_section_title
;
Structure prediction by ZEFSAII (Michael W. Deem and Ramdas Pophale) SiO2 
 PCOD9006424
Probable space group: P -1
;
_chemical_formula_sum "Si O2"
_cell_formula_units_Z 16
_cell_length_a 17.009913
_cell_length_b 23.340207
_cell_length_c 14.372955
_cell_angle_alpha 21.365336
_cell_angle_beta 30.701224
_cell_angle_gamma 20.598361
_cell_volume 728.220432
_symmetry_space_group_name_H-M "P -1"
_symmetry_group_IT_number 2
_symmetry_cell_setting 'triclinic'
loop_
_space_group_symop_operation_xyz
x,y,z
-x,-y,-z
loop_
_atom_site_type_symbol
_atom_site_label
_atom_site_fract_x
_atom_site_fract_y
_atom_site_fract_z
Si Si1 0.731658 0.023904 0.675885
Si Si2 0.747604 0.758535 0.225277
Si Si3 0.101766 0.610432 0.494434
Si Si4 0.364941 0.941577 0.735682
Si Si5 0.288977 0.998761 0.944807
Si Si6 0.464457 0.513308 0.750926
Si Si7 0.837928 0.235629 0.494643
Si Si8 0.789887 0.567783 0.154844
O O1 0.946959 0.866920 0.627847
O O2 0.506030 0.122072 0.709585
O O3 0.686952 0.240491 0.419187
O O4 0.768601 0.892091 0.930854
O O5 0.903995 0.500093 0.421278
O O6 0.792755 0.787607 0.238763
O O7 0.285429 0.609070 0.301811
O O8 0.197207 0.427166 0.755611
O O9 0.865963 0.860342 0.383673
O O10 0.500000 0.000000 0.500000
O O11 0.287733 0.983829 0.857865
O O12 0.519726 0.680109 0.944478
O O13 0.162636 0.942480 0.201993
O O14 0.552176 0.796527 0.011413
O O15 0.375796 0.582116 0.631284
O O16 0.815035 0.367037 0.406281
O O17 0.000000 0.500000 0.000000
#
# Coordination Sequence:
#
# PCOD9006424 Si02
#       8
#     2   2   2   2   2   2   2   2
#     4  10  21  38  66 104 131 167 209 276 332 372
#     4  10  21  40  65  97 137 167 213 265 327 390
#     4  11  24  43  64  92 134 178 209 261 331 388
#     4  12  28  44  64  92 134 179 217 264 327 394
#     4  12  23  41  65  99 130 163 221 276 322 377
#     4  11  22  43  65  93 131 169 218 265 321 390
#     4  12  22  37  68 103 130 160 216 284 324 373
#     4  12  22  38  65  93 128 167 218 274 317 378
#
# _framework density 21.971368999999999
#
# number of rings (size 3 to 8) (size 9 to 14) (size 15 to 20)
#    0.000    0.750    3.750    5.625    1.750    0.500 
#    0.000    0.000    0.000    3.750    0.000    0.000 
#    0.000    0.000    0.000    0.000    0.000    0.000 
#
# Total GULP energy -89456.910994 kJ/mol
# GULP energy per Si atom -5591.056937 kJ/mol
# Density = 2.192136 g / cm^3
# Si number density = 21.971369 Si / 1000 Ang^3
#
#
#
# Elastic Constant Matrix: (Units=GPa)
#
#
# Indices 1 2 3 4 5 6 
#
# 1 7.2919 0.6328 -5.1800 -38.5074 -49.3083 -3.6616
# 2 0.6328 80.5528 27.3333 8.2399 -8.8053 -1.5745
# 3 -5.1800 27.3333 96.0996 -10.7254 -37.1792 -4.2348
# 4 -38.5074 8.2399 -10.7254 21.5636 -14.6862 -8.9300
# 5 -49.3083 -8.8053 -37.1792 -14.6862 17.9318 -19.5694
# 6 -3.6616 -1.5745 -4.2348 -8.9300 -19.5694 16.5369
#
#
#
# Elastic Compliance Matrix: (Units=1/GPa)
#
#
# Indices 1 2 3 4 5 6 
#
# 1 0.008341 0.000751 -0.006215 -0.004918 -0.013210 -0.017961
# 2 0.000751 0.014106 -0.003154 -0.002838 0.002667 0.002325
# 3 -0.006215 -0.003154 0.010887 -0.003838 0.000887 0.000089
# 4 -0.004918 -0.002838 -0.003838 0.021441 -0.016353 -0.010116
# 5 -0.013210 0.002667 0.000887 -0.016353 0.010659 0.001339
# 6 -0.017961 0.002325 0.000089 -0.010116 0.001339 0.052860
#
#
# Mechanical properties :
#
#
# Convention : Reuss Voigt Hill
#
# Bulk Modulus (GPa) = 62.11849 25.50183 43.81016
# Shear Modulus (GPa) = 35.48731 21.95036 28.71883
#
# Velocity S-wave (km/s) = 4.02327 3.16419 3.61931
# Velocity P-wave (km/s) = 7.06513 4.99815 6.11954
#
# Compressibility (1/GPa) = 0.01609827
#
# Stress axis : x y z
#
# Youngs Moduli (GPa) = 119.88589 70.89280 91.85463
#
# Poissons Ratio (x) = -0.05327 0.57089
# Poissons Ratio (y) = -0.09008 0.28971
# Poissons Ratio (z) = 0.74511 0.22360
#
# Static dielectric constant tensor:
#      x y z
#    x 1.803310 0.017140 -0.012820 
#    y 0.017140 1.781780 -0.019740 
#    z -0.012820 -0.019740 1.792640 
# 
# From -- ./inp_files/336838.got.cif
#   From: 2010.05.17/outbox.cif.g08.bks.cpg/sg2_169_cif.got.tgz:336838.got - 2010.06.03 11:33:40.
