data_PCOD9006797
_publ_section_title
;
Structure prediction by ZEFSAII (Michael W. Deem and Ramdas Pophale) SiO2 
 PCOD9006797
Probable space group: P -1
;
_chemical_formula_sum "Si O2"
_cell_formula_units_Z 13
_cell_length_a 9.121493
_cell_length_b 14.548061
_cell_length_c 7.209757
_cell_angle_alpha 60.634140
_cell_angle_beta 133.621896
_cell_angle_gamma 135.705934
_cell_volume 483.651915
_symmetry_space_group_name_H-M "P -1"
_symmetry_group_IT_number 2
_symmetry_cell_setting 'triclinic'
loop_
_space_group_symop_operation_xyz
x,y,z
-x,-y,-z
loop_
_atom_site_type_symbol
_atom_site_label
_atom_site_fract_x
_atom_site_fract_y
_atom_site_fract_z
Si Si1 0.000000 0.500000 0.000000
Si Si2 0.662880 0.981196 0.339171
Si Si3 0.049826 0.816730 0.334426
Si Si4 0.569141 0.624744 0.682813
Si Si5 0.795585 0.310350 0.661422
Si Si6 0.505131 0.367436 0.833703
Si Si7 0.044748 0.917516 0.862493
O O1 0.062121 0.605287 0.114686
O O2 0.238306 0.618463 0.958463
O O3 0.410204 0.841059 0.306440
O O4 0.880504 0.967471 0.616782
O O5 0.745069 0.109700 0.397627
O O6 0.722244 0.011775 0.144299
O O7 0.053941 0.702426 0.356309
O O8 0.766296 0.755394 0.215920
O O9 0.121451 0.924528 0.133185
O O10 0.369842 0.639303 0.596350
O O11 0.538870 0.493184 0.829198
O O12 0.506388 0.615247 0.417535
O O13 0.846189 0.759671 0.813267
#
# Coordination Sequence:
#
# PCOD9006797 Si02
#       7
#     1   2   2   2   2   2   2
#     4  10  22  42  62 100 126 176 224 270 328 402
#     4  10  22  44  64  98 137 177 213 275 335 400
#     4  12  23  40  70 106 127 174 225 279 320 401
#     4   9  19  41  62  92 130 185 207 269 341 385
#     4  10  23  40  67  96 139 170 227 271 327 395
#     4  10  21  39  68  92 134 171 224 274 327 391
#     4  10  21  38  69  93 133 179 219 269 337 385
#
# _framework density 26.878837000000001
#
# number of rings (size 3 to 8) (size 9 to 14) (size 15 to 20)
#    0.000    1.846    1.538    1.846    2.154    3.692 
#    0.000    7.692    3.385    0.000    0.000    0.000 
#    0.000    0.000    0.000    0.000    0.000    0.000 
#
# Total GULP energy -72496.055174 kJ/mol
# GULP energy per Si atom -5576.619629 kJ/mol
# Density = 2.681766 g / cm^3
# Si number density = 26.878837 Si / 1000 Ang^3
#
#
#
# Elastic Constant Matrix: (Units=GPa)
#
#
# Indices 1 2 3 4 5 6 
#
# 1 224.3456 118.8891 264.4103 199.3549 -52.8938 198.9292
# 2 118.8891 181.1999 187.4955 157.6080 -36.9551 137.9567
# 3 264.4103 187.4955 493.2906 340.5452 -107.8216 373.6660
# 4 199.3549 157.6080 340.5452 315.1032 -76.9762 286.5691
# 5 -52.8938 -36.9551 -107.8216 -76.9762 59.8940 -70.8592
# 6 198.9292 137.9567 373.6660 286.5691 -70.8592 366.7511
#
#
#
# Elastic Compliance Matrix: (Units=1/GPa)
#
#
# Indices 1 2 3 4 5 6 
#
# 1 0.013141 -0.001326 -0.006124 -0.002876 -0.002250 0.001423
# 2 -0.001326 0.010573 -0.002445 -0.004297 -0.001953 0.002214
# 3 -0.006124 -0.002445 0.017536 -0.002739 0.009779 -0.009596
# 4 -0.002876 -0.004297 -0.002739 0.017114 0.004034 -0.006626
# 5 -0.002250 -0.001953 0.009779 0.004034 0.029931 -0.005378
# 6 0.001423 0.002214 -0.009596 -0.006626 -0.005378 0.015038
#
#
# Mechanical properties :
#
#
# Convention : Reuss Voigt Hill
#
# Bulk Modulus (GPa) = 46.59791 226.71399 136.65595
# Shear Modulus (GPa) = 38.37959 170.21908 104.29933
#
# Velocity S-wave (km/s) = 3.78282 7.96654 6.23600
# Velocity P-wave (km/s) = 6.03768 13.00580 10.13914
#
# Compressibility (1/GPa) = 0.02146019
#
# Stress axis : x y z
#
# Youngs Moduli (GPa) = 76.09566 94.58194 57.02417
#
# Poissons Ratio (x) = 0.12543 0.34923
# Poissons Ratio (y) = 0.10092 0.13941
# Poissons Ratio (z) = 0.46603 0.23123
#
# Static dielectric constant tensor:
#      x y z
#    x 2.252370 -0.063020 0.205850 
#    y -0.063020 2.045370 0.050470 
#    z 0.205850 0.050470 2.629090 
# 
# From -- ./inp_files/196357.got.cif
#   From: 2010.05.17/outbox.cif.g08.bks.cpg/sg2_99_cif.got.tgz:196357.got - 2010.06.03 11:33:40.
