data_PCOD9006365
_publ_section_title
;
Structure prediction by ZEFSAII (Michael W. Deem and Ramdas Pophale) SiO2 
 PCOD9006365
Probable space group: P -1
;
_chemical_formula_sum "Si O2"
_cell_formula_units_Z 10
_cell_length_a 8.564284
_cell_length_b 4.878774
_cell_length_c 11.030932
_cell_angle_alpha 88.977050
_cell_angle_beta 70.042443
_cell_angle_gamma 64.066565
_cell_volume 384.866059
_symmetry_space_group_name_H-M "P -1"
_symmetry_group_IT_number 2
_symmetry_cell_setting 'triclinic'
loop_
_space_group_symop_operation_xyz
x,y,z
-x,-y,-z
loop_
_atom_site_type_symbol
_atom_site_label
_atom_site_fract_x
_atom_site_fract_y
_atom_site_fract_z
Si Si1 0.109216 0.708344 0.062595
Si Si2 0.792121 0.616379 0.598340
Si Si3 0.421282 0.266233 0.119994
Si Si4 0.740106 0.808383 0.176697
Si Si5 0.431937 0.730536 0.405648
O O1 0.930131 0.759747 0.191986
O O2 0.300126 0.606208 0.090156
O O3 0.182006 0.409773 0.959546
O O4 0.000000 0.000000 0.000000
O O5 0.733450 0.753412 0.749130
O O6 0.672788 0.907432 0.541365
O O7 0.718172 0.360563 0.615978
O O8 0.000000 0.500000 0.500000
O O9 0.600917 0.154212 0.163201
O O10 0.500000 0.000000 0.000000
O O11 0.610260 0.697012 0.282933
O O12 0.500000 0.500000 0.500000
#
# Coordination Sequence:
#
# PCOD9006365 Si02
#       5
#     2   2   2   2   2
#     4  10  21  38  65  97 128 180 231 286 342 419
#     4  11  25  46  70 108 139 187 242 291 357 430
#     4   9  21  44  67  96 143 182 228 290 359 412
#     4   9  22  41  59  96 135 174 234 277 353 414
#     4  11  25  45  73  99 145 188 236 295 359 423
#
# _framework density 25.983067999999999
#
# number of rings (size 3 to 8) (size 9 to 14) (size 15 to 20)
#    0.000    2.000    0.000    1.200    8.400    2.400 
#   21.600    0.000    0.000    0.000    0.000    0.000 
#    0.000    0.000    0.000    0.000    0.000    0.000 
#
# Total GULP energy -55781.119607 kJ/mol
# GULP energy per Si atom -5578.111961 kJ/mol
# Density = 2.592393 g / cm^3
# Si number density = 25.983068 Si / 1000 Ang^3
#
#
#
# Elastic Constant Matrix: (Units=GPa)
#
#
# Indices 1 2 3 4 5 6 
#
# 1 147.9562 73.3419 60.7210 3.6473 -53.0584 -28.5044
# 2 73.3419 170.7968 28.4342 -10.6950 -20.8799 -30.8128
# 3 60.7210 28.4342 142.5454 -7.5321 -45.7115 -1.7963
# 4 3.6473 -10.6950 -7.5321 38.5281 -3.1439 -4.1497
# 5 -53.0584 -20.8799 -45.7115 -3.1439 53.0068 7.0941
# 6 -28.5044 -30.8128 -1.7963 -4.1497 7.0941 65.9665
#
#
#
# Elastic Compliance Matrix: (Units=1/GPa)
#
#
# Indices 1 2 3 4 5 6 
#
# 1 0.013650 -0.003913 -0.001865 -0.001618 0.010038 0.002838
# 2 -0.003913 0.008022 -0.000067 0.002757 -0.000964 0.002331
# 3 -0.001865 -0.000067 0.010286 0.002637 0.007290 -0.001175
# 4 -0.001618 0.002757 0.002637 0.027867 0.003115 0.002078
# 5 0.010038 -0.000964 0.007290 0.003115 0.034935 0.000525
# 6 0.002838 0.002331 -0.001175 0.002078 0.000525 0.017517
#
#
# Mechanical properties :
#
#
# Convention : Reuss Voigt Hill
#
# Bulk Modulus (GPa) = 49.34078 87.36583 68.35330
# Shear Modulus (GPa) = 38.24872 51.42040 44.83456
#
# Velocity S-wave (km/s) = 3.84091 4.45342 4.15846
# Velocity P-wave (km/s) = 6.22101 7.75507 7.03001
#
# Compressibility (1/GPa) = 0.02026721
#
# Stress axis : x y z
#
# Youngs Moduli (GPa) = 73.25812 124.65929 97.22385
#
# Poissons Ratio (x) = 0.48782 0.18131
# Poissons Ratio (y) = 0.28668 0.00653
# Poissons Ratio (z) = 0.13662 0.00837
#
# Static dielectric constant tensor:
#      x y z
#    x 2.119800 -0.150950 0.034250 
#    y -0.150950 1.865870 -0.132700 
#    z 0.034250 -0.132700 2.083640 
# 
# From -- ./inp_files/72614.got.cif
#   From: 2010.05.17/outbox.cif.g08.bks.cpg/sg2_37_cif.got.tgz:72614.got - 2010.06.03 11:33:40.
