data_PCOD9006125
_publ_section_title
;
Structure prediction by ZEFSAII (Michael W. Deem and Ramdas Pophale) SiO2 
 PCOD9006125
Probable space group: P -1
;
_chemical_formula_sum "Si O2"
_cell_formula_units_Z 15
_cell_length_a 8.436995
_cell_length_b 15.073446
_cell_length_c 12.559184
_cell_angle_alpha 133.253895
_cell_angle_beta 36.240800
_cell_angle_gamma 129.698787
_cell_volume 673.826878
_symmetry_space_group_name_H-M "P -1"
_symmetry_group_IT_number 2
_symmetry_cell_setting 'triclinic'
loop_
_space_group_symop_operation_xyz
x,y,z
-x,-y,-z
loop_
_atom_site_type_symbol
_atom_site_label
_atom_site_fract_x
_atom_site_fract_y
_atom_site_fract_z
Si Si1 0.252136 0.917019 0.001293
Si Si2 0.312972 0.472769 0.471606
Si Si3 0.478150 0.740070 0.568332
Si Si4 0.718126 0.467942 0.061734
Si Si5 0.000000 0.000000 0.000000
Si Si6 0.488882 0.910153 0.332451
Si Si7 0.279863 0.255342 0.779074
Si Si8 0.960327 0.283125 0.643955
O O1 0.373764 0.829514 0.780464
O O2 0.031206 0.824377 0.118486
O O3 0.500000 0.000000 0.000000
O O4 0.081869 0.992064 0.078474
O O5 0.500000 0.500000 0.500000
O O6 0.262114 0.608613 0.580743
O O7 0.480175 0.434919 0.250733
O O8 0.063857 0.365374 0.551559
O O9 0.541945 0.779771 0.445238
O O10 0.771319 0.716376 0.429930
O O11 0.700462 0.596628 0.117617
O O12 0.755737 0.354600 0.874838
O O13 0.000000 0.500000 0.000000
O O14 0.321689 0.034796 0.821851
O O15 0.594020 0.788767 0.219132
O O16 0.180355 0.856896 0.420019
O O17 0.500000 0.000000 0.500000
#
# Coordination Sequence:
#
# PCOD9006125 Si02
#       8
#     2   2   2   2   1   2   2   2
#     4  11  25  40  67  92 127 175 228 271 326 399
#     4   9  18  35  60  95 128 159 202 265 328 386
#     4  10  21  38  64  98 126 163 214 269 327 397
#     4  11  19  37  63  96 131 160 212 270 326 396
#     4  10  26  48  60  90 130 170 222 288 320 366
#     4  11  26  46  64  88 134 178 220 275 325 388
#     4  10  23  42  64  90 130 173 211 275 328 383
#     4  11  23  36  67  96 127 172 210 265 330 394
#
# _framework density 22.260911
#
# number of rings (size 3 to 8) (size 9 to 14) (size 15 to 20)
#    0.000    1.600    4.000    1.600    7.467    2.133 
#    0.000    2.667    0.000    0.000    0.000    0.000 
#    0.000    0.000    0.000    0.000    0.000    0.000 
#
# Total GULP energy -83516.115776 kJ/mol
# GULP energy per Si atom -5567.741052 kJ/mol
# Density = 2.221024 g / cm^3
# Si number density = 22.260911 Si / 1000 Ang^3
#
#
#
# Elastic Constant Matrix: (Units=GPa)
#
#
# Indices 1 2 3 4 5 6 
#
# 1 33.4133 11.6046 -15.5771 -1.5342 0.6419 -1.2696
# 2 11.6046 75.9892 39.0060 -29.2231 17.0615 8.0009
# 3 -15.5771 39.0060 88.9394 -18.7724 13.9221 -2.6871
# 4 -1.5342 -29.2231 -18.7724 39.1617 -10.2312 1.4142
# 5 0.6419 17.0615 13.9221 -10.2312 21.5864 0.6161
# 6 -1.2696 8.0009 -2.6871 1.4142 0.6161 38.4442
#
#
#
# Elastic Compliance Matrix: (Units=1/GPa)
#
#
# Indices 1 2 3 4 5 6 
#
# 1 0.041414 -0.015115 0.013273 -0.003394 0.000387 0.005560
# 2 -0.015115 0.029500 -0.011535 0.013926 -0.008603 -0.007819
# 3 0.013273 -0.011535 0.019369 0.000031 -0.003877 0.004254
# 4 -0.003394 0.013926 0.000031 0.037836 0.007136 -0.004514
# 5 0.000387 -0.008603 -0.003877 0.007136 0.058987 0.000325
# 6 0.005560 -0.007819 0.004254 -0.004514 0.000325 0.028281
#
#
# Mechanical properties :
#
#
# Convention : Reuss Voigt Hill
#
# Bulk Modulus (GPa) = 15.74092 29.82320 22.78206
# Shear Modulus (GPa) = 18.98855 30.72569 24.85712
#
# Velocity S-wave (km/s) = 2.92378 3.71921 3.34522
# Velocity P-wave (km/s) = 4.29936 5.64531 5.01767
#
# Compressibility (1/GPa) = 0.06352868
#
# Stress axis : x y z
#
# Youngs Moduli (GPa) = 24.14659 33.89870 51.62866
#
# Poissons Ratio (x) = 0.51239 -0.68529
# Poissons Ratio (y) = 0.36498 0.59554
# Poissons Ratio (z) = -0.32051 0.39102
#
# Static dielectric constant tensor:
#      x y z
#    x 1.839210 -0.013690 -0.030900 
#    y -0.013690 1.920940 -0.006020 
#    z -0.030900 -0.006020 1.835690 
# 
# From -- ./inp_files/399531.got.cif
#   From: 2010.05.17/outbox.cif.g08.bks.cpg/sg2_200_cif.got.tgz:399531.got - 2010.06.03 11:33:40.
