data_PCOD9006964
_publ_section_title
;
Structure prediction by ZEFSAII (Michael W. Deem and Ramdas Pophale) SiO2 
 PCOD9006964
Probable space group: P -1
;
_chemical_formula_sum "Si O2"
_cell_formula_units_Z 16
_cell_length_a 7.981200
_cell_length_b 16.606868
_cell_length_c 19.178065
_cell_angle_alpha 21.766044
_cell_angle_beta 45.879866
_cell_angle_gamma 57.112354
_cell_volume 623.384401
_symmetry_space_group_name_H-M "P -1"
_symmetry_group_IT_number 2
_symmetry_cell_setting 'triclinic'
loop_
_space_group_symop_operation_xyz
x,y,z
-x,-y,-z
loop_
_atom_site_type_symbol
_atom_site_label
_atom_site_fract_x
_atom_site_fract_y
_atom_site_fract_z
Si Si1 0.371906 0.774709 0.827978
Si Si2 0.562288 0.890124 0.976927
Si Si3 0.003922 0.762513 0.220271
Si Si4 0.279380 0.597491 0.506241
Si Si5 0.868894 0.725196 0.659811
Si Si6 0.346696 0.195937 0.140489
Si Si7 0.483901 0.574984 0.602736
Si Si8 0.582276 0.708063 0.628908
O O1 0.609759 0.744194 0.746775
O O2 0.451373 0.818239 0.850981
O O3 0.365201 0.012757 0.605739
O O4 0.139828 0.515752 0.106500
O O5 0.586490 0.844100 0.925180
O O6 0.683853 0.163464 0.735498
O O7 0.656076 0.709010 0.132770
O O8 0.266834 0.811427 0.140494
O O9 0.969167 0.598123 0.295302
O O10 0.766382 0.654910 0.426221
O O11 0.000000 0.000000 0.000000
O O12 0.500000 0.500000 0.500000
O O13 0.326369 0.657752 0.526097
O O14 0.821826 0.699530 0.610141
O O15 0.088851 0.976449 0.410150
O O16 0.360929 0.466907 0.919046
O O17 0.527845 0.659213 0.601618
#
# Coordination Sequence:
#
# PCOD9006964 Si02
#       8
#     2   2   2   2   2   2   2   2
#     4  10  21  39  68  90 126 163 203 246 308 365
#     4  11  22  41  59  87 122 158 201 252 300 353
#     4  11  22  41  62  85 119 158 202 251 298 354
#     4  10  21  39  58  83 115 151 201 250 294 361
#     4  10  22  41  61  96 125 162 201 252 304 366
#     4  10  23  40  60  91 130 157 207 253 302 361
#     4  10  22  41  60  87 121 158 201 250 307 353
#     4  10  22  41  61  92 125 159 206 255 297 371
#
# _framework density 25.666345
#
# number of rings (size 3 to 8) (size 9 to 14) (size 15 to 20)
#    0.000    1.750    2.500    1.875    0.000    6.500 
#    6.750    0.000    0.000    0.000    0.000    0.000 
#    0.000    0.000    0.000    0.000    0.000    0.000 
#
# Total GULP energy -89372.530655 kJ/mol
# GULP energy per Si atom -5585.783166 kJ/mol
# Density = 2.560793 g / cm^3
# Si number density = 25.666345 Si / 1000 Ang^3
#
#
#
# Elastic Constant Matrix: (Units=GPa)
#
#
# Indices 1 2 3 4 5 6 
#
# 1 54.7153 7.4913 42.7115 1.7770 15.8014 8.9903
# 2 7.4913 50.1653 31.0053 -4.1045 6.7906 10.9159
# 3 42.7115 31.0053 252.8945 -32.6635 21.3448 -16.6741
# 4 1.7770 -4.1045 -32.6635 41.9951 -11.0938 9.3648
# 5 15.8014 6.7906 21.3448 -11.0938 49.7333 -4.2282
# 6 8.9903 10.9159 -16.6741 9.3648 -4.2282 28.7030
#
#
#
# Elastic Compliance Matrix: (Units=1/GPa)
#
#
# Indices 1 2 3 4 5 6 
#
# 1 0.026999 0.002982 -0.005632 -0.004717 -0.008692 -0.012604
# 2 0.002982 0.025679 -0.004098 0.001386 -0.003581 -0.014060
# 3 -0.005632 -0.004098 0.006175 0.003593 0.001000 0.005885
# 4 -0.004717 0.001386 0.003593 0.029803 0.005921 -0.005814
# 5 -0.008692 -0.003581 0.001000 0.005921 0.024792 0.006386
# 6 -0.012604 -0.014060 0.005885 -0.005814 0.006386 0.050391
#
#
# Mechanical properties :
#
#
# Convention : Reuss Voigt Hill
#
# Bulk Modulus (GPa) = 22.04655 57.79904 39.92280
# Shear Modulus (GPa) = 25.98027 42.52410 34.25218
#
# Velocity S-wave (km/s) = 3.18501 4.07480 3.65707
# Velocity P-wave (km/s) = 4.70468 6.68633 5.78105
#
# Compressibility (1/GPa) = 0.04535857
#
# Stress axis : x y z
#
# Youngs Moduli (GPa) = 37.03835 38.94219 161.93032
#
# Poissons Ratio (x) = -0.11614 0.91203
# Poissons Ratio (y) = -0.11047 0.66356
# Poissons Ratio (z) = 0.20861 0.15958
#
# Static dielectric constant tensor:
#      x y z
#    x 1.985340 -0.002250 0.012700 
#    y -0.002250 2.148140 -0.037190 
#    z 0.012700 -0.037190 2.089530 
# 
# From -- ./inp_files/590870.got.cif
#   From: 2010.05.17/outbox.cif.g08.bks.cpg/sg2_296_cif.got.tgz:590870.got - 2010.06.03 11:33:40.
