data_PCOD9006973
_publ_section_title
;
Structure prediction by ZEFSAII (Michael W. Deem and Ramdas Pophale) SiO2 
 PCOD9006973
Probable space group: P -1
;
_chemical_formula_sum "Si O2"
_cell_formula_units_Z 16
_cell_length_a 8.768986
_cell_length_b 20.945302
_cell_length_c 6.119997
_cell_angle_alpha 49.559711
_cell_angle_beta 72.712259
_cell_angle_gamma 63.310709
_cell_volume 764.321005
_symmetry_space_group_name_H-M "P -1"
_symmetry_group_IT_number 2
_symmetry_cell_setting 'triclinic'
loop_
_space_group_symop_operation_xyz
x,y,z
-x,-y,-z
loop_
_atom_site_type_symbol
_atom_site_label
_atom_site_fract_x
_atom_site_fract_y
_atom_site_fract_z
Si Si1 0.052635 0.898079 0.635915
Si Si2 0.379525 0.759283 0.036900
Si Si3 0.586050 0.428726 0.438773
Si Si4 0.911735 0.775646 0.202412
Si Si5 0.052546 0.644730 0.050382
Si Si6 0.172068 0.782828 0.453149
Si Si7 0.273456 0.298994 0.255904
Si Si8 0.728285 0.531468 0.837113
O O1 0.089335 0.873362 0.422465
O O2 0.232690 0.838410 0.803038
O O3 0.000000 0.000000 0.500000
O O4 0.910862 0.856263 0.865684
O O5 0.348642 0.664992 0.258722
O O6 0.346524 0.778948 0.268074
O O7 0.558537 0.737132 0.886598
O O8 0.500000 0.500000 0.500000
O O9 0.445388 0.430022 0.314410
O O10 0.719263 0.461433 0.183106
O O11 0.985215 0.685858 0.224008
O O12 0.746271 0.774017 0.403391
O O13 0.042674 0.779868 0.324850
O O14 0.139451 0.537396 0.232838
O O15 0.888199 0.673402 0.898894
O O16 0.175426 0.698993 0.792022
O O17 0.255620 0.385876 0.218991
#
# Coordination Sequence:
#
# PCOD9006973 Si02
#       8
#     2   2   2   2   2   2   2   2
#     4  10  23  44  72  95 114 154 207 257 317 377
#     4  11  23  38  63  91 124 161 201 259 308 359
#     4  11  24  36  57  90 128 163 212 257 299 350
#     4   9  22  39  62  89 127 158 204 254 315 358
#     4  10  21  39  58  84 124 172 212 251 291 357
#     4   9  20  38  67  87 121 152 202 252 310 357
#     4  11  24  38  56  93 129 170 205 251 309 361
#     4  11  24  36  60  87 125 172 224 247 293 354
#
# _framework density 20.933612
#
# number of rings (size 3 to 8) (size 9 to 14) (size 15 to 20)
#    0.000    1.750    2.500    0.375    8.750    2.500 
#    0.000    0.625    0.000    7.500    0.000    0.000 
#    0.000    0.000    0.000    0.000    0.000    0.000 
#
# Total GULP energy -89229.658295 kJ/mol
# GULP energy per Si atom -5576.853643 kJ/mol
# Density = 2.088597 g / cm^3
# Si number density = 20.933612 Si / 1000 Ang^3
#
#
#
# Elastic Constant Matrix: (Units=GPa)
#
#
# Indices 1 2 3 4 5 6 
#
# 1 68.8777 49.3694 35.8098 2.8492 -10.4052 1.4826
# 2 49.3694 184.1012 64.2365 3.1782 -16.0085 9.6972
# 3 35.8098 64.2365 75.2397 16.6402 -21.0723 -5.4173
# 4 2.8492 3.1782 16.6402 39.5063 -8.0882 4.8646
# 5 -10.4052 -16.0085 -21.0723 -8.0882 38.5294 9.7732
# 6 1.4826 9.6972 -5.4173 4.8646 9.7732 19.6629
#
#
#
# Elastic Compliance Matrix: (Units=1/GPa)
#
#
# Indices 1 2 3 4 5 6 
#
# 1 0.020795 -0.002286 -0.008453 0.003172 0.001843 -0.004470
# 2 -0.002286 0.009359 -0.007888 0.004221 0.002044 -0.008677
# 3 -0.008453 -0.007888 0.028798 -0.011597 0.004425 0.013131
# 4 0.003172 0.004221 -0.011597 0.033385 0.007748 -0.017626
# 5 0.001843 0.002044 0.004425 0.007748 0.036405 -0.019939
# 6 -0.004470 -0.008677 0.013131 -0.017626 -0.019939 0.073362
#
#
# Mechanical properties :
#
#
# Convention : Reuss Voigt Hill
#
# Bulk Modulus (GPa) = 46.08736 69.67221 57.87979
# Shear Modulus (GPa) = 20.27644 31.45992 25.86818
#
# Velocity S-wave (km/s) = 3.11562 3.88086 3.51910
# Velocity P-wave (km/s) = 5.91663 7.31000 6.64991
#
# Compressibility (1/GPa) = 0.02169792
#
# Stress axis : x y z
#
# Youngs Moduli (GPa) = 48.08803 106.84738 34.72494
#
# Poissons Ratio (x) = 0.24429 0.29352
# Poissons Ratio (y) = 0.10995 0.27392
# Poissons Ratio (z) = 0.40647 0.84283
#
# Static dielectric constant tensor:
#      x y z
#    x 1.786550 -0.013750 -0.015640 
#    y -0.013750 1.776450 0.051130 
#    z -0.015640 0.051130 1.826410 
# 
# From -- ./inp_files/52197.got.cif
#   From: 2010.05.17/outbox.cif.g08.bks.cpg/sg2_27_cif.got.tgz:52197.got - 2010.06.03 11:33:40.
