data_PCOD9006931
_publ_section_title
;
Structure prediction by ZEFSAII (Michael W. Deem and Ramdas Pophale) SiO2 
 PCOD9006931
Probable space group: P -1
;
_chemical_formula_sum "Si O2"
_cell_formula_units_Z 14
_cell_length_a 8.331003
_cell_length_b 7.258513
_cell_length_c 17.724162
_cell_angle_alpha 62.716036
_cell_angle_beta 122.971534
_cell_angle_gamma 144.151545
_cell_volume 526.267865
_symmetry_space_group_name_H-M "P -1"
_symmetry_group_IT_number 2
_symmetry_cell_setting 'triclinic'
loop_
_space_group_symop_operation_xyz
x,y,z
-x,-y,-z
loop_
_atom_site_type_symbol
_atom_site_label
_atom_site_fract_x
_atom_site_fract_y
_atom_site_fract_z
Si Si1 0.183448 0.584057 0.248517
Si Si2 0.151586 0.612852 0.402715
Si Si3 0.512053 0.487897 0.828435
Si Si4 0.865103 0.905824 0.066692
Si Si5 0.207610 0.108988 0.686910
Si Si6 0.235936 0.987770 0.485626
Si Si7 0.256126 0.770102 0.071316
O O1 0.104752 0.616366 0.302392
O O2 0.147489 0.693399 0.144506
O O3 0.993481 0.221899 0.259945
O O4 0.517383 0.784833 0.297111
O O5 0.236292 0.882302 0.422290
O O6 0.885272 0.282808 0.437004
O O7 0.434841 0.695357 0.468675
O O8 0.845626 0.826589 0.858261
O O9 0.529758 0.249946 0.871305
O O10 0.338850 0.389628 0.725176
O O11 0.339773 0.405358 0.875979
O O12 0.655057 0.934965 0.991848
O O13 0.000000 0.000000 0.000000
O O14 0.001901 0.029668 0.583932
O O15 0.000000 0.500000 0.000000
#
# Coordination Sequence:
#
# PCOD9006931 Si02
#       7
#     2   2   2   2   2   2   2
#     4  11  23  37  59  89 115 146 199 243 279 339
#     4  10  22  40  58  86 117 153 192 233 290 347
#     4  10  21  39  57  82 117 151 190 233 289 347
#     4  11  22  37  59  86 114 149 195 240 283 338
#     4  11  22  38  60  87 113 151 193 238 285 336
#     4  10  22  40  61  81 119 158 186 232 296 348
#     4   9  20  39  60  81 116 156 186 231 292 341
#
# _framework density 26.602423999999999
#
# number of rings (size 3 to 8) (size 9 to 14) (size 15 to 20)
#    0.000    1.714    0.000    5.143    0.000    8.000 
#    0.000    5.714    0.000    0.000    0.000    0.000 
#    0.000    0.000    0.000    0.000    0.000    0.000 
#
# Total GULP energy -78317.599247 kJ/mol
# GULP energy per Si atom -5594.114232 kJ/mol
# Density = 2.654188 g / cm^3
# Si number density = 26.602424 Si / 1000 Ang^3
#
#
#
# Elastic Constant Matrix: (Units=GPa)
#
#
# Indices 1 2 3 4 5 6 
#
# 1 56.6594 0.9799 33.3202 -1.5660 -19.7519 17.1360
# 2 0.9799 93.8857 30.8411 7.0085 -1.6386 22.7666
# 3 33.3202 30.8411 148.8992 7.5049 -29.0811 3.4849
# 4 -1.5660 7.0085 7.5049 41.9380 12.4253 -5.0929
# 5 -19.7519 -1.6386 -29.0811 12.4253 66.8515 0.6812
# 6 17.1360 22.7666 3.4849 -5.0929 0.6812 30.4903
#
#
#
# Elastic Compliance Matrix: (Units=1/GPa)
#
#
# Indices 1 2 3 4 5 6 
#
# 1 0.030758 0.007819 -0.006278 -0.004095 0.007547 -0.023260
# 2 0.007819 0.016397 -0.004167 -0.004313 0.001874 -0.016924
# 3 -0.006278 -0.004167 0.009372 -0.001252 0.002298 0.005308
# 4 -0.004095 -0.004313 -0.001252 0.028040 -0.007179 0.010509
# 5 0.007547 0.001874 0.002298 -0.007179 0.019645 -0.007541
# 6 -0.023260 -0.016924 0.005308 0.010509 -0.007541 0.059824
#
#
# Mechanical properties :
#
#
# Convention : Reuss Voigt Hill
#
# Bulk Modulus (GPa) = 19.50223 47.74742 33.62483
# Shear Modulus (GPa) = 26.82721 43.47617 35.15169
#
# Velocity S-wave (km/s) = 3.17906 4.04703 3.63901
# Velocity P-wave (km/s) = 4.56312 6.31073 5.50670
#
# Compressibility (1/GPa) = 0.05127618
#
# Stress axis : x y z
#
# Youngs Moduli (GPa) = 32.51140 60.98731 106.70640
#
# Poissons Ratio (x) = -0.47686 0.66988
# Poissons Ratio (y) = -0.25421 0.44460
# Poissons Ratio (z) = 0.20410 0.25411
#
# Static dielectric constant tensor:
#      x y z
#    x 2.249920 -0.045760 0.017310 
#    y -0.045760 1.993880 -0.006970 
#    z 0.017310 -0.006970 2.150530 
# 
# From -- ./inp_files/34792.got.cif
#   From: 2010.05.17/outbox.cif.g08.bks.cpg/sg2_18_cif.got.tgz:34792.got - 2010.06.03 11:33:40.
