data_PCOD9006652
_publ_section_title
;
Structure prediction by ZEFSAII (Michael W. Deem and Ramdas Pophale) SiO2 
 PCOD9006652
Probable space group: P -1
;
_chemical_formula_sum "Si O2"
_cell_formula_units_Z 16
_cell_length_a 11.074289
_cell_length_b 19.767184
_cell_length_c 5.247826
_cell_angle_alpha 102.420057
_cell_angle_beta 79.112599
_cell_angle_gamma 51.191594
_cell_volume 791.223868
_symmetry_space_group_name_H-M "P -1"
_symmetry_group_IT_number 2
_symmetry_cell_setting 'triclinic'
loop_
_space_group_symop_operation_xyz
x,y,z
-x,-y,-z
loop_
_atom_site_type_symbol
_atom_site_label
_atom_site_fract_x
_atom_site_fract_y
_atom_site_fract_z
Si Si1 0.058765 0.786759 0.362721
Si Si2 0.106941 0.439465 0.652199
Si Si3 0.032295 0.332514 0.803043
Si Si4 0.514148 0.071678 0.183905
Si Si5 0.303259 0.495603 0.630067
Si Si6 0.879936 0.894975 0.016255
Si Si7 0.632498 0.410963 0.691695
Si Si8 0.309608 0.176376 0.881192
O O1 0.250912 0.687758 0.276681
O O2 0.967975 0.746568 0.351537
O O3 0.002202 0.848365 0.177985
O O4 0.989917 0.855214 0.686162
O O5 0.114784 0.353962 0.593907
O O6 0.266290 0.428873 0.557240
O O7 0.000000 0.500000 0.500000
O O8 0.000000 0.500000 0.000000
O O9 0.160241 0.287897 0.956063
O O10 0.837772 0.426641 0.038066
O O11 0.411576 0.119474 0.529767
O O12 0.711131 0.007905 0.133932
O O13 0.433631 0.146653 0.042289
O O14 0.500000 0.000000 0.000000
O O15 0.503365 0.424982 0.557315
O O16 0.268236 0.566467 0.479641
O O17 0.794410 0.852247 0.030332
O O18 0.500000 0.500000 0.000000
#
# Coordination Sequence:
#
# PCOD9006652 Si02
#       8
#     2   2   2   2   2   2   2   2
#     4  11  20  31  49  73  97 135 170 204 250 297
#     4  10  22  36  53  73 102 138 177 215 251 302
#     4  10  19  35  50  75 103 137 175 206 249 307
#     4  10  17  29  42  66  96 131 160 195 248 299
#     4  10  22  36  51  74 103 143 175 213 260 295
#     4  10  19  30  46  67 100 130 166 201 246 309
#     4  11  21  34  54  72 105 135 178 219 253 300
#     4  10  18  26  46  67  96 130 164 197 241 303
#
# _framework density 20.221836
#
# number of rings (size 3 to 8) (size 9 to 14) (size 15 to 20)
#    0.000    1.750    1.250    7.500    3.500    4.000 
#    0.000    0.000    0.000    0.000    0.000    0.000 
#    0.000    6.000    0.000    0.500    0.000    0.250 
#
# Total GULP energy -89084.810297 kJ/mol
# GULP energy per Si atom -5567.800644 kJ/mol
# Density = 2.017581 g / cm^3
# Si number density = 20.221836 Si / 1000 Ang^3
#
#
#
# Elastic Constant Matrix: (Units=GPa)
#
#
# Indices 1 2 3 4 5 6 
#
# 1 44.3747 24.9899 18.6988 -14.2258 -9.0412 -9.6777
# 2 24.9899 103.7010 16.1541 -14.8473 0.6555 -48.8089
# 3 18.6988 16.1541 90.9308 -6.6549 12.0268 -18.2326
# 4 -14.2258 -14.8473 -6.6549 37.9150 -8.4353 -0.2642
# 5 -9.0412 0.6555 12.0268 -8.4353 23.6526 -6.9002
# 6 -9.6777 -48.8089 -18.2326 -0.2642 -6.9002 40.6332
#
#
#
# Elastic Compliance Matrix: (Units=1/GPa)
#
#
# Indices 1 2 3 4 5 6 
#
# 1 0.042190 -0.001504 -0.009075 0.020592 0.030914 0.009554
# 2 -0.001504 0.030499 0.002055 0.015261 0.014581 0.039775
# 3 -0.009075 0.002055 0.014730 -0.002276 -0.010326 0.005148
# 4 0.020592 0.015261 -0.002276 0.047382 0.033746 0.028253
# 5 0.030914 0.014581 -0.010326 0.033746 0.080958 0.034212
# 6 0.009554 0.039775 0.005148 0.028253 0.034212 0.082967
#
#
# Mechanical properties :
#
#
# Convention : Reuss Voigt Hill
#
# Bulk Modulus (GPa) = 14.21045 39.85469 27.03257
# Shear Modulus (GPa) = 14.73925 32.38441 23.56183
#
# Velocity S-wave (km/s) = 2.70270 4.00616 3.41716
# Velocity P-wave (km/s) = 4.09658 6.41488 5.38204
#
# Compressibility (1/GPa) = 0.07037077
#
# Stress axis : x y z
#
# Youngs Moduli (GPa) = 23.70229 32.78811 67.88964
#
# Poissons Ratio (x) = 0.04930 0.61608
# Poissons Ratio (y) = 0.03564 -0.13949
# Poissons Ratio (z) = 0.21509 -0.06737
#
# Static dielectric constant tensor:
#      x y z
#    x 1.773110 -0.040660 0.038330 
#    y -0.040660 1.855440 -0.013980 
#    z 0.038330 -0.013980 1.788110 
# 
# From -- ./inp_files/83220.got.cif
#   From: 2010.05.17/outbox.cif.g08.bks.cpg/sg2_42_cif.got.tgz:83220.got - 2010.06.03 11:33:40.
