data_PCOD9006657
_publ_section_title
;
Structure prediction by ZEFSAII (Michael W. Deem and Ramdas Pophale) SiO2 
 PCOD9006657
Probable space group: P -1
;
_chemical_formula_sum "Si O2"
_cell_formula_units_Z 16
_cell_length_a 13.966125
_cell_length_b 12.209213
_cell_length_c 15.111764
_cell_angle_alpha 155.151436
_cell_angle_beta 41.767395
_cell_angle_gamma 135.520245
_cell_volume 715.052251
_symmetry_space_group_name_H-M "P -1"
_symmetry_group_IT_number 2
_symmetry_cell_setting 'triclinic'
loop_
_space_group_symop_operation_xyz
x,y,z
-x,-y,-z
loop_
_atom_site_type_symbol
_atom_site_label
_atom_site_fract_x
_atom_site_fract_y
_atom_site_fract_z
Si Si1 0.633504 0.409964 0.584336
Si Si2 0.921405 0.337139 0.546626
Si Si3 0.490717 0.186890 0.269374
Si Si4 0.887836 0.145436 0.240708
Si Si5 0.356924 0.146426 0.510416
Si Si6 0.619521 0.367091 0.770158
Si Si7 0.730978 0.972606 0.851770
Si Si8 0.033684 0.040369 0.610873
O O1 0.725462 0.160166 0.325255
O O2 0.475106 0.387840 0.632885
O O3 0.601141 0.393557 0.698392
O O4 0.719895 0.681561 0.688548
O O5 0.893084 0.119363 0.326236
O O6 0.783983 0.495770 0.766639
O O7 0.946474 0.224662 0.543364
O O8 0.051714 0.547814 0.583668
O O9 0.500000 0.500000 0.500000
O O10 0.427274 0.049829 0.301975
O O11 0.375114 0.073326 0.192595
O O12 0.651483 0.134321 0.095922
O O13 0.000000 0.000000 0.000000
O O14 0.368648 0.925790 0.415320
O O15 0.193276 0.199612 0.638813
O O16 0.500000 0.500000 0.000000
O O17 0.888337 0.106969 0.809234
O O18 0.000000 0.000000 0.500000
#
# Coordination Sequence:
#
# PCOD9006657 Si02
#       8
#     2   2   2   2   2   2   2   2
#     4  11  22  41  68  99 131 171 229 270 324 408
#     4   9  21  40  60  96 126 164 227 264 318 407
#     4  11  23  43  69  98 127 169 230 275 322 395
#     4  10  21  38  67  96 130 167 216 276 330 384
#     4  11  23  40  66  97 137 170 221 278 328 399
#     4  10  22  39  63  93 133 176 209 268 341 393
#     4  11  23  42  72  93 126 178 223 274 328 391
#     4  11  22  43  68  91 136 181 218 280 336 388
#
# _framework density 22.375989000000001
#
# number of rings (size 3 to 8) (size 9 to 14) (size 15 to 20)
#    0.000    1.500    3.750    1.125    1.750    1.000 
#    0.000    0.625    5.500    0.000    0.000    0.000 
#    0.000    0.000    0.000    0.000    0.000    0.000 
#
# Total GULP energy -89098.575512 kJ/mol
# GULP energy per Si atom -5568.660970 kJ/mol
# Density = 2.232506 g / cm^3
# Si number density = 22.375989 Si / 1000 Ang^3
#
#
#
# Elastic Constant Matrix: (Units=GPa)
#
#
# Indices 1 2 3 4 5 6 
#
# 1 111.4225 39.9602 27.7724 -19.9263 -22.2535 -12.7180
# 2 39.9602 87.5535 22.2297 -33.5727 -2.1355 -15.2160
# 3 27.7724 22.2297 77.3793 -37.4971 -25.6719 -3.9958
# 4 -19.9263 -33.5727 -37.4971 42.9605 9.1606 -1.5046
# 5 -22.2535 -2.1355 -25.6719 9.1606 20.6085 -16.8516
# 6 -12.7180 -15.2160 -3.9958 -1.5046 -16.8516 51.4803
#
#
#
# Elastic Compliance Matrix: (Units=1/GPa)
#
#
# Indices 1 2 3 4 5 6 
#
# 1 0.038248 -0.004734 0.053496 0.032621 0.141613 0.059511
# 2 -0.004734 0.020245 0.004628 0.018030 -0.000823 0.005431
# 3 0.053496 0.004628 0.143982 0.094822 0.298751 0.126325
# 4 0.032621 0.018030 0.094822 0.100272 0.177520 0.081788
# 5 0.141613 -0.000823 0.298751 0.177520 0.745856 0.307268
# 6 0.059511 0.005431 0.126325 0.081788 0.307268 0.148509
#
#
# Mechanical properties :
#
#
# Convention : Reuss Voigt Hill
#
# Bulk Modulus (GPa) = 3.23358 50.69777 26.96568
# Shear Modulus (GPa) = 4.18965 35.43604 19.81284
#
# Velocity S-wave (km/s) = 1.36984 3.98384 2.97888
# Velocity P-wave (km/s) = 1.98751 6.62327 4.88968
#
# Compressibility (1/GPa) = 0.30925431
#
# Stress axis : x y z
#
# Youngs Moduli (GPa) = 26.14493 49.39574 6.94530
#
# Poissons Ratio (x) = 0.23384 -0.37154
# Poissons Ratio (y) = 0.12377 -0.03214
# Poissons Ratio (z) = -1.39864 -0.22859
#
# Static dielectric constant tensor:
#      x y z
#    x 1.926400 0.035220 -0.002130 
#    y 0.035220 2.012620 -0.086410 
#    z -0.002130 -0.086410 1.896610 
# 
# From -- ./inp_files/532779.got.cif
#   From: 2010.05.17/outbox.cif.g08.bks.cpg/sg2_267_cif.got.tgz:532779.got - 2010.06.03 11:33:40.
