data_PCOD9006922
_publ_section_title
;
Structure prediction by ZEFSAII (Michael W. Deem and Ramdas Pophale) SiO2 
 PCOD9006922
Probable space group: P -1
;
_chemical_formula_sum "Si O2"
_cell_formula_units_Z 16
_cell_length_a 13.650921
_cell_length_b 28.172789
_cell_length_c 8.714826
_cell_angle_alpha 141.128822
_cell_angle_beta 141.138987
_cell_angle_gamma 18.131313
_cell_volume 641.529625
_symmetry_space_group_name_H-M "P -1"
_symmetry_group_IT_number 2
_symmetry_cell_setting 'triclinic'
loop_
_space_group_symop_operation_xyz
x,y,z
-x,-y,-z
loop_
_atom_site_type_symbol
_atom_site_label
_atom_site_fract_x
_atom_site_fract_y
_atom_site_fract_z
Si Si1 0.311312 0.285610 0.997734
Si Si2 0.584753 0.377128 0.339770
Si Si3 0.691633 0.953300 0.973347
Si Si4 0.996687 0.424469 0.651315
Si Si5 0.443155 0.670707 0.141053
Si Si6 0.200837 0.165562 0.698957
Si Si7 0.844768 0.387107 0.092251
Si Si8 0.668084 0.135458 0.346097
O O1 0.086281 0.453667 0.189004
O O2 0.626686 0.165009 0.186976
O O3 0.214870 0.241239 0.820842
O O4 0.281848 0.299338 0.810804
O O5 0.500000 0.500000 0.500000
O O6 0.326365 0.463160 0.367509
O O7 0.950956 0.219017 0.441692
O O8 0.564909 0.331394 0.055154
O O9 0.578725 0.087922 0.153580
O O10 0.543033 0.984524 0.710143
O O11 0.081841 0.791503 0.052332
O O12 0.500000 0.000000 0.000000
O O13 0.017785 0.354289 0.364001
O O14 0.735311 0.497703 0.120086
O O15 0.513408 0.721503 0.428964
O O16 0.020520 0.252983 0.862513
O O17 0.500000 0.500000 0.000000
O O18 0.000000 0.000000 0.500000
#
# Coordination Sequence:
#
# PCOD9006922 Si02
#       8
#     2   2   2   2   2   2   2   2
#     4  10  21  39  56  93 128 166 198 277 318 368
#     4  12  22  40  62  92 130 169 208 265 317 384
#     4  10  23  42  66  96 124 161 219 277 313 382
#     4  11  22  37  60  92 133 162 212 263 323 379
#     4  11  22  41  66  89 129 175 214 253 334 381
#     4  11  23  41  64  92 132 164 215 266 328 376
#     4  12  21  36  67  97 120 175 218 263 314 390
#     4   9  20  41  67  87 125 172 218 256 318 391
#
# _framework density 24.940391999999999
#
# number of rings (size 3 to 8) (size 9 to 14) (size 15 to 20)
#    0.000    1.250    5.000    0.750    0.000    1.000 
#    9.000    0.000    0.000    7.500    0.000    0.000 
#    0.000    0.000    0.000    0.000    0.000    0.000 
#
# Total GULP energy -89299.159580 kJ/mol
# GULP energy per Si atom -5581.197474 kJ/mol
# Density = 2.488363 g / cm^3
# Si number density = 24.940392 Si / 1000 Ang^3
#
#
#
# Elastic Constant Matrix: (Units=GPa)
#
#
# Indices 1 2 3 4 5 6 
#
# 1 100.1320 30.6438 11.4742 -14.1703 -4.4727 5.1207
# 2 30.6438 90.0639 29.3471 -30.7357 -17.5898 19.4969
# 3 11.4742 29.3471 119.8912 -41.8139 -33.2794 12.4958
# 4 -14.1703 -30.7357 -41.8139 46.9878 5.9637 -12.4110
# 5 -4.4727 -17.5898 -33.2794 5.9637 39.7614 -4.2914
# 6 5.1207 19.4969 12.4958 -12.4110 -4.2914 47.6032
#
#
#
# Elastic Compliance Matrix: (Units=1/GPa)
#
#
# Indices 1 2 3 4 5 6 
#
# 1 0.011216 -0.003593 0.000102 0.001316 -0.000380 0.000547
# 2 -0.003593 0.017347 0.001960 0.010072 0.006970 -0.003978
# 3 0.000102 0.001960 0.016217 0.014107 0.012305 -0.000283
# 4 0.001316 0.010072 0.014107 0.040391 0.010734 0.003528
# 5 -0.000380 0.006970 0.012305 0.010734 0.036888 0.000080
# 6 0.000547 -0.003978 -0.000283 0.003528 0.000080 0.023579
#
#
# Mechanical properties :
#
#
# Convention : Reuss Voigt Hill
#
# Bulk Modulus (GPa) = 23.97059 50.33525 37.15292
# Shear Modulus (GPa) = 30.74929 42.77862 36.76396
#
# Velocity S-wave (km/s) = 3.51509 4.14603 3.84353
# Velocity P-wave (km/s) = 5.10945 6.56852 5.88439
#
# Compressibility (1/GPa) = 0.04171778
#
# Stress axis : x y z
#
# Youngs Moduli (GPa) = 89.15852 57.64710 61.66511
#
# Poissons Ratio (x) = 0.20714 -0.00632
# Poissons Ratio (y) = 0.32036 -0.12085
# Poissons Ratio (z) = -0.00914 -0.11298
#
# Static dielectric constant tensor:
#      x y z
#    x 2.067930 0.129420 0.053260 
#    y 0.129420 2.479560 -0.006220 
#    z 0.053260 -0.006220 2.157690 
# 
# From -- ./inp_files/207788.got.cif
#   From: 2010.05.17/outbox.cif.g08.bks.cpg/sg2_104_cif.got.tgz:207788.got - 2010.06.03 11:33:40.
