data_PCOD9006281
_publ_section_title
;
Structure prediction by ZEFSAII (Michael W. Deem and Ramdas Pophale) SiO2 
 PCOD9006281
Probable space group: P -1
;
_chemical_formula_sum "Si O2"
_cell_formula_units_Z 16
_cell_length_a 15.964544
_cell_length_b 7.763823
_cell_length_c 6.363852
_cell_angle_alpha 113.849287
_cell_angle_beta 109.599636
_cell_angle_gamma 74.041228
_cell_volume 670.679623
_symmetry_space_group_name_H-M "P -1"
_symmetry_group_IT_number 2
_symmetry_cell_setting 'triclinic'
loop_
_space_group_symop_operation_xyz
x,y,z
-x,-y,-z
loop_
_atom_site_type_symbol
_atom_site_label
_atom_site_fract_x
_atom_site_fract_y
_atom_site_fract_z
Si Si1 0.895099 0.073326 0.965545
Si Si2 0.253185 0.918087 0.433362
Si Si3 0.132567 0.297146 0.062147
Si Si4 0.948345 0.452983 0.229617
Si Si5 0.385871 0.864399 0.855198
Si Si6 0.292762 0.326701 0.517007
Si Si7 0.349127 0.597403 0.039724
Si Si8 0.568294 0.737744 0.751155
O O1 0.852278 0.059054 0.691972
O O2 0.890241 0.287574 0.140969
O O3 0.851432 0.930410 0.006709
O O4 0.000000 0.000000 0.000000
O O5 0.290939 0.856768 0.661857
O O6 0.284660 0.118833 0.501833
O O7 0.292038 0.755423 0.218009
O O8 0.117824 0.375748 0.853761
O O9 0.211174 0.371464 0.299724
O O10 0.034333 0.370268 0.115623
O O11 0.000000 0.500000 0.500000
O O12 0.403076 0.720493 0.992827
O O13 0.391209 0.078099 0.039814
O O14 0.461459 0.803841 0.710611
O O15 0.295323 0.477264 0.778120
O O16 0.386021 0.312959 0.459216
O O17 0.405188 0.440849 0.160585
#
# Coordination Sequence:
#
# PCOD9006281 Si02
#       8
#     2   2   2   2   2   2   2   2
#     4   9  21  43  63  91 131 171 209 271 326 383
#     4  11  24  45  70 101 137 172 232 274 335 403
#     4   9  22  41  59  92 131 159 216 266 323 389
#     4  10  21  38  65  93 122 168 213 264 322 393
#     4  11  25  46  69 100 133 180 225 282 332 403
#     4  11  24  44  67  99 138 176 217 284 331 402
#     4  12  25  42  71 100 129 183 223 272 344 392
#     4  11  25  45  69  98 139 177 226 275 341 398
#
# _framework density 23.856397000000001
#
# number of rings (size 3 to 8) (size 9 to 14) (size 15 to 20)
#    0.000    1.500    2.500    1.125    5.250    4.000 
#    2.250    0.000    0.000    0.000    0.000    0.000 
#    0.000    0.000    0.000    0.000    0.000    0.000 
#
# Total GULP energy -89505.412336 kJ/mol
# GULP energy per Si atom -5594.088271 kJ/mol
# Density = 2.380210 g / cm^3
# Si number density = 23.856397 Si / 1000 Ang^3
#
#
#
# Elastic Constant Matrix: (Units=GPa)
#
#
# Indices 1 2 3 4 5 6 
#
# 1 48.8325 -4.9753 1.0354 15.1192 -9.0747 -16.2146
# 2 -4.9753 112.4278 37.7946 5.7042 1.8252 13.7270
# 3 1.0354 37.7946 88.0119 10.2799 10.4815 2.9194
# 4 15.1192 5.7042 10.2799 29.1725 -2.6816 3.6051
# 5 -9.0747 1.8252 10.4815 -2.6816 28.1501 1.7737
# 6 -16.2146 13.7270 2.9194 3.6051 1.7737 28.4393
#
#
#
# Elastic Compliance Matrix: (Units=1/GPa)
#
#
# Indices 1 2 3 4 5 6 
#
# 1 0.035899 -0.000427 0.000478 -0.020766 0.008010 0.022758
# 2 -0.000427 0.011081 -0.004795 0.000513 0.001309 -0.005246
# 3 0.000478 -0.004795 0.014626 -0.005239 -0.005613 0.002100
# 4 -0.020766 0.000513 -0.005239 0.049085 0.001023 -0.017836
# 5 0.008010 0.001309 -0.005613 0.001023 0.040090 0.001882
# 6 0.022758 -0.005246 0.002100 -0.017836 0.001882 0.052598
#
#
# Mechanical properties :
#
#
# Convention : Reuss Voigt Hill
#
# Bulk Modulus (GPa) = 19.18734 35.22017 27.20376
# Shear Modulus (GPa) = 21.71630 31.51355 26.61493
#
# Velocity S-wave (km/s) = 3.02038 3.63846 3.34373
# Velocity P-wave (km/s) = 4.49710 5.69619 5.13179
#
# Compressibility (1/GPa) = 0.05211769
#
# Stress axis : x y z
#
# Youngs Moduli (GPa) = 27.85572 90.24473 68.36961
#
# Poissons Ratio (x) = 0.03853 -0.03266
# Poissons Ratio (y) = 0.01189 0.32785
# Poissons Ratio (z) = -0.01331 0.43274
#
# Static dielectric constant tensor:
#      x y z
#    x 1.937740 0.001990 -0.019900 
#    y 0.001990 1.971660 -0.039290 
#    z -0.019900 -0.039290 1.915810 
# 
# From -- ./inp_files/107702.got.cif
#   From: 2010.05.17/outbox.cif.g08.bks.cpg/sg2_54_cif.got.tgz:107702.got - 2010.06.03 11:33:40.
