data_PCOD9006647
_publ_section_title
;
Structure prediction by ZEFSAII (Michael W. Deem and Ramdas Pophale) SiO2 
 PCOD9006647
Probable space group: P -1
;
_chemical_formula_sum "Si O2"
_cell_formula_units_Z 16
_cell_length_a 7.858796
_cell_length_b 14.980707
_cell_length_c 8.628630
_cell_angle_alpha 50.767602
_cell_angle_beta 98.991362
_cell_angle_gamma 76.130935
_cell_volume 696.961809
_symmetry_space_group_name_H-M "P -1"
_symmetry_group_IT_number 2
_symmetry_cell_setting 'triclinic'
loop_
_space_group_symop_operation_xyz
x,y,z
-x,-y,-z
loop_
_atom_site_type_symbol
_atom_site_label
_atom_site_fract_x
_atom_site_fract_y
_atom_site_fract_z
Si Si1 0.599120 0.324667 0.543143
Si Si2 0.638693 0.891630 0.757653
Si Si3 0.720805 0.416998 0.160534
Si Si4 0.770046 0.462958 0.619202
Si Si5 0.709415 0.034717 0.875728
Si Si6 0.053633 0.813655 0.754041
Si Si7 0.797421 0.608791 0.156456
Si Si8 0.922565 0.997649 0.239540
O O1 0.714050 0.330729 0.400131
O O2 0.709176 0.354943 0.667678
O O3 0.386382 0.441932 0.387909
O O4 0.594190 0.188591 0.700660
O O5 0.851325 0.847657 0.767064
O O6 0.500000 0.000000 0.500000
O O7 0.617363 0.960602 0.844364
O O8 0.641510 0.753050 0.934477
O O9 0.807501 0.510788 0.130698
O O10 0.828991 0.330690 0.125606
O O11 0.500000 0.500000 0.000000
O O12 0.746481 0.553946 0.365859
O O13 0.990413 0.402803 0.768427
O O14 0.778643 0.982462 0.114716
O O15 0.899820 0.011119 0.829305
O O16 0.161916 0.868982 0.823676
O O17 0.001352 0.894035 0.499277
#
# Coordination Sequence:
#
# PCOD9006647 Si02
#       8
#     2   2   2   2   2   2   2   2
#     4  10  21  39  68 102 129 167 230 275 329 405
#     4  11  27  43  64  95 140 183 222 273 340 405
#     4  11  25  40  66  95 131 177 226 276 331 407
#     4   9  22  42  67  99 133 173 218 286 339 397
#     4  10  21  38  67  95 125 172 216 280 316 407
#     4  10  22  41  63  98 132 176 218 283 332 393
#     4  10  24  44  65  94 138 178 218 278 345 403
#     4   9  20  37  65  95 128 165 223 270 333 382
#
# _framework density 22.956782
#
# number of rings (size 3 to 8) (size 9 to 14) (size 15 to 20)
#    0.000    2.000    1.250    0.000    8.750    5.500 
#    0.000    1.250    0.000    0.000    0.000    0.000 
#    0.000    0.000    0.000    0.000    0.000    0.000 
#
# Total GULP energy -89448.266921 kJ/mol
# GULP energy per Si atom -5590.516683 kJ/mol
# Density = 2.290453 g / cm^3
# Si number density = 22.956782 Si / 1000 Ang^3
#
#
#
# Elastic Constant Matrix: (Units=GPa)
#
#
# Indices 1 2 3 4 5 6 
#
# 1 56.7732 25.2947 7.5903 -5.3536 9.2954 -15.2499
# 2 25.2947 163.2343 55.1107 -18.5888 11.0571 -5.6092
# 3 7.5903 55.1107 114.8718 -3.4489 5.2470 6.6342
# 4 -5.3536 -18.5888 -3.4489 36.4627 -1.8808 -0.5669
# 5 9.2954 11.0571 5.2470 -1.8808 27.2541 2.6554
# 6 -15.2499 -5.6092 6.6342 -0.5669 2.6554 25.4038
#
#
#
# Elastic Compliance Matrix: (Units=1/GPa)
#
#
# Indices 1 2 3 4 5 6 
#
# 1 0.024452 -0.002061 -0.001057 0.002234 -0.008652 0.015454
# 2 -0.002061 0.008307 -0.003765 0.003508 -0.001881 0.001856
# 3 -0.001057 -0.003765 0.010791 -0.001113 0.000155 -0.004325
# 4 0.002234 0.003508 -0.001113 0.029472 -0.000238 0.003089
# 5 -0.008652 -0.001881 0.000155 -0.000238 0.041331 -0.009975
# 6 0.015454 0.001856 -0.004325 0.003089 -0.009975 0.051292
#
#
# Mechanical properties :
#
#
# Convention : Reuss Voigt Hill
#
# Bulk Modulus (GPa) = 33.57572 56.76339 45.16956
# Shear Modulus (GPa) = 26.40761 34.28304 30.34533
#
# Velocity S-wave (km/s) = 3.39531 3.86861 3.63966
# Velocity P-wave (km/s) = 5.47980 6.68840 6.11404
#
# Compressibility (1/GPa) = 0.02978343
#
# Stress axis : x y z
#
# Youngs Moduli (GPa) = 40.89724 120.37442 92.67044
#
# Poissons Ratio (x) = 0.24804 0.09798
# Poissons Ratio (y) = 0.08427 0.34893
# Poissons Ratio (z) = 0.04324 0.45325
#
# Static dielectric constant tensor:
#      x y z
#    x 1.882420 0.024260 -0.030810 
#    y 0.024260 1.837970 0.000850 
#    z -0.030810 0.000850 1.910430 
# 
# From -- ./inp_files/205653.got.cif
#   From: 2010.05.17/outbox.cif.g08.bks.cpg/sg2_103_cif.got.tgz:205653.got - 2010.06.03 11:33:40.
