data_PCOD9006575
_publ_section_title
;
Structure prediction by ZEFSAII (Michael W. Deem and Ramdas Pophale) SiO2 
 PCOD9006575
Probable space group: P -1
;
_chemical_formula_sum "Si O2"
_cell_formula_units_Z 14
_cell_length_a 11.217714
_cell_length_b 11.695882
_cell_length_c 6.135209
_cell_angle_alpha 125.371562
_cell_angle_beta 65.823379
_cell_angle_gamma 107.118815
_cell_volume 597.016137
_symmetry_space_group_name_H-M "P -1"
_symmetry_group_IT_number 2
_symmetry_cell_setting 'triclinic'
loop_
_space_group_symop_operation_xyz
x,y,z
-x,-y,-z
loop_
_atom_site_type_symbol
_atom_site_label
_atom_site_fract_x
_atom_site_fract_y
_atom_site_fract_z
Si Si1 0.623439 0.088178 0.894419
Si Si2 0.865184 0.825420 0.734827
Si Si3 0.571998 0.433595 0.681385
Si Si4 0.417972 0.281257 0.264933
Si Si5 0.944948 0.507318 0.296757
Si Si6 0.869467 0.035001 0.352271
Si Si7 0.210248 0.746993 0.693125
O O1 0.735782 0.034136 0.592864
O O2 0.541200 0.211404 0.982448
O O3 0.704972 0.145344 0.103238
O O4 0.500000 0.000000 0.000000
O O5 0.715128 0.818926 0.754389
O O6 0.893475 0.662551 0.516870
O O7 0.980606 0.921987 0.630814
O O8 0.865489 0.893677 0.052855
O O9 0.475149 0.320236 0.503424
O O10 0.610229 0.566208 0.642140
O O11 0.695243 0.360937 0.600712
O O12 0.500000 0.500000 0.000000
O O13 0.866952 0.354536 0.191638
O O14 0.000000 0.500000 0.500000
O O15 0.000000 0.500000 0.000000
O O16 0.859437 0.166006 0.336887
#
# Coordination Sequence:
#
# PCOD9006575 Si02
#       7
#     2   2   2   2   2   2   2
#     4  11  25  46  70 102 144 201 251 317 389 462
#     4  11  24  47  71 113 144 198 250 316 389 450
#     4  10  21  38  66  99 138 186 238 303 371 449
#     4  10  22  41  63 100 144 176 251 299 376 446
#     4  12  26  49  77 113 157 203 252 315 396 466
#     4  11  25  47  73 101 152 192 261 306 385 466
#     4  11  23  43  71 104 139 195 253 308 379 454
#
# _framework density 23.449952
#
# number of rings (size 3 to 8) (size 9 to 14) (size 15 to 20)
#    0.000    1.143    2.857    2.571    0.000    5.714 
#    5.143    4.286    0.000    0.000    0.000    0.000 
#    0.000    0.000    0.000    0.000    0.000    0.000 
#
# Total GULP energy -77942.025513 kJ/mol
# GULP energy per Si atom -5567.287537 kJ/mol
# Density = 2.339658 g / cm^3
# Si number density = 23.449952 Si / 1000 Ang^3
#
#
#
# Elastic Constant Matrix: (Units=GPa)
#
#
# Indices 1 2 3 4 5 6 
#
# 1 102.8001 20.6914 33.2161 -13.3351 -13.4368 36.0665
# 2 20.6914 78.5458 27.1184 -14.1664 -0.7344 29.5932
# 3 33.2161 27.1184 138.6486 -14.5157 -32.5123 10.6389
# 4 -13.3351 -14.1664 -14.5157 31.9364 1.1311 -8.0381
# 5 -13.4368 -0.7344 -32.5123 1.1311 23.5581 9.5219
# 6 36.0665 29.5932 10.6389 -8.0381 9.5219 55.5421
#
#
#
# Elastic Compliance Matrix: (Units=1/GPa)
#
#
# Indices 1 2 3 4 5 6 
#
# 1 0.016715 0.001388 0.001118 0.003970 0.016622 -0.014083
# 2 0.001388 0.017568 -0.002002 0.004986 0.002190 -0.009532
# 3 0.001118 -0.002002 0.012802 0.003409 0.020128 -0.005069
# 4 0.003970 0.004986 0.003409 0.036086 0.006082 -0.001708
# 5 0.016622 0.002190 0.020128 0.006082 0.091887 -0.030688
# 6 -0.014083 -0.009532 -0.005069 -0.001708 -0.030688 0.038213
#
#
# Mechanical properties :
#
#
# Convention : Reuss Voigt Hill
#
# Bulk Modulus (GPa) = 20.79260 53.56069 37.17665
# Shear Modulus (GPa) = 21.90160 38.13855 30.02008
#
# Velocity S-wave (km/s) = 3.05941 4.03722 3.58184
# Velocity P-wave (km/s) = 4.62234 6.67998 5.74405
#
# Compressibility (1/GPa) = 0.04809404
#
# Stress axis : x y z
#
# Youngs Moduli (GPa) = 59.82479 56.92180 78.11331
#
# Poissons Ratio (x) = -0.07901 -0.08732
# Poissons Ratio (y) = -0.08304 0.15635
# Poissons Ratio (z) = -0.06688 0.11394
#
# Static dielectric constant tensor:
#      x y z
#    x 1.711290 1.198040 -0.591400 
#    y 1.198040 -3.467960 2.504760 
#    z -0.591400 2.504760 0.755540 
# 
# From -- ./inp_files/72116.got.cif
#   From: 2010.05.17/outbox.cif.g08.bks.cpg/sg2_37_cif.got.tgz:72116.got - 2010.06.03 11:33:40.
