data_PCOD9006855
_publ_section_title
;
Structure prediction by ZEFSAII (Michael W. Deem and Ramdas Pophale) SiO2 
 PCOD9006855
Probable space group: P -1
;
_chemical_formula_sum "Si O2"
_cell_formula_units_Z 16
_cell_length_a 14.413354
_cell_length_b 14.975510
_cell_length_c 15.242636
_cell_angle_alpha 150.144715
_cell_angle_beta 130.112792
_cell_angle_gamma 29.643804
_cell_volume 725.603615
_symmetry_space_group_name_H-M "P -1"
_symmetry_group_IT_number 2
_symmetry_cell_setting 'triclinic'
loop_
_space_group_symop_operation_xyz
x,y,z
-x,-y,-z
loop_
_atom_site_type_symbol
_atom_site_label
_atom_site_fract_x
_atom_site_fract_y
_atom_site_fract_z
Si Si1 0.254540 0.831405 0.891297
Si Si2 0.156617 0.258937 0.314412
Si Si3 0.753135 0.886405 0.026020
Si Si4 0.357147 0.772902 0.296769
Si Si5 0.232981 0.264576 0.758592
Si Si6 0.491332 0.133607 0.241175
Si Si7 0.457498 0.212982 0.723900
Si Si8 0.110990 0.697480 0.584940
O O1 0.490620 0.537557 0.820626
O O2 0.169803 0.733645 0.739983
O O3 0.251570 0.931343 0.881044
O O4 0.128521 0.107363 0.117589
O O5 0.129728 0.460189 0.405932
O O6 0.000000 0.500000 0.500000
O O7 0.372737 0.991983 0.270243
O O8 0.653994 0.024511 0.179248
O O9 0.613747 0.907881 0.907813
O O10 0.995056 0.535085 0.875787
O O11 0.493166 0.675192 0.211881
O O12 0.304158 0.007599 0.525601
O O13 0.129077 0.971406 0.302224
O O14 0.255912 0.403290 0.821671
O O15 0.384907 0.081043 0.779416
O O16 0.301349 0.495599 0.460837
O O17 0.500000 0.000000 0.500000
#
# Coordination Sequence:
#
# PCOD9006855 Si02
#       8
#     2   2   2   2   2   2   2   2
#     4  12  27  46  68 104 140 183 234 283 339 417
#     4  12  24  47  69  98 145 183 229 282 342 412
#     4  11  25  43  72 103 135 184 236 284 354 407
#     4  11  23  43  65 103 143 181 226 284 338 412
#     4  11  20  43  72  99 138 183 229 285 350 404
#     4  11  22  44  75 100 134 182 234 293 345 408
#     4  10  21  38  70  98 136 179 224 272 341 405
#     4  12  23  47  72 100 142 184 228 290 342 404
#
# _framework density 22.050605999999998
#
# number of rings (size 3 to 8) (size 9 to 14) (size 15 to 20)
#    0.000    0.750    6.250    1.125    1.750    3.500 
#    2.250    0.625    0.000    0.000    0.000    0.000 
#    0.000    0.000    0.000    0.000    0.000    0.000 
#
# Total GULP energy -89360.396123 kJ/mol
# GULP energy per Si atom -5585.024758 kJ/mol
# Density = 2.200042 g / cm^3
# Si number density = 22.050606 Si / 1000 Ang^3
#
#
#
# Elastic Constant Matrix: (Units=GPa)
#
#
# Indices 1 2 3 4 5 6 
#
# 1 96.2781 15.1508 33.1047 4.9265 -47.1871 5.1640
# 2 15.1508 131.0092 22.9448 -1.6578 -9.6300 -4.8702
# 3 33.1047 22.9448 114.0412 -12.9480 -14.2761 -3.2185
# 4 4.9265 -1.6578 -12.9480 28.2533 5.7665 -1.8613
# 5 -47.1871 -9.6300 -14.2761 5.7665 30.7798 2.5284
# 6 5.1640 -4.8702 -3.2185 -1.8613 2.5284 30.7382
#
#
#
# Elastic Compliance Matrix: (Units=1/GPa)
#
#
# Indices 1 2 3 4 5 6 
#
# 1 0.094643 0.001047 -0.016143 -0.056922 0.151333 -0.033319
# 2 0.001047 0.008059 -0.001593 -0.001127 0.003552 0.000574
# 3 -0.016143 -0.001593 0.012687 0.013538 -0.022428 0.006453
# 4 -0.056922 -0.001127 0.013538 0.072756 -0.096872 0.023176
# 5 0.151333 0.003552 -0.022428 -0.096872 0.277943 -0.055938
# 6 -0.033319 0.000574 0.006453 0.023176 -0.055938 0.044902
#
#
# Mechanical properties :
#
#
# Convention : Reuss Voigt Hill
#
# Bulk Modulus (GPa) = 12.19331 53.74768 32.97049
# Shear Modulus (GPa) = 8.74580 35.96283 22.35431
#
# Velocity S-wave (km/s) = 1.99370 4.04285 3.18743
# Velocity P-wave (km/s) = 3.29264 6.79856 5.34144
#
# Compressibility (1/GPa) = 0.08201220
#
# Stress axis : x y z
#
# Youngs Moduli (GPa) = 10.56607 124.08433 78.82216
#
# Poissons Ratio (x) = -0.12994 1.27241
# Poissons Ratio (y) = -0.01106 0.12553
# Poissons Ratio (z) = 0.17057 0.19761
#
# Static dielectric constant tensor:
#      x y z
#    x 1.935190 -0.081440 -0.013240 
#    y -0.081440 1.740030 -0.023460 
#    z -0.013240 -0.023460 1.815690 
# 
# From -- ./inp_files/534583.got.cif
#   From: 2010.05.17/outbox.cif.g08.bks.cpg/sg2_268_cif.got.tgz:534583.got - 2010.06.03 11:33:40.
