data_PCOD9006523
_publ_section_title
;
Structure prediction by ZEFSAII (Michael W. Deem and Ramdas Pophale) SiO2 
 PCOD9006523
Probable space group: P -1
;
_chemical_formula_sum "Si O2"
_cell_formula_units_Z 16
_cell_length_a 7.406798
_cell_length_b 6.080087
_cell_length_c 14.252842
_cell_angle_alpha 98.710654
_cell_angle_beta 98.866831
_cell_angle_gamma 103.854493
_cell_volume 603.755452
_symmetry_space_group_name_H-M "P -1"
_symmetry_group_IT_number 2
_symmetry_cell_setting 'triclinic'
loop_
_space_group_symop_operation_xyz
x,y,z
-x,-y,-z
loop_
_atom_site_type_symbol
_atom_site_label
_atom_site_fract_x
_atom_site_fract_y
_atom_site_fract_z
Si Si1 0.381727 0.091816 0.075005
Si Si2 0.617679 0.520140 0.356896
Si Si3 0.361064 0.440162 0.855692
Si Si4 0.901948 0.228240 0.396420
Si Si5 0.918009 0.304772 0.056583
Si Si6 0.928379 0.007216 0.193346
Si Si7 0.281515 0.102130 0.470261
Si Si8 0.666680 0.963766 0.724019
O O1 0.434643 0.374795 0.093983
O O2 0.420588 0.010486 0.178857
O O3 0.500000 0.000000 0.000000
O O4 0.176450 0.926022 0.024046
O O5 0.648420 0.613271 0.259175
O O6 0.808348 0.441561 0.394218
O O7 0.589393 0.689967 0.446206
O O8 0.431423 0.309165 0.316882
O O9 0.231415 0.603009 0.888096
O O10 0.245203 0.194966 0.874605
O O11 0.848725 0.107457 0.283840
O O12 0.118794 0.215036 0.422564
O O13 0.808266 0.085612 0.470330
O O14 0.024710 0.216618 0.144109
O O15 0.000000 0.500000 0.000000
O O16 0.108972 0.922945 0.234942
O O17 0.359722 0.977254 0.383135
#
# Coordination Sequence:
#
# PCOD9006523 Si02
#       8
#     2   2   2   2   2   2   2   2
#     4   9  21  42  64  94 126 170 220 265 324 387
#     4  11  20  40  64  92 129 178 215 261 329 387
#     4  10  21  39  67  90 128 172 219 268 318 395
#     4  10  21  38  66  95 127 175 220 264 322 396
#     4  11  23  41  66  95 129 171 218 276 330 384
#     4  11  22  42  66  97 133 172 220 270 328 387
#     4  10  21  39  62  97 132 166 219 273 322 385
#     4  10  23  39  62  96 135 165 216 278 318 388
#
# _framework density 26.500795
#
# number of rings (size 3 to 8) (size 9 to 14) (size 15 to 20)
#    0.000    1.750    2.500    1.500    0.000    3.000 
#    0.000   10.000    0.000    0.000    0.000    0.000 
#    0.000    0.000    0.000    0.000    0.000    0.000 
#
# Total GULP energy -89150.467539 kJ/mol
# GULP energy per Si atom -5571.904221 kJ/mol
# Density = 2.644048 g / cm^3
# Si number density = 26.500795 Si / 1000 Ang^3
#
#
#
# Elastic Constant Matrix: (Units=GPa)
#
#
# Indices 1 2 3 4 5 6 
#
# 1 84.3941 32.7160 34.5951 -3.6246 1.2103 4.0119
# 2 32.7160 101.9400 53.7522 -11.5329 13.7897 20.6248
# 3 34.5951 53.7522 199.6461 4.7708 -32.4162 5.1966
# 4 -3.6246 -11.5329 4.7708 37.2554 12.4107 -8.7001
# 5 1.2103 13.7897 -32.4162 12.4107 51.7295 -5.8317
# 6 4.0119 20.6248 5.1966 -8.7001 -5.8317 33.9294
#
#
#
# Elastic Compliance Matrix: (Units=1/GPa)
#
#
# Indices 1 2 3 4 5 6 
#
# 1 0.013904 -0.003748 -0.001496 0.000724 -0.000325 0.000993
# 2 -0.003748 0.018882 -0.006297 0.007902 -0.011926 -0.010094
# 3 -0.001496 -0.006297 0.008414 -0.005378 0.008594 0.002814
# 4 0.000724 0.007902 -0.005378 0.035203 -0.013645 0.002616
# 5 -0.000325 -0.011926 0.008594 -0.013645 0.032077 0.007986
# 6 0.000993 -0.010094 0.002814 0.002616 0.007986 0.037104
#
#
# Mechanical properties :
#
#
# Convention : Reuss Voigt Hill
#
# Bulk Modulus (GPa) = 55.19390 69.78964 62.49177
# Shear Modulus (GPa) = 28.61940 42.24399 35.43170
#
# Velocity S-wave (km/s) = 3.28982 3.99691 3.66047
# Velocity P-wave (km/s) = 5.94163 6.90597 6.44187
#
# Compressibility (1/GPa) = 0.01811794
#
# Stress axis : x y z
#
# Youngs Moduli (GPa) = 71.92109 52.95942 118.84885
#
# Poissons Ratio (x) = 0.19851 0.17781
# Poissons Ratio (y) = 0.26959 0.74836
# Poissons Ratio (z) = 0.10760 0.33347
#
# Static dielectric constant tensor:
#      x y z
#    x 2.232470 0.063310 -0.014000 
#    y 0.063310 2.130340 -0.043840 
#    z -0.014000 -0.043840 2.109330 
# 
# From -- ./inp_files/488451.got.cif
#   From: 2010.05.17/outbox.cif.g08.bks.cpg/sg2_245_cif.got.tgz:488451.got - 2010.06.03 11:33:40.
