data_PCOD9006661
_publ_section_title
;
Structure prediction by ZEFSAII (Michael W. Deem and Ramdas Pophale) SiO2 
 PCOD9006661
Probable space group: P -1
;
_chemical_formula_sum "Si O2"
_cell_formula_units_Z 13
_cell_length_a 11.260801
_cell_length_b 10.556229
_cell_length_c 13.600547
_cell_angle_alpha 139.882531
_cell_angle_beta 141.227545
_cell_angle_gamma 40.117388
_cell_volume 592.757430
_symmetry_space_group_name_H-M "P -1"
_symmetry_group_IT_number 2
_symmetry_cell_setting 'triclinic'
loop_
_space_group_symop_operation_xyz
x,y,z
-x,-y,-z
loop_
_atom_site_type_symbol
_atom_site_label
_atom_site_fract_x
_atom_site_fract_y
_atom_site_fract_z
Si Si1 0.250424 0.884594 0.097716
Si Si2 0.984963 0.722573 0.513289
Si Si3 0.721216 0.742521 0.540553
Si Si4 0.950720 0.751143 0.128852
Si Si5 0.347007 0.837934 0.907683
Si Si6 0.000000 0.000000 0.500000
Si Si7 0.347467 0.616068 0.180326
O O1 0.319430 0.668230 0.077828
O O2 0.317731 0.046191 0.298081
O O3 0.342869 0.851801 0.029935
O O4 0.000000 0.000000 0.000000
O O5 0.798578 0.764964 0.494289
O O6 0.092057 0.464042 0.411470
O O7 0.164492 0.765685 0.713763
O O8 0.946870 0.863027 0.474064
O O9 0.521166 0.690296 0.376441
O O10 0.132044 0.757604 0.178412
O O11 0.729627 0.924669 0.047383
O O12 0.979300 0.831960 0.302845
O O13 0.000000 0.500000 0.000000
O O14 0.561179 0.641698 0.896595
#
# Coordination Sequence:
#
# PCOD9006661 Si02
#       7
#     2   2   2   2   2   1   2
#     4  12  20  36  67 101 133 173 218 278 351 397
#     4   9  19  39  64  95 135 177 220 278 337 406
#     4  10  21  38  67  96 136 174 226 280 342 402
#     4  11  25  47  71  95 139 184 231 281 346 411
#     4  10  22  42  63 101 135 169 225 281 332 413
#     4  10  22  42  68  96 134 182 226 272 342 410
#     4  11  24  44  67  99 136 176 227 285 341 411
#
# _framework density 21.9314
#
# number of rings (size 3 to 8) (size 9 to 14) (size 15 to 20)
#    0.000    1.538    3.077    1.846    2.154    0.615 
#    5.538    6.923    0.000    0.000    0.000    0.000 
#    0.000    0.000    0.000    0.000    0.000    0.000 
#
# Total GULP energy -72387.501587 kJ/mol
# GULP energy per Si atom -5568.269353 kJ/mol
# Density = 2.188148 g / cm^3
# Si number density = 21.931400 Si / 1000 Ang^3
#
#
#
# Elastic Constant Matrix: (Units=GPa)
#
#
# Indices 1 2 3 4 5 6 
#
# 1 91.3883 40.1555 29.3520 0.8400 -25.5567 21.7281
# 2 40.1555 153.7489 47.5408 24.5827 -10.2627 5.8253
# 3 29.3520 47.5408 48.7534 8.1497 -27.5137 10.5633
# 4 0.8400 24.5827 8.1497 24.4515 -1.3572 4.6593
# 5 -25.5567 -10.2627 -27.5137 -1.3572 38.7956 0.3253
# 6 21.7281 5.8253 10.5633 4.6593 0.3253 39.6321
#
#
#
# Elastic Compliance Matrix: (Units=1/GPa)
#
#
# Indices 1 2 3 4 5 6 
#
# 1 0.018770 -0.005597 0.002933 0.006871 0.013299 -0.011167
# 2 -0.005597 0.013634 -0.016686 -0.009929 -0.012319 0.006781
# 3 0.002933 -0.016686 0.061622 0.001502 0.041408 -0.016096
# 4 0.006871 -0.009929 0.001502 0.052104 0.004862 -0.008873
# 5 0.013299 -0.012319 0.041408 0.004862 0.060962 -0.017589
# 6 -0.011167 0.006781 -0.016096 -0.008873 -0.017589 0.035835
#
#
# Mechanical properties :
#
#
# Convention : Reuss Voigt Hill
#
# Bulk Modulus (GPa) = 18.07501 58.66522 38.37012
# Shear Modulus (GPa) = 16.66284 32.36531 24.51408
#
# Velocity S-wave (km/s) = 2.75938 3.84572 3.34692
# Velocity P-wave (km/s) = 4.29089 6.82106 5.69819
#
# Compressibility (1/GPa) = 0.05532499
#
# Stress axis : x y z
#
# Youngs Moduli (GPa) = 53.27552 73.34641 16.22810
#
# Poissons Ratio (x) = 0.41053 -0.04760
# Poissons Ratio (y) = 0.29819 0.27079
# Poissons Ratio (z) = -0.15627 1.22389
#
# Static dielectric constant tensor:
#      x y z
#    x 1.763830 0.019170 0.045040 
#    y 0.019170 1.861250 0.016840 
#    z 0.045040 0.016840 1.798410 
# 
# From -- ./inp_files/383646.got.cif
#   From: 2010.05.17/outbox.cif.g08.bks.cpg/sg2_192_cif.got.tgz:383646.got - 2010.06.03 11:33:40.
