data_PCOD9006473
_publ_section_title
;
Structure prediction by ZEFSAII (Michael W. Deem and Ramdas Pophale) SiO2 
 PCOD9006473
Probable space group: P -1
;
_chemical_formula_sum "Si O2"
_cell_formula_units_Z 10
_cell_length_a 9.327907
_cell_length_b 9.445475
_cell_length_c 8.959515
_cell_angle_alpha 113.221474
_cell_angle_beta 136.382296
_cell_angle_gamma 44.029960
_cell_volume 365.134615
_symmetry_space_group_name_H-M "P -1"
_symmetry_group_IT_number 2
_symmetry_cell_setting 'triclinic'
loop_
_space_group_symop_operation_xyz
x,y,z
-x,-y,-z
loop_
_atom_site_type_symbol
_atom_site_label
_atom_site_fract_x
_atom_site_fract_y
_atom_site_fract_z
Si Si1 0.349913 0.919716 0.179712
Si Si2 0.212915 0.347815 0.824628
Si Si3 0.945587 0.231937 0.223325
Si Si4 0.111242 0.715482 0.237965
Si Si5 0.349055 0.714893 0.681666
O O1 0.661575 0.784452 0.289942
O O2 0.263573 0.785893 0.026614
O O3 0.255217 0.012525 0.313039
O O4 0.135899 0.123949 0.997472
O O5 0.102812 0.572699 0.793474
O O6 0.985929 0.369889 0.758093
O O7 0.487456 0.227618 0.091906
O O8 0.831839 0.276904 0.323851
O O9 0.169463 0.827488 0.441836
O O10 0.392492 0.522311 0.282946
#
# Coordination Sequence:
#
# PCOD9006473 Si02
#       5
#     2   2   2   2   2
#     4  10  21  38  66  92 118 163 205 247 298 371
#     4  11  22  41  67  89 121 163 201 254 299 358
#     4  10  22  39  65  89 123 163 202 243 314 352
#     4  11  23  39  65  93 122 157 211 244 303 361
#     4  10  22  40  63  90 124 165 192 256 304 358
#
# _framework density 27.387160999999999
#
# number of rings (size 3 to 8) (size 9 to 14) (size 15 to 20)
#    0.000    1.600    2.000    3.600    2.800    4.000 
#    0.000    1.000    0.000    0.000    0.000    0.000 
#    0.000    0.000    0.000    0.000    0.000    0.000 
#
# Total GULP energy -56049.835357 kJ/mol
# GULP energy per Si atom -5604.983536 kJ/mol
# Density = 2.732483 g / cm^3
# Si number density = 27.387161 Si / 1000 Ang^3
#
#
#
# Elastic Constant Matrix: (Units=GPa)
#
#
# Indices 1 2 3 4 5 6 
#
# 1 267.8589 103.2706 54.2216 12.5201 -14.5137 -26.1037
# 2 103.2706 131.0105 11.5285 5.5294 -17.4950 -17.9260
# 3 54.2216 11.5285 75.1575 12.4440 -6.8112 -18.6855
# 4 12.5201 5.5294 12.4440 27.8470 -14.2184 -17.4707
# 5 -14.5137 -17.4950 -6.8112 -14.2184 49.9959 9.2698
# 6 -26.1037 -17.9260 -18.6855 -17.4707 9.2698 57.6960
#
#
#
# Elastic Compliance Matrix: (Units=1/GPa)
#
#
# Indices 1 2 3 4 5 6 
#
# 1 0.006300 -0.004659 -0.003776 -0.000357 -0.000444 0.000143
# 2 -0.004659 0.011777 0.002101 0.001868 0.003162 0.002289
# 3 -0.003776 0.002101 0.017232 -0.004339 0.000162 0.003185
# 4 -0.000357 0.001868 -0.004339 0.051961 0.012370 0.012760
# 5 -0.000444 0.003162 0.000162 0.012370 0.024397 0.000660
# 6 0.000143 0.002289 0.003185 0.012760 0.000660 0.022898
#
#
# Mechanical properties :
#
#
# Convention : Reuss Voigt Hill
#
# Bulk Modulus (GPa) = 44.16607 90.22979 67.19793
# Shear Modulus (GPa) = 32.30378 47.44153 39.87266
#
# Velocity S-wave (km/s) = 3.43814 4.16655 3.81975
# Velocity P-wave (km/s) = 5.65002 7.49429 6.63653
#
# Compressibility (1/GPa) = 0.02264181
#
# Stress axis : x y z
#
# Youngs Moduli (GPa) = 158.71894 84.91136 58.02989
#
# Poissons Ratio (x) = 0.39557 0.21914
# Poissons Ratio (y) = 0.73942 -0.12192
# Poissons Ratio (z) = 0.59937 -0.17839
#
# Static dielectric constant tensor:
#      x y z
#    x 2.104120 -0.042040 0.029440 
#    y -0.042040 2.107980 0.009090 
#    z 0.029440 0.009090 2.245370 
# 
# From -- ./inp_files/143995.got.cif
#   From: 2010.05.17/outbox.cif.g08.bks.cpg/sg2_72_cif.got.tgz:143995.got - 2010.06.03 11:33:40.
