data_PCOD9006814
_publ_section_title
;
Structure prediction by ZEFSAII (Michael W. Deem and Ramdas Pophale) SiO2 
 PCOD9006814
Probable space group: P -1
;
_chemical_formula_sum "Si O2"
_cell_formula_units_Z 15
_cell_length_a 5.202954
_cell_length_b 13.245436
_cell_length_c 15.595423
_cell_angle_alpha 35.548112
_cell_angle_beta 116.382040
_cell_angle_gamma 117.877385
_cell_volume 548.050814
_symmetry_space_group_name_H-M "P -1"
_symmetry_group_IT_number 2
_symmetry_cell_setting 'triclinic'
loop_
_space_group_symop_operation_xyz
x,y,z
-x,-y,-z
loop_
_atom_site_type_symbol
_atom_site_label
_atom_site_fract_x
_atom_site_fract_y
_atom_site_fract_z
Si Si1 0.637771 0.423927 0.952745
Si Si2 0.500000 0.000000 0.000000
Si Si3 0.117045 0.428606 0.281156
Si Si4 0.071529 0.308005 0.649577
Si Si5 0.717360 0.921557 0.454627
Si Si6 0.429018 0.104748 0.730848
Si Si7 0.459527 0.756254 0.757980
Si Si8 0.927745 0.709755 0.149113
O O1 0.831226 0.444018 0.882183
O O2 0.673733 0.628204 0.850513
O O3 0.318589 0.339497 0.924967
O O4 0.657459 0.313560 0.117215
O O5 0.438969 0.980285 0.899109
O O6 0.828068 0.118062 0.948230
O O7 0.339122 0.292938 0.404256
O O8 0.103005 0.547431 0.279967
O O9 0.802440 0.302796 0.307726
O O10 0.757092 0.174472 0.696328
O O11 0.210515 0.284205 0.780823
O O12 0.000000 0.500000 0.500000
O O13 0.288738 0.260145 0.644468
O O14 0.763043 0.966658 0.329974
O O15 0.475599 0.031737 0.373721
O O16 0.000000 0.000000 0.500000
#
# Coordination Sequence:
#
# PCOD9006814 Si02
#       8
#     2   1   2   2   2   2   2   2
#     4  10  21  38  69  98 134 178 238 287 357 423
#     4  10  26  48  68 102 142 184 242 298 364 422
#     4  10  21  40  66  98 134 181 230 290 356 428
#     4  11  25  45  72 101 142 183 241 296 367 428
#     4  10  23  45  67 100 143 183 238 287 362 422
#     4  11  26  46  71 106 141 189 239 301 357 435
#     4   9  21  41  60 100 136 179 233 290 353 420
#     4  10  24  41  70  96 135 182 234 300 353 429
#
# _framework density 27.369727000000001
#
# number of rings (size 3 to 8) (size 9 to 14) (size 15 to 20)
#    0.000    1.867    0.000    1.600    7.467    3.733 
#    9.600    0.000    0.000    0.000    0.000    0.000 
#    0.000    0.000    0.000    0.000    0.000    0.000 
#
# Total GULP energy -83749.744669 kJ/mol
# GULP energy per Si atom -5583.316311 kJ/mol
# Density = 2.730743 g / cm^3
# Si number density = 27.369727 Si / 1000 Ang^3
#
#
#
# Elastic Constant Matrix: (Units=GPa)
#
#
# Indices 1 2 3 4 5 6 
#
# 1 74.8112 39.5571 1.0574 5.4595 0.2705 3.3256
# 2 39.5571 160.7574 53.8054 21.0067 4.0678 -11.1415
# 3 1.0574 53.8054 88.9962 17.4623 4.5156 -2.3805
# 4 5.4595 21.0067 17.4623 58.5883 -16.3400 7.7074
# 5 0.2705 4.0678 4.5156 -16.3400 31.3785 2.0617
# 6 3.3256 -11.1415 -2.3805 7.7074 2.0617 40.9421
#
#
#
# Elastic Compliance Matrix: (Units=1/GPa)
#
#
# Indices 1 2 3 4 5 6 
#
# 1 0.016133 -0.005077 0.002827 -0.000138 0.000206 -0.002512
# 2 -0.005077 0.009818 -0.005194 -0.002499 -0.002003 0.003353
# 3 0.002827 -0.005194 0.015321 -0.004012 -0.003658 0.000187
# 4 -0.000138 -0.002499 -0.004012 0.023789 0.013689 -0.006070
# 5 0.000206 -0.002003 -0.003658 0.013689 0.040135 -0.005373
# 6 -0.002512 0.003353 0.000187 -0.006070 -0.005373 0.026965
#
#
# Mechanical properties :
#
#
# Convention : Reuss Voigt Hill
#
# Bulk Modulus (GPa) = 37.90187 57.04495 47.47341
# Shear Modulus (GPa) = 32.08358 41.52478 36.80418
#
# Velocity S-wave (km/s) = 3.42750 3.89932 3.67100
# Velocity P-wave (km/s) = 5.43524 6.41565 5.94569
#
# Compressibility (1/GPa) = 0.02638393
#
# Stress axis : x y z
#
# Youngs Moduli (GPa) = 61.98594 101.85476 65.27105
#
# Poissons Ratio (x) = 0.51715 -0.18455
# Poissons Ratio (y) = 0.31472 0.33900
# Poissons Ratio (z) = -0.17526 0.52901
#
# Static dielectric constant tensor:
#      x y z
#    x 2.149640 -0.077030 0.198290 
#    y -0.077030 2.146490 -0.158200 
#    z 0.198290 -0.158200 2.373300 
# 
# From -- ./inp_files/482580.got.cif
#   From: 2010.05.17/outbox.cif.g08.bks.cpg/sg2_242_cif.got.tgz:482580.got - 2010.06.03 11:33:40.
