data_PCOD9006027
_publ_section_title
;
Structure prediction by ZEFSAII (Michael W. Deem and Ramdas Pophale) SiO2 
 PCOD9006027
Probable space group: P -1
;
_chemical_formula_sum "Si O2"
_cell_formula_units_Z 12
_cell_length_a 5.374746
_cell_length_b 17.065799
_cell_length_c 19.962258
_cell_angle_alpha 158.596441
_cell_angle_beta 125.423172
_cell_angle_gamma 53.560273
_cell_volume 535.347684
_symmetry_space_group_name_H-M "P -1"
_symmetry_group_IT_number 2
_symmetry_cell_setting 'triclinic'
loop_
_space_group_symop_operation_xyz
x,y,z
-x,-y,-z
loop_
_atom_site_type_symbol
_atom_site_label
_atom_site_fract_x
_atom_site_fract_y
_atom_site_fract_z
Si Si1 0.227679 0.992323 0.217773
Si Si2 0.148955 0.925856 0.566876
Si Si3 0.925399 0.656502 0.212348
Si Si4 0.131881 0.534632 0.471594
Si Si5 0.239867 0.757951 0.167036
Si Si6 0.137031 0.118458 0.054868
O O1 0.560104 0.068560 0.335616
O O2 0.996150 0.219313 0.374707
O O3 0.252598 0.805801 0.128861
O O4 0.089568 0.902793 0.059026
O O5 0.132186 0.715299 0.352352
O O6 0.101937 0.138814 0.679678
O O7 0.852455 0.997377 0.623931
O O8 0.561880 0.665532 0.180833
O O9 0.998398 0.412233 0.999826
O O10 0.500000 0.500000 0.500000
O O11 0.079875 0.363745 0.270053
O O12 0.000000 0.500000 0.500000
O O13 0.500000 0.000000 0.000000
O O14 0.000000 0.000000 0.000000
#
# Coordination Sequence:
#
# PCOD9006027 Si02
#       6
#     2   2   2   2   2   2
#     4  11  26  40  63 102 128 174 229 282 336 409
#     4  10  21  38  64  92 135 167 224 271 330 408
#     4   9  20  40  61  94 126 182 209 268 344 393
#     4  12  25  47  72  96 135 181 229 284 351 411
#     4  10  21  38  64  92 135 167 224 271 330 408
#     4  12  25  47  72  96 135 181 229 284 351 411
#
# _framework density 22.415338999999999
#
# number of rings (size 3 to 8) (size 9 to 14) (size 15 to 20)
#    0.000    1.333    3.333    1.000    4.667    2.667 
#    0.000    3.333    0.000    0.000    0.000    0.000 
#    0.000    0.000    0.000    0.000    0.000    0.000 
#
# Total GULP energy -66802.949796 kJ/mol
# GULP energy per Si atom -5566.912483 kJ/mol
# Density = 2.236432 g / cm^3
# Si number density = 22.415339 Si / 1000 Ang^3
#
#
#
# Elastic Constant Matrix: (Units=GPa)
#
#
# Indices 1 2 3 4 5 6 
#
# 1 78.1677 34.8206 17.7019 -10.4084 -8.2878 0.1029
# 2 34.8206 109.9877 48.3236 -24.2419 -2.7535 -5.6381
# 3 17.7019 48.3236 175.5559 -36.2753 -14.3791 1.9407
# 4 -10.4084 -24.2419 -36.2753 52.6695 -0.3235 2.7573
# 5 -8.2878 -2.7535 -14.3791 -0.3235 29.2873 5.4518
# 6 0.1029 -5.6381 1.9407 2.7573 5.4518 27.6386
#
#
#
# Elastic Compliance Matrix: (Units=1/GPa)
#
#
# Indices 1 2 3 4 5 6 
#
# 1 0.015491 -0.004800 0.000418 0.001277 0.004541 -0.002089
# 2 -0.004800 0.012458 -0.002540 0.002876 -0.001929 0.002831
# 3 0.000418 -0.002540 0.007600 0.004293 0.004084 -0.002287
# 4 0.001277 0.002876 0.004293 0.023686 0.003518 -0.002776
# 5 0.004541 -0.001929 0.004084 0.003518 0.038916 -0.008724
# 6 -0.002089 0.002831 -0.002287 -0.002776 -0.008724 0.038925
#
#
# Mechanical properties :
#
#
# Convention : Reuss Voigt Hill
#
# Bulk Modulus (GPa) = 46.07227 62.82263 54.44745
# Shear Modulus (GPa) = 31.61457 39.44343 35.52900
#
# Velocity S-wave (km/s) = 3.75960 4.19938 3.98556
# Velocity P-wave (km/s) = 6.28050 7.18335 6.74705
#
# Compressibility (1/GPa) = 0.02170503
#
# Stress axis : x y z
#
# Youngs Moduli (GPa) = 64.55501 80.26792 131.57755
#
# Poissons Ratio (x) = 0.38527 -0.05502
# Poissons Ratio (y) = 0.30985 0.33426
# Poissons Ratio (z) = -0.02699 0.20391
#
# Static dielectric constant tensor:
#      x y z
#    x 2.027720 0.055100 0.005240 
#    y 0.055100 1.823900 0.035830 
#    z 0.005240 0.035830 1.951740 
# 
# From -- ./inp_files/30472.got.cif
#   From: 2010.05.17/outbox.cif.g08.bks.cpg/sg2_16_cif.got.tgz:30472.got - 2010.06.03 11:33:40.
