data_PCOD9006015
_publ_section_title
;
Structure prediction by ZEFSAII (Michael W. Deem and Ramdas Pophale) SiO2 
 PCOD9006015
Probable space group: P -1
;
_chemical_formula_sum "Si O2"
_cell_formula_units_Z 16
_cell_length_a 9.397997
_cell_length_b 8.270267
_cell_length_c 20.926912
_cell_angle_alpha 123.000134
_cell_angle_beta 37.266886
_cell_angle_gamma 105.197788
_cell_volume 777.608027
_symmetry_space_group_name_H-M "P -1"
_symmetry_group_IT_number 2
_symmetry_cell_setting 'triclinic'
loop_
_space_group_symop_operation_xyz
x,y,z
-x,-y,-z
loop_
_atom_site_type_symbol
_atom_site_label
_atom_site_fract_x
_atom_site_fract_y
_atom_site_fract_z
Si Si1 0.592608 0.140489 0.348717
Si Si2 0.087115 0.497437 0.389552
Si Si3 0.174202 0.976009 0.129451
Si Si4 0.777316 0.234830 0.796785
Si Si5 0.397479 0.494293 0.395967
Si Si6 0.628018 0.644993 0.869390
Si Si7 0.659389 0.771622 0.410206
Si Si8 0.786355 0.968307 0.612133
O O1 0.559824 0.306054 0.340432
O O2 0.425059 0.257726 0.493749
O O3 0.460838 0.989106 0.332894
O O4 0.878569 0.034068 0.241760
O O5 0.317027 0.438759 0.343646
O O6 0.204982 0.483249 0.275475
O O7 0.874778 0.389764 0.447374
O O8 0.908979 0.723028 0.522960
O O9 0.255372 0.883029 0.152182
O O10 0.245542 0.176845 0.127600
O O11 0.344589 0.785732 0.985053
O O12 0.625090 0.473666 0.885584
O O13 0.056221 0.245725 0.699777
O O14 0.747571 0.095053 0.718088
O O15 0.564443 0.637334 0.366480
O O16 0.500000 0.000000 0.500000
O O17 0.000000 0.000000 0.500000
#
# Coordination Sequence:
#
# PCOD9006015 Si02
#       8
#     2   2   2   2   2   2   2   2
#     4  11  22  39  59  93 128 159 208 260 315 373
#     4  10  21  38  64  92 127 164 207 256 324 379
#     4  11  26  43  67  90 126 171 221 257 303 371
#     4  12  23  42  69  93 128 167 210 257 325 378
#     4  10  22  35  61  94 122 162 201 261 328 376
#     4  11  24  45  66  89 125 174 217 260 301 375
#     4  12  21  33  59  94 127 154 198 267 319 370
#     4  11  21  38  63  97 128 162 197 263 328 377
#
# _framework density 20.575918000000001
#
# number of rings (size 3 to 8) (size 9 to 14) (size 15 to 20)
#    0.000    1.000    3.750    3.750    5.250    0.000 
#    0.000    1.250    2.750    0.000    0.000    0.000 
#    0.000    0.000    0.000    0.000    0.000    0.000 
#
# Total GULP energy -89169.053451 kJ/mol
# GULP energy per Si atom -5573.065841 kJ/mol
# Density = 2.052909 g / cm^3
# Si number density = 20.575918 Si / 1000 Ang^3
#
#
#
# Elastic Constant Matrix: (Units=GPa)
#
#
# Indices 1 2 3 4 5 6 
#
# 1 73.7373 18.5391 14.7102 7.8244 0.7317 2.6474
# 2 18.5391 78.2320 10.3039 13.8876 5.2481 -2.1135
# 3 14.7102 10.3039 59.9700 6.3600 0.5941 1.6392
# 4 7.8244 13.8876 6.3600 31.0555 -5.5555 -5.7234
# 5 0.7317 5.2481 0.5941 -5.5555 17.4669 -3.3455
# 6 2.6474 -2.1135 1.6392 -5.7234 -3.3455 34.6673
#
#
#
# Elastic Compliance Matrix: (Units=1/GPa)
#
#
# Indices 1 2 3 4 5 6 
#
# 1 0.015169 -0.002768 -0.002934 -0.002433 -0.000797 -0.001667
# 2 -0.002768 0.015321 -0.001094 -0.007287 -0.006896 -0.000671
# 3 -0.002934 -0.001094 0.017942 -0.002926 -0.001339 -0.001303
# 4 -0.002433 -0.007287 -0.002926 0.041271 0.017116 0.008345
# 5 -0.000797 -0.006896 -0.001339 0.017116 0.066561 0.008953
# 6 -0.001667 -0.000671 -0.001303 0.008345 0.008953 0.031235
#
#
# Mechanical properties :
#
#
# Convention : Reuss Voigt Hill
#
# Bulk Modulus (GPa) = 28.70259 33.22731 30.96495
# Shear Modulus (GPa) = 23.50695 27.86368 25.68532
#
# Velocity S-wave (km/s) = 3.38368 3.68392 3.53699
# Velocity P-wave (km/s) = 5.40792 5.85481 5.63579
#
# Compressibility (1/GPa) = 0.03484006
#
# Stress axis : x y z
#
# Youngs Moduli (GPa) = 65.92503 65.27155 55.73595
#
# Poissons Ratio (x) = 0.18066 0.16351
# Poissons Ratio (y) = 0.18247 0.06097
# Poissons Ratio (z) = 0.19341 0.07140
#
# Static dielectric constant tensor:
#      x y z
#    x 1.776440 0.000330 0.029740 
#    y 0.000330 1.973370 -0.042410 
#    z 0.029740 -0.042410 1.773200 
# 
# From -- ./inp_files/298779.got.cif
#   From: 2010.05.17/outbox.cif.g08.bks.cpg/sg2_150_cif.got.tgz:298779.got - 2010.06.03 11:33:40.
