data_PCOD9006157
_publ_section_title
;
Structure prediction by ZEFSAII (Michael W. Deem and Ramdas Pophale) SiO2 
 PCOD9006157
Probable space group: P -1
;
_chemical_formula_sum "Si O2"
_cell_formula_units_Z 15
_cell_length_a 9.353789
_cell_length_b 9.418969
_cell_length_c 18.974773
_cell_angle_alpha 33.423166
_cell_angle_beta 127.703714
_cell_angle_gamma 136.148461
_cell_volume 637.732383
_symmetry_space_group_name_H-M "P -1"
_symmetry_group_IT_number 2
_symmetry_cell_setting 'triclinic'
loop_
_space_group_symop_operation_xyz
x,y,z
-x,-y,-z
loop_
_atom_site_type_symbol
_atom_site_label
_atom_site_fract_x
_atom_site_fract_y
_atom_site_fract_z
Si Si1 0.075316 0.268508 0.758366
Si Si2 0.000000 0.000000 0.000000
Si Si3 0.785725 0.251933 0.502113
Si Si4 0.243534 0.082600 0.600507
Si Si5 0.342582 0.737162 0.399049
Si Si6 0.373699 0.891439 0.118657
Si Si7 0.204580 0.805832 0.944021
Si Si8 0.188948 0.242155 0.361270
O O1 0.219276 0.592421 0.636265
O O2 0.086183 0.207960 0.868518
O O3 0.841735 0.199927 0.702375
O O4 0.138478 0.059017 0.820234
O O5 0.784336 0.029008 0.922881
O O6 0.617402 0.201051 0.531161
O O7 0.210093 0.047263 0.387533
O O8 0.000000 0.500000 0.500000
O O9 0.271351 0.391041 0.511248
O O10 0.459769 0.086047 0.663765
O O11 0.202117 0.103991 0.496575
O O12 0.047280 0.815637 0.687557
O O13 0.346404 0.584093 0.266891
O O14 0.614467 0.127893 0.084904
O O15 0.292058 0.813431 0.045507
O O16 0.000000 0.500000 0.000000
#
# Coordination Sequence:
#
# PCOD9006157 Si02
#       8
#     2   1   2   2   2   2   2   2
#     4  10  21  42  66  95 136 179 231 287 342 421
#     4  10  22  46  68  96 140 184 232 296 342 414
#     4  10  21  38  64  99 138 178 223 284 351 419
#     4  10  22  38  63 100 142 180 225 276 362 423
#     4  10  21  41  61 100 140 182 228 284 351 425
#     4  10  24  45  69 100 132 181 237 293 347 420
#     4  10  24  46  69  95 131 183 240 291 347 406
#     4  11  22  41  65 102 141 182 227 286 361 425
#
# _framework density 23.520835999999999
#
# number of rings (size 3 to 8) (size 9 to 14) (size 15 to 20)
#    0.000    1.867    2.667    0.800    7.467    0.533 
#    7.200    1.333    0.000    0.000    0.000    0.000 
#    0.000    0.000    0.000    0.000    0.000    0.000 
#
# Total GULP energy -83597.217407 kJ/mol
# GULP energy per Si atom -5573.147827 kJ/mol
# Density = 2.346730 g / cm^3
# Si number density = 23.520836 Si / 1000 Ang^3
#
#
#
# Elastic Constant Matrix: (Units=GPa)
#
#
# Indices 1 2 3 4 5 6 
#
# 1 155.2360 38.6650 20.5457 -14.4896 4.6736 8.4055
# 2 38.6650 81.4135 15.1206 -18.3122 -0.6336 20.3770
# 3 20.5457 15.1206 73.1884 -2.2454 -2.3391 -7.7776
# 4 -14.4896 -18.3122 -2.2454 29.4991 5.7063 -11.5124
# 5 4.6736 -0.6336 -2.3391 5.7063 38.3063 4.3952
# 6 8.4055 20.3770 -7.7776 -11.5124 4.3952 21.3910
#
#
#
# Elastic Compliance Matrix: (Units=1/GPa)
#
#
# Indices 1 2 3 4 5 6 
#
# 1 0.007608 -0.003102 -0.001352 0.002440 -0.001553 0.001106
# 2 -0.003102 0.020011 -0.005084 0.002848 0.002108 -0.018593
# 3 -0.001352 -0.005084 0.016529 0.002656 -0.000794 0.012977
# 4 0.002440 0.002848 0.002656 0.049184 -0.010387 0.025899
# 5 -0.001553 0.002108 -0.000794 -0.010387 0.029355 -0.013309
# 6 0.001106 -0.018593 0.012977 0.025899 -0.013309 0.085417
#
#
# Mechanical properties :
#
#
# Convention : Reuss Voigt Hill
#
# Bulk Modulus (GPa) = 39.88794 50.94451 45.41622
# Shear Modulus (GPa) = 21.22798 33.53972 27.38385
#
# Velocity S-wave (km/s) = 3.00745 3.78028 3.41579
# Velocity P-wave (km/s) = 5.39028 6.38439 5.90828
#
# Compressibility (1/GPa) = 0.02507024
#
# Stress axis : x y z
#
# Youngs Moduli (GPa) = 131.43984 49.97220 60.50154
#
# Poissons Ratio (x) = 0.15502 0.08180
# Poissons Ratio (y) = 0.40775 0.30762
# Poissons Ratio (z) = 0.17771 0.25408
#
# Static dielectric constant tensor:
#      x y z
#    x 1.929910 0.018130 -0.008760 
#    y 0.018130 1.974210 0.050150 
#    z -0.008760 0.050150 1.902970 
# 
# From -- ./inp_files/607498.got.cif
#   From: 2010.05.17/outbox.cif.g08.bks.cpg/sg2_304_cif.got.tgz:607498.got - 2010.06.03 11:33:40.
