data_PCOD9006170
_publ_section_title
;
Structure prediction by ZEFSAII (Michael W. Deem and Ramdas Pophale) SiO2 
 PCOD9006170
Probable space group: P -1
;
_chemical_formula_sum "Si O2"
_cell_formula_units_Z 16
_cell_length_a 12.400339
_cell_length_b 11.409242
_cell_length_c 11.188896
_cell_angle_alpha 94.986232
_cell_angle_beta 132.223011
_cell_angle_gamma 121.805950
_cell_volume 710.571560
_symmetry_space_group_name_H-M "P -1"
_symmetry_group_IT_number 2
_symmetry_cell_setting 'triclinic'
loop_
_space_group_symop_operation_xyz
x,y,z
-x,-y,-z
loop_
_atom_site_type_symbol
_atom_site_label
_atom_site_fract_x
_atom_site_fract_y
_atom_site_fract_z
Si Si1 0.445552 0.100598 0.328236
Si Si2 0.265032 0.238896 0.569908
Si Si3 0.039700 0.675903 0.916072
Si Si4 0.282589 0.661496 0.797799
Si Si5 0.661802 0.455134 0.408639
Si Si6 0.790105 0.972597 0.293381
Si Si7 0.136866 0.746514 0.505357
Si Si8 0.625154 0.293713 0.724503
O O1 0.473400 0.254791 0.323000
O O2 0.645635 0.154933 0.407581
O O3 0.523027 0.148627 0.528042
O O4 0.187481 0.884729 0.084520
O O5 0.384700 0.438578 0.642349
O O6 0.266635 0.189191 0.702004
O O7 0.405452 0.229056 0.602681
O O8 0.978389 0.077075 0.335442
O O9 0.239284 0.701227 0.078524
O O10 0.903920 0.599769 0.682050
O O11 0.831329 0.507937 0.839538
O O12 0.323894 0.598390 0.713019
O O13 0.178434 0.710496 0.661712
O O14 0.104204 0.475035 0.734296
O O15 0.535765 0.857646 0.055383
O O16 0.886513 0.130725 0.474869
#
# Coordination Sequence:
#
# PCOD9006170 Si02
#       8
#     2   2   2   2   2   2   2   2
#     4  10  22  39  68  99 127 167 219 263 319 381
#     4  11  25  45  63  93 142 168 211 267 322 392
#     4  10  22  42  72  95 127 169 220 270 319 370
#     4  10  22  39  66  96 128 169 216 266 324 375
#     4  10  23  42  64  97 135 164 214 269 315 387
#     4  11  24  43  65  93 130 178 212 258 332 389
#     4  10  21  38  65 101 127 158 218 280 306 380
#     4  10  23  45  67  99 131 167 213 272 319 379
#
# _framework density 22.517083
#
# number of rings (size 3 to 8) (size 9 to 14) (size 15 to 20)
#    0.000    1.750    1.250    1.500    3.500   11.500 
#    2.250    1.250    0.000    0.000    0.000    0.000 
#    0.000    0.000    0.000    0.000    0.000    0.000 
#
# Total GULP energy -89318.629885 kJ/mol
# GULP energy per Si atom -5582.414368 kJ/mol
# Density = 2.246583 g / cm^3
# Si number density = 22.517083 Si / 1000 Ang^3
#
#
#
# Elastic Constant Matrix: (Units=GPa)
#
#
# Indices 1 2 3 4 5 6 
#
# 1 97.0952 47.3634 26.3178 13.9872 9.1796 -3.9647
# 2 47.3634 120.8635 32.0056 16.1213 -6.2658 -24.8868
# 3 26.3178 32.0056 51.1230 43.5018 -17.9611 -0.7196
# 4 13.9872 16.1213 43.5018 33.0196 2.3653 3.5228
# 5 9.1796 -6.2658 -17.9611 2.3653 29.5710 2.7306
# 6 -3.9647 -24.8868 -0.7196 3.5228 2.7306 27.2541
#
#
#
# Elastic Compliance Matrix: (Units=1/GPa)
#
#
# Indices 1 2 3 4 5 6 
#
# 1 0.012729 -0.005592 0.007053 -0.011804 0.000236 -0.001566
# 2 -0.005592 0.014086 -0.002054 -0.003287 0.002613 0.012158
# 3 0.007053 -0.002054 -0.041912 0.056167 -0.032019 -0.006008
# 4 -0.011804 -0.003287 0.056167 -0.039777 0.040463 -0.002148
# 5 0.000236 0.002613 -0.032019 0.040463 0.012062 -0.004863
# 6 -0.001566 0.012158 -0.006008 -0.002148 -0.004863 0.048172
#
#
# Mechanical properties :
#
#
# Convention : Reuss Voigt Hill
#
# Bulk Modulus (GPa) = -61.41704 53.38391 -4.01657
# Shear Modulus (GPa) = 4466.80089 28.86194 2247.83142
#
# Velocity S-wave (km/s) = 44.58750 3.58408 31.62982
# Velocity P-wave (km/s) = 51.21906 6.39431 36.49849
#
# Compressibility (1/GPa) = -0.01628213
#
# Stress axis : x y z
#
# Youngs Moduli (GPa) = 78.55924 70.99075 -23.85955
#
# Poissons Ratio (x) = 0.39696 0.16828
# Poissons Ratio (y) = 0.43928 -0.04901
# Poissons Ratio (z) = -0.55407 0.14582
#
# Static dielectric constant tensor:
#      x y z
#    x 1.826580 0.009860 0.029830 
#    y 0.009860 1.907930 0.005530 
#    z 0.029830 0.005530 1.870100 
# 
# From -- ./inp_files/428459.got.cif
#   From: 2010.05.17/outbox.cif.g08.bks.cpg/sg2_215_cif.got.tgz:428459.got - 2010.06.03 11:33:40.
