data_PCOD9006035
_publ_section_title
;
Structure prediction by ZEFSAII (Michael W. Deem and Ramdas Pophale) SiO2 
 PCOD9006035
Probable space group: P -1
;
_chemical_formula_sum "Si O2"
_cell_formula_units_Z 16
_cell_length_a 9.208333
_cell_length_b 20.166961
_cell_length_c 23.374175
_cell_angle_alpha 156.620205
_cell_angle_beta 149.493376
_cell_angle_gamma 31.910026
_cell_volume 837.309126
_symmetry_space_group_name_H-M "P -1"
_symmetry_group_IT_number 2
_symmetry_cell_setting 'triclinic'
loop_
_space_group_symop_operation_xyz
x,y,z
-x,-y,-z
loop_
_atom_site_type_symbol
_atom_site_label
_atom_site_fract_x
_atom_site_fract_y
_atom_site_fract_z
Si Si1 0.191888 0.634234 0.518057
Si Si2 0.697138 0.150530 0.030208
Si Si3 0.854395 0.777752 0.411208
Si Si4 0.656274 0.003399 0.116561
Si Si5 0.876521 0.206897 0.608153
Si Si6 0.811299 0.145340 0.749290
Si Si7 0.132595 0.296170 0.878565
Si Si8 0.206739 0.474932 0.606653
O O1 0.500000 0.500000 0.500000
O O2 0.280870 0.809972 0.704339
O O3 0.009533 0.641708 0.403572
O O4 0.993157 0.580313 0.456351
O O5 0.741189 0.335714 0.212603
O O6 0.468410 0.205672 0.942703
O O7 0.543022 0.057963 0.952213
O O8 0.000000 0.000000 0.000000
O O9 0.526587 0.766406 0.278379
O O10 0.041300 0.769211 0.410463
O O11 0.827736 0.956550 0.578533
O O12 0.980434 0.871669 0.137846
O O13 0.500000 0.000000 0.000000
O O14 0.527227 0.321594 0.589283
O O15 0.073422 0.268466 0.770593
O O16 0.000000 0.000000 0.500000
O O17 0.930606 0.228858 0.802144
O O18 0.000000 0.500000 0.000000
O O19 0.000000 0.500000 0.500000
#
# Coordination Sequence:
#
# PCOD9006035 Si02
#       8
#     2   2   2   2   2   2   2   2
#     4  11  23  42  67  92 130 171 214 272 329 387
#     4  11  25  43  67  93 131 174 214 266 336 395
#     4  10  21  38  64  93 123 163 220 261 324 381
#     4  10  22  40  64  90 127 166 208 261 327 384
#     4  12  25  40  69 100 130 172 225 275 323 400
#     4   9  20  39  63  89 124 168 209 265 319 384
#     4  11  22  43  65  92 134 170 212 267 337 386
#     4  12  26  43  69 101 133 169 227 278 323 394
#
# _framework density 19.108833000000001
#
# number of rings (size 3 to 8) (size 9 to 14) (size 15 to 20)
#    0.000    1.250    2.500    3.000    5.250    1.000 
#    0.000    0.625    0.000    0.000    0.000    0.000 
#    0.000    0.000    0.000    0.000    0.000    0.000 
#
# Total GULP energy -89106.373540 kJ/mol
# GULP energy per Si atom -5569.148346 kJ/mol
# Density = 1.906534 g / cm^3
# Si number density = 19.108833 Si / 1000 Ang^3
#
#
#
# Elastic Constant Matrix: (Units=GPa)
#
#
# Indices 1 2 3 4 5 6 
#
# 1 137.2784 91.5740 30.1868 -24.4508 0.2234 5.1927
# 2 91.5740 184.9964 38.9431 -25.4713 -1.8603 -10.7317
# 3 30.1868 38.9431 69.9008 -15.5179 -1.4169 -5.1064
# 4 -24.4508 -25.4713 -15.5179 35.4612 5.3605 -8.4829
# 5 0.2234 -1.8603 -1.4169 5.3605 34.2623 -9.0256
# 6 5.1927 -10.7317 -5.1064 -8.4829 -9.0256 40.7792
#
#
#
# Elastic Compliance Matrix: (Units=1/GPa)
#
#
# Indices 1 2 3 4 5 6 
#
# 1 0.011837 -0.005231 -0.001717 0.003237 -0.001675 -0.002796
# 2 -0.005231 0.008980 -0.001854 0.002744 0.000959 0.003580
# 3 -0.001717 -0.001854 0.017644 0.005906 0.000585 0.003298
# 4 0.003237 0.002744 0.005906 0.037430 -0.003352 0.008094
# 5 -0.001675 0.000959 0.000585 -0.003352 0.031599 0.006835
# 6 -0.002796 0.003580 0.003298 0.008094 0.006835 0.029430
#
#
# Mechanical properties :
#
#
# Convention : Reuss Voigt Hill
#
# Bulk Modulus (GPa) = 47.94501 79.28702 63.61602
# Shear Modulus (GPa) = 30.96430 37.53199 34.24814
#
# Velocity S-wave (km/s) = 4.02981 4.43664 4.23811
# Velocity P-wave (km/s) = 6.84087 8.23575 7.57050
#
# Compressibility (1/GPa) = 0.02085723
#
# Stress axis : x y z
#
# Youngs Moduli (GPa) = 84.48423 111.35488 56.67552
#
# Poissons Ratio (x) = 0.58251 0.09731
# Poissons Ratio (y) = 0.44194 0.10507
# Poissons Ratio (z) = 0.14505 0.20645
#
# Static dielectric constant tensor:
#      x y z
#    x 1.635290 -0.017780 0.045180 
#    y -0.017780 1.695150 -0.026670 
#    z 0.045180 -0.026670 1.691240 
# 
# From -- ./inp_files/258275.got.cif
#   From: 2010.05.17/outbox.cif.g08.bks.cpg/sg2_130_cif.got.tgz:258275.got - 2010.06.03 11:33:40.
