data_PCOD9006485
_publ_section_title
;
Structure prediction by ZEFSAII (Michael W. Deem and Ramdas Pophale) SiO2 
 PCOD9006485
Probable space group: P -1
;
_chemical_formula_sum "Si O2"
_cell_formula_units_Z 16
_cell_length_a 18.797114
_cell_length_b 17.959802
_cell_length_c 5.172461
_cell_angle_alpha 99.742624
_cell_angle_beta 101.624751
_cell_angle_gamma 22.982951
_cell_volume 667.219352
_symmetry_space_group_name_H-M "P -1"
_symmetry_group_IT_number 2
_symmetry_cell_setting 'triclinic'
loop_
_space_group_symop_operation_xyz
x,y,z
-x,-y,-z
loop_
_atom_site_type_symbol
_atom_site_label
_atom_site_fract_x
_atom_site_fract_y
_atom_site_fract_z
Si Si1 0.436393 0.676053 0.656237
Si Si2 0.983785 0.605667 0.025638
Si Si3 0.564773 0.021913 0.137201
Si Si4 0.193197 0.017073 0.365526
Si Si5 0.501261 0.822151 0.297715
Si Si6 0.785783 0.255666 0.704293
Si Si7 0.895001 0.424150 0.429907
Si Si8 0.846786 0.081231 0.052897
O O1 0.650892 0.454297 0.677634
O O2 0.325096 0.709108 0.479104
O O3 0.345374 0.836930 0.563800
O O4 0.360395 0.745330 0.930206
O O5 0.111687 0.517106 0.289380
O O6 0.778772 0.821356 0.098561
O O7 0.000000 0.500000 0.000000
O O8 0.032136 0.596504 0.777016
O O9 0.531021 0.085265 0.439912
O O10 0.466299 0.168983 0.945080
O O11 0.500000 0.000000 0.000000
O O12 0.035538 0.222402 0.471781
O O13 0.317309 0.949119 0.228000
O O14 0.097755 0.037487 0.171798
O O15 0.685914 0.597960 0.341895
O O16 0.999734 0.068203 0.696209
O O17 0.819014 0.191280 0.981558
#
# Coordination Sequence:
#
# PCOD9006485 Si02
#       8
#     2   2   2   2   2   2   2   2
#     4  10  21  38  66  92 134 171 228 272 349 400
#     4  12  24  46  73 103 136 177 233 291 348 414
#     4  12  24  46  73 103 136 177 233 291 348 414
#     4  11  26  42  60  98 134 184 220 286 346 428
#     4  12  26  46  68  99 141 181 231 287 351 416
#     4   9  20  40  62 100 124 172 224 288 324 410
#     4  12  26  46  68  99 141 181 231 287 351 416
#     4  10  21  38  66  92 134 171 228 272 349 400
#
# _framework density 23.980122000000001
#
# number of rings (size 3 to 8) (size 9 to 14) (size 15 to 20)
#    0.000    1.000    2.500    3.750    3.500    2.000 
#    0.000    2.500    0.000    0.000    0.000    0.000 
#    0.000    0.000    0.000    0.000    0.000    0.000 
#
# Total GULP energy -89294.123217 kJ/mol
# GULP energy per Si atom -5580.882701 kJ/mol
# Density = 2.392554 g / cm^3
# Si number density = 23.980122 Si / 1000 Ang^3
#
#
#
# Elastic Constant Matrix: (Units=GPa)
#
#
# Indices 1 2 3 4 5 6 
#
# 1 61.4901 11.4436 13.4558 2.1510 7.8435 5.0792
# 2 11.4436 168.1444 1.7089 -13.6328 4.1679 -0.4775
# 3 13.4558 1.7089 82.6943 4.0994 3.8556 7.9102
# 4 2.1510 -13.6328 4.0994 24.4960 -0.9737 2.4410
# 5 7.8435 4.1679 3.8556 -0.9737 32.5160 -2.1586
# 6 5.0792 -0.4775 7.9102 2.4410 -2.1586 41.1113
#
#
#
# Elastic Compliance Matrix: (Units=1/GPa)
#
#
# Indices 1 2 3 4 5 6 
#
# 1 0.017748 -0.001237 -0.002408 -0.001819 -0.004014 -0.001846
# 2 -0.001237 0.006337 -0.000092 0.003634 -0.000394 0.000008
# 3 -0.002408 -0.000092 0.012832 -0.001820 -0.001124 -0.002124
# 4 -0.001819 0.003634 -0.001820 0.043553 0.001367 -0.001897
# 5 -0.004014 -0.000394 -0.001124 0.001367 0.032101 0.002312
# 6 -0.001846 0.000008 -0.002124 -0.001897 0.002312 0.025195
#
#
# Mechanical properties :
#
#
# Convention : Reuss Voigt Hill
#
# Bulk Modulus (GPa) = 33.96440 40.61617 37.29028
# Shear Modulus (GPa) = 32.24658 38.67269 35.45964
#
# Velocity S-wave (km/s) = 3.67102 4.02020 3.84957
# Velocity P-wave (km/s) = 5.67123 6.20673 5.94501
#
# Compressibility (1/GPa) = 0.02944259
#
# Stress axis : x y z
#
# Youngs Moduli (GPa) = 56.34389 157.80809 77.92824
#
# Poissons Ratio (x) = 0.19516 0.18768
# Poissons Ratio (y) = 0.06968 0.00719
# Poissons Ratio (z) = 0.13570 0.01456
#
# Static dielectric constant tensor:
#      x y z
#    x 2.016640 -0.031270 -0.009130 
#    y -0.031270 1.921710 0.002620 
#    z -0.009130 0.002620 2.023440 
# 
# From -- ./inp_files/120086.got.cif
#   From: 2010.05.17/outbox.cif.g08.bks.cpg/sg2_61_cif.got.tgz:120086.got - 2010.06.03 11:33:40.
