data_PCOD9006963
_publ_section_title
;
Structure prediction by ZEFSAII (Michael W. Deem and Ramdas Pophale) SiO2 
 PCOD9006963
Probable space group: P -1
;
_chemical_formula_sum "Si O2"
_cell_formula_units_Z 15
_cell_length_a 6.798582
_cell_length_b 9.809615
_cell_length_c 17.731772
_cell_angle_alpha 59.463997
_cell_angle_beta 53.590028
_cell_angle_gamma 46.525209
_cell_volume 680.499190
_symmetry_space_group_name_H-M "P -1"
_symmetry_group_IT_number 2
_symmetry_cell_setting 'triclinic'
loop_
_space_group_symop_operation_xyz
x,y,z
-x,-y,-z
loop_
_atom_site_type_symbol
_atom_site_label
_atom_site_fract_x
_atom_site_fract_y
_atom_site_fract_z
Si Si1 0.669441 0.090629 0.109616
Si Si2 0.988327 0.314171 0.241253
Si Si3 0.568725 0.312747 0.450656
Si Si4 0.586382 0.766302 0.196156
Si Si5 0.791527 0.235554 0.584921
Si Si6 0.469549 0.272652 0.947453
Si Si7 0.500000 0.000000 0.500000
Si Si8 0.123350 0.712345 0.888837
O O1 0.838867 0.145843 0.110788
O O2 0.334714 0.211225 0.184371
O O3 0.734320 0.881536 0.146060
O O4 0.666300 0.162689 0.005661
O O5 0.860610 0.279796 0.354238
O O6 0.831915 0.540971 0.204824
O O7 0.885460 0.253740 0.207933
O O8 0.652402 0.228982 0.539392
O O9 0.333758 0.540403 0.441672
O O10 0.444636 0.210305 0.462609
O O11 0.349722 0.812274 0.301068
O O12 0.438887 0.809315 0.134737
O O13 0.140573 0.099253 0.544314
O O14 0.378601 0.490044 0.908471
O O15 0.175692 0.273148 0.027272
#
# Coordination Sequence:
#
# PCOD9006963 Si02
#       8
#     2   2   2   2   2   2   1   2
#     4  11  20  35  61  86 111 154 197 235 291 355
#     4   9  21  40  57  82 121 153 188 244 295 346
#     4  10  22  41  63  88 123 162 200 246 302 361
#     4  10  21  39  58  82 118 153 193 244 294 349
#     4  10  23  42  61  88 124 160 199 249 305 360
#     4   9  19  37  55  81 120 153 187 240 295 347
#     4  12  22  38  66  92 116 156 206 252 300 356
#     4   9  19  35  58  85 114 151 195 238 289 348
#
# _framework density 22.042643999999999
#
# number of rings (size 3 to 8) (size 9 to 14) (size 15 to 20)
#    0.000    2.133    0.000    3.200    0.000    2.667 
#    0.000   14.667    0.000    0.000    0.000    0.000 
#    0.000    0.000    0.000    0.000    0.000    0.000 
#
# Total GULP energy -83666.536071 kJ/mol
# GULP energy per Si atom -5577.769071 kJ/mol
# Density = 2.199247 g / cm^3
# Si number density = 22.042644 Si / 1000 Ang^3
#
#
#
# Elastic Constant Matrix: (Units=GPa)
#
#
# Indices 1 2 3 4 5 6 
#
# 1 69.1903 41.7996 26.0112 -2.2190 -4.3698 15.6160
# 2 41.7996 89.3355 24.5818 2.1753 -1.8986 14.6192
# 3 26.0112 24.5818 86.6316 12.2410 25.9772 -1.4155
# 4 -2.2190 2.1753 12.2410 24.7917 2.5814 -2.9720
# 5 -4.3698 -1.8986 25.9772 2.5814 24.3798 1.4459
# 6 15.6160 14.6192 -1.4155 -2.9720 1.4459 28.2918
#
#
#
# Elastic Compliance Matrix: (Units=1/GPa)
#
#
# Indices 1 2 3 4 5 6 
#
# 1 0.027787 -0.007179 -0.012818 0.006047 0.018185 -0.012563
# 2 -0.007179 0.016566 -0.003789 -0.001310 0.004485 -0.005154
# 3 -0.012818 -0.003789 0.027467 -0.009782 -0.031475 0.010988
# 4 0.006047 -0.001310 -0.009782 0.045295 0.006533 0.001274
# 5 0.018185 0.004485 -0.031475 0.006533 0.078495 -0.017255
# 6 -0.012563 -0.005154 0.010988 0.001274 -0.017255 0.046509
#
#
# Mechanical properties :
#
#
# Convention : Reuss Voigt Hill
#
# Bulk Modulus (GPa) = 41.24289 47.77141 44.50715
# Shear Modulus (GPa) = 16.79126 25.67697 21.23411
#
# Velocity S-wave (km/s) = 2.76300 3.41673 3.10711
# Velocity P-wave (km/s) = 5.37866 6.10612 5.75390
#
# Compressibility (1/GPa) = 0.02424660
#
# Stress axis : x y z
#
# Youngs Moduli (GPa) = 35.98849 60.36438 36.40749
#
# Poissons Ratio (x) = 0.43335 0.46668
# Poissons Ratio (y) = 0.25836 0.13795
# Poissons Ratio (z) = 0.46131 0.22873
#
# Static dielectric constant tensor:
#      x y z
#    x 1.751890 -0.030590 0.036770 
#    y -0.030590 1.844710 0.031200 
#    z 0.036770 0.031200 1.785390 
# 
# From -- ./inp_files/324189.got.cif
#   From: 2010.05.17/outbox.cif.g08.bks.cpg/sg2_163_cif.got.tgz:324189.got - 2010.06.03 11:33:40.
