data_PCOD9006438
_publ_section_title
;
Structure prediction by ZEFSAII (Michael W. Deem and Ramdas Pophale) SiO2 
 PCOD9006438
Probable space group: P -1
;
_chemical_formula_sum "Si O2"
_cell_formula_units_Z 16
_cell_length_a 9.455916
_cell_length_b 13.746844
_cell_length_c 10.066626
_cell_angle_alpha 137.190151
_cell_angle_beta 125.256054
_cell_angle_gamma 51.271543
_cell_volume 676.239664
_symmetry_space_group_name_H-M "P -1"
_symmetry_group_IT_number 2
_symmetry_cell_setting 'triclinic'
loop_
_space_group_symop_operation_xyz
x,y,z
-x,-y,-z
loop_
_atom_site_type_symbol
_atom_site_label
_atom_site_fract_x
_atom_site_fract_y
_atom_site_fract_z
Si Si1 0.451800 0.208576 0.070071
Si Si2 0.649919 0.258680 0.764883
Si Si3 0.538177 0.354004 0.524736
Si Si4 0.413839 0.428136 0.052831
Si Si5 0.860681 0.907532 0.175001
Si Si6 0.058336 0.784858 0.427035
Si Si7 0.723512 0.934673 0.569061
Si Si8 0.832971 0.958686 0.928977
O O1 0.453842 0.298328 0.298160
O O2 0.346760 0.328074 0.016931
O O3 0.343847 0.092413 0.909974
O O4 0.659667 0.110360 0.033159
O O5 0.571872 0.242152 0.559513
O O6 0.705837 0.407985 0.914581
O O7 0.767124 0.087387 0.703481
O O8 0.509042 0.322833 0.874837
O O9 0.451640 0.517490 0.719548
O O10 0.743308 0.352588 0.590067
O O11 0.990211 0.809466 0.263173
O O12 0.875196 0.073540 0.361092
O O13 0.898132 0.854762 0.990127
O O14 0.877663 0.803404 0.435578
O O15 0.763409 0.889247 0.697662
O O16 0.500000 0.000000 0.500000
O O17 0.000000 0.000000 0.000000
#
# Coordination Sequence:
#
# PCOD9006438 Si02
#       8
#     2   2   2   2   2   2   2   2
#     4  12  22  39  64  95 124 162 215 259 308 376
#     4   9  20  39  61  91 121 163 207 253 302 373
#     4  10  21  38  66  87 126 163 208 257 303 377
#     4   9  21  39  61  91 124 168 214 247 309 370
#     4  11  24  39  61  92 134 157 205 262 319 378
#     4  11  23  42  61  93 128 169 197 260 336 361
#     4  12  24  39  67  94 123 163 211 259 315 384
#     4  12  24  38  57  94 128 163 198 258 321 368
#
# _framework density 23.660250000000001
#
# number of rings (size 3 to 8) (size 9 to 14) (size 15 to 20)
#    0.750    0.500    3.750    3.000    1.750    0.000 
#    0.000    0.625    0.000    0.000    0.000    8.750 
#    0.000    0.000    0.000    0.000    0.000    0.000 
#
# Total GULP energy -89094.880233 kJ/mol
# GULP energy per Si atom -5568.430015 kJ/mol
# Density = 2.360640 g / cm^3
# Si number density = 23.660250 Si / 1000 Ang^3
#
#
#
# Elastic Constant Matrix: (Units=GPa)
#
#
# Indices 1 2 3 4 5 6 
#
# 1 127.0279 19.4502 53.8266 -6.1173 -3.8207 -3.2905
# 2 19.4502 55.3199 32.2766 -13.2478 -5.3190 10.2534
# 3 53.8266 32.2766 146.4299 -32.5865 -30.6025 -0.1519
# 4 -6.1173 -13.2478 -32.5865 43.7891 1.1270 -8.9786
# 5 -3.8207 -5.3190 -30.6025 1.1270 40.6929 -7.2983
# 6 -3.2905 10.2534 -0.1519 -8.9786 -7.2983 21.7990
#
#
#
# Elastic Compliance Matrix: (Units=1/GPa)
#
#
# Indices 1 2 3 4 5 6 
#
# 1 0.009745 -0.001884 -0.004080 -0.002034 -0.002209 0.000751
# 2 -0.001884 0.023842 -0.005049 0.000760 -0.003076 -0.012251
# 3 -0.004080 -0.005049 0.013948 0.009972 0.010894 0.009611
# 4 -0.002034 0.000760 0.009972 0.033297 0.009403 0.016268
# 5 -0.002209 -0.003076 0.010894 0.009403 0.034901 0.016747
# 6 0.000751 -0.012251 0.009611 0.016268 0.016747 0.064124
#
#
# Mechanical properties :
#
#
# Convention : Reuss Voigt Hill
#
# Bulk Modulus (GPa) = 39.20475 59.98719 49.59597
# Shear Modulus (GPa) = 23.76585 36.13784 29.95184
#
# Velocity S-wave (km/s) = 3.17276 3.91239 3.56183
# Velocity P-wave (km/s) = 5.47976 6.76888 6.15814
#
# Compressibility (1/GPa) = 0.02550711
#
# Stress axis : x y z
#
# Youngs Moduli (GPa) = 102.61804 41.94286 71.69507
#
# Poissons Ratio (x) = 0.07904 0.29254
# Poissons Ratio (y) = 0.19337 0.36200
# Poissons Ratio (z) = 0.41872 0.21178
#
# Static dielectric constant tensor:
#      x y z
#    x 2.015920 -0.040930 -0.003810 
#    y -0.040930 1.953550 -0.009700 
#    z -0.003810 -0.009700 1.923930 
# 
# From -- ./inp_files/203744.got.cif
#   From: 2010.05.17/outbox.cif.g08.bks.cpg/sg2_102_cif.got.tgz:203744.got - 2010.06.03 11:33:40.
