data_PCOD9006477
_publ_section_title
;
Structure prediction by ZEFSAII (Michael W. Deem and Ramdas Pophale) SiO2 
 PCOD9006477
Probable space group: P -1
;
_chemical_formula_sum "Si O2"
_cell_formula_units_Z 16
_cell_length_a 15.930017
_cell_length_b 14.158778
_cell_length_c 24.269616
_cell_angle_alpha 22.942752
_cell_angle_beta 158.555986
_cell_angle_gamma 147.536641
_cell_volume 776.647932
_symmetry_space_group_name_H-M "P -1"
_symmetry_group_IT_number 2
_symmetry_cell_setting 'triclinic'
loop_
_space_group_symop_operation_xyz
x,y,z
-x,-y,-z
loop_
_atom_site_type_symbol
_atom_site_label
_atom_site_fract_x
_atom_site_fract_y
_atom_site_fract_z
Si Si1 0.034315 0.427192 0.642319
Si Si2 0.104180 0.961464 0.426963
Si Si3 0.841699 0.891701 0.417069
Si Si4 0.286307 0.697460 0.039739
Si Si5 0.568437 0.202342 0.475090
Si Si6 0.018624 0.649310 0.217309
Si Si7 0.580504 0.904806 0.008364
Si Si8 0.640477 0.965788 0.762725
O O1 0.075033 0.712654 0.508934
O O2 0.047160 0.365606 0.749534
O O3 0.213931 0.267105 0.800237
O O4 0.783105 0.355505 0.509912
O O5 0.367174 0.973524 0.599957
O O6 0.957252 0.928722 0.409017
O O7 0.974499 0.196905 0.191404
O O8 0.855138 0.605633 0.586744
O O9 0.000000 0.000000 0.500000
O O10 0.587030 0.017950 0.186525
O O11 0.359334 0.411593 0.245537
O O12 0.442035 0.774737 0.041502
O O13 0.350871 0.851949 0.049653
O O14 0.500000 0.000000 0.500000
O O15 0.648970 0.042739 0.663120
O O16 0.786015 0.717779 0.003459
O O17 0.208972 0.838770 0.221572
#
# Coordination Sequence:
#
# PCOD9006477 Si02
#       8
#     2   2   2   2   2   2   2   2
#     4  10  22  39  67  93 117 157 210 248 305 364
#     4  10  23  39  65  94 116 161 208 252 303 361
#     4  10  22  38  62  94 123 156 201 255 306 356
#     4  10  22  41  60  87 128 159 197 253 308 351
#     4  11  25  42  60  90 125 165 202 246 302 368
#     4   9  21  43  62  85 126 164 195 255 307 360
#     4  10  21  38  66  92 120 158 200 257 304 356
#     4  10  22  40  65  84 122 162 204 247 302 362
#
# _framework density 20.601354000000001
#
# number of rings (size 3 to 8) (size 9 to 14) (size 15 to 20)
#    0.000    2.000    0.000    3.750    7.000    3.500 
#    2.250    0.625    0.000    0.000    0.000    0.000 
#    0.000    0.000    0.000    0.000    0.000    0.000 
#
# Total GULP energy -89243.341928 kJ/mol
# GULP energy per Si atom -5577.708870 kJ/mol
# Density = 2.055446 g / cm^3
# Si number density = 20.601354 Si / 1000 Ang^3
#
#
#
# Elastic Constant Matrix: (Units=GPa)
#
#
# Indices 1 2 3 4 5 6 
#
# 1 -109.4935 -43.8492 103.2098 -109.5927 -6.9072 52.8923
# 2 -43.8492 51.6504 94.8201 -37.4170 2.8385 18.8833
# 3 103.2098 94.8201 140.3261 59.5012 13.6438 -34.1834
# 4 -109.5927 -37.4170 59.5012 -36.2251 -18.3392 49.4516
# 5 -6.9072 2.8385 13.6438 -18.3392 31.1629 14.0601
# 6 52.8923 18.8833 -34.1834 49.4516 14.0601 8.9285
#
#
#
# Elastic Compliance Matrix: (Units=1/GPa)
#
#
# Indices 1 2 3 4 5 6 
#
# 1 0.015688 -0.004629 0.001940 -0.013128 -0.011471 0.015059
# 2 -0.004629 0.020168 -0.005801 -0.005951 -0.006223 0.005315
# 3 0.001940 -0.005801 0.006532 0.004615 0.002464 -0.003655
# 4 -0.013128 -0.005951 0.004615 0.017913 0.007515 -0.003020
# 5 -0.011471 -0.006223 0.002464 0.007515 0.039326 -0.013005
# 6 0.015059 0.005315 -0.003655 -0.003020 -0.013005 0.034759
#
#
# Mechanical properties :
#
#
# Convention : Reuss Voigt Hill
#
# Bulk Modulus (GPa) = 39.35568 43.42715 41.39142
# Shear Modulus (GPa) = 31.28237 -4.00660 13.63788
#
# Velocity S-wave (km/s) = 3.90097 -1.39608 2.57571
# Velocity P-wave (km/s) = 6.27973 4.30428 5.38339
#
# Compressibility (1/GPa) = 0.02540929
#
# Stress axis : x y z
#
# Youngs Moduli (GPa) = 63.74368 49.58258 153.08760
#
# Poissons Ratio (x) = 0.22950 -0.29696
# Poissons Ratio (y) = 0.29505 0.88801
# Poissons Ratio (z) = -0.12365 0.28761
#
# Static dielectric constant tensor:
#      x y z
#    x 1.748600 0.020050 -0.030140 
#    y 0.020050 1.827720 0.033240 
#    z -0.030140 0.033240 1.793180 
# 
# From -- ./inp_files/299190.got.cif
#   From: 2010.05.17/outbox.cif.g08.bks.cpg/sg2_150_cif.got.tgz:299190.got - 2010.06.03 11:33:40.
