data_PCOD9006471
_publ_section_title
;
Structure prediction by ZEFSAII (Michael W. Deem and Ramdas Pophale) SiO2 
 PCOD9006471
Probable space group: P -1
;
_chemical_formula_sum "Si O2"
_cell_formula_units_Z 12
_cell_length_a 11.988060
_cell_length_b 13.100189
_cell_length_c 7.910243
_cell_angle_alpha 40.726641
_cell_angle_beta 120.281218
_cell_angle_gamma 137.462252
_cell_volume 543.828832
_symmetry_space_group_name_H-M "P -1"
_symmetry_group_IT_number 2
_symmetry_cell_setting 'triclinic'
loop_
_space_group_symop_operation_xyz
x,y,z
-x,-y,-z
loop_
_atom_site_type_symbol
_atom_site_label
_atom_site_fract_x
_atom_site_fract_y
_atom_site_fract_z
Si Si1 0.129871 0.773168 0.104925
Si Si2 0.359601 0.520622 0.394822
Si Si3 0.312542 0.807652 0.873907
Si Si4 0.505449 0.728650 0.575973
Si Si5 0.226455 0.630294 0.672447
Si Si6 0.819151 0.855594 0.463435
O O1 0.184750 0.729447 0.028463
O O2 0.202931 0.736818 0.367507
O O3 0.930776 0.604318 0.167174
O O4 0.190864 0.998130 0.847570
O O5 0.500000 0.500000 0.500000
O O6 0.403401 0.714226 0.093654
O O7 0.366769 0.566665 0.539230
O O8 0.202221 0.318851 0.442108
O O9 0.327398 0.239338 0.387065
O O10 0.432499 0.046400 0.682103
O O11 0.398224 0.662193 0.747563
O O12 0.769007 0.270596 0.273671
O O13 0.000000 0.000000 0.500000
#
# Coordination Sequence:
#
# PCOD9006471 Si02
#       6
#     2   2   2   2   2   2
#     4  10  23  41  67  91 135 161 215 264 317 373
#     4  10  21  38  66  91 128 171 202 258 325 374
#     4  11  21  40  70  89 127 171 214 259 314 377
#     4  10  22  41  65  95 127 162 220 261 307 376
#     4  11  22  39  67 102 120 163 224 266 306 368
#     4  10  22  42  67  93 128 176 207 253 329 384
#
# _framework density 22.065764999999999
#
# number of rings (size 3 to 8) (size 9 to 14) (size 15 to 20)
#    0.000    1.667    1.667    2.500    4.667    1.333 
#    0.000    8.333    3.667    0.000    0.000    0.000 
#    0.000    0.000    0.000    0.000    0.000    0.000 
#
# Total GULP energy -66950.714734 kJ/mol
# GULP energy per Si atom -5579.226228 kJ/mol
# Density = 2.201554 g / cm^3
# Si number density = 22.065765 Si / 1000 Ang^3
#
#
#
# Elastic Constant Matrix: (Units=GPa)
#
#
# Indices 1 2 3 4 5 6 
#
# 1 81.8248 19.3109 19.2230 6.5821 -10.7273 7.0528
# 2 19.3109 114.5674 7.4684 -5.4631 4.1546 -14.4089
# 3 19.2230 7.4684 51.8025 -4.2712 6.9510 -10.3537
# 4 6.5821 -5.4631 -4.2712 35.0264 -11.0815 -6.0143
# 5 -10.7273 4.1546 6.9510 -11.0815 25.9659 -4.5171
# 6 7.0528 -14.4089 -10.3537 -6.0143 -4.5171 42.8909
#
#
#
# Elastic Compliance Matrix: (Units=1/GPa)
#
#
# Indices 1 2 3 4 5 6 
#
# 1 0.016576 -0.003381 -0.007996 -0.003294 0.007167 -0.005499
# 2 -0.003381 0.009955 0.001101 0.002634 -0.001397 0.004388
# 3 -0.007996 0.001101 0.024880 0.003685 -0.007273 0.007441
# 4 -0.003294 0.002634 0.003685 0.036026 0.014147 0.008858
# 5 0.007167 -0.001397 -0.007273 0.014147 0.050356 0.003884
# 6 -0.005499 0.004388 0.007441 0.008858 0.003884 0.029141
#
#
# Mechanical properties :
#
#
# Convention : Reuss Voigt Hill
#
# Bulk Modulus (GPa) = 32.40612 37.79990 35.10301
# Shear Modulus (GPa) = 25.28164 34.25616 29.76890
#
# Velocity S-wave (km/s) = 3.38855 3.94440 3.67699
# Velocity P-wave (km/s) = 5.47976 6.15728 5.82837
#
# Compressibility (1/GPa) = 0.03085837
#
# Stress axis : x y z
#
# Youngs Moduli (GPa) = 60.32693 100.45402 40.19367
#
# Poissons Ratio (x) = 0.33967 0.32139
# Poissons Ratio (y) = 0.20399 -0.04427
# Poissons Ratio (z) = 0.48238 -0.11063
#
# Static dielectric constant tensor:
#      x y z
#    x 1.861180 0.006900 0.005190 
#    y 0.006900 1.851390 0.019610 
#    z 0.005190 0.019610 1.835000 
# 
# From -- ./inp_files/302172.got.cif
#   From: 2010.05.17/outbox.cif.g08.bks.cpg/sg2_152_cif.got.tgz:302172.got - 2010.06.03 11:33:40.
