data_PCOD9006675
_publ_section_title
;
Structure prediction by ZEFSAII (Michael W. Deem and Ramdas Pophale) SiO2 
 PCOD9006675
Probable space group: P -1
;
_chemical_formula_sum "Si O2"
_cell_formula_units_Z 16
_cell_length_a 11.489121
_cell_length_b 8.586297
_cell_length_c 13.855539
_cell_angle_alpha 82.283812
_cell_angle_beta 149.591416
_cell_angle_gamma 90.792523
_cell_volume 671.261571
_symmetry_space_group_name_H-M "P -1"
_symmetry_group_IT_number 2
_symmetry_cell_setting 'triclinic'
loop_
_space_group_symop_operation_xyz
x,y,z
-x,-y,-z
loop_
_atom_site_type_symbol
_atom_site_label
_atom_site_fract_x
_atom_site_fract_y
_atom_site_fract_z
Si Si1 0.943382 0.605214 0.223051
Si Si2 0.495574 0.766376 0.797661
Si Si3 0.143327 0.071126 0.314714
Si Si4 0.414093 0.729644 0.529019
Si Si5 0.901500 0.607408 0.829107
Si Si6 0.292952 0.128626 0.622026
Si Si7 0.806426 0.357379 0.278565
Si Si8 0.641497 0.118233 0.034030
O O1 0.864005 0.520777 0.266831
O O2 0.194042 0.651698 0.403514
O O3 0.970294 0.476213 0.166486
O O4 0.736411 0.748243 0.028997
O O5 0.541493 0.751367 0.719119
O O6 0.359804 0.632014 0.749223
O O7 0.325023 0.937712 0.678496
O O8 0.070032 0.208382 0.171291
O O9 0.281510 0.140151 0.496101
O O10 0.909821 0.039324 0.203770
O O11 0.298004 0.908811 0.396727
O O12 0.619176 0.627787 0.620835
O O13 0.000000 0.500000 0.000000
O O14 0.053665 0.235874 0.480692
O O15 0.503261 0.171422 0.831369
O O16 0.671648 0.268532 0.109739
O O17 0.500000 0.000000 0.000000
#
# Coordination Sequence:
#
# PCOD9006675 Si02
#       8
#     2   2   2   2   2   2   2   2
#     4  12  25  46  64 100 138 176 221 280 340 403
#     4  11  23  41  64  99 137 177 218 277 332 402
#     4  10  24  46  67 104 133 171 233 279 327 404
#     4  11  26  43  72  94 133 181 228 273 338 396
#     4  12  24  50  72  93 136 177 225 290 338 388
#     4  10  21  38  67  97 137 174 221 270 327 397
#     4  11  24  40  66 101 142 175 225 275 330 408
#     4  11  21  37  69 104 137 177 218 269 339 397
#
# _framework density 23.835716000000001
#
# number of rings (size 3 to 8) (size 9 to 14) (size 15 to 20)
#    0.000    1.000    5.000    2.250    3.500    2.500 
#    2.250    0.625    0.000    0.000    0.000    0.000 
#    0.000    0.000    0.000    0.000    0.000    0.000 
#
# Total GULP energy -89469.738459 kJ/mol
# GULP energy per Si atom -5591.858654 kJ/mol
# Density = 2.378146 g / cm^3
# Si number density = 23.835716 Si / 1000 Ang^3
#
#
#
# Elastic Constant Matrix: (Units=GPa)
#
#
# Indices 1 2 3 4 5 6 
#
# 1 64.4519 17.1203 24.3582 -15.1118 5.9756 20.0662
# 2 17.1203 77.0876 30.1441 -12.9695 -3.5252 25.6895
# 3 24.3582 30.1441 129.0886 -14.7872 12.2625 7.5795
# 4 -15.1118 -12.9695 -14.7872 37.8800 0.1700 1.8424
# 5 5.9756 -3.5252 12.2625 0.1700 30.1188 -0.4527
# 6 20.0662 25.6895 7.5795 1.8424 -0.4527 35.4357
#
#
#
# Elastic Compliance Matrix: (Units=1/GPa)
#
#
# Indices 1 2 3 4 5 6 
#
# 1 0.023065 0.002246 -0.002567 0.009699 -0.003544 -0.014690
# 2 0.002246 0.020537 -0.003780 0.007201 0.003220 -0.015686
# 3 -0.002567 -0.003780 0.009502 0.001309 -0.003779 0.002045
# 4 0.009699 0.007201 0.001309 0.033875 -0.001998 -0.012779
# 5 -0.003544 0.003220 -0.003779 -0.001998 0.035847 0.001042
# 6 -0.014690 -0.015686 0.002045 -0.012779 0.001042 0.048150
#
#
# Mechanical properties :
#
#
# Convention : Reuss Voigt Hill
#
# Bulk Modulus (GPa) = 22.26930 45.98590 34.12760
# Shear Modulus (GPa) = 25.75383 33.95395 29.85389
#
# Velocity S-wave (km/s) = 3.29062 3.77835 3.54289
# Velocity P-wave (km/s) = 4.87859 6.19429 5.57539
#
# Compressibility (1/GPa) = 0.04490488
#
# Stress axis : x y z
#
# Youngs Moduli (GPa) = 43.35579 48.69181 105.23708
#
# Poissons Ratio (x) = -0.10938 0.27010
# Poissons Ratio (y) = -0.09739 0.39777
# Poissons Ratio (z) = 0.11127 0.18404
#
# Static dielectric constant tensor:
#      x y z
#    x 1.915060 0.010120 -0.022300 
#    y 0.010120 1.933220 -0.007510 
#    z -0.022300 -0.007510 1.901390 
# 
# From -- ./inp_files/515461.got.cif
#   From: 2010.05.17/outbox.cif.g08.bks.cpg/sg2_258_cif.got.tgz:515461.got - 2010.06.03 11:33:40.
