data_PCOD9006116
_publ_section_title
;
Structure prediction by ZEFSAII (Michael W. Deem and Ramdas Pophale) SiO2 
 PCOD9006116
Probable space group: P -1
;
_chemical_formula_sum "Si O2"
_cell_formula_units_Z 14
_cell_length_a 7.756944
_cell_length_b 9.322606
_cell_length_c 11.836261
_cell_angle_alpha 50.484531
_cell_angle_beta 90.355119
_cell_angle_gamma 75.945348
_cell_volume 625.603045
_symmetry_space_group_name_H-M "P -1"
_symmetry_group_IT_number 2
_symmetry_cell_setting 'triclinic'
loop_
_space_group_symop_operation_xyz
x,y,z
-x,-y,-z
loop_
_atom_site_type_symbol
_atom_site_label
_atom_site_fract_x
_atom_site_fract_y
_atom_site_fract_z
Si Si1 0.459653 0.724530 0.353590
Si Si2 0.321574 0.072429 0.886063
Si Si3 0.554409 0.340978 0.179489
Si Si4 0.959036 0.247112 0.223415
Si Si5 0.957063 0.670556 0.064724
Si Si6 0.674655 0.325908 0.857547
Si Si7 0.648517 0.948958 0.626464
O O1 0.500000 0.500000 0.500000
O O2 0.629729 0.794088 0.276455
O O3 0.328790 0.749802 0.231263
O O4 0.378132 0.864712 0.387280
O O5 0.165102 0.196669 0.905982
O O6 0.500000 0.000000 0.000000
O O7 0.299429 0.861487 0.965678
O O8 0.501718 0.486898 0.214600
O O9 0.418972 0.214133 0.228432
O O10 0.765905 0.210560 0.251939
O O11 0.500000 0.500000 0.000000
O O12 0.135563 0.137028 0.354358
O O13 0.902618 0.479900 0.131432
O O14 0.034031 0.221781 0.107492
O O15 0.158752 0.599172 0.151935
O O16 0.500000 0.000000 0.500000
#
# Coordination Sequence:
#
# PCOD9006116 Si02
#       7
#     2   2   2   2   2   2   2
#     4  11  25  45  68  93 136 184 228 281 342 407
#     4  10  21  38  64  97 134 172 223 273 340 398
#     4  12  22  43  75 105 139 180 228 287 348 404
#     4  11  22  40  70 104 141 177 231 284 347 405
#     4  11  21  38  67 108 139 172 226 288 344 410
#     4  11  21  41  69 104 140 175 224 288 345 404
#     4  12  27  47  69  98 141 183 233 284 345 418
#
# _framework density 22.378408
#
# number of rings (size 3 to 8) (size 9 to 14) (size 15 to 20)
#    0.000    0.857    2.857    6.429    0.000    0.571 
#    0.000    0.714    0.000    0.000    0.000    0.000 
#    0.000    0.000    0.000    0.000    0.000    0.000 
#
# Total GULP energy -78172.002960 kJ/mol
# GULP energy per Si atom -5583.714497 kJ/mol
# Density = 2.232747 g / cm^3
# Si number density = 22.378408 Si / 1000 Ang^3
#
#
#
# Elastic Constant Matrix: (Units=GPa)
#
#
# Indices 1 2 3 4 5 6 
#
# 1 129.2264 18.5015 17.3033 -3.9316 16.2273 -11.6638
# 2 18.5015 100.3553 16.7849 -15.6182 2.2905 -2.6312
# 3 17.3033 16.7849 82.3686 -16.3806 7.6611 -1.5632
# 4 -3.9316 -15.6182 -16.3806 35.6310 15.4599 3.6899
# 5 16.2273 2.2905 7.6611 15.4599 32.2195 -1.1602
# 6 -11.6638 -2.6312 -1.5632 3.6899 -1.1602 44.4150
#
#
#
# Elastic Compliance Matrix: (Units=1/GPa)
#
#
# Indices 1 2 3 4 5 6 
#
# 1 0.008879 -0.000990 -0.000670 0.002336 -0.005294 0.001917
# 2 -0.000990 0.011222 -0.000656 0.005798 -0.002931 -0.000177
# 3 -0.000670 -0.000656 0.015200 0.010251 -0.008175 -0.000745
# 4 0.002336 0.005798 0.010251 0.047641 -0.027006 -0.003346
# 5 -0.005294 -0.002931 -0.008175 -0.027006 0.048874 0.001669
# 6 0.001917 -0.000177 -0.000745 -0.003346 0.001669 0.023303
#
#
# Mechanical properties :
#
#
# Convention : Reuss Voigt Hill
#
# Bulk Modulus (GPa) = 32.60844 46.34778 39.47811
# Shear Modulus (GPa) = 29.41617 39.74380 34.57998
#
# Velocity S-wave (km/s) = 3.62952 4.21882 3.93522
# Velocity P-wave (km/s) = 5.67165 6.66987 6.19091
#
# Compressibility (1/GPa) = 0.03066690
#
# Stress axis : x y z
#
# Youngs Moduli (GPa) = 112.62893 89.11450 65.79020
#
# Poissons Ratio (x) = 0.08824 0.04408
# Poissons Ratio (y) = 0.11152 0.04318
# Poissons Ratio (z) = 0.07547 0.05849
#
# Static dielectric constant tensor:
#      x y z
#    x 1.850750 -0.004760 -0.044830 
#    y -0.004760 1.719900 0.069520 
#    z -0.044830 0.069520 1.890400 
# 
# From -- ./inp_files/377688.got.cif
#   From: 2010.05.17/outbox.cif.g08.bks.cpg/sg2_189_cif.got.tgz:377688.got - 2010.06.03 11:33:40.
