data_PCOD9006271
_publ_section_title
;
Structure prediction by ZEFSAII (Michael W. Deem and Ramdas Pophale) SiO2 
 PCOD9006271
Probable space group: P -1
;
_chemical_formula_sum "Si O2"
_cell_formula_units_Z 16
_cell_length_a 5.087970
_cell_length_b 20.192446
_cell_length_c 8.869949
_cell_angle_alpha 110.196365
_cell_angle_beta 117.121331
_cell_angle_gamma 65.700193
_cell_volume 725.132642
_symmetry_space_group_name_H-M "P -1"
_symmetry_group_IT_number 2
_symmetry_cell_setting 'triclinic'
loop_
_space_group_symop_operation_xyz
x,y,z
-x,-y,-z
loop_
_atom_site_type_symbol
_atom_site_label
_atom_site_fract_x
_atom_site_fract_y
_atom_site_fract_z
Si Si1 0.856781 0.236703 0.064502
Si Si2 0.847365 0.227149 0.696930
Si Si3 0.220450 0.550624 0.063203
Si Si4 0.176363 0.923599 0.565117
Si Si5 0.737377 0.669411 0.826847
Si Si6 0.088815 0.131408 0.276452
Si Si7 0.594175 0.418788 0.531896
Si Si8 0.139523 0.279785 0.551297
O O1 0.550695 0.289799 0.107250
O O2 0.141358 0.270833 0.182513
O O3 0.946945 0.154557 0.093649
O O4 0.839548 0.232482 0.877605
O O5 0.908530 0.142445 0.596666
O O6 0.491907 0.268354 0.591760
O O7 0.080616 0.262358 0.698378
O O8 0.016244 0.618815 0.962878
O O9 0.500000 0.500000 0.000000
O O10 0.364553 0.572962 0.271320
O O11 0.000000 0.500000 0.000000
O O12 0.545080 0.906518 0.648286
O O13 0.073258 0.915497 0.702497
O O14 0.000000 0.000000 0.500000
O O15 0.638951 0.619348 0.637306
O O16 0.028423 0.214290 0.396055
O O17 0.500000 0.500000 0.500000
O O18 0.925999 0.361912 0.526404
#
# Coordination Sequence:
#
# PCOD9006271 Si02
#       8
#     2   2   2   2   2   2   2   2
#     4  12  23  43  66  98 126 166 227 269 325 384
#     4  10  22  41  68  92 131 171 211 271 322 382
#     4  12  27  47  63  91 130 169 217 275 349 413
#     4  10  21  40  65  99 134 173 212 253 318 390
#     4  12  27  44  69  95 129 173 225 285 337 397
#     4  10  21  38  65  92 130 166 213 266 306 386
#     4  12  26  46  69  94 131 174 222 284 348 393
#     4  10  22  41  62  92 119 171 219 259 327 396
#
# _framework density 22.064927999999998
#
# number of rings (size 3 to 8) (size 9 to 14) (size 15 to 20)
#    0.000    1.000    2.500    4.125    3.500    2.500 
#    0.000    1.250    0.000    0.000    0.000    0.000 
#    0.000    0.000    0.000    0.000    0.000    0.000 
#
# Total GULP energy -89493.630618 kJ/mol
# GULP energy per Si atom -5593.351914 kJ/mol
# Density = 2.201471 g / cm^3
# Si number density = 22.064928 Si / 1000 Ang^3
#
#
#
# Elastic Constant Matrix: (Units=GPa)
#
#
# Indices 1 2 3 4 5 6 
#
# 1 106.8509 34.8844 13.2126 4.5064 -18.6937 -1.3540
# 2 34.8844 135.7313 27.6068 -30.4714 -4.8973 -0.2668
# 3 13.2126 27.6068 116.0026 -22.4211 -3.8657 1.1681
# 4 4.5064 -30.4714 -22.4211 24.3785 9.1218 -1.6513
# 5 -18.6937 -4.8973 -3.8657 9.1218 26.9483 -5.5212
# 6 -1.3540 -0.2668 1.1681 -1.6513 -5.5212 29.5881
#
#
#
# Elastic Compliance Matrix: (Units=1/GPa)
#
#
# Indices 1 2 3 4 5 6 
#
# 1 0.016632 -0.008046 -0.003904 -0.023254 0.017980 0.002900
# 2 -0.008046 0.014333 0.002071 0.025556 -0.011545 -0.001049
# 3 -0.003904 0.002071 0.011502 0.016203 -0.006350 -0.000895
# 4 -0.023254 0.025556 0.016203 0.109497 -0.047076 -0.004147
# 5 0.017980 -0.011545 -0.006350 -0.047076 0.064638 0.010404
# 6 0.002900 -0.001049 -0.000895 -0.004147 0.010404 0.035666
#
#
# Mechanical properties :
#
#
# Convention : Reuss Voigt Hill
#
# Bulk Modulus (GPa) = 44.03917 56.66583 50.35250
# Shear Modulus (GPa) = 17.88297 35.04171 26.46234
#
# Velocity S-wave (km/s) = 2.84996 3.98944 3.46684
# Velocity P-wave (km/s) = 5.55265 6.85259 6.23659
#
# Compressibility (1/GPa) = 0.02270706
#
# Stress axis : x y z
#
# Youngs Moduli (GPa) = 60.12623 69.76917 86.94475
#
# Poissons Ratio (x) = 0.56139 0.33943
# Poissons Ratio (y) = 0.48380 -0.18004
# Poissons Ratio (z) = 0.23473 -0.14448
#
# Static dielectric constant tensor:
#      x y z
#    x 1.804130 0.015940 -0.031070 
#    y 0.015940 1.779960 -0.003580 
#    z -0.031070 -0.003580 1.922750 
# 
# From -- ./inp_files/141457.got.cif
#   From: 2010.05.17/outbox.cif.g08.bks.cpg/sg2_71_cif.got.tgz:141457.got - 2010.06.03 11:33:40.
