data_PCOD9006907
_publ_section_title
;
Structure prediction by ZEFSAII (Michael W. Deem and Ramdas Pophale) SiO2 
 PCOD9006907
Probable space group: P -1
;
_chemical_formula_sum "Si O2"
_cell_formula_units_Z 16
_cell_length_a 11.803582
_cell_length_b 16.378657
_cell_length_c 11.461026
_cell_angle_alpha 56.669942
_cell_angle_beta 34.763169
_cell_angle_gamma 79.512389
_cell_volume 870.637623
_symmetry_space_group_name_H-M "P -1"
_symmetry_group_IT_number 2
_symmetry_cell_setting 'triclinic'
loop_
_space_group_symop_operation_xyz
x,y,z
-x,-y,-z
loop_
_atom_site_type_symbol
_atom_site_label
_atom_site_fract_x
_atom_site_fract_y
_atom_site_fract_z
Si Si1 0.223437 0.724716 0.155011
Si Si2 0.737056 0.059386 0.172641
Si Si3 0.746854 0.844159 0.244496
Si Si4 0.181959 0.454335 0.713200
Si Si5 0.702355 0.357693 0.088631
Si Si6 0.480492 0.332250 0.895046
Si Si7 0.270026 0.421764 0.173916
Si Si8 0.567550 0.676011 0.318134
O O1 0.407554 0.730753 0.088475
O O2 0.963258 0.648439 0.493799
O O3 0.267144 0.846651 0.978909
O O4 0.241610 0.661425 0.074841
O O5 0.500000 0.000000 0.500000
O O6 0.743223 0.959286 0.175602
O O7 0.985075 0.123721 0.987346
O O8 0.566435 0.748067 0.568501
O O9 0.633604 0.779201 0.269270
O O10 0.304197 0.531236 0.430079
O O11 0.288464 0.562496 0.631243
O O12 0.293753 0.381679 0.709141
O O13 0.900379 0.366498 0.999673
O O14 0.739339 0.483347 0.969850
O O15 0.365628 0.281194 0.905739
O O16 0.307420 0.339068 0.125463
O O17 0.500000 0.500000 0.000000
#
# Coordination Sequence:
#
# PCOD9006907 Si02
#       8
#     2   2   2   2   2   2   2   2
#     4  12  23  39  60  92 129 160 206 260 309 366
#     4  11  25  46  65  92 116 160 221 274 302 352
#     4  11  24  42  68  90 121 164 215 258 316 355
#     4   9  19  37  59  88 139 162 201 243 299 376
#     4  12  21  36  62  99 127 163 200 256 311 377
#     4  10  21  39  55  90 133 164 196 248 296 380
#     4  12  21  33  59  91 129 166 192 240 326 374
#     4   9  20  41  58  91 130 170 205 246 303 379
#
# _framework density 18.377334999999999
#
# number of rings (size 3 to 8) (size 9 to 14) (size 15 to 20)
#    0.750    0.500    3.750    3.375    0.000    0.500 
#    2.250    0.625    0.000    1.500    0.000    0.000 
#    0.000    0.000    0.000    0.000    0.000    0.000 
#
# Total GULP energy -89259.046578 kJ/mol
# GULP energy per Si atom -5578.690411 kJ/mol
# Density = 1.833551 g / cm^3
# Si number density = 18.377335 Si / 1000 Ang^3
#
#
#
# Elastic Constant Matrix: (Units=GPa)
#
#
# Indices 1 2 3 4 5 6 
#
# 1 75.3449 35.1703 6.0387 3.5188 2.1404 -10.8974
# 2 35.1703 80.1937 19.9990 3.4139 7.3146 -5.9117
# 3 6.0387 19.9990 70.8287 11.8928 -8.4337 -8.8413
# 4 3.5188 3.4139 11.8928 26.0008 -1.3860 5.5153
# 5 2.1404 7.3146 -8.4337 -1.3860 20.8984 -1.5600
# 6 -10.8974 -5.9117 -8.8413 5.5153 -1.5600 43.9082
#
#
#
# Elastic Compliance Matrix: (Units=1/GPa)
#
#
# Indices 1 2 3 4 5 6 
#
# 1 0.017486 -0.007904 0.001985 -0.003010 0.001884 0.004120
# 2 -0.007904 0.017918 -0.005631 0.001113 -0.007743 -0.001098
# 3 0.001985 -0.005631 0.018684 -0.008631 0.009102 0.004904
# 4 -0.003010 0.001113 -0.008631 0.044289 -0.001220 -0.007941
# 5 0.001884 -0.007743 0.009102 -0.001220 0.054209 0.003337
# 6 0.004120 -0.001098 0.004904 -0.007941 0.003337 0.025753
#
#
# Mechanical properties :
#
#
# Convention : Reuss Voigt Hill
#
# Bulk Modulus (GPa) = 32.27012 38.75367 35.51190
# Shear Modulus (GPa) = 23.61066 29.17208 26.39137
#
# Velocity S-wave (km/s) = 3.58826 3.98853 3.79368
# Velocity P-wave (km/s) = 5.89621 6.50728 6.20927
#
# Compressibility (1/GPa) = 0.03098842
#
# Stress axis : x y z
#
# Youngs Moduli (GPa) = 57.19018 55.80865 53.52033
#
# Poissons Ratio (x) = 0.44109 -0.10624
# Poissons Ratio (y) = 0.45201 0.30139
# Poissons Ratio (z) = -0.11352 0.31428
#
# Static dielectric constant tensor:
#      x y z
#    x 1.791560 -0.280370 0.104550 
#    y -0.280370 2.175130 -0.196080 
#    z 0.104550 -0.196080 1.727450 
# 
# From -- ./inp_files/71404.got.cif
#   From: 2010.05.17/outbox.cif.g08.bks.cpg/sg2_36_cif.got.tgz:71404.got - 2010.06.03 11:33:40.
