data_PCOD9006554
_publ_section_title
;
Structure prediction by ZEFSAII (Michael W. Deem and Ramdas Pophale) SiO2 
 PCOD9006554
Probable space group: P -1
;
_chemical_formula_sum "Si O2"
_cell_formula_units_Z 16
_cell_length_a 7.950224
_cell_length_b 11.800756
_cell_length_c 12.565735
_cell_angle_alpha 59.020545
_cell_angle_beta 48.513207
_cell_angle_gamma 55.414313
_cell_volume 708.431330
_symmetry_space_group_name_H-M "P -1"
_symmetry_group_IT_number 2
_symmetry_cell_setting 'triclinic'
loop_
_space_group_symop_operation_xyz
x,y,z
-x,-y,-z
loop_
_atom_site_type_symbol
_atom_site_label
_atom_site_fract_x
_atom_site_fract_y
_atom_site_fract_z
Si Si1 0.484944 0.925217 0.432959
Si Si2 0.233526 0.627370 0.880535
Si Si3 0.128653 0.654214 0.555615
Si Si4 0.489699 0.033093 0.152199
Si Si5 0.023777 0.953082 0.348494
Si Si6 0.795640 0.654850 0.888008
Si Si7 0.569794 0.619241 0.550450
Si Si8 0.007538 0.071985 0.074299
O O1 0.633935 0.760009 0.450124
O O2 0.500000 0.000000 0.500000
O O3 0.537882 0.002957 0.271808
O O4 0.202968 0.941407 0.543565
O O5 0.454976 0.611083 0.717170
O O6 0.001980 0.651622 0.888794
O O7 0.167169 0.767786 0.911895
O O8 0.268310 0.484249 0.998816
O O9 0.061498 0.797563 0.448021
O O10 0.356746 0.638942 0.543708
O O11 0.215302 0.520147 0.506397
O O12 0.913991 0.655664 0.722785
O O13 0.422765 0.198230 0.077234
O O14 0.257023 0.992402 0.250750
O O15 0.715184 0.936389 0.037160
O O16 0.974190 0.980025 0.231213
O O17 0.000000 0.000000 0.000000
#
# Coordination Sequence:
#
# PCOD9006554 Si02
#       8
#     2   2   2   2   2   2   2   2
#     4  12  24  42  67  96 135 172 207 269 335 380
#     4  10  22  39  64  90 137 167 209 266 328 377
#     4  10  21  38  66  98 125 163 218 274 309 377
#     4  12  24  40  71  97 125 171 224 269 309 380
#     4  12  22  44  68  95 127 166 230 269 307 382
#     4  10  21  39  62 100 125 164 217 270 312 378
#     4  10  21  39  63  95 131 167 210 264 329 376
#     4  12  27  44  63  96 136 172 212 266 334 387
#
# _framework density 22.585111999999999
#
# number of rings (size 3 to 8) (size 9 to 14) (size 15 to 20)
#    0.000    1.000    5.000    2.250    3.500    1.000 
#    0.000    2.500    0.000    0.000    0.000    0.000 
#    0.000    0.000    0.000    0.000    0.000    0.000 
#
# Total GULP energy -89589.615594 kJ/mol
# GULP energy per Si atom -5599.350975 kJ/mol
# Density = 2.253371 g / cm^3
# Si number density = 22.585112 Si / 1000 Ang^3
#
#
#
# Elastic Constant Matrix: (Units=GPa)
#
#
# Indices 1 2 3 4 5 6 
#
# 1 43.0858 13.2695 15.8281 -2.4483 9.1947 10.6546
# 2 13.2695 193.0511 62.7036 -14.1745 20.3685 22.5780
# 3 15.8281 62.7036 126.2492 -13.9064 24.7858 1.5807
# 4 -2.4483 -14.1745 -13.9064 51.6305 -6.2974 2.9329
# 5 9.1947 20.3685 24.7858 -6.2974 28.6611 7.9270
# 6 10.6546 22.5780 1.5807 2.9329 7.9270 23.2960
#
#
#
# Elastic Compliance Matrix: (Units=1/GPa)
#
#
# Indices 1 2 3 4 5 6 
#
# 1 0.027889 0.000962 -0.003052 0.001072 -0.003301 -0.012492
# 2 0.000962 0.007206 -0.003420 0.001507 -0.000110 -0.007344
# 3 -0.003052 -0.003420 0.011630 0.000650 -0.008353 0.006682
# 4 0.001072 0.001507 0.000650 0.020877 0.004293 -0.006083
# 5 -0.003301 -0.000110 -0.008353 0.004293 0.048284 -0.014787
# 6 -0.012492 -0.007344 0.006682 -0.006083 -0.014787 0.061101
#
#
# Mechanical properties :
#
#
# Convention : Reuss Voigt Hill
#
# Bulk Modulus (GPa) = 28.00702 60.66539 44.33621
# Shear Modulus (GPa) = 25.01151 38.75651 31.88401
#
# Velocity S-wave (km/s) = 3.33142 4.14698 3.76137
# Velocity P-wave (km/s) = 5.21780 7.06039 6.20784
#
# Compressibility (1/GPa) = 0.03570533
#
# Stress axis : x y z
#
# Youngs Moduli (GPa) = 35.85662 138.77726 85.98483
#
# Poissons Ratio (x) = -0.13355 0.26242
# Poissons Ratio (y) = -0.03451 0.29407
# Poissons Ratio (z) = 0.10943 0.47463
#
# Static dielectric constant tensor:
#      x y z
#    x 1.999800 -0.020730 -0.022030 
#    y -0.020730 1.782200 -0.000780 
#    z -0.022030 -0.000780 1.796430 
# 
# From -- ./inp_files/190930.got.cif
#   From: 2010.05.17/outbox.cif.g08.bks.cpg/sg2_96_cif.got.tgz:190930.got - 2010.06.03 11:33:40.
