data_PCOD9006305
_publ_section_title
;
Structure prediction by ZEFSAII (Michael W. Deem and Ramdas Pophale) SiO2 
 PCOD9006305
Probable space group: P -1
;
_chemical_formula_sum "Si O2"
_cell_formula_units_Z 14
_cell_length_a 19.055861
_cell_length_b 5.266294
_cell_length_c 24.543991
_cell_angle_alpha 100.250565
_cell_angle_beta 166.289211
_cell_angle_gamma 79.140996
_cell_volume 573.212582
_symmetry_space_group_name_H-M "P -1"
_symmetry_group_IT_number 2
_symmetry_cell_setting 'triclinic'
loop_
_space_group_symop_operation_xyz
x,y,z
-x,-y,-z
loop_
_atom_site_type_symbol
_atom_site_label
_atom_site_fract_x
_atom_site_fract_y
_atom_site_fract_z
Si Si1 0.151673 0.714452 0.501495
Si Si2 0.685812 0.243228 0.529215
Si Si3 0.658722 0.932222 0.951520
Si Si4 0.050632 0.278119 0.075257
Si Si5 0.393906 0.215554 0.970773
Si Si6 0.732616 0.661378 0.275568
Si Si7 0.580483 0.694846 0.375483
O O1 0.466853 0.825141 0.754134
O O2 0.223904 0.409207 0.532321
O O3 0.954584 0.781505 0.302869
O O4 0.939718 0.810516 0.395223
O O5 0.395794 0.277071 0.351398
O O6 0.657050 0.499479 0.477830
O O7 0.632364 0.982560 0.444592
O O8 0.995964 0.166772 0.791577
O O9 0.515915 0.224403 0.864873
O O10 0.555198 0.838152 0.929423
O O11 0.000000 0.500000 0.000000
O O12 0.767508 0.321876 0.902664
O O13 0.000000 0.000000 0.000000
O O14 0.548435 0.480995 0.091092
O O15 0.500000 0.000000 0.000000
O O16 0.000000 0.500000 0.500000
#
# Coordination Sequence:
#
# PCOD9006305 Si02
#       7
#     2   2   2   2   2   2   2
#     4  12  24  40  60  91 121 163 211 262 310 374
#     4  10  21  39  65  91 128 164 207 258 315 373
#     4  12  25  41  59  90 124 162 210 263 310 375
#     4   8  16  34  60  92 121 159 204 253 309 374
#     4  12  24  41  62  83 120 162 211 256 318 365
#     4  12  25  42  62  86 123 166 209 261 314 371
#     4  10  21  38  65  94 124 165 210 255 315 376
#
# _framework density 24.423749000000001
#
# number of rings (size 3 to 8) (size 9 to 14) (size 15 to 20)
#    0.000    1.143    4.286    2.571    2.000    1.143 
#    0.000    0.714    0.000    0.000    0.000   13.000 
#    0.000    0.000    0.000    0.000    0.000    0.000 
#
# Total GULP energy -77936.599026 kJ/mol
# GULP energy per Si atom -5566.899930 kJ/mol
# Density = 2.436816 g / cm^3
# Si number density = 24.423749 Si / 1000 Ang^3
#
#
#
# Elastic Constant Matrix: (Units=GPa)
#
#
# Indices 1 2 3 4 5 6 
#
# 1 18.8707 2.8644 27.3255 -6.1637 1.2653 -0.3732
# 2 2.8644 92.5865 25.0434 -2.1034 -6.3355 -7.5946
# 3 27.3255 25.0434 210.5409 -12.8138 5.5335 -5.6872
# 4 -6.1637 -2.1034 -12.8138 40.3141 -8.7825 0.1489
# 5 1.2653 -6.3355 5.5335 -8.7825 45.2832 -2.6371
# 6 -0.3732 -7.5946 -5.6872 0.1489 -2.6371 29.1950
#
#
#
# Elastic Compliance Matrix: (Units=1/GPa)
#
#
# Indices 1 2 3 4 5 6 
#
# 1 0.067558 0.000343 -0.008367 0.007834 0.000664 -0.000657
# 2 0.000343 0.011553 -0.001354 0.000666 0.002072 0.002930
# 3 -0.008367 -0.001354 0.006057 0.000449 -0.000570 0.000667
# 4 0.007834 0.000666 0.000449 0.027301 0.005154 0.000687
# 5 0.000664 0.002072 -0.000570 0.005154 0.023572 0.002539
# 6 -0.000657 0.002930 0.000667 0.000687 0.002539 0.035362
#
#
# Mechanical properties :
#
#
# Convention : Reuss Voigt Hill
#
# Bulk Modulus (GPa) = 15.05755 48.05162 31.55458
# Shear Modulus (GPa) = 23.55201 40.74279 32.14740
#
# Velocity S-wave (km/s) = 3.10870 4.08875 3.63193
# Velocity P-wave (km/s) = 4.36622 6.48130 5.52590
#
# Compressibility (1/GPa) = 0.06641187
#
# Stress axis : x y z
#
# Youngs Moduli (GPa) = 14.80216 86.55419 165.10002
#
# Poissons Ratio (x) = -0.02966 1.38143
# Poissons Ratio (y) = -0.00507 0.22347
# Poissons Ratio (z) = 0.12385 0.11715
#
# Static dielectric constant tensor:
#      x y z
#    x 2.036310 0.191440 0.033350 
#    y 0.191440 2.548450 -0.094230 
#    z 0.033350 -0.094230 1.999360 
# 
# From -- ./inp_files/32615.got.cif
#   From: 2010.05.17/outbox.cif.g08.bks.cpg/sg2_17_cif.got.tgz:32615.got - 2010.06.03 11:33:40.
