data_PCOD9006898
_publ_section_title
;
Structure prediction by ZEFSAII (Michael W. Deem and Ramdas Pophale) SiO2 
 PCOD9006898
Probable space group: P -1
;
_chemical_formula_sum "Si O2"
_cell_formula_units_Z 16
_cell_length_a 14.939942
_cell_length_b 7.627046
_cell_length_c 14.350980
_cell_angle_alpha 76.968484
_cell_angle_beta 35.131867
_cell_angle_gamma 90.233187
_cell_volume 863.430420
_symmetry_space_group_name_H-M "P -1"
_symmetry_group_IT_number 2
_symmetry_cell_setting 'triclinic'
loop_
_space_group_symop_operation_xyz
x,y,z
-x,-y,-z
loop_
_atom_site_type_symbol
_atom_site_label
_atom_site_fract_x
_atom_site_fract_y
_atom_site_fract_z
Si Si1 0.003553 0.517214 0.752660
Si Si2 0.770102 0.230774 0.859656
Si Si3 0.833831 0.032432 0.665173
Si Si4 0.117408 0.322080 0.999377
Si Si5 0.487714 0.306463 0.980027
Si Si6 0.664881 0.253765 0.650321
Si Si7 0.140032 0.737447 0.929676
Si Si8 0.341186 0.063370 0.843385
O O1 0.862369 0.430731 0.806540
O O2 0.960584 0.676220 0.831765
O O3 0.980449 0.348556 0.868686
O O4 0.180035 0.585836 0.546554
O O5 0.876968 0.190751 0.690589
O O6 0.599300 0.217528 0.958487
O O7 0.734161 0.069427 0.987483
O O8 0.745171 0.109839 0.648911
O O9 0.697248 0.841558 0.844348
O O10 0.000000 0.000000 0.500000
O O11 0.189159 0.549704 0.886117
O O12 0.252741 0.221160 0.892262
O O13 0.968765 0.227950 0.065351
O O14 0.500000 0.500000 0.000000
O O15 0.568728 0.325837 0.805621
O O16 0.533029 0.156137 0.694118
O O17 0.286997 0.919797 0.818885
#
# Coordination Sequence:
#
# PCOD9006898 Si02
#       8
#     2   2   2   2   2   2   2   2
#     4   9  21  36  59  83 116 145 194 239 275 347
#     4  10  21  39  54  83 116 151 194 240 279 342
#     4  11  24  38  56  79 118 152 193 239 283 342
#     4   9  19  36  65  84 111 155 191 233 297 346
#     4  11  24  38  57  78 117 154 192 238 293 337
#     4  11  23  38  53  85 120 144 194 244 282 333
#     4   8  19  39  61  85 116 144 198 235 284 356
#     4  11  19  36  63  82 114 154 191 239 290 340
#
# _framework density 18.530733999999999
#
# number of rings (size 3 to 8) (size 9 to 14) (size 15 to 20)
#    0.750    1.250    2.500    1.125    7.000    1.000 
#    0.000    1.250    0.000    0.000    0.000    0.000 
#    0.000    0.000    0.000    0.000    0.000    0.000 
#
# Total GULP energy -89133.967903 kJ/mol
# GULP energy per Si atom -5570.872994 kJ/mol
# Density = 1.848856 g / cm^3
# Si number density = 18.530734 Si / 1000 Ang^3
#
#
#
# Elastic Constant Matrix: (Units=GPa)
#
#
# Indices 1 2 3 4 5 6 
#
# 1 70.8727 19.5672 4.3809 -4.4648 -16.2404 26.2783
# 2 19.5672 47.2416 11.9801 5.8631 -7.9697 11.0893
# 3 4.3809 11.9801 67.5522 -6.2381 -11.8853 12.9264
# 4 -4.4648 5.8631 -6.2381 24.5783 0.2802 -5.1572
# 5 -16.2404 -7.9697 -11.8853 0.2802 17.9747 -1.4886
# 6 26.2783 11.0893 12.9264 -5.1572 -1.4886 34.3460
#
#
#
# Elastic Compliance Matrix: (Units=1/GPa)
#
#
# Indices 1 2 3 4 5 6 
#
# 1 0.030451 -0.004950 0.008820 0.003752 0.029171 -0.023192
# 2 -0.004950 0.027276 -0.003572 -0.009391 0.005003 -0.004868
# 3 0.008820 -0.003572 0.020988 0.005065 0.019198 -0.011901
# 4 0.003752 -0.009391 0.005065 0.045970 0.002294 0.005257
# 5 0.029171 0.005003 0.019198 0.002294 0.094654 -0.026713
# 6 -0.023192 -0.004868 -0.011901 0.005257 -0.026713 0.052542
#
#
# Mechanical properties :
#
#
# Convention : Reuss Voigt Hill
#
# Bulk Modulus (GPa) = 12.60852 28.61364 20.61108
# Shear Modulus (GPa) = 16.79416 25.36237 21.07826
#
# Velocity S-wave (km/s) = 3.01373 3.70356 3.37631
# Velocity P-wave (km/s) = 4.35074 5.81061 5.13284
#
# Compressibility (1/GPa) = 0.07931148
#
# Stress axis : x y z
#
# Youngs Moduli (GPa) = 32.83936 36.66225 47.64714
#
# Poissons Ratio (x) = 0.18147 -0.42024
# Poissons Ratio (y) = 0.16255 0.17018
# Poissons Ratio (z) = -0.28964 0.13094
#
# Static dielectric constant tensor:
#      x y z
#    x 1.659610 0.011180 0.017260 
#    y 0.011180 1.682830 0.000280 
#    z 0.017260 0.000280 1.616880 
# 
# From -- ./inp_files/212569.got.cif
#   From: 2010.05.17/outbox.cif.g08.bks.cpg/sg2_107_cif.got.tgz:212569.got - 2010.06.03 11:33:40.
