data_PCOD9006018
_publ_section_title
;
Structure prediction by ZEFSAII (Michael W. Deem and Ramdas Pophale) SiO2 
 PCOD9006018
Probable space group: P -1
;
_chemical_formula_sum "Si O2"
_cell_formula_units_Z 16
_cell_length_a 13.556089
_cell_length_b 13.067475
_cell_length_c 7.954286
_cell_angle_alpha 113.363154
_cell_angle_beta 146.624192
_cell_angle_gamma 63.275191
_cell_volume 691.720991
_symmetry_space_group_name_H-M "P -1"
_symmetry_group_IT_number 2
_symmetry_cell_setting 'triclinic'
loop_
_space_group_symop_operation_xyz
x,y,z
-x,-y,-z
loop_
_atom_site_type_symbol
_atom_site_label
_atom_site_fract_x
_atom_site_fract_y
_atom_site_fract_z
Si Si1 0.420356 0.403224 0.726610
Si Si2 0.818739 0.456990 0.767062
Si Si3 0.961257 0.604237 0.640526
Si Si4 0.738966 0.915148 0.919475
Si Si5 0.296691 0.978381 0.706824
Si Si6 0.871470 0.212552 0.544058
Si Si7 0.984610 0.168330 0.282034
Si Si8 0.610188 0.160136 0.713328
O O1 0.361116 0.447708 0.481345
O O2 0.229906 0.394497 0.537551
O O3 0.545451 0.274191 0.810178
O O4 0.500000 0.500000 0.000000
O O5 0.812887 0.347109 0.575017
O O6 0.000000 0.500000 0.000000
O O7 0.865931 0.418403 0.999538
O O8 0.000000 0.500000 0.500000
O O9 0.941055 0.722652 0.591178
O O10 0.575791 0.848495 0.652683
O O11 0.673773 0.031439 0.796792
O O12 0.771830 0.963256 0.176987
O O13 0.936370 0.832806 0.107418
O O14 0.147423 0.054099 0.417837
O O15 0.275178 0.850519 0.622816
O O16 0.500000 0.000000 0.000000
O O17 0.911561 0.183864 0.383585
O O18 0.802070 0.171427 0.914377
#
# Coordination Sequence:
#
# PCOD9006018 Si02
#       8
#     2   2   2   2   2   2   2   2
#     4  11  24  42  69  98 129 178 223 280 333 397
#     4  10  22  41  66  95 129 172 220 271 332 396
#     4  11  24  42  64  98 130 174 224 276 333 394
#     4  10  21  38  64  92 128 170 214 267 326 396
#     4  11  24  40  62  97 130 174 219 272 332 398
#     4  11  20  44  67  92 131 178 221 270 335 401
#     4  11  22  41  66  92 131 172 218 272 333 394
#     4  11  21  39  64  95 125 169 221 264 330 394
#
# _framework density 23.130714999999999
#
# number of rings (size 3 to 8) (size 9 to 14) (size 15 to 20)
#    0.000    1.250    2.500    5.250    1.750    2.000 
#    0.000    5.000    0.000    0.000    0.000    0.000 
#    0.000    0.000    0.000    0.000    0.000    0.000 
#
# Total GULP energy -89287.789498 kJ/mol
# GULP energy per Si atom -5580.486844 kJ/mol
# Density = 2.307807 g / cm^3
# Si number density = 23.130715 Si / 1000 Ang^3
#
#
#
# Elastic Constant Matrix: (Units=GPa)
#
#
# Indices 1 2 3 4 5 6 
#
# 1 41.4913 27.3977 15.9867 -4.2720 3.0229 9.5888
# 2 27.3977 120.5541 32.0367 12.0356 14.0101 14.7459
# 3 15.9867 32.0367 108.0992 3.3811 20.2813 10.6579
# 4 -4.2720 12.0356 3.3811 48.8610 -0.1857 6.3543
# 5 3.0229 14.0101 20.2813 -0.1857 35.5050 8.3968
# 6 9.5888 14.7459 10.6579 6.3543 8.3968 31.1009
#
#
#
# Elastic Compliance Matrix: (Units=1/GPa)
#
#
# Indices 1 2 3 4 5 6 
#
# 1 0.031535 -0.006415 -0.002792 0.005551 0.003303 -0.007750
# 2 -0.006415 0.010935 -0.001585 -0.002977 -0.002556 -0.001366
# 3 -0.002792 -0.001585 0.011229 -0.000565 -0.005397 -0.000663
# 4 0.005551 -0.002977 -0.000565 0.022427 0.002404 -0.005338
# 5 0.003303 -0.002556 -0.005397 0.002404 0.033778 -0.007568
# 6 -0.007750 -0.001366 -0.000663 -0.005338 -0.007568 0.038551
#
#
# Mechanical properties :
#
#
# Convention : Reuss Voigt Hill
#
# Bulk Modulus (GPa) = 31.13670 46.77632 38.95651
# Shear Modulus (GPa) = 27.66338 36.07495 31.86917
#
# Velocity S-wave (km/s) = 3.46202 3.95348 3.71588
# Velocity P-wave (km/s) = 5.42873 6.41143 5.94044
#
# Compressibility (1/GPa) = 0.03211644
#
# Stress axis : x y z
#
# Youngs Moduli (GPa) = 31.71075 91.44622 89.05512
#
# Poissons Ratio (x) = 0.58663 0.24862
# Poissons Ratio (y) = 0.20342 0.14114
# Poissons Ratio (z) = 0.08853 0.14492
#
# Static dielectric constant tensor:
#      x y z
#    x 1.964560 0.073180 0.025930 
#    y 0.073180 1.925190 -0.009030 
#    z 0.025930 -0.009030 1.989920 
# 
# From -- ./inp_files/222983.got.cif
#   From: 2010.05.17/outbox.cif.g08.bks.cpg/sg2_112_cif.got.tgz:222983.got - 2010.06.03 11:33:40.
