data_PCOD9006748
_publ_section_title
;
Structure prediction by ZEFSAII (Michael W. Deem and Ramdas Pophale) SiO2 
 PCOD9006748
Probable space group: P -1
;
_chemical_formula_sum "Si O2"
_cell_formula_units_Z 10
_cell_length_a 15.368186
_cell_length_b 9.760461
_cell_length_c 12.024154
_cell_angle_alpha 151.732206
_cell_angle_beta 27.961480
_cell_angle_gamma 143.471991
_cell_volume 397.831026
_symmetry_space_group_name_H-M "P -1"
_symmetry_group_IT_number 2
_symmetry_cell_setting 'triclinic'
loop_
_space_group_symop_operation_xyz
x,y,z
-x,-y,-z
loop_
_atom_site_type_symbol
_atom_site_label
_atom_site_fract_x
_atom_site_fract_y
_atom_site_fract_z
Si Si1 0.247574 0.311538 0.747875
Si Si2 0.733354 0.319157 0.652290
Si Si3 0.605007 0.712866 0.681972
Si Si4 0.871150 0.464705 0.351583
Si Si5 0.640581 0.896883 0.176590
O O1 0.440589 0.444292 0.682742
O O2 0.286594 0.327549 0.584103
O O3 0.193278 0.970108 0.592556
O O4 0.087415 0.499435 0.103844
O O5 0.824439 0.398022 0.485335
O O6 0.507893 0.227480 0.837435
O O7 0.747308 0.636339 0.919027
O O8 0.752430 0.707645 0.611145
O O9 0.500000 0.000000 0.000000
O O10 0.784610 0.167559 0.174474
O O11 0.500000 0.000000 0.500000
#
# Coordination Sequence:
#
# PCOD9006748 Si02
#       5
#     2   2   2   2   2
#     4  11  25  43  64  96 128 167 218 255 316 388
#     4  10  21  38  68  96 126 164 210 262 318 379
#     4  11  27  43  64  89 132 176 211 260 316 372
#     4  11  23  42  66  96 129 163 213 266 315 374
#     4   9  20  36  64  95 129 161 202 259 324 368
#
# _framework density 25.136299000000001
#
# number of rings (size 3 to 8) (size 9 to 14) (size 15 to 20)
#    0.000    1.600    2.000    1.200    8.400    3.200 
#    0.000    0.000    0.000    0.000    0.000    0.000 
#    0.000    0.000    0.000    0.000    0.000    0.000 
#
# Total GULP energy -55957.413590 kJ/mol
# GULP energy per Si atom -5595.741359 kJ/mol
# Density = 2.507909 g / cm^3
# Si number density = 25.136299 Si / 1000 Ang^3
#
#
#
# Elastic Constant Matrix: (Units=GPa)
#
#
# Indices 1 2 3 4 5 6 
#
# 1 53.3009 28.8270 40.5417 -23.8296 -18.6181 -25.4219
# 2 28.8270 77.1641 56.2134 -9.4020 -11.5026 -23.6635
# 3 40.5417 56.2134 157.9550 -11.0975 -19.4298 -24.0805
# 4 -23.8296 -9.4020 -11.0975 59.2836 -3.6761 4.9857
# 5 -18.6181 -11.5026 -19.4298 -3.6761 38.1653 0.9069
# 6 -25.4219 -23.6635 -24.0805 4.9857 0.9069 34.5652
#
#
#
# Elastic Compliance Matrix: (Units=1/GPa)
#
#
# Indices 1 2 3 4 5 6 
#
# 1 0.058748 -0.001190 -0.004383 0.021307 0.027276 0.035551
# 2 -0.001190 0.020626 -0.005160 0.001217 0.002903 0.009400
# 3 -0.004383 -0.005160 0.009335 -0.000757 0.000990 -0.000170
# 4 0.021307 0.001217 -0.000757 0.025251 0.012522 0.012005
# 5 0.027276 0.002903 0.000990 0.012522 0.041622 0.019840
# 6 0.035551 0.009400 -0.000170 0.012005 0.019840 0.059142
#
#
# Mechanical properties :
#
#
# Convention : Reuss Voigt Hill
#
# Bulk Modulus (GPa) = 14.87116 59.95379 37.41248
# Shear Modulus (GPa) = 19.33462 37.25871 28.29666
#
# Velocity S-wave (km/s) = 2.77644 3.85420 3.35883
# Velocity P-wave (km/s) = 4.02582 6.61133 5.47343
#
# Compressibility (1/GPa) = 0.06724424
#
# Stress axis : x y z
#
# Youngs Moduli (GPa) = 17.02178 48.48240 107.12474
#
# Poissons Ratio (x) = 0.05768 0.46957
# Poissons Ratio (y) = 0.02025 0.55271
# Poissons Ratio (z) = 0.07461 0.25015
#
# Static dielectric constant tensor:
#      x y z
#    x 2.108100 0.045930 -0.009060 
#    y 0.045930 1.967130 0.067800 
#    z -0.009060 0.067800 2.016380 
# 
# From -- ./inp_files/18255.got.cif
#   From: 2010.05.17/outbox.cif.g08.bks.cpg/sg2_10_cif.got.tgz:18255.got - 2010.06.03 11:33:40.
