data_PCOD9006209
_publ_section_title
;
Structure prediction by ZEFSAII (Michael W. Deem and Ramdas Pophale) SiO2 
 PCOD9006209
Probable space group: P -1
;
_chemical_formula_sum "Si O2"
_cell_formula_units_Z 14
_cell_length_a 12.866626
_cell_length_b 10.084075
_cell_length_c 4.978210
_cell_angle_alpha 92.283668
_cell_angle_beta 118.774981
_cell_angle_gamma 81.377405
_cell_volume 559.365084
_symmetry_space_group_name_H-M "P -1"
_symmetry_group_IT_number 2
_symmetry_cell_setting 'triclinic'
loop_
_space_group_symop_operation_xyz
x,y,z
-x,-y,-z
loop_
_atom_site_type_symbol
_atom_site_label
_atom_site_fract_x
_atom_site_fract_y
_atom_site_fract_z
Si Si1 0.540419 0.137984 0.668546
Si Si2 0.102154 0.651078 0.570576
Si Si3 0.720620 0.789189 0.646183
Si Si4 0.929573 0.101092 0.134462
Si Si5 0.158755 0.498252 0.134481
Si Si6 0.746956 0.961943 0.199599
Si Si7 0.714076 0.281476 0.562283
O O1 0.415480 0.224382 0.606208
O O2 0.600965 0.218466 0.520746
O O3 0.500000 0.000000 0.500000
O O4 0.636367 0.080880 0.011909
O O5 0.071666 0.593285 0.239122
O O6 0.231629 0.699935 0.666701
O O7 0.024668 0.777431 0.629858
O O8 0.119872 0.527276 0.785177
O O9 0.808401 0.650836 0.733140
O O10 0.726149 0.843396 0.960489
O O11 0.753010 0.905414 0.500815
O O12 0.823563 0.184317 0.831454
O O13 0.867168 0.015267 0.264840
O O14 0.000000 0.000000 0.000000
O O15 0.280242 0.568936 0.308716
#
# Coordination Sequence:
#
# PCOD9006209 Si02
#       7
#     2   2   2   2   2   2   2
#     4   9  19  35  56  84 118 153 188 228 286 333
#     4   9  19  37  57  81 113 147 181 243 280 319
#     4  11  21  38  57  85 114 161 189 225 273 346
#     4  10  21  38  65  89 110 144 189 237 294 344
#     4   9  19  36  58  78 114 156 192 225 277 326
#     4  10  23  37  57  85 122 143 186 242 287 329
#     4   8  19  37  55  85 114 150 180 245 273 328
#
# _framework density 25.028376999999999
#
# number of rings (size 3 to 8) (size 9 to 14) (size 15 to 20)
#    0.857    1.714    0.000    1.286    6.000    1.143 
#    7.714    0.714    0.000   12.000    0.000    0.000 
#    0.000    0.000    0.000    0.000    0.000    0.000 
#
# Total GULP energy -78166.607182 kJ/mol
# GULP energy per Si atom -5583.329084 kJ/mol
# Density = 2.497141 g / cm^3
# Si number density = 25.028377 Si / 1000 Ang^3
#
#
#
# Elastic Constant Matrix: (Units=GPa)
#
#
# Indices 1 2 3 4 5 6 
#
# 1 113.2055 29.3469 31.5183 -22.1227 -11.7684 14.3277
# 2 29.3469 83.7369 34.6266 -17.9751 3.6865 -10.9417
# 3 31.5183 34.6266 101.2009 -13.5071 -22.4120 -9.0762
# 4 -22.1227 -17.9751 -13.5071 43.2625 3.0030 -10.2392
# 5 -11.7684 3.6865 -22.4120 3.0030 37.7135 -8.0835
# 6 14.3277 -10.9417 -9.0762 -10.2392 -8.0835 47.2218
#
#
#
# Elastic Compliance Matrix: (Units=1/GPa)
#
#
# Indices 1 2 3 4 5 6 
#
# 1 0.011410 -0.003052 -0.002092 0.002936 0.001597 -0.003661
# 2 -0.003052 0.016934 -0.004872 0.005297 -0.005024 0.004202
# 3 -0.002092 -0.004872 0.014967 0.001969 0.009513 0.004438
# 4 0.002936 0.005297 0.001969 0.029070 0.000787 0.007153
# 5 0.001597 -0.005024 0.009513 0.000787 0.034434 0.006245
# 6 -0.003661 0.004202 0.004438 0.007153 0.006245 0.026734
#
#
# Mechanical properties :
#
#
# Convention : Reuss Voigt Hill
#
# Bulk Modulus (GPa) = 42.95840 54.34743 48.65292
# Shear Modulus (GPa) = 30.98981 39.14966 35.06973
#
# Velocity S-wave (km/s) = 3.52261 3.95930 3.74732
# Velocity P-wave (km/s) = 5.80914 6.53168 6.18098
#
# Compressibility (1/GPa) = 0.02327833
#
# Stress axis : x y z
#
# Youngs Moduli (GPa) = 87.63906 59.05258 66.81148
#
# Poissons Ratio (x) = 0.18025 0.13978
# Poissons Ratio (y) = 0.26750 0.32553
# Poissons Ratio (z) = 0.18335 0.28773
#
# Static dielectric constant tensor:
#      x y z
#    x 2.085530 0.054500 0.066190 
#    y 0.054500 1.999790 0.068970 
#    z 0.066190 0.068970 2.017850 
# 
# From -- ./inp_files/66416.got.cif
#   From: 2010.05.17/outbox.cif.g08.bks.cpg/sg2_34_cif.got.tgz:66416.got - 2010.06.03 11:33:40.
