data_PCOD9006654
_publ_section_title
;
Structure prediction by ZEFSAII (Michael W. Deem and Ramdas Pophale) SiO2 
 PCOD9006654
Probable space group: P -1
;
_chemical_formula_sum "Si O2"
_cell_formula_units_Z 16
_cell_length_a 15.783205
_cell_length_b 8.905178
_cell_length_c 11.222827
_cell_angle_alpha 117.420531
_cell_angle_beta 147.344826
_cell_angle_gamma 58.168238
_cell_volume 722.656596
_symmetry_space_group_name_H-M "P -1"
_symmetry_group_IT_number 2
_symmetry_cell_setting 'triclinic'
loop_
_space_group_symop_operation_xyz
x,y,z
-x,-y,-z
loop_
_atom_site_type_symbol
_atom_site_label
_atom_site_fract_x
_atom_site_fract_y
_atom_site_fract_z
Si Si1 0.169315 0.048610 0.231960
Si Si2 0.242021 0.487553 0.861175
Si Si3 0.800958 0.747925 0.898403
Si Si4 0.170353 0.593364 0.339709
Si Si5 0.587987 0.208606 0.220898
Si Si6 0.592931 0.295423 0.997569
Si Si7 0.103642 0.400605 0.416719
Si Si8 0.471911 0.977084 0.703043
O O1 0.207921 0.131168 0.184738
O O2 0.131973 0.199595 0.343312
O O3 0.342522 0.926198 0.442717
O O4 0.000000 0.000000 0.000000
O O5 0.278918 0.670960 0.934061
O O6 0.177961 0.422281 0.639780
O O7 0.092639 0.514233 0.784091
O O8 0.406987 0.346847 0.048302
O O9 0.795263 0.555172 0.776396
O O10 0.651552 0.844680 0.841320
O O11 0.983905 0.715588 0.153049
O O12 0.297909 0.703575 0.535141
O O13 0.181656 0.492662 0.441813
O O14 0.655179 0.195281 0.159651
O O15 0.577629 0.042321 0.225484
O O16 0.500000 0.500000 0.000000
O O17 0.487276 0.175222 0.773889
#
# Coordination Sequence:
#
# PCOD9006654 Si02
#       8
#     2   2   2   2   2   2   2   2
#     4  11  24  40  60  88 129 165 205 258 318 363
#     4  10  21  38  67  96 120 164 215 250 313 383
#     4  10  24  41  62  91 125 169 214 258 310 371
#     4  10  21  42  65  89 131 167 206 262 318 368
#     4  11  22  39  66  94 126 165 208 259 319 371
#     4  10  22  40  65  93 124 168 206 254 320 373
#     4  10  21  39  64  91 125 165 208 258 307 379
#     4  12  25  41  65  94 132 162 213 263 307 378
#
# _framework density 22.140530999999999
#
# number of rings (size 3 to 8) (size 9 to 14) (size 15 to 20)
#    0.000    1.500    1.250    3.750    7.000    1.500 
#    0.000    0.625    0.000    0.000    0.000    0.000 
#    0.000    0.000    0.000    0.000    0.000    0.000 
#
# Total GULP energy -89366.317328 kJ/mol
# GULP energy per Si atom -5585.394833 kJ/mol
# Density = 2.209014 g / cm^3
# Si number density = 22.140531 Si / 1000 Ang^3
#
#
#
# Elastic Constant Matrix: (Units=GPa)
#
#
# Indices 1 2 3 4 5 6 
#
# 1 47.1873 24.3793 12.2793 3.0671 7.9560 11.1690
# 2 24.3793 60.6411 32.6483 -2.5090 13.1959 11.0593
# 3 12.2793 32.6483 135.3599 0.2074 17.1837 5.3303
# 4 3.0671 -2.5090 0.2074 39.7921 9.6212 8.3138
# 5 7.9560 13.1959 17.1837 9.6212 26.4737 -5.4126
# 6 11.1690 11.0593 5.3303 8.3138 -5.4126 38.3303
#
#
#
# Elastic Compliance Matrix: (Units=1/GPa)
#
#
# Indices 1 2 3 4 5 6 
#
# 1 0.028316 -0.009365 0.000644 -0.000103 -0.005531 -0.006397
# 2 -0.009365 0.026575 -0.003736 0.006934 -0.012087 -0.007630
# 3 0.000644 -0.003736 0.008880 0.001075 -0.004741 -0.001247
# 4 -0.000103 0.006934 0.001075 0.032454 -0.018319 -0.011746
# 5 -0.005531 -0.012087 -0.004741 -0.018319 0.058885 0.018047
# 6 -0.006397 -0.007630 -0.001247 -0.011746 0.018047 0.035424
#
#
# Mechanical properties :
#
#
# Convention : Reuss Voigt Hill
#
# Bulk Modulus (GPa) = 25.73471 42.42247 34.07859
# Shear Modulus (GPa) = 21.89147 32.51132 27.20139
#
# Velocity S-wave (km/s) = 3.14785 3.83614 3.50891
# Velocity P-wave (km/s) = 4.98604 6.23084 5.64287
#
# Compressibility (1/GPa) = 0.03885802
#
# Stress axis : x y z
#
# Youngs Moduli (GPa) = 35.31558 37.62885 112.61630
#
# Poissons Ratio (x) = 0.35238 -0.07254
# Poissons Ratio (y) = 0.33072 0.42074
# Poissons Ratio (z) = -0.02275 0.14058
#
# Static dielectric constant tensor:
#      x y z
#    x 1.832390 -0.010860 0.013570 
#    y -0.010860 1.832320 -0.028510 
#    z 0.013570 -0.028510 1.856890 
# 
# From -- ./inp_files/461582.got.cif
#   From: 2010.05.17/outbox.cif.g08.bks.cpg/sg2_231_cif.got.tgz:461582.got - 2010.06.03 11:33:40.
