data_PCOD9006785
_publ_section_title
;
Structure prediction by ZEFSAII (Michael W. Deem and Ramdas Pophale) SiO2 
 PCOD9006785
Probable space group: P -1
;
_chemical_formula_sum "Si O2"
_cell_formula_units_Z 16
_cell_length_a 20.057842
_cell_length_b 11.080396
_cell_length_c 12.079665
_cell_angle_alpha 113.607227
_cell_angle_beta 21.396024
_cell_angle_gamma 125.737908
_cell_volume 695.606033
_symmetry_space_group_name_H-M "P -1"
_symmetry_group_IT_number 2
_symmetry_cell_setting 'triclinic'
loop_
_space_group_symop_operation_xyz
x,y,z
-x,-y,-z
loop_
_atom_site_type_symbol
_atom_site_label
_atom_site_fract_x
_atom_site_fract_y
_atom_site_fract_z
Si Si1 0.278158 0.652876 0.643535
Si Si2 0.688503 0.473957 0.668930
Si Si3 0.570024 0.662076 0.387711
Si Si4 0.031486 0.971209 0.706471
Si Si5 0.446220 0.196854 0.312787
Si Si6 0.793335 0.118072 0.783327
Si Si7 0.812240 0.498887 0.721154
Si Si8 0.833458 0.148951 0.988052
O O1 0.390419 0.658075 0.356180
O O2 0.384674 0.611884 0.560678
O O3 0.310812 0.816040 0.698036
O O4 0.000000 0.500000 0.000000
O O5 0.752123 0.422065 0.662399
O O6 0.920712 0.659288 0.339902
O O7 0.500000 0.500000 0.000000
O O8 0.500000 0.500000 0.500000
O O9 0.569148 0.774502 0.524430
O O10 0.831066 0.774870 0.975599
O O11 0.185664 0.997199 0.371595
O O12 0.893311 0.040813 0.915707
O O13 0.199941 0.065845 0.585286
O O14 0.604203 0.137170 0.036775
O O15 0.577850 0.376727 0.110898
O O16 0.747586 0.080870 0.970779
O O17 0.052733 0.304064 0.439559
O O18 0.000000 0.500000 0.500000
#
# Coordination Sequence:
#
# PCOD9006785 Si02
#       8
#     2   2   2   2   2   2   2   2
#     4  10  24  46  69 103 136 184 229 284 353 408
#     4  10  21  38  69 104 133 170 228 283 337 407
#     4  12  28  47  72  98 139 185 237 290 349 421
#     4  12  26  43  68 105 137 188 232 287 351 409
#     4  11  23  46  67 102 145 181 230 288 345 415
#     4  10  21  44  68 101 141 185 231 281 346 408
#     4   9  20  38  70  99 133 178 224 280 336 402
#     4  10  22  44  67  94 146 178 227 282 344 418
#
# _framework density 23.001525000000001
#
# number of rings (size 3 to 8) (size 9 to 14) (size 15 to 20)
#    0.000    1.500    1.250    2.625   10.500    0.500 
#    2.250    0.000    0.000    0.000    0.000    0.000 
#    0.000    0.000    0.000    0.000    0.000    0.000 
#
# Total GULP energy -89474.909735 kJ/mol
# GULP energy per Si atom -5592.181858 kJ/mol
# Density = 2.294917 g / cm^3
# Si number density = 23.001525 Si / 1000 Ang^3
#
#
#
# Elastic Constant Matrix: (Units=GPa)
#
#
# Indices 1 2 3 4 5 6 
#
# 1 199.5342 59.1901 54.8943 12.5081 -0.7612 23.0678
# 2 59.1901 68.6336 33.7685 20.3852 4.1244 10.6687
# 3 54.8943 33.7685 91.5806 8.5621 10.9745 5.3726
# 4 12.5081 20.3852 8.5621 52.1363 10.1916 5.7467
# 5 -0.7612 4.1244 10.9745 10.1916 42.4387 6.1038
# 6 23.0678 10.6687 5.3726 5.7467 6.1038 29.9357
#
#
#
# Elastic Compliance Matrix: (Units=1/GPa)
#
#
# Indices 1 2 3 4 5 6 
#
# 1 0.007690 -0.004886 -0.002838 0.000640 0.001792 -0.004163
# 2 -0.004886 0.023799 -0.005144 -0.007202 0.001036 -0.002622
# 3 -0.002838 -0.005144 0.014787 0.000797 -0.003854 0.001999
# 4 0.000640 -0.007202 0.000797 0.022805 -0.004759 -0.001477
# 5 0.001792 0.001036 -0.003854 -0.004759 0.026430 -0.005534
# 6 -0.004163 -0.002622 0.001999 -0.001477 -0.005534 0.038601
#
#
# Mechanical properties :
#
#
# Convention : Reuss Voigt Hill
#
# Bulk Modulus (GPa) = 48.68444 72.82824 60.75634
# Shear Modulus (GPa) = 29.99497 39.02852 34.51175
#
# Velocity S-wave (km/s) = 3.61507 4.12367 3.87772
# Velocity P-wave (km/s) = 6.21584 7.37590 6.82058
#
# Compressibility (1/GPa) = 0.02054044
#
# Stress axis : x y z
#
# Youngs Moduli (GPa) = 130.04081 42.01833 67.62616
#
# Poissons Ratio (x) = 0.20531 0.19193
# Poissons Ratio (y) = 0.63540 0.34785
# Poissons Ratio (z) = 0.36906 0.21613
#
# Static dielectric constant tensor:
#      x y z
#    x 1.836650 0.040200 0.027590 
#    y 0.040200 1.821650 -0.020900 
#    z 0.027590 -0.020900 1.888060 
# 
# From -- ./inp_files/298962.got.cif
#   From: 2010.05.17/outbox.cif.g08.bks.cpg/sg2_150_cif.got.tgz:298962.got - 2010.06.03 11:33:40.
