data_PCOD9006975
_publ_section_title
;
Structure prediction by ZEFSAII (Michael W. Deem and Ramdas Pophale) SiO2 
 PCOD9006975
Probable space group: P -1
;
_chemical_formula_sum "Si O2"
_cell_formula_units_Z 16
_cell_length_a 19.182818
_cell_length_b 6.411477
_cell_length_c 9.418567
_cell_angle_alpha 124.509668
_cell_angle_beta 133.951486
_cell_angle_gamma 76.113822
_cell_volume 663.892084
_symmetry_space_group_name_H-M "P -1"
_symmetry_group_IT_number 2
_symmetry_cell_setting 'triclinic'
loop_
_space_group_symop_operation_xyz
x,y,z
-x,-y,-z
loop_
_atom_site_type_symbol
_atom_site_label
_atom_site_fract_x
_atom_site_fract_y
_atom_site_fract_z
Si Si1 0.883591 0.752610 0.148963
Si Si2 0.396762 0.065793 0.191254
Si Si3 0.250093 0.088504 0.742302
Si Si4 0.021006 0.443653 0.171917
Si Si5 0.415561 0.584600 0.541266
Si Si6 0.566432 0.487962 0.949954
Si Si7 0.861854 0.931052 0.877633
Si Si8 0.238802 0.808168 0.355968
O O1 0.829876 0.823011 0.238713
O O2 0.991477 0.686610 0.302663
O O3 0.880401 0.928511 0.072056
O O4 0.815621 0.470423 0.893378
O O5 0.356338 0.288379 0.301547
O O6 0.510956 0.242709 0.404338
O O7 0.410677 0.790888 0.156126
O O8 0.325572 0.002411 0.927024
O O9 0.192061 0.890201 0.464698
O O10 0.325483 0.308666 0.838460
O O11 0.120975 0.338663 0.266948
O O12 0.000000 0.500000 0.000000
O O13 0.943663 0.181383 0.024721
O O14 0.493547 0.560529 0.760222
O O15 0.342619 0.764710 0.541635
O O16 0.500000 0.500000 0.000000
O O17 0.761106 0.984608 0.689922
#
# Coordination Sequence:
#
# PCOD9006975 Si02
#       8
#     2   2   2   2   2   2   2   2
#     4  10  21  40  61  91 125 163 199 252 305 361
#     4  10  21  39  59  80 116 159 206 252 306 366
#     4  11  24  41  58  91 125 161 206 258 310 355
#     4   8  16  36  65  92 125 157 200 245 298 366
#     4  10  21  39  58  85 114 158 205 256 305 358
#     4  11  23  39  60  87 117 165 212 256 311 364
#     4   9  19  36  65  94 117 166 203 239 306 370
#     4  11  22  38  61  89 128 156 204 258 304 362
#
# _framework density 24.100304999999999
#
# number of rings (size 3 to 8) (size 9 to 14) (size 15 to 20)
#    0.000    2.000    1.250    1.875    0.000    7.000 
#    2.250    0.625    0.000   25.500    0.000    0.000 
#    0.000    0.000    0.000    0.000    0.000    0.000 
#
# Total GULP energy -89158.140612 kJ/mol
# GULP energy per Si atom -5572.383788 kJ/mol
# Density = 2.404545 g / cm^3
# Si number density = 24.100305 Si / 1000 Ang^3
#
#
#
# Elastic Constant Matrix: (Units=GPa)
#
#
# Indices 1 2 3 4 5 6 
#
# 1 130.9670 54.8529 29.3645 6.9765 -26.3379 -12.1643
# 2 54.8529 159.8840 24.9245 3.2777 -1.7319 -13.8861
# 3 29.3645 24.9245 77.6329 10.4750 -10.0560 0.7722
# 4 6.9765 3.2777 10.4750 17.8503 4.8877 2.6911
# 5 -26.3379 -1.7319 -10.0560 4.8877 32.1551 1.1152
# 6 -12.1643 -13.8861 0.7722 2.6911 1.1152 40.7923
#
#
#
# Elastic Compliance Matrix: (Units=1/GPa)
#
#
# Indices 1 2 3 4 5 6 
#
# 1 0.011984 -0.003448 -0.001267 -0.006469 0.010128 0.002574
# 2 -0.003448 0.007802 -0.001869 0.001668 -0.003299 0.001643
# 3 -0.001267 -0.001869 0.016005 -0.009911 0.005402 -0.000811
# 4 -0.006469 0.001668 -0.009911 0.069993 -0.018764 -0.005278
# 5 0.010128 -0.003299 0.005402 -0.018764 0.043695 0.001838
# 6 0.002574 0.001643 -0.000811 -0.005278 0.001838 0.026155
#
#
# Mechanical properties :
#
#
# Convention : Reuss Voigt Hill
#
# Bulk Modulus (GPa) = 44.20297 65.19642 54.69970
# Shear Modulus (GPa) = 25.46561 35.44902 30.45732
#
# Velocity S-wave (km/s) = 3.25414 3.83939 3.55882
# Velocity P-wave (km/s) = 5.70091 6.83852 6.29546
#
# Compressibility (1/GPa) = 0.02262291
#
# Stress axis : x y z
#
# Youngs Moduli (GPa) = 83.44340 128.17694 62.47862
#
# Poissons Ratio (x) = 0.44198 0.07915
# Poissons Ratio (y) = 0.28773 0.11679
# Poissons Ratio (z) = 0.10571 0.23959
#
# Static dielectric constant tensor:
#      x y z
#    x 2.172310 -0.008340 0.020140 
#    y -0.008340 1.996020 0.005970 
#    z 0.020140 0.005970 1.986170 
# 
# From -- ./inp_files/340718.got.cif
#   From: 2010.05.17/outbox.cif.g08.bks.cpg/sg2_171_cif.got.tgz:340718.got - 2010.06.03 11:33:40.
