data_PCOD9006583
_publ_section_title
;
Structure prediction by ZEFSAII (Michael W. Deem and Ramdas Pophale) SiO2 
 PCOD9006583
Probable space group: P -1
;
_chemical_formula_sum "Si O2"
_cell_formula_units_Z 16
_cell_length_a 8.668047
_cell_length_b 11.825388
_cell_length_c 11.093681
_cell_angle_alpha 52.122818
_cell_angle_beta 57.900817
_cell_angle_gamma 82.592181
_cell_volume 726.498853
_symmetry_space_group_name_H-M "P -1"
_symmetry_group_IT_number 2
_symmetry_cell_setting 'triclinic'
loop_
_space_group_symop_operation_xyz
x,y,z
-x,-y,-z
loop_
_atom_site_type_symbol
_atom_site_label
_atom_site_fract_x
_atom_site_fract_y
_atom_site_fract_z
Si Si1 0.384082 0.035852 0.140709
Si Si2 0.152760 0.410009 0.496264
Si Si3 0.912643 0.355720 0.284723
Si Si4 0.570698 0.617263 0.121812
Si Si5 0.266992 0.612343 0.917897
Si Si6 0.440168 0.074128 0.357094
Si Si7 0.718117 0.544046 0.345865
Si Si8 0.953034 0.855282 0.478161
O O1 0.444972 0.995299 0.276745
O O2 0.418106 0.213824 0.018660
O O3 0.155235 0.961697 0.277451
O O4 0.500000 0.000000 0.000000
O O5 0.357177 0.527096 0.306928
O O6 0.163166 0.354884 0.664694
O O7 0.113290 0.277633 0.504355
O O8 0.000000 0.500000 0.500000
O O9 0.813378 0.341961 0.205198
O O10 0.763698 0.385157 0.422174
O O11 0.996915 0.223452 0.370564
O O12 0.077560 0.514643 0.126341
O O13 0.625064 0.512393 0.068667
O O14 0.722128 0.616892 0.165902
O O15 0.409484 0.759085 0.819238
O O16 0.225037 0.082987 0.462018
O O17 0.500000 0.000000 0.500000
O O18 0.500000 0.500000 0.500000
#
# Coordination Sequence:
#
# PCOD9006583 Si02
#       8
#     2   2   2   2   2   2   2   2
#     4  12  29  47  71 106 154 195 238 307 372 430
#     4  11  20  37  67 102 134 178 239 289 350 429
#     4  10  21  38  67 100 140 175 238 294 358 424
#     4  10  22  43  66  97 138 180 235 292 354 417
#     4  10  22  42  70 104 129 183 243 302 348 426
#     4  12  28  49  75 102 150 194 250 297 370 441
#     4   9  20  35  62  97 136 180 225 287 349 419
#     4  12  25  44  71 104 143 196 244 296 370 435
#
# _framework density 22.023434000000002
#
# number of rings (size 3 to 8) (size 9 to 14) (size 15 to 20)
#    0.000    1.250    2.500    2.625    3.500    6.000 
#    0.000    1.250    0.000    0.000    0.000    0.000 
#    0.000    0.000    0.000    0.000    0.000    0.000 
#
# Total GULP energy -89360.861622 kJ/mol
# GULP energy per Si atom -5585.053851 kJ/mol
# Density = 2.197331 g / cm^3
# Si number density = 22.023434 Si / 1000 Ang^3
#
#
#
# Elastic Constant Matrix: (Units=GPa)
#
#
# Indices 1 2 3 4 5 6 
#
# 1 134.2168 67.1378 52.9110 7.5109 -3.9851 -0.5168
# 2 67.1378 103.2537 43.8367 9.9555 -0.8049 4.4722
# 3 52.9110 43.8367 75.3924 -4.3963 -19.2419 9.7678
# 4 7.5109 9.9555 -4.3963 37.4936 2.0945 -7.7483
# 5 -3.9851 -0.8049 -19.2419 2.0945 48.2215 0.5556
# 6 -0.5168 4.4722 9.7678 -7.7483 0.5556 46.7565
#
#
#
# Elastic Compliance Matrix: (Units=1/GPa)
#
#
# Indices 1 2 3 4 5 6 
#
# 1 0.012819 -0.005531 -0.006503 -0.001398 -0.001588 0.001816
# 2 -0.005531 0.016427 -0.006441 -0.004058 -0.002566 -0.000929
# 3 -0.006503 -0.006441 0.024660 0.004582 0.009042 -0.003956
# 4 -0.001398 -0.004058 0.004582 0.029435 0.000317 0.004289
# 5 -0.001588 -0.002566 0.009042 0.000317 0.024180 -0.001896
# 6 0.001816 -0.000929 -0.003956 0.004289 -0.001896 0.023056
#
#
# Mechanical properties :
#
#
# Convention : Reuss Voigt Hill
#
# Bulk Modulus (GPa) = 58.97309 71.18155 65.07732
# Shear Modulus (GPa) = 28.87208 36.42615 32.64911
#
# Velocity S-wave (km/s) = 3.62466 4.07132 3.85446
# Velocity P-wave (km/s) = 6.65981 7.38186 7.03011
#
# Compressibility (1/GPa) = 0.01695689
#
# Stress axis : x y z
#
# Youngs Moduli (GPa) = 78.01141 60.87497 40.55111
#
# Poissons Ratio (x) = 0.33667 0.26369
# Poissons Ratio (y) = 0.43144 0.26121
# Poissons Ratio (z) = 0.50728 0.39212
#
# Static dielectric constant tensor:
#      x y z
#    x 1.887640 -0.000070 0.029040 
#    y -0.000070 1.830690 0.050530 
#    z 0.029040 0.050530 1.911220 
# 
# From -- ./inp_files/392016.got.cif
#   From: 2010.05.17/outbox.cif.g08.bks.cpg/sg2_197_cif.got.tgz:392016.got - 2010.06.03 11:33:40.
