data_PCOD9006986
_publ_section_title
;
Structure prediction by ZEFSAII (Michael W. Deem and Ramdas Pophale) SiO2 
 PCOD9006986
Probable space group: P -1
;
_chemical_formula_sum "Si O2"
_cell_formula_units_Z 14
_cell_length_a 17.598417
_cell_length_b 6.363973
_cell_length_c 8.466717
_cell_angle_alpha 62.408812
_cell_angle_beta 46.670100
_cell_angle_gamma 59.785239
_cell_volume 585.487592
_symmetry_space_group_name_H-M "P -1"
_symmetry_group_IT_number 2
_symmetry_cell_setting 'triclinic'
loop_
_space_group_symop_operation_xyz
x,y,z
-x,-y,-z
loop_
_atom_site_type_symbol
_atom_site_label
_atom_site_fract_x
_atom_site_fract_y
_atom_site_fract_z
Si Si1 0.579545 0.776523 0.867047
Si Si2 0.494358 0.365752 0.295905
Si Si3 0.864383 0.119859 0.288412
Si Si4 0.341587 0.691966 0.663388
Si Si5 0.024435 0.593705 0.187770
Si Si6 0.226403 0.451170 0.149994
Si Si7 0.891139 0.218501 0.544947
O O1 0.555638 0.776781 0.714484
O O2 0.702766 0.746719 0.759895
O O3 0.556597 0.526547 0.050621
O O4 0.500000 0.000000 0.000000
O O5 0.406825 0.560140 0.462784
O O6 0.582174 0.220314 0.351308
O O7 0.769124 0.114578 0.304703
O O8 0.824948 0.171929 0.505092
O O9 0.913502 0.337033 0.076093
O O10 0.961287 0.866851 0.244324
O O11 0.302756 0.483419 0.886673
O O12 0.115702 0.433812 0.233724
O O13 0.935665 0.448431 0.352475
O O14 0.183953 0.705435 0.221732
O O15 0.000000 0.000000 0.500000
#
# Coordination Sequence:
#
# PCOD9006986 Si02
#       7
#     2   2   2   2   2   2   2
#     4  10  21  39  62  93 120 155 206 260 313 371
#     4   9  19  40  63  86 125 158 202 258 309 372
#     4  10  21  39  62  87 125 163 208 259 309 375
#     4   9  19  39  63  86 122 171 202 252 314 367
#     4  10  22  41  58  87 124 162 208 258 311 376
#     4  10  21  39  58  87 126 158 208 258 305 376
#     4  12  23  38  62  90 124 169 211 259 313 367
#
# _framework density 23.911691999999999
#
# number of rings (size 3 to 8) (size 9 to 14) (size 15 to 20)
#    0.000    2.000    1.429    1.714    0.000    1.143 
#    7.714    9.286    0.000    0.000    0.000    0.000 
#    0.000    0.000    0.000    0.000    0.000    0.000 
#
# Total GULP energy -78162.317794 kJ/mol
# GULP energy per Si atom -5583.022700 kJ/mol
# Density = 2.385727 g / cm^3
# Si number density = 23.911692 Si / 1000 Ang^3
#
#
#
# Elastic Constant Matrix: (Units=GPa)
#
#
# Indices 1 2 3 4 5 6 
#
# 1 187.1130 30.4772 25.9527 12.0132 15.4712 -10.8189
# 2 30.4772 44.9799 13.1935 -11.7561 1.2124 -8.2978
# 3 25.9527 13.1935 85.0521 -1.5894 12.5165 4.1853
# 4 12.0132 -11.7561 -1.5894 42.6591 2.9132 -1.1217
# 5 15.4712 1.2124 12.5165 2.9132 33.1326 15.8662
# 6 -10.8189 -8.2978 4.1853 -1.1217 15.8662 22.8327
#
#
#
# Elastic Compliance Matrix: (Units=1/GPa)
#
#
# Indices 1 2 3 4 5 6 
#
# 1 0.007064 -0.003985 -0.001099 -0.002629 -0.005171 0.005564
# 2 -0.003985 0.031584 -0.003321 0.010516 -0.006139 0.014981
# 3 -0.001099 -0.003321 0.013217 0.000087 -0.003567 -0.001667
# 4 -0.002629 0.010516 0.000087 0.027640 -0.005240 0.007559
# 5 -0.005171 -0.006139 -0.003567 -0.005240 0.054974 -0.042486
# 6 0.005564 0.014981 -0.001667 0.007559 -0.042486 0.082077
#
#
# Mechanical properties :
#
#
# Convention : Reuss Voigt Hill
#
# Bulk Modulus (GPa) = 28.52703 50.71022 39.61862
# Shear Modulus (GPa) = 20.40389 36.22633 28.31511
#
# Velocity S-wave (km/s) = 2.92430 3.89653 3.44489
# Velocity P-wave (km/s) = 4.83302 6.44184 5.69453
#
# Compressibility (1/GPa) = 0.03505448
#
# Stress axis : x y z
#
# Youngs Moduli (GPa) = 141.56231 31.66160 75.66200
#
# Poissons Ratio (x) = 0.12618 0.08318
# Poissons Ratio (y) = 0.56416 0.25124
# Poissons Ratio (z) = 0.15562 0.10514
#
# Static dielectric constant tensor:
#      x y z
#    x 1.963160 0.008270 0.017870 
#    y 0.008270 1.860380 -0.004570 
#    z 0.017870 -0.004570 1.928360 
# 
# From -- ./inp_files/116839.got.cif
#   From: 2010.05.17/outbox.cif.g08.bks.cpg/sg2_59_cif.got.tgz:116839.got - 2010.06.03 11:33:40.
