data_PCOD9006588
_publ_section_title
;
Structure prediction by ZEFSAII (Michael W. Deem and Ramdas Pophale) SiO2 
 PCOD9006588
Probable space group: P -1
;
_chemical_formula_sum "Si O2"
_cell_formula_units_Z 16
_cell_length_a 12.419948
_cell_length_b 12.332773
_cell_length_c 8.009343
_cell_angle_alpha 94.897250
_cell_angle_beta 121.189243
_cell_angle_gamma 47.480738
_cell_volume 702.102967
_symmetry_space_group_name_H-M "P -1"
_symmetry_group_IT_number 2
_symmetry_cell_setting 'triclinic'
loop_
_space_group_symop_operation_xyz
x,y,z
-x,-y,-z
loop_
_atom_site_type_symbol
_atom_site_label
_atom_site_fract_x
_atom_site_fract_y
_atom_site_fract_z
Si Si1 0.080421 0.325411 0.044324
Si Si2 0.281510 0.168141 0.828493
Si Si3 0.928345 0.768269 0.650338
Si Si4 0.960521 0.001194 0.739535
Si Si5 0.418789 0.505855 0.693755
Si Si6 0.690699 0.603848 0.177570
Si Si7 0.789324 0.317047 0.797463
Si Si8 0.699898 0.202231 0.235327
O O1 0.192715 0.228964 0.951103
O O2 0.914764 0.342986 0.918351
O O3 0.177108 0.233112 0.288010
O O4 0.000000 0.500000 0.000000
O O5 0.176837 0.161533 0.604838
O O6 0.258492 0.303723 0.753347
O O7 0.500000 0.000000 0.000000
O O8 0.124539 0.579557 0.753088
O O9 0.958939 0.872624 0.751123
O O10 0.889421 0.136633 0.829986
O O11 0.812656 0.105089 0.480612
O O12 0.161256 0.913417 0.819545
O O13 0.384017 0.407844 0.718399
O O14 0.632379 0.400775 0.821374
O O15 0.316830 0.591343 0.449518
O O16 0.331877 0.647608 0.770796
O O17 0.507019 0.715813 0.925813
#
# Coordination Sequence:
#
# PCOD9006588 Si02
#       8
#     2   2   2   2   2   2   2   2
#     4  12  28  48  75 107 151 197 247 305 364 445
#     4  12  30  51  75 109 147 199 250 309 369 440
#     4  12  26  49  77 111 145 199 250 303 372 444
#     4  10  23  42  69 103 149 189 239 304 372 425
#     4  10  21  39  69 103 142 189 244 298 364 438
#     4  12  23  41  74 104 142 192 252 294 359 452
#     4  10  24  43  66 107 150 188 236 309 369 426
#     4  10  21  38  67 101 138 189 236 303 364 431
#
# _framework density 22.788679999999999
#
# number of rings (size 3 to 8) (size 9 to 14) (size 15 to 20)
#    0.000    1.000    2.500    3.000    8.750    2.000 
#    2.250    0.000    0.000    0.000    0.000    0.000 
#    0.000    0.000    0.000    0.000    0.000    0.000 
#
# Total GULP energy -89456.884710 kJ/mol
# GULP energy per Si atom -5591.055294 kJ/mol
# Density = 2.273681 g / cm^3
# Si number density = 22.788680 Si / 1000 Ang^3
#
#
#
# Elastic Constant Matrix: (Units=GPa)
#
#
# Indices 1 2 3 4 5 6 
#
# 1 127.7711 64.2427 22.4871 -1.6979 -13.7771 2.6838
# 2 64.2427 145.4239 47.4095 -3.9122 -1.0618 5.3573
# 3 22.4871 47.4095 100.9992 -4.7807 3.8963 -12.4643
# 4 -1.6979 -3.9122 -4.7807 36.6161 -0.3013 -2.9206
# 5 -13.7771 -1.0618 3.8963 -0.3013 33.4875 2.7067
# 6 2.6838 5.3573 -12.4643 -2.9206 2.7067 47.8858
#
#
#
# Elastic Compliance Matrix: (Units=1/GPa)
#
#
# Indices 1 2 3 4 5 6 
#
# 1 0.010651 -0.004499 -0.000487 -0.000052 0.004333 -0.000468
# 2 -0.004499 0.010231 -0.003986 0.000208 -0.000910 -0.001866
# 3 -0.000487 -0.003986 0.012518 0.001483 -0.002088 0.003940
# 4 -0.000052 0.000208 0.001483 0.027687 -0.000105 0.002060
# 5 0.004333 -0.000910 -0.002088 -0.000105 0.032060 -0.002503
# 6 -0.000468 -0.001866 0.003940 0.002060 -0.002503 0.022411
#
#
# Mechanical properties :
#
#
# Convention : Reuss Voigt Hill
#
# Bulk Modulus (GPa) = 64.70280 71.38586 68.04433
# Shear Modulus (GPa) = 36.06126 39.60155 37.83141
#
# Velocity S-wave (km/s) = 3.98228 4.17318 4.07885
# Velocity P-wave (km/s) = 7.04265 7.39011 7.21847
#
# Compressibility (1/GPa) = 0.01545528
#
# Stress axis : x y z
#
# Youngs Moduli (GPa) = 93.89213 97.74178 79.88730
#
# Poissons Ratio (x) = 0.43971 0.03891
# Poissons Ratio (y) = 0.42239 0.31845
# Poissons Ratio (z) = 0.04573 0.38962
#
# Static dielectric constant tensor:
#      x y z
#    x 1.811280 0.001670 -0.039530 
#    y 0.001670 1.823050 0.008440 
#    z -0.039530 0.008440 1.977220 
# 
# From -- ./inp_files/262551.got.cif
#   From: 2010.05.17/outbox.cif.g08.bks.cpg/sg2_132_cif.got.tgz:262551.got - 2010.06.03 11:33:40.
