data_PCOD9006221
_publ_section_title
;
Structure prediction by ZEFSAII (Michael W. Deem and Ramdas Pophale) SiO2 
 PCOD9006221
Probable space group: P -1
;
_chemical_formula_sum "Si O2"
_cell_formula_units_Z 16
_cell_length_a 17.604977
_cell_length_b 8.850248
_cell_length_c 8.839790
_cell_angle_alpha 102.313037
_cell_angle_beta 50.423530
_cell_angle_gamma 126.050874
_cell_volume 828.903697
_symmetry_space_group_name_H-M "P -1"
_symmetry_group_IT_number 2
_symmetry_cell_setting 'triclinic'
loop_
_space_group_symop_operation_xyz
x,y,z
-x,-y,-z
loop_
_atom_site_type_symbol
_atom_site_label
_atom_site_fract_x
_atom_site_fract_y
_atom_site_fract_z
Si Si1 0.291961 0.880256 0.949275
Si Si2 0.396346 0.035222 0.164661
Si Si3 0.456735 0.229040 0.603347
Si Si4 0.886682 0.813737 0.192461
Si Si5 0.759614 0.989981 0.402653
Si Si6 0.942905 0.281896 0.985014
Si Si7 0.303864 0.531707 0.863604
Si Si8 0.462156 0.517088 0.883140
O O1 0.164303 0.813941 0.024122
O O2 0.275650 0.683915 0.964132
O O3 0.403849 0.032095 0.723926
O O4 0.328156 0.993608 0.084108
O O5 0.295977 0.928508 0.402534
O O6 0.459199 0.253020 0.183250
O O7 0.500000 0.000000 0.000000
O O8 0.343183 0.158199 0.620834
O O9 0.575401 0.335528 0.368632
O O10 0.484668 0.391995 0.720550
O O11 0.810218 0.877597 0.386081
O O12 0.799437 0.648504 0.144530
O O13 0.950019 0.739239 0.193903
O O14 0.000000 0.000000 0.000000
O O15 0.871823 0.163552 0.201587
O O16 0.000000 0.500000 0.000000
O O17 0.333183 0.461220 0.963556
O O18 0.500000 0.500000 0.000000
#
# Coordination Sequence:
#
# PCOD9006221 Si02
#       8
#     2   2   2   2   2   2   2   2
#     4  11  23  38  62  92 131 161 204 265 318 373
#     4  12  23  41  59  92 136 169 200 253 333 388
#     4  11  21  37  61  95 123 158 212 261 314 385
#     4  10  21  38  65  90 119 164 221 260 304 356
#     4  10  21  39  65  90 124 168 210 260 314 377
#     4  10  21  41  64  93 120 160 224 268 297 362
#     4  12  21  38  64  91 122 169 209 256 321 379
#     4  12  23  36  56  88 131 164 198 249 319 389
#
# _framework density 19.302606000000001
#
# number of rings (size 3 to 8) (size 9 to 14) (size 15 to 20)
#    0.000    1.000    6.250    1.500    0.000    1.000 
#    0.000    1.250    0.000    0.000    0.000    0.000 
#    0.000    0.000    0.000    0.000    0.000    0.000 
#
# Total GULP energy -89094.492424 kJ/mol
# GULP energy per Si atom -5568.405776 kJ/mol
# Density = 1.925867 g / cm^3
# Si number density = 19.302606 Si / 1000 Ang^3
#
#
#
# Elastic Constant Matrix: (Units=GPa)
#
#
# Indices 1 2 3 4 5 6 
#
# 1 119.5602 30.6259 42.5620 10.7505 3.1342 7.1352
# 2 30.6259 96.8016 19.0336 -0.4558 -5.6110 12.6144
# 3 42.5620 19.0336 72.2353 15.9786 -3.6548 4.1181
# 4 10.7505 -0.4558 15.9786 27.3298 1.5486 -6.8153
# 5 3.1342 -5.6110 -3.6548 1.5486 25.0304 3.0286
# 6 7.1352 12.6144 4.1181 -6.8153 3.0286 32.8256
#
#
#
# Elastic Compliance Matrix: (Units=1/GPa)
#
#
# Indices 1 2 3 4 5 6 
#
# 1 0.011297 -0.002486 -0.005850 -0.001101 -0.002667 -0.000749
# 2 -0.002486 0.012138 -0.001534 0.000884 0.003243 -0.004047
# 3 -0.005850 -0.001534 0.020502 -0.010803 0.004458 -0.003365
# 4 -0.001101 0.000884 -0.010803 0.046513 -0.005501 0.011419
# 5 -0.002667 0.003243 0.004458 -0.005501 0.042767 -0.006314
# 6 -0.000749 -0.004047 -0.003365 0.011419 -0.006314 0.035558
#
#
# Mechanical properties :
#
#
# Convention : Reuss Voigt Hill
#
# Bulk Modulus (GPa) = 41.32907 52.55998 46.94453
# Shear Modulus (GPa) = 25.43477 30.12887 27.78182
#
# Velocity S-wave (km/s) = 3.63393 3.95507 3.79790
# Velocity P-wave (km/s) = 6.25019 6.93869 6.60342
#
# Compressibility (1/GPa) = 0.02419604
#
# Stress axis : x y z
#
# Youngs Moduli (GPa) = 88.51977 82.38461 48.77621
#
# Poissons Ratio (x) = 0.20481 0.28534
# Poissons Ratio (y) = 0.22006 0.07484
# Poissons Ratio (z) = 0.51785 0.12640
#
# Static dielectric constant tensor:
#      x y z
#    x 1.752030 -0.049310 -0.024170 
#    y -0.049310 1.698290 -0.030110 
#    z -0.024170 -0.030110 1.715690 
# 
# From -- ./inp_files/216787.got.cif
#   From: 2010.05.17/outbox.cif.g08.bks.cpg/sg2_109_cif.got.tgz:216787.got - 2010.06.03 11:33:40.
