data_PCOD9006065
_publ_section_title
;
Structure prediction by ZEFSAII (Michael W. Deem and Ramdas Pophale) SiO2 
 PCOD9006065
Probable space group: P -1
;
_chemical_formula_sum "Si O2"
_cell_formula_units_Z 16
_cell_length_a 12.961976
_cell_length_b 17.265950
_cell_length_c 23.361632
_cell_angle_alpha 22.869704
_cell_angle_beta 157.862434
_cell_angle_gamma 146.800852
_cell_volume 760.703967
_symmetry_space_group_name_H-M "P -1"
_symmetry_group_IT_number 2
_symmetry_cell_setting 'triclinic'
loop_
_space_group_symop_operation_xyz
x,y,z
-x,-y,-z
loop_
_atom_site_type_symbol
_atom_site_label
_atom_site_fract_x
_atom_site_fract_y
_atom_site_fract_z
Si Si1 0.194493 0.180152 0.112512
Si Si2 0.620231 0.772578 0.226488
Si Si3 0.712325 0.958134 0.516240
Si Si4 0.774959 0.519582 0.821276
Si Si5 0.697750 0.508106 0.961243
Si Si6 0.442140 0.728796 0.296051
Si Si7 0.210734 0.950060 0.694449
Si Si8 0.220204 0.850444 0.454333
O O1 0.284075 0.391704 0.036029
O O2 0.454154 0.100034 0.261712
O O3 0.194602 0.012083 0.279044
O O4 0.885374 0.207774 0.913380
O O5 0.442670 0.636233 0.189759
O O6 0.561422 0.734135 0.289071
O O7 0.937943 0.752847 0.384728
O O8 0.500000 0.000000 0.000000
O O9 0.630733 0.740146 0.607525
O O10 0.746315 0.023293 0.555555
O O11 0.008758 0.960011 0.638786
O O12 0.000000 0.500000 0.000000
O O13 0.983005 0.492367 0.893548
O O14 0.472235 0.669337 0.703983
O O15 0.644877 0.277964 0.083499
O O16 0.500000 0.500000 0.500000
O O17 0.588534 0.881981 0.306462
O O18 0.000000 0.000000 0.500000
#
# Coordination Sequence:
#
# PCOD9006065 Si02
#       8
#     2   2   2   2   2   2   2   2
#     4  11  21  42  66 100 136 170 210 269 333 397
#     4  12  23  41  65  98 131 172 218 273 325 393
#     4  10  22  39  65  99 130 168 212 267 328 390
#     4  11  21  35  62  95 131 167 208 259 331 383
#     4  10  21  38  64  94 132 166 211 268 324 381
#     4  12  26  45  67  93 131 179 219 269 333 392
#     4  11  25  45  66  91 129 176 229 270 321 392
#     4  11  21  40  66 103 137 164 213 270 336 388
#
# _framework density 21.033149000000002
#
# number of rings (size 3 to 8) (size 9 to 14) (size 15 to 20)
#    0.000    1.000    3.750    4.500    3.500    1.000 
#    2.250    4.375    0.000    0.000    0.000    0.000 
#    0.000    0.000    0.000    0.000    0.000    0.000 
#
# Total GULP energy -89276.967425 kJ/mol
# GULP energy per Si atom -5579.810464 kJ/mol
# Density = 2.098528 g / cm^3
# Si number density = 21.033149 Si / 1000 Ang^3
#
#
#
# Elastic Constant Matrix: (Units=GPa)
#
#
# Indices 1 2 3 4 5 6 
#
# 1 27.7631 12.0987 28.3627 -13.9031 -3.5298 -1.2918
# 2 12.0987 206.8289 91.0577 -8.0891 6.7140 7.6723
# 3 28.3627 91.0577 157.1917 -20.3003 10.1938 -6.2635
# 4 -13.9031 -8.0891 -20.3003 41.4274 -1.8540 1.3363
# 5 -3.5298 6.7140 10.1938 -1.8540 33.8163 -1.8540
# 6 -1.2918 7.6723 -6.2635 1.3363 -1.8540 23.1281
#
#
#
# Elastic Compliance Matrix: (Units=1/GPa)
#
#
# Indices 1 2 3 4 5 6 
#
# 1 0.052744 0.001100 -0.008919 0.013934 0.008743 0.000061
# 2 0.001100 0.006774 -0.004286 -0.000307 -0.000138 -0.003340
# 3 -0.008919 -0.004286 0.010965 0.001288 -0.003119 0.003569
# 4 0.013934 -0.000307 0.001288 0.029517 0.002731 -0.000258
# 5 0.008743 -0.000138 -0.003119 0.002731 0.031715 0.002074
# 6 0.000061 -0.003340 0.003569 -0.000258 0.002074 0.045496
#
#
# Mechanical properties :
#
#
# Convention : Reuss Voigt Hill
#
# Bulk Modulus (GPa) = 21.61125 72.75799 47.18462
# Shear Modulus (GPa) = 23.05790 37.02533 30.04161
#
# Velocity S-wave (km/s) = 3.31458 4.20018 3.78338
# Velocity P-wave (km/s) = 4.99457 7.62818 6.44728
#
# Compressibility (1/GPa) = 0.04627220
#
# Stress axis : x y z
#
# Youngs Moduli (GPa) = 18.95957 147.62334 91.20127
#
# Poissons Ratio (x) = -0.16243 0.81344
# Poissons Ratio (y) = -0.02086 0.39092
# Poissons Ratio (z) = 0.16910 0.63276
#
# Static dielectric constant tensor:
#      x y z
#    x 1.861660 -0.004100 -0.090240 
#    y -0.004100 1.740470 0.025430 
#    z -0.090240 0.025430 1.681260 
# 
# From -- ./inp_files/294731.got.cif
#   From: 2010.05.17/outbox.cif.g08.bks.cpg/sg2_148_cif.got.tgz:294731.got - 2010.06.03 11:33:40.
