data_PCOD9006747
_publ_section_title
;
Structure prediction by ZEFSAII (Michael W. Deem and Ramdas Pophale) SiO2 
 PCOD9006747
Probable space group: P -1
;
_chemical_formula_sum "Si O2"
_cell_formula_units_Z 16
_cell_length_a 8.296780
_cell_length_b 14.215675
_cell_length_c 12.387562
_cell_angle_alpha 37.985255
_cell_angle_beta 118.972515
_cell_angle_gamma 134.495256
_cell_volume 633.674328
_symmetry_space_group_name_H-M "P -1"
_symmetry_group_IT_number 2
_symmetry_cell_setting 'triclinic'
loop_
_space_group_symop_operation_xyz
x,y,z
-x,-y,-z
loop_
_atom_site_type_symbol
_atom_site_label
_atom_site_fract_x
_atom_site_fract_y
_atom_site_fract_z
Si Si1 0.038996 0.951591 0.801272
Si Si2 0.239064 0.733035 0.727572
Si Si3 0.674751 0.282272 0.698698
Si Si4 0.282313 0.423375 0.074728
Si Si5 0.684221 0.980508 0.757038
Si Si6 0.812155 0.371065 0.436532
Si Si7 0.857834 0.799934 0.570315
Si Si8 0.612684 0.899040 0.038380
O O1 0.952249 0.756961 0.891884
O O2 0.807588 0.934232 0.753640
O O3 0.203702 0.138977 0.613271
O O4 0.152724 0.987738 0.920901
O O5 0.451013 0.924127 0.678630
O O6 0.280900 0.687292 0.662231
O O7 0.023912 0.738980 0.651771
O O8 0.232354 0.576283 0.937263
O O9 0.669882 0.352488 0.512935
O O10 0.564594 0.277437 0.782545
O O11 0.948677 0.422770 0.678923
O O12 0.561741 0.055998 0.861331
O O13 0.317544 0.353295 0.261949
O O14 0.500000 0.500000 0.000000
O O15 0.845514 0.205980 0.625367
O O16 0.642751 0.863882 0.957398
O O17 0.000000 0.000000 0.500000
#
# Coordination Sequence:
#
# PCOD9006747 Si02
#       8
#     2   2   2   2   2   2   2   2
#     4  11  22  45  63  97 135 178 224 282 338 402
#     4  12  23  42  73 101 137 183 227 281 343 404
#     4   9  21  42  62 102 129 178 232 276 336 408
#     4  11  24  42  66 100 139 175 226 280 339 406
#     4  11  23  40  66  98 134 179 230 273 343 405
#     4  10  21  38  68  95 136 171 229 281 334 405
#     4  10  25  42  65  98 139 175 224 278 342 405
#     4  10  22  40  67  91 136 179 225 279 338 402
#
# _framework density 25.249563999999999
#
# number of rings (size 3 to 8) (size 9 to 14) (size 15 to 20)
#    0.000    1.500    2.500    1.875    0.000    9.000 
#    0.000    0.625    0.000    0.000    0.000    0.000 
#    0.000    0.000    0.000    0.000    0.000    0.000 
#
# Total GULP energy -89312.666546 kJ/mol
# GULP energy per Si atom -5582.041659 kJ/mol
# Density = 2.519210 g / cm^3
# Si number density = 25.249564 Si / 1000 Ang^3
#
#
#
# Elastic Constant Matrix: (Units=GPa)
#
#
# Indices 1 2 3 4 5 6 
#
# 1 71.3441 6.1823 29.2154 -7.7846 -20.0318 4.4892
# 2 6.1823 90.0206 42.4324 10.0668 -13.7374 2.3761
# 3 29.2154 42.4324 152.2803 15.1925 -30.8552 -1.8909
# 4 -7.7846 10.0668 15.1925 52.0977 -6.3960 -0.4318
# 5 -20.0318 -13.7374 -30.8552 -6.3960 50.6444 -1.7817
# 6 4.4892 2.3761 -1.8909 -0.4318 -1.7817 22.6229
#
#
#
# Elastic Compliance Matrix: (Units=1/GPa)
#
#
# Indices 1 2 3 4 5 6 
#
# 1 0.017340 0.000635 -0.002778 0.003955 0.005725 -0.003213
# 2 0.000635 0.013063 -0.003344 -0.001280 0.001537 -0.001681
# 3 -0.002778 -0.003344 0.008906 -0.001953 0.003239 0.001865
# 4 0.003955 -0.001280 -0.001953 0.020928 0.002663 -0.000204
# 5 0.005725 0.001537 0.003239 0.002663 0.024771 0.000975
# 6 -0.003213 -0.001681 0.001865 -0.000204 0.000975 0.045246
#
#
# Mechanical properties :
#
#
# Convention : Reuss Voigt Hill
#
# Bulk Modulus (GPa) = 35.29181 52.14504 43.71842
# Shear Modulus (GPa) = 33.18459 40.79399 36.98929
#
# Velocity S-wave (km/s) = 3.62921 4.02385 3.83162
# Velocity P-wave (km/s) = 5.61864 6.50271 6.07677
#
# Compressibility (1/GPa) = 0.02833519
#
# Stress axis : x y z
#
# Youngs Moduli (GPa) = 57.66909 76.55220 112.28614
#
# Poissons Ratio (x) = -0.04860 0.31195
# Poissons Ratio (y) = -0.03661 0.37544
# Poissons Ratio (z) = 0.16022 0.25596
#
# Static dielectric constant tensor:
#      x y z
#    x 2.030400 -0.016390 -0.075180 
#    y -0.016390 2.014720 0.023380 
#    z -0.075180 0.023380 2.047120 
# 
# From -- ./inp_files/398434.got.cif
#   From: 2010.05.17/outbox.cif.g08.bks.cpg/sg2_200_cif.got.tgz:398434.got - 2010.06.03 11:33:40.
