data_PCOD9006121
_publ_section_title
;
Structure prediction by ZEFSAII (Michael W. Deem and Ramdas Pophale) SiO2 
 PCOD9006121
Probable space group: P -1
;
_chemical_formula_sum "Si O2"
_cell_formula_units_Z 16
_cell_length_a 9.697191
_cell_length_b 15.455501
_cell_length_c 8.485449
_cell_angle_alpha 87.518472
_cell_angle_beta 99.688556
_cell_angle_gamma 145.628185
_cell_volume 697.220273
_symmetry_space_group_name_H-M "P -1"
_symmetry_group_IT_number 2
_symmetry_cell_setting 'triclinic'
loop_
_space_group_symop_operation_xyz
x,y,z
-x,-y,-z
loop_
_atom_site_type_symbol
_atom_site_label
_atom_site_fract_x
_atom_site_fract_y
_atom_site_fract_z
Si Si1 0.480455 0.999776 0.726278
Si Si2 0.696976 0.407862 0.294452
Si Si3 0.696282 0.742638 0.526415
Si Si4 0.264328 0.493460 0.252770
Si Si5 0.138600 0.688846 0.528560
Si Si6 0.150875 0.786750 0.982650
Si Si7 0.607861 0.281025 0.949535
Si Si8 0.749137 0.950047 0.340446
O O1 0.348895 0.868078 0.591039
O O2 0.751804 0.119547 0.844863
O O3 0.462858 0.088938 0.658570
O O4 0.302545 0.905712 0.856090
O O5 0.470592 0.340955 0.342068
O O6 0.745181 0.345138 0.410110
O O7 0.961937 0.594734 0.347735
O O8 0.628996 0.341136 0.113485
O O9 0.533721 0.610069 0.372049
O O10 0.725486 0.855790 0.456677
O O11 0.983072 0.865649 0.602910
O O12 0.281922 0.597454 0.169641
O O13 0.069493 0.400745 0.366547
O O14 0.139833 0.366843 0.109441
O O15 0.247072 0.735674 0.009641
O O16 0.324778 0.118280 0.844764
#
# Coordination Sequence:
#
# PCOD9006121 Si02
#       8
#     2   2   2   2   2   2   2   2
#     4   9  16  30  49  70  98 125 157 196 240 280
#     4  10  18  30  49  71 103 125 152 199 240 286
#     4   9  19  34  49  72  95 126 165 199 236 272
#     4   9  16  29  49  73  94 124 164 193 232 275
#     4   9  18  31  47  72 105 127 149 194 243 290
#     4   9  16  26  47  75  99 116 156 203 235 278
#     4  10  17  28  52  75  95 123 161 200 236 277
#     4   9  19  34  52  70  92 127 169 201 225 281
#
# _framework density 22.948270000000001
#
# number of rings (size 3 to 8) (size 9 to 14) (size 15 to 20)
#    0.000    2.750    2.500    0.375    0.000    0.500 
#    0.000    6.250    0.000    0.000    0.000    6.125 
#    0.000    0.000    0.000    0.000    0.000    0.000 
#
# Total GULP energy -89280.036676 kJ/mol
# GULP energy per Si atom -5580.002292 kJ/mol
# Density = 2.289604 g / cm^3
# Si number density = 22.948270 Si / 1000 Ang^3
#
#
#
# Elastic Constant Matrix: (Units=GPa)
#
#
# Indices 1 2 3 4 5 6 
#
# 1 14.5955 7.4560 30.8803 8.7321 -1.5129 -0.0657
# 2 7.4560 99.2143 54.6826 39.4059 -1.0084 3.2314
# 3 30.8803 54.6826 136.8841 43.9648 -7.6216 8.4008
# 4 8.7321 39.4059 43.9648 55.4668 -6.6656 7.8933
# 5 -1.5129 -1.0084 -7.6216 -6.6656 22.2409 2.9764
# 6 -0.0657 3.2314 8.4008 7.8933 2.9764 30.1697
#
#
#
# Elastic Compliance Matrix: (Units=1/GPa)
#
#
# Indices 1 2 3 4 5 6 
#
# 1 0.139636 0.009757 -0.035348 -0.002893 -0.004417 0.010294
# 2 0.009757 0.016184 -0.006154 -0.008998 -0.003773 0.002728
# 3 -0.035348 -0.006154 0.019671 -0.004707 0.003179 -0.003977
# 4 -0.002893 -0.008998 -0.004707 0.030463 0.007778 -0.006469
# 5 -0.004417 -0.003773 0.003179 0.007778 0.048895 -0.007349
# 6 0.010294 0.002728 -0.003977 -0.006469 -0.007349 0.036401
#
#
# Mechanical properties :
#
#
# Convention : Reuss Voigt Hill
#
# Bulk Modulus (GPa) = 8.92840 48.52576 28.72708
# Shear Modulus (GPa) = 12.75274 32.08715 22.41995
#
# Velocity S-wave (km/s) = 2.35992 3.74336 3.12906
# Velocity P-wave (km/s) = 3.36523 6.31469 5.05965
#
# Compressibility (1/GPa) = 0.11200210
#
# Stress axis : x y z
#
# Youngs Moduli (GPa) = 7.16149 61.78826 50.83622
#
# Poissons Ratio (x) = -0.60287 1.79693
# Poissons Ratio (y) = -0.06987 0.31285
# Poissons Ratio (z) = 0.25314 0.38025
#
# Static dielectric constant tensor:
#      x y z
#    x 1.797860 -0.012420 -0.001560 
#    y -0.012420 1.958090 0.037480 
#    z -0.001560 0.037480 1.915490 
# 
# From -- ./inp_files/239255.got.cif
#   From: 2010.05.17/outbox.cif.g08.bks.cpg/sg2_120_cif.got.tgz:239255.got - 2010.06.03 11:33:40.
