data_PCOD9006313
_publ_section_title
;
Structure prediction by ZEFSAII (Michael W. Deem and Ramdas Pophale) SiO2 
 PCOD9006313
Probable space group: P -1
;
_chemical_formula_sum "Si O2"
_cell_formula_units_Z 16
_cell_length_a 12.014922
_cell_length_b 8.368312
_cell_length_c 18.475459
_cell_angle_alpha 53.871747
_cell_angle_beta 39.239967
_cell_angle_gamma 34.773988
_cell_volume 664.576946
_symmetry_space_group_name_H-M "P -1"
_symmetry_group_IT_number 2
_symmetry_cell_setting 'triclinic'
loop_
_space_group_symop_operation_xyz
x,y,z
-x,-y,-z
loop_
_atom_site_type_symbol
_atom_site_label
_atom_site_fract_x
_atom_site_fract_y
_atom_site_fract_z
Si Si1 0.123171 0.948649 0.234782
Si Si2 0.632707 0.370008 0.100063
Si Si3 0.238554 0.800651 0.527798
Si Si4 0.261703 0.737714 0.765867
Si Si5 0.647218 0.730760 0.550715
Si Si6 0.237401 0.223505 0.361831
Si Si7 0.941798 0.789780 0.158941
Si Si8 0.885784 0.739369 0.733119
O O1 0.336016 0.640906 0.175665
O O2 0.244952 0.022342 0.203467
O O3 0.932576 0.986226 0.374709
O O4 0.930104 0.204222 0.207948
O O5 0.706005 0.388409 0.139170
O O6 0.753730 0.052160 0.127478
O O7 0.782116 0.369150 0.964793
O O8 0.500000 0.500000 0.500000
O O9 0.069665 0.753442 0.599481
O O10 0.288424 0.948585 0.415102
O O11 0.525029 0.608645 0.637195
O O12 0.122821 0.054173 0.774358
O O13 0.627565 0.795111 0.629952
O O14 0.941384 0.503751 0.446968
O O15 0.500000 0.000000 0.500000
O O16 0.278010 0.233345 0.253441
O O17 0.942603 0.558031 0.233094
#
# Coordination Sequence:
#
# PCOD9006313 Si02
#       8
#     2   2   2   2   2   2   2   2
#     4  10  23  39  66  98 128 175 213 271 334 392
#     4   9  21  43  69  90 129 172 224 276 328 397
#     4  10  24  39  62  90 138 176 211 259 332 391
#     4  10  21  38  65  94 129 166 217 267 333 386
#     4  11  24  39  68  96 134 168 228 276 313 391
#     4  11  24  42  62  98 128 185 216 268 331 382
#     4   9  21  44  67  91 130 172 221 280 329 382
#     4  10  24  41  63  98 133 170 219 267 326 400
#
# _framework density 24.075468999999998
#
# number of rings (size 3 to 8) (size 9 to 14) (size 15 to 20)
#    1.500    0.500    0.000    2.625    5.250    5.000 
#    0.000    0.625    0.000    0.000    0.000    0.000 
#    0.000    0.000    0.000    0.000    0.000    0.000 
#
# Total GULP energy -89199.947258 kJ/mol
# GULP energy per Si atom -5574.996704 kJ/mol
# Density = 2.402067 g / cm^3
# Si number density = 24.075469 Si / 1000 Ang^3
#
#
#
# Elastic Constant Matrix: (Units=GPa)
#
#
# Indices 1 2 3 4 5 6 
#
# 1 109.7211 34.3264 11.3389 1.4474 -9.0531 -19.2960
# 2 34.3264 111.3498 9.7880 12.7587 -8.8154 -7.5442
# 3 11.3389 9.7880 55.5496 19.2215 7.9568 -2.4969
# 4 1.4474 12.7587 19.2215 32.6370 -4.4833 -4.4740
# 5 -9.0531 -8.8154 7.9568 -4.4833 11.7971 -0.9494
# 6 -19.2960 -7.5442 -2.4969 -4.4740 -0.9494 37.6958
#
#
#
# Elastic Compliance Matrix: (Units=1/GPa)
#
#
# Indices 1 2 3 4 5 6 
#
# 1 0.013112 -0.002546 -0.006908 0.007692 0.016311 0.007068
# 2 -0.002546 0.010684 -0.001426 -0.002290 0.006172 0.000624
# 3 -0.006908 -0.001426 0.033705 -0.025118 -0.039093 -0.005555
# 4 0.007692 -0.002290 -0.025118 0.053016 0.042018 0.009166
# 5 0.016311 0.006172 -0.039093 0.042018 0.145491 0.015647
# 6 0.007068 0.000624 -0.005555 0.009166 0.015647 0.031385
#
#
# Mechanical properties :
#
#
# Convention : Reuss Voigt Hill
#
# Bulk Modulus (GPa) = 27.97980 43.05855 35.51918
# Shear Modulus (GPa) = 15.57309 31.17045 23.37177
#
# Velocity S-wave (km/s) = 2.54607 3.60209 3.11910
# Velocity P-wave (km/s) = 4.50447 5.93496 5.26849
#
# Compressibility (1/GPa) = 0.03574007
#
# Stress axis : x y z
#
# Youngs Moduli (GPa) = 76.26689 93.59526 29.66959
#
# Poissons Ratio (x) = 0.23829 0.20496
# Poissons Ratio (y) = 0.19417 0.04232
# Poissons Ratio (z) = 0.52685 0.13350
#
# Static dielectric constant tensor:
#      x y z
#    x 2.024790 0.011280 -0.007690 
#    y 0.011280 1.912270 0.017640 
#    z -0.007690 0.017640 1.955780 
# 
# From -- ./inp_files/594033.got.cif
#   From: 2010.05.17/outbox.cif.g08.bks.cpg/sg2_298_cif.got.tgz:594033.got - 2010.06.03 11:33:40.
