data_PCOD9006563
_publ_section_title
;
Structure prediction by ZEFSAII (Michael W. Deem and Ramdas Pophale) SiO2 
 PCOD9006563
Probable space group: P -1
;
_chemical_formula_sum "Si O2"
_cell_formula_units_Z 16
_cell_length_a 10.726665
_cell_length_b 7.681411
_cell_length_c 21.550734
_cell_angle_alpha 123.075291
_cell_angle_beta 33.162587
_cell_angle_gamma 134.082379
_cell_volume 694.708385
_symmetry_space_group_name_H-M "P -1"
_symmetry_group_IT_number 2
_symmetry_cell_setting 'triclinic'
loop_
_space_group_symop_operation_xyz
x,y,z
-x,-y,-z
loop_
_atom_site_type_symbol
_atom_site_label
_atom_site_fract_x
_atom_site_fract_y
_atom_site_fract_z
Si Si1 0.778559 0.398667 0.848653
Si Si2 0.726003 0.871838 0.629551
Si Si3 0.343258 0.006999 0.628033
Si Si4 0.753431 0.667930 0.789276
Si Si5 0.362780 0.009458 0.877753
Si Si6 0.806854 0.610450 0.011623
Si Si7 0.342373 0.582921 0.624364
Si Si8 0.738020 0.488240 0.630502
O O1 0.752000 0.554949 0.834961
O O2 0.505863 0.141750 0.907666
O O3 0.035124 0.380646 0.723176
O O4 0.831849 0.539344 0.917554
O O5 0.501326 0.674033 0.639324
O O6 0.757476 0.732911 0.646839
O O7 0.591689 0.014781 0.740828
O O8 0.000000 0.000000 0.500000
O O9 0.339665 0.806116 0.635974
O O10 0.038774 0.918795 0.718868
O O11 0.500000 0.000000 0.500000
O O12 0.493225 0.256681 0.653209
O O13 0.457965 0.626175 0.897036
O O14 0.756580 0.505070 0.699946
O O15 0.267061 0.178657 0.918246
O O16 0.102268 0.742732 0.942805
O O17 0.500000 0.500000 0.500000
O O18 0.000000 0.500000 0.500000
#
# Coordination Sequence:
#
# PCOD9006563 Si02
#       8
#     2   2   2   2   2   2   2   2
#     4  10  21  39  67 100 134 168 227 277 327 403
#     4  12  26  42  66 100 138 173 224 286 343 394
#     4  11  23  41  66  93 136 178 222 271 343 404
#     4  10  23  38  65  94 127 173 222 268 330 393
#     4  10  21  38  66  98 134 171 218 276 340 382
#     4  10  21  40  68 102 134 170 231 274 329 413
#     4  11  23  39  65 101 137 173 223 283 338 397
#     4  12  26  43  65  95 139 179 226 273 341 418
#
# _framework density 23.031244000000001
#
# number of rings (size 3 to 8) (size 9 to 14) (size 15 to 20)
#    0.000    1.250    2.500    3.750    8.750    2.000 
#    2.250    0.625    0.000    3.750    0.000    0.000 
#    0.000    0.000    0.000    0.000    0.000    0.000 
#
# Total GULP energy -89352.493162 kJ/mol
# GULP energy per Si atom -5584.530823 kJ/mol
# Density = 2.297882 g / cm^3
# Si number density = 23.031244 Si / 1000 Ang^3
#
#
#
# Elastic Constant Matrix: (Units=GPa)
#
#
# Indices 1 2 3 4 5 6 
#
# 1 52.9619 37.1469 17.3628 -9.1905 -14.8253 19.9506
# 2 37.1469 97.6406 38.8196 -13.6778 -13.1285 34.7482
# 3 17.3628 38.8196 119.7940 -7.5563 -25.1314 16.9543
# 4 -9.1905 -13.6778 -7.5563 47.3313 14.8879 -14.0298
# 5 -14.8253 -13.1285 -25.1314 14.8879 35.0545 -3.4500
# 6 19.9506 34.7482 16.9543 -14.0298 -3.4500 53.8191
#
#
#
# Elastic Compliance Matrix: (Units=1/GPa)
#
#
# Indices 1 2 3 4 5 6 
#
# 1 0.029022 -0.008481 0.001344 -0.001390 0.010118 -0.005420
# 2 -0.008481 0.017294 -0.003516 0.001035 -0.000728 -0.006691
# 3 0.001344 -0.003516 0.011058 -0.001968 0.007845 -0.001722
# 4 -0.001390 0.001035 -0.001968 0.026673 -0.012287 0.006632
# 5 0.010118 -0.000728 0.007845 -0.012287 0.042765 -0.006214
# 6 -0.005420 -0.006691 -0.001722 0.006632 -0.006214 0.026783
#
#
# Mechanical properties :
#
#
# Convention : Reuss Voigt Hill
#
# Bulk Modulus (GPa) = 27.72485 50.78388 39.25436
# Shear Modulus (GPa) = 26.74884 39.04547 32.89716
#
# Velocity S-wave (km/s) = 3.41165 4.12190 3.78348
# Velocity P-wave (km/s) = 5.25197 6.68964 6.01392
#
# Compressibility (1/GPa) = 0.03606873
#
# Stress axis : x y z
#
# Youngs Moduli (GPa) = 34.45636 57.82218 90.43592
#
# Poissons Ratio (x) = 0.49040 -0.12155
# Poissons Ratio (y) = 0.29223 0.31793
# Poissons Ratio (z) = -0.04631 0.20328
#
# Static dielectric constant tensor:
#      x y z
#    x 1.882290 -0.025760 -0.012600 
#    y -0.025760 1.926370 -0.050850 
#    z -0.012600 -0.050850 1.908390 
# 
# From -- ./inp_files/594179.got.cif
#   From: 2010.05.17/outbox.cif.g08.bks.cpg/sg2_298_cif.got.tgz:594179.got - 2010.06.03 11:33:40.
