data_PCOD9006585
_publ_section_title
;
Structure prediction by ZEFSAII (Michael W. Deem and Ramdas Pophale) SiO2 
 PCOD9006585
Probable space group: P -1
;
_chemical_formula_sum "Si O2"
_cell_formula_units_Z 12
_cell_length_a 7.758956
_cell_length_b 12.649631
_cell_length_c 7.830227
_cell_angle_alpha 84.198113
_cell_angle_beta 125.427291
_cell_angle_gamma 126.984286
_cell_volume 462.615964
_symmetry_space_group_name_H-M "P -1"
_symmetry_group_IT_number 2
_symmetry_cell_setting 'triclinic'
loop_
_space_group_symop_operation_xyz
x,y,z
-x,-y,-z
loop_
_atom_site_type_symbol
_atom_site_label
_atom_site_fract_x
_atom_site_fract_y
_atom_site_fract_z
Si Si1 0.285871 0.023072 0.365588
Si Si2 0.859140 0.505980 0.254869
Si Si3 0.688004 0.630964 0.350229
Si Si4 0.929525 0.602837 0.833165
Si Si5 0.329199 0.184257 0.064825
Si Si6 0.422283 0.156660 0.772004
O O1 0.260684 0.045268 0.545006
O O2 0.500000 0.000000 0.500000
O O3 0.398638 0.159223 0.293091
O O4 0.997861 0.894006 0.124563
O O5 0.833446 0.619899 0.275347
O O6 0.020900 0.501681 0.193020
O O7 0.000000 0.500000 0.500000
O O8 0.546109 0.348617 0.110088
O O9 0.669475 0.750997 0.316741
O O10 0.850468 0.645095 0.611468
O O11 0.354138 0.483677 0.200940
O O12 0.234125 0.740630 0.060396
O O13 0.357575 0.106967 0.940516
#
# Coordination Sequence:
#
# PCOD9006585 Si02
#       6
#     2   2   2   2   2   2
#     4  11  27  45  70  97 128 184 234 281 336 397
#     4   9  20  39  67 100 138 175 216 274 342 407
#     4  10  21  38  67 100 143 180 211 281 346 402
#     4   9  21  37  61 102 138 178 220 268 334 414
#     4  10  25  47  66  98 138 172 230 285 330 407
#     4  11  24  43  69 100 133 178 229 275 343 409
#
# _framework density 25.939440999999999
#
# number of rings (size 3 to 8) (size 9 to 14) (size 15 to 20)
#    0.000    2.000    0.000    1.000    9.333    8.667 
#    0.000    0.000    0.000    0.000    0.000    0.000 
#    0.000    0.000    0.000    0.000    0.000    0.000 
#
# Total GULP energy -67139.314187 kJ/mol
# GULP energy per Si atom -5594.942849 kJ/mol
# Density = 2.588040 g / cm^3
# Si number density = 25.939441 Si / 1000 Ang^3
#
#
#
# Elastic Constant Matrix: (Units=GPa)
#
#
# Indices 1 2 3 4 5 6 
#
# 1 142.2797 17.7575 37.4964 -2.1423 3.4926 -7.0727
# 2 17.7575 40.2435 18.4389 2.4169 15.5212 12.2815
# 3 37.4964 18.4389 135.8990 -8.2363 22.9855 -10.3436
# 4 -2.1423 2.4169 -8.2363 21.9826 -0.1910 -2.8599
# 5 3.4926 15.5212 22.9855 -0.1910 51.6976 -7.9178
# 6 -7.0727 12.2815 -10.3436 -2.8599 -7.9178 36.2022
#
#
#
# Elastic Compliance Matrix: (Units=1/GPa)
#
#
# Indices 1 2 3 4 5 6 
#
# 1 0.008185 -0.004742 -0.001653 0.001146 0.002113 0.003288
# 2 -0.004742 0.040154 -0.003956 -0.008972 -0.012953 -0.019220
# 3 -0.001653 -0.003956 0.009253 0.004176 -0.002264 0.003498
# 4 0.001146 -0.008972 0.004176 0.049326 0.002299 0.008860
# 5 0.002113 -0.012953 -0.002264 0.002299 0.025628 0.009947
# 6 0.003288 -0.019220 0.003498 0.008860 0.009947 0.038660
#
#
# Mechanical properties :
#
#
# Convention : Reuss Voigt Hill
#
# Bulk Modulus (GPa) = 27.10612 51.75641 39.43127
# Shear Modulus (GPa) = 24.48544 38.29178 31.38861
#
# Velocity S-wave (km/s) = 3.07570 3.84630 3.48238
# Velocity P-wave (km/s) = 4.80476 6.30250 5.60389
#
# Compressibility (1/GPa) = 0.03689203
#
# Stress axis : x y z
#
# Youngs Moduli (GPa) = 122.18144 24.90422 108.06966
#
# Poissons Ratio (x) = 0.11809 0.17860
# Poissons Ratio (y) = 0.57933 0.42748
# Poissons Ratio (z) = 0.20192 0.09851
#
# Static dielectric constant tensor:
#      x y z
#    x 2.078180 0.066270 -0.050160 
#    y 0.066270 2.072770 -0.008540 
#    z -0.050160 -0.008540 2.111550 
# 
# From -- ./inp_files/196692.got.cif
#   From: 2010.05.17/outbox.cif.g08.bks.cpg/sg2_99_cif.got.tgz:196692.got - 2010.06.03 11:33:40.
