data_PCOD9006442
_publ_section_title
;
Structure prediction by ZEFSAII (Michael W. Deem and Ramdas Pophale) SiO2 
 PCOD9006442
Probable space group: P -1
;
_chemical_formula_sum "Si O2"
_cell_formula_units_Z 14
_cell_length_a 7.750131
_cell_length_b 11.201179
_cell_length_c 9.323198
_cell_angle_alpha 83.186455
_cell_angle_beta 104.381740
_cell_angle_gamma 48.716423
_cell_volume 542.947632
_symmetry_space_group_name_H-M "P -1"
_symmetry_group_IT_number 2
_symmetry_cell_setting 'triclinic'
loop_
_space_group_symop_operation_xyz
x,y,z
-x,-y,-z
loop_
_atom_site_type_symbol
_atom_site_label
_atom_site_fract_x
_atom_site_fract_y
_atom_site_fract_z
Si Si1 0.367246 0.047474 0.146990
Si Si2 0.678469 0.163424 0.673082
Si Si3 0.439554 0.832001 0.660538
Si Si4 0.837451 0.456215 0.474165
Si Si5 0.980347 0.231743 0.802303
Si Si6 0.398808 0.455038 0.100967
Si Si7 0.000283 0.633589 0.788457
O O1 0.562581 0.049805 0.255215
O O2 0.115168 0.197802 0.173633
O O3 0.425102 0.883816 0.227797
O O4 0.248048 0.123614 0.954355
O O5 0.708551 0.092519 0.530321
O O6 0.455501 0.370546 0.580438
O O7 0.919586 0.120207 0.786402
O O8 0.401529 0.730875 0.758588
O O9 0.743879 0.680726 0.702537
O O10 0.950038 0.312580 0.634160
O O11 0.870953 0.393100 0.328853
O O12 0.000000 0.500000 0.500000
O O13 0.762399 0.396997 0.833961
O O14 0.500000 0.500000 0.000000
O O15 0.201162 0.473175 0.958470
#
# Coordination Sequence:
#
# PCOD9006442 Si02
#       7
#     2   2   2   2   2   2   2
#     4   9  23  44  66  85 130 174 206 247 321 378
#     4  12  22  40  68  93 128 163 210 262 317 363
#     4  10  21  38  66  88 123 166 211 251 308 370
#     4  12  22  38  67  97 127 161 213 262 309 369
#     4  11  24  41  65  94 128 166 206 265 317 363
#     4  11  21  37  63  96 123 161 214 263 303 369
#     4   9  21  38  64  87 125 163 212 243 312 368
#
# _framework density 25.785174999999999
#
# number of rings (size 3 to 8) (size 9 to 14) (size 15 to 20)
#    0.857    0.571    2.857    2.571    4.000    0.000 
#    0.000    1.429   12.571    0.000    0.000    0.000 
#    0.000    0.000    0.000    0.000    0.000    0.000 
#
# Total GULP energy -78350.228682 kJ/mol
# GULP energy per Si atom -5596.444906 kJ/mol
# Density = 2.572649 g / cm^3
# Si number density = 25.785175 Si / 1000 Ang^3
#
#
#
# Elastic Constant Matrix: (Units=GPa)
#
#
# Indices 1 2 3 4 5 6 
#
# 1 73.0258 2.4234 -7.0285 -3.4744 5.8626 21.0951
# 2 2.4234 45.4393 12.4432 4.9256 12.3031 5.0888
# 3 -7.0285 12.4432 124.6411 8.1969 -4.4779 11.8712
# 4 -3.4744 4.9256 8.1969 45.6884 7.6661 -4.3263
# 5 5.8626 12.3031 -4.4779 7.6661 42.0041 -1.6451
# 6 21.0951 5.0888 11.8712 -4.3263 -1.6451 43.3378
#
#
#
# Elastic Compliance Matrix: (Units=1/GPa)
#
#
# Indices 1 2 3 4 5 6 
#
# 1 0.016554 0.000304 0.001586 0.000578 -0.002672 -0.008572
# 2 0.000304 0.025151 -0.002410 -0.001260 -0.007548 -0.002853
# 3 0.001586 -0.002410 0.008815 -0.001760 0.001627 -0.003017
# 4 0.000578 -0.001260 -0.001760 0.023302 -0.004053 0.002521
# 5 -0.002672 -0.007548 0.001627 -0.004053 0.027397 0.002376
# 6 -0.008572 -0.002853 -0.003017 0.002521 0.002376 0.028750
#
#
# Mechanical properties :
#
#
# Convention : Reuss Voigt Hill
#
# Bulk Modulus (GPa) = 20.21115 28.75361 24.48238
# Shear Modulus (GPa) = 33.89729 41.89058 37.89393
#
# Velocity S-wave (km/s) = 3.62968 4.03500 3.83770
# Velocity P-wave (km/s) = 5.04196 5.73444 5.39931
#
# Compressibility (1/GPa) = 0.04947763
#
# Stress axis : x y z
#
# Youngs Moduli (GPa) = 60.40671 39.75982 113.44758
#
# Poissons Ratio (x) = -0.01207 -0.17988
# Poissons Ratio (y) = -0.01834 0.27345
# Poissons Ratio (z) = -0.09578 0.09584
#
# Static dielectric constant tensor:
#      x y z
#    x 2.124220 -0.028470 0.035840 
#    y -0.028470 2.043710 0.039130 
#    z 0.035840 0.039130 2.015460 
# 
# From -- ./inp_files/176460.got.cif
#   From: 2010.05.17/outbox.cif.g08.bks.cpg/sg2_89_cif.got.tgz:176460.got - 2010.06.03 11:33:40.
