data_PCOD9006504
_publ_section_title
;
Structure prediction by ZEFSAII (Michael W. Deem and Ramdas Pophale) SiO2 
 PCOD9006504
Probable space group: P -1
;
_chemical_formula_sum "Si O2"
_cell_formula_units_Z 14
_cell_length_a 9.604918
_cell_length_b 10.050592
_cell_length_c 16.651662
_cell_angle_alpha 46.281638
_cell_angle_beta 137.761478
_cell_angle_gamma 147.051930
_cell_volume 576.878150
_symmetry_space_group_name_H-M "P -1"
_symmetry_group_IT_number 2
_symmetry_cell_setting 'triclinic'
loop_
_space_group_symop_operation_xyz
x,y,z
-x,-y,-z
loop_
_atom_site_type_symbol
_atom_site_label
_atom_site_fract_x
_atom_site_fract_y
_atom_site_fract_z
Si Si1 0.978870 0.507899 0.240642
Si Si2 0.816853 0.919335 0.250868
Si Si3 0.910374 0.846524 0.142624
Si Si4 0.569168 0.676220 0.861525
Si Si5 0.135188 0.386083 0.498509
Si Si6 0.139734 0.501551 0.138670
Si Si7 0.602143 0.256226 0.404871
O O1 0.059891 0.744805 0.223490
O O2 0.640356 0.305541 0.192093
O O3 0.129430 0.431617 0.383883
O O4 0.056301 0.555052 0.162206
O O5 0.890612 0.858847 0.224367
O O6 0.903274 0.845467 0.394261
O O7 0.477494 0.726381 0.184173
O O8 0.991067 0.212203 0.204005
O O9 0.592370 0.614086 0.075475
O O10 0.100341 0.116986 0.070960
O O11 0.548175 0.724330 0.738903
O O12 0.388283 0.609525 0.568743
O O13 0.890036 0.369489 0.436602
O O14 0.000000 0.500000 0.000000
O O15 0.500000 0.000000 0.500000
#
# Coordination Sequence:
#
# PCOD9006504 Si02
#       7
#     2   2   2   2   2   2   2
#     4   9  23  42  70  99 145 177 214 265 343 410
#     4  12  25  45  74 102 133 171 231 283 331 403
#     4  10  19  39  67 103 131 171 217 272 323 398
#     4   9  18  32  62  94 138 167 211 249 324 395
#     4  10  19  35  59 106 134 172 210 268 338 400
#     4  12  30  52  69  89 133 190 232 278 343 397
#     4  10  17  28  56  95 146 176 196 253 337 415
#
# _framework density 24.268557000000001
#
# number of rings (size 3 to 8) (size 9 to 14) (size 15 to 20)
#    0.857    0.857    1.429    3.857    4.000    1.143 
#    0.000    1.429    0.000    0.000    0.000    0.000 
#    0.000    0.000    0.000    0.000    0.000    0.000 
#
# Total GULP energy -78135.101302 kJ/mol
# GULP energy per Si atom -5581.078664 kJ/mol
# Density = 2.421332 g / cm^3
# Si number density = 24.268557 Si / 1000 Ang^3
#
#
#
# Elastic Constant Matrix: (Units=GPa)
#
#
# Indices 1 2 3 4 5 6 
#
# 1 120.8900 46.9989 42.0880 2.3812 -27.6583 9.8569
# 2 46.9989 139.4097 35.2341 -24.3611 6.4306 31.5923
# 3 42.0880 35.2341 149.5055 3.9543 -7.0510 2.2658
# 4 2.3812 -24.3611 3.9543 33.9366 -9.8657 5.1822
# 5 -27.6583 6.4306 -7.0510 -9.8657 25.0506 -3.7933
# 6 9.8569 31.5923 2.2658 5.1822 -3.7933 40.0890
#
#
#
# Elastic Compliance Matrix: (Units=1/GPa)
#
#
# Indices 1 2 3 4 5 6 
#
# 1 0.015365 -0.006315 -0.002008 -0.000538 0.018280 0.003111
# 2 -0.006315 0.014965 -0.002274 0.010687 -0.009116 -0.012356
# 3 -0.002008 -0.002274 0.007821 -0.002796 -0.000202 0.002186
# 4 -0.000538 0.010687 -0.002796 0.042545 0.010721 -0.012617
# 5 0.018280 -0.009116 -0.000202 0.010721 0.067777 0.007728
# 6 0.003111 -0.012356 0.002186 -0.012617 0.007728 0.036155
#
#
# Mechanical properties :
#
#
# Convention : Reuss Voigt Hill
#
# Bulk Modulus (GPa) = 58.97338 73.16081 66.06710
# Shear Modulus (GPa) = 23.64329 38.84753 31.24541
#
# Velocity S-wave (km/s) = 3.12466 4.00526 3.59205
# Velocity P-wave (km/s) = 6.11319 7.18340 6.66980
#
# Compressibility (1/GPa) = 0.01695680
#
# Stress axis : x y z
#
# Youngs Moduli (GPa) = 65.08181 66.82290 127.85530
#
# Poissons Ratio (x) = 0.42197 0.25675
# Poissons Ratio (y) = 0.41098 0.29080
# Poissons Ratio (z) = 0.13069 0.15198
#
# Static dielectric constant tensor:
#      x y z
#    x 1.951010 0.014570 -0.002170 
#    y 0.014570 2.074370 0.050590 
#    z -0.002170 0.050590 1.989430 
# 
# From -- ./inp_files/567892.got.cif
#   From: 2010.05.17/outbox.cif.g08.bks.cpg/sg2_284_cif.got.tgz:567892.got - 2010.06.03 11:33:40.
