data_PCOD9006791
_publ_section_title
;
Structure prediction by ZEFSAII (Michael W. Deem and Ramdas Pophale) SiO2 
 PCOD9006791
Probable space group: P -1
;
_chemical_formula_sum "Si O2"
_cell_formula_units_Z 14
_cell_length_a 8.981015
_cell_length_b 12.018893
_cell_length_c 9.313661
_cell_angle_alpha 86.606445
_cell_angle_beta 84.161908
_cell_angle_gamma 129.330444
_cell_volume 763.541043
_symmetry_space_group_name_H-M "P -1"
_symmetry_group_IT_number 2
_symmetry_cell_setting 'triclinic'
loop_
_space_group_symop_operation_xyz
x,y,z
-x,-y,-z
loop_
_atom_site_type_symbol
_atom_site_label
_atom_site_fract_x
_atom_site_fract_y
_atom_site_fract_z
Si Si1 0.130554 0.069560 0.189470
Si Si2 0.480619 0.931614 0.162151
Si Si3 0.125953 0.837110 0.720037
Si Si4 0.525554 0.703812 0.075056
Si Si5 0.098622 0.431460 0.040223
Si Si6 0.137851 0.258457 0.818841
Si Si7 0.131418 0.868521 0.381967
O O1 0.999906 0.113871 0.230388
O O2 0.171570 0.019105 0.334879
O O3 0.324885 0.197610 0.077390
O O4 0.007268 0.916879 0.124423
O O5 0.481244 0.799864 0.147574
O O6 0.287217 0.879025 0.266909
O O7 0.666327 0.053852 0.230376
O O8 0.500000 0.000000 0.000000
O O9 0.146834 0.844850 0.546572
O O10 0.014221 0.677260 0.806913
O O11 0.324928 0.557093 0.048378
O O12 0.646139 0.680257 0.170346
O O13 0.085442 0.335614 0.920122
O O14 0.000000 0.500000 0.000000
O O15 0.081111 0.256034 0.659874
#
# Coordination Sequence:
#
# PCOD9006791 Si02
#       7
#     2   2   2   2   2   2   2
#     4  10  21  38  69  91 120 154 212 258 306 354
#     4  12  21  38  65  93 122 159 213 253 300 361
#     4  12  23  42  62  93 130 162 199 255 317 362
#     4  12  21  38  64  95 118 163 211 258 295 359
#     4  12  26  39  62  91 128 166 207 250 304 372
#     4  10  21  41  63  92 116 161 212 254 301 360
#     4  10  23  38  66  95 124 156 203 263 313 358
#
# _framework density 18.335622000000001
#
# number of rings (size 3 to 8) (size 9 to 14) (size 15 to 20)
#    0.857    0.000    4.286    5.143    0.000    0.000 
#    0.000    3.571    0.000    0.000    0.000    0.000 
#    0.000    0.000    0.000    0.000    0.000    0.000 
#
# Total GULP energy -78166.225657 kJ/mol
# GULP energy per Si atom -5583.301833 kJ/mol
# Density = 1.829389 g / cm^3
# Si number density = 18.335622 Si / 1000 Ang^3
#
#
#
# Elastic Constant Matrix: (Units=GPa)
#
#
# Indices 1 2 3 4 5 6 
#
# 1 124.9632 39.8905 62.8351 0.8897 7.7677 -13.2550
# 2 39.8905 93.0712 55.3204 4.4046 6.1720 10.4399
# 3 62.8351 55.3204 122.3560 15.7070 26.8191 0.9059
# 4 0.8897 4.4046 15.7070 13.6097 2.2102 2.7776
# 5 7.7677 6.1720 26.8191 2.2102 30.0946 6.6970
# 6 -13.2550 10.4399 0.9059 2.7776 6.6970 37.9718
#
#
#
# Elastic Compliance Matrix: (Units=1/GPa)
#
#
# Indices 1 2 3 4 5 6 
#
# 1 0.012309 -0.002326 -0.006463 0.006255 0.001633 0.004345
# 2 -0.002326 0.016707 -0.008100 0.004528 0.005509 -0.006515
# 3 -0.006463 -0.008100 0.020796 -0.019298 -0.014554 0.003453
# 4 0.006255 0.004528 -0.019298 0.093808 0.009347 -0.007112
# 5 0.001633 0.005509 -0.014554 0.009347 0.046054 -0.009404
# 6 0.004345 -0.006515 0.003453 -0.007112 -0.009404 0.031740
#
#
# Mechanical properties :
#
#
# Convention : Reuss Voigt Hill
#
# Bulk Modulus (GPa) = 62.36391 72.94250 67.65320
# Shear Modulus (GPa) = 19.19125 28.49151 23.84138
#
# Velocity S-wave (km/s) = 3.23873 3.94622 3.60985
# Velocity P-wave (km/s) = 6.93340 7.78664 7.37237
#
# Compressibility (1/GPa) = 0.01603492
#
# Stress axis : x y z
#
# Youngs Moduli (GPa) = 81.23871 59.85516 48.08683
#
# Poissons Ratio (x) = 0.13923 0.31077
# Poissons Ratio (y) = 0.18898 0.38949
# Poissons Ratio (z) = 0.52502 0.48481
#
# Static dielectric constant tensor:
#      x y z
#    x 1.656530 -0.001370 0.029280 
#    y -0.001370 1.618090 0.005990 
#    z 0.029280 0.005990 1.630490 
# 
# From -- ./inp_files/183215.got.cif
#   From: 2010.05.17/outbox.cif.g08.bks.cpg/sg2_92_cif.got.tgz:183215.got - 2010.06.03 11:33:40.
