data_PCOD9006434
_publ_section_title
;
Structure prediction by ZEFSAII (Michael W. Deem and Ramdas Pophale) SiO2 
 PCOD9006434
Probable space group: P -1
;
_chemical_formula_sum "Si O2"
_cell_formula_units_Z 14
_cell_length_a 10.419136
_cell_length_b 9.868520
_cell_length_c 13.622604
_cell_angle_alpha 68.834086
_cell_angle_beta 53.314266
_cell_angle_gamma 110.598753
_cell_volume 682.109791
_symmetry_space_group_name_H-M "P -1"
_symmetry_group_IT_number 2
_symmetry_cell_setting 'triclinic'
loop_
_space_group_symop_operation_xyz
x,y,z
-x,-y,-z
loop_
_atom_site_type_symbol
_atom_site_label
_atom_site_fract_x
_atom_site_fract_y
_atom_site_fract_z
Si Si1 0.728770 0.056532 0.417517
Si Si2 0.506303 0.361519 0.258746
Si Si3 0.423859 0.628648 0.177812
Si Si4 0.038197 0.567865 0.641317
Si Si5 0.511105 0.879788 0.240889
Si Si6 0.429101 0.774743 0.937080
Si Si7 0.967858 0.302944 0.051583
O O1 0.846947 0.211658 0.417622
O O2 0.922854 0.199661 0.204840
O O3 0.500000 0.000000 0.500000
O O4 0.647150 0.841957 0.543262
O O5 0.401194 0.442990 0.253743
O O6 0.550824 0.296856 0.155821
O O7 0.767972 0.566716 0.138063
O O8 0.579105 0.812834 0.143451
O O9 0.154531 0.518181 0.331069
O O10 0.515531 0.733903 0.999004
O O11 0.281343 0.658455 0.466089
O O12 0.853276 0.379384 0.859487
O O13 0.431263 0.976451 0.200172
O O14 0.735827 0.089745 0.150565
O O15 0.000000 0.500000 0.000000
#
# Coordination Sequence:
#
# PCOD9006434 Si02
#       7
#     2   2   2   2   2   2   2
#     4  12  20  37  65  95 111 159 209 253 295 350
#     4  12  23  41  60  94 126 154 205 257 299 358
#     4  10  26  40  58  92 132 157 196 253 314 356
#     4  10  21  38  66  86 121 154 213 244 300 354
#     4  12  21  42  64  90 119 163 206 250 300 365
#     4  10  21  39  66  87 118 165 203 247 294 364
#     4  12  21  38  68  90 117 156 213 252 293 360
#
# _framework density 20.524556
#
# number of rings (size 3 to 8) (size 9 to 14) (size 15 to 20)
#    0.857    0.000    7.143    1.286    0.000    1.143 
#    2.571    0.714    0.000    0.000    0.000    0.000 
#    0.000    0.000    0.000    0.000    0.000    0.000 
#
# Total GULP energy -77995.390164 kJ/mol
# GULP energy per Si atom -5571.099297 kJ/mol
# Density = 2.047784 g / cm^3
# Si number density = 20.524556 Si / 1000 Ang^3
#
#
#
# Elastic Constant Matrix: (Units=GPa)
#
#
# Indices 1 2 3 4 5 6 
#
# 1 42.4986 23.2535 9.6609 -1.7796 20.7070 4.9519
# 2 23.2535 76.8041 17.4181 -8.9754 14.5008 8.4090
# 3 9.6609 17.4181 93.9629 -4.0937 24.3318 2.8502
# 4 -1.7796 -8.9754 -4.0937 11.2036 1.1763 0.3392
# 5 20.7070 14.5008 24.3318 1.1763 37.4509 -10.1117
# 6 4.9519 8.4090 2.8502 0.3392 -10.1117 24.5897
#
#
#
# Elastic Compliance Matrix: (Units=1/GPa)
#
#
# Indices 1 2 3 4 5 6 
#
# 1 0.043083 -0.005141 0.005636 0.008696 -0.031320 -0.020571
# 2 -0.005141 0.018607 -0.000212 0.014995 -0.006955 -0.008370
# 3 0.005636 -0.000212 0.014691 0.007978 -0.015305 -0.009169
# 4 0.008696 0.014995 0.007978 0.108718 -0.024437 -0.019352
# 5 -0.031320 -0.006955 -0.015305 -0.024437 0.067874 0.038708
# 6 -0.020571 -0.008370 -0.009169 -0.019352 0.038708 0.064919
#
#
# Mechanical properties :
#
#
# Convention : Reuss Voigt Hill
#
# Bulk Modulus (GPa) = 12.99585 34.88119 23.93852
# Shear Modulus (GPa) = 14.57837 25.51106 20.04471
#
# Velocity S-wave (km/s) = 2.66802 3.52938 3.12848
# Velocity P-wave (km/s) = 3.97953 5.80004 4.97379
#
# Compressibility (1/GPa) = 0.07694762
#
# Stress axis : x y z
#
# Youngs Moduli (GPa) = 23.21111 53.74450 68.06691
#
# Poissons Ratio (x) = 0.27628 -0.38365
# Poissons Ratio (y) = 0.11932 0.01446
# Poissons Ratio (z) = -0.13083 0.01142
#
# Static dielectric constant tensor:
#      x y z
#    x 1.792950 0.018510 -0.023430 
#    y 0.018510 1.717400 0.022110 
#    z -0.023430 0.022110 1.861100 
# 
# From -- ./inp_files/514177.got.cif
#   From: 2010.05.17/outbox.cif.g08.bks.cpg/sg2_258_cif.got.tgz:514177.got - 2010.06.03 11:33:40.
