data_PCOD9006950
_publ_section_title
;
Structure prediction by ZEFSAII (Michael W. Deem and Ramdas Pophale) SiO2 
 PCOD9006950
Probable space group: P -1
;
_chemical_formula_sum "Si O2"
_cell_formula_units_Z 16
_cell_length_a 8.509513
_cell_length_b 16.429080
_cell_length_c 8.443213
_cell_angle_alpha 48.136664
_cell_angle_beta 126.252120
_cell_angle_gamma 119.055360
_cell_volume 700.723281
_symmetry_space_group_name_H-M "P -1"
_symmetry_group_IT_number 2
_symmetry_cell_setting 'triclinic'
loop_
_space_group_symop_operation_xyz
x,y,z
-x,-y,-z
loop_
_atom_site_type_symbol
_atom_site_label
_atom_site_fract_x
_atom_site_fract_y
_atom_site_fract_z
Si Si1 0.519431 0.873651 0.624338
Si Si2 0.604428 0.941951 0.273941
Si Si3 0.069061 0.151973 0.995355
Si Si4 0.210151 0.841015 0.709221
Si Si5 0.899940 0.609678 0.288657
Si Si6 0.941156 0.628969 0.942100
Si Si7 0.265612 0.459912 0.386758
Si Si8 0.119570 0.090525 0.764306
O O1 0.463775 0.872955 0.407388
O O2 0.396368 0.802631 0.780006
O O3 0.500000 0.000000 0.500000
O O4 0.742153 0.848283 0.779448
O O5 0.739274 0.871539 0.346225
O O6 0.730337 0.046475 0.303547
O O7 0.500000 0.000000 0.000000
O O8 0.982558 0.265515 0.799580
O O9 0.173050 0.133426 0.913249
O O10 0.918185 0.042255 0.080311
O O11 0.071611 0.749429 0.843786
O O12 0.087019 0.872160 0.445248
O O13 0.785342 0.604671 0.393746
O O14 0.000000 0.500000 0.500000
O O15 0.819066 0.608669 0.060390
O O16 0.802837 0.604679 0.734948
O O17 0.116315 0.552065 0.163675
O O18 0.500000 0.500000 0.500000
#
# Coordination Sequence:
#
# PCOD9006950 Si02
#       8
#     2   2   2   2   2   2   2   2
#     4  10  21  39  57  89 137 173 216 269 323 403
#     4  11  23  38  57  91 138 180 223 269 319 401
#     4  11  22  38  66  92 131 175 222 272 339 396
#     4  11  22  40  62  93 134 176 221 267 335 410
#     4  10  23  44  69  98 132 176 233 284 338 412
#     4  10  23  44  71  95 135 178 220 289 350 400
#     4  10  23  46  71 100 131 168 229 292 348 412
#     4  11  22  36  64  93 131 175 220 270 336 404
#
# _framework density 22.833549999999999
#
# number of rings (size 3 to 8) (size 9 to 14) (size 15 to 20)
#    0.000    1.500    2.500    3.375    5.250    0.500 
#    4.500    0.000    2.750    0.000    0.000    0.000 
#    0.000    0.000    0.000    0.000    0.000    0.000 
#
# Total GULP energy -89071.656231 kJ/mol
# GULP energy per Si atom -5566.978514 kJ/mol
# Density = 2.278158 g / cm^3
# Si number density = 22.833550 Si / 1000 Ang^3
#
#
#
# Elastic Constant Matrix: (Units=GPa)
#
#
# Indices 1 2 3 4 5 6 
#
# 1 95.9934 13.7569 43.2175 16.7836 -36.7928 -5.3529
# 2 13.7569 52.0119 44.1216 -8.1481 -5.9056 0.8439
# 3 43.2175 44.1216 99.7680 13.0101 -20.9871 4.5973
# 4 16.7836 -8.1481 13.0101 45.8375 -8.7774 1.3505
# 5 -36.7928 -5.9056 -20.9871 -8.7774 54.7285 6.8822
# 6 -5.3529 0.8439 4.5973 1.3505 6.8822 23.9475
#
#
#
# Elastic Compliance Matrix: (Units=1/GPa)
#
#
# Indices 1 2 3 4 5 6 
#
# 1 0.016649 0.000738 -0.005517 -0.002868 0.008382 0.002508
# 2 0.000738 0.035729 -0.017843 0.010896 -0.000995 0.002003
# 3 -0.005517 -0.017843 0.021911 -0.006776 0.002322 -0.005096
# 4 -0.002868 0.010896 -0.006776 0.026999 0.001179 -0.001586
# 5 0.008382 -0.000995 0.002322 0.001179 0.025630 -0.005969
# 6 0.002508 0.002003 -0.005096 -0.001586 -0.005969 0.045031
#
#
# Mechanical properties :
#
#
# Convention : Reuss Voigt Hill
#
# Bulk Modulus (GPa) = 34.42911 49.99613 42.21262
# Shear Modulus (GPa) = 22.03873 34.68117 28.35995
#
# Velocity S-wave (km/s) = 3.11012 3.90150 3.52807
# Velocity P-wave (km/s) = 5.29228 6.49915 5.92652
#
# Compressibility (1/GPa) = 0.02904519
#
# Stress axis : x y z
#
# Youngs Moduli (GPa) = 60.06282 27.98880 45.63965
#
# Poissons Ratio (x) = -0.02065 0.25179
# Poissons Ratio (y) = -0.04432 0.81434
# Poissons Ratio (z) = 0.33136 0.49940
#
# Static dielectric constant tensor:
#      x y z
#    x 1.742800 0.065940 -0.044250 
#    y 0.065940 1.840600 0.001910 
#    z -0.044250 0.001910 1.873600 
# 
# From -- ./inp_files/216860.got.cif
#   From: 2010.05.17/outbox.cif.g08.bks.cpg/sg2_109_cif.got.tgz:216860.got - 2010.06.03 11:33:40.
