data_PCOD9006053
_publ_section_title
;
Structure prediction by ZEFSAII (Michael W. Deem and Ramdas Pophale) SiO2 
 PCOD9006053
Probable space group: P -1
;
_chemical_formula_sum "Si O2"
_cell_formula_units_Z 12
_cell_length_a 8.217139
_cell_length_b 9.585324
_cell_length_c 13.353815
_cell_angle_alpha 48.218405
_cell_angle_beta 85.007049
_cell_angle_gamma 122.987166
_cell_volume 457.147781
_symmetry_space_group_name_H-M "P -1"
_symmetry_group_IT_number 2
_symmetry_cell_setting 'triclinic'
loop_
_space_group_symop_operation_xyz
x,y,z
-x,-y,-z
loop_
_atom_site_type_symbol
_atom_site_label
_atom_site_fract_x
_atom_site_fract_y
_atom_site_fract_z
Si Si1 0.009253 0.360339 0.787435
Si Si2 0.705623 0.012862 0.585468
Si Si3 0.470291 0.490823 0.724932
Si Si4 0.278153 0.355731 0.001570
Si Si5 0.741121 0.393985 0.644751
Si Si6 0.821564 0.169842 0.119064
O O1 0.786323 0.244575 0.777362
O O2 0.226360 0.736422 0.596317
O O3 0.220774 0.384116 0.742120
O O4 0.868121 0.215368 0.973698
O O5 0.937931 0.236556 0.555455
O O6 0.716505 0.855429 0.577892
O O7 0.407998 0.676888 0.805107
O O8 0.319875 0.273910 0.938401
O O9 0.600353 0.441263 0.683410
O O10 0.500000 0.500000 0.000000
O O11 0.970118 0.113637 0.170436
O O12 0.509981 0.135915 0.696520
O O13 0.000000 0.500000 0.000000
#
# Coordination Sequence:
#
# PCOD9006053 Si02
#       6
#     2   2   2   2   2   2
#     4   9  20  37  65  91 121 151 207 246 299 350
#     4   8  19  36  64  91 117 156 205 243 301 355
#     4   9  18  36  65  91 117 156 201 248 295 362
#     4   9  21  38  58  89 125 159 193 246 311 352
#     4  10  21  38  64  94 115 158 209 246 295 358
#     4  11  24  40  58  88 128 159 199 251 307 352
#
# _framework density 26.249718999999999
#
# number of rings (size 3 to 8) (size 9 to 14) (size 15 to 20)
#    2.000    0.667    0.000    1.500    2.333    2.667 
#    3.000    1.667    0.000    0.000    0.000    0.000 
#    0.000    0.000    0.000    0.000    0.000    0.000 
#
# Total GULP energy -66803.759514 kJ/mol
# GULP energy per Si atom -5566.979960 kJ/mol
# Density = 2.618997 g / cm^3
# Si number density = 26.249719 Si / 1000 Ang^3
#
#
#
# Elastic Constant Matrix: (Units=GPa)
#
#
# Indices 1 2 3 4 5 6 
#
# 1 160.1234 33.4123 19.3057 4.1437 -8.8661 4.6420
# 2 33.4123 74.4562 16.6359 -20.2755 -6.1664 6.7643
# 3 19.3057 16.6359 65.8864 -16.0391 -11.8454 9.7391
# 4 4.1437 -20.2755 -16.0391 39.7909 13.9951 -6.8229
# 5 -8.8661 -6.1664 -11.8454 13.9951 36.8723 -3.6349
# 6 4.6420 6.7643 9.7391 -6.8229 -3.6349 48.4133
#
#
#
# Elastic Compliance Matrix: (Units=1/GPa)
#
#
# Indices 1 2 3 4 5 6 
#
# 1 0.007532 -0.003950 -0.001839 -0.004350 0.002186 -0.000249
# 2 -0.003950 0.018022 -0.001313 0.009690 -0.002101 -0.000667
# 3 -0.001839 -0.001313 0.018241 0.005457 0.002898 -0.002323
# 4 -0.004350 0.009690 0.005457 0.037187 -0.011556 0.002339
# 5 0.002186 -0.002101 0.002898 -0.011556 0.032644 0.000323
# 6 -0.000249 -0.000667 -0.002323 0.002339 0.000323 0.021594
#
#
# Mechanical properties :
#
#
# Convention : Reuss Voigt Hill
#
# Bulk Modulus (GPa) = 33.79423 48.79707 41.29565
# Shear Modulus (GPa) = 31.38987 40.42280 35.90634
#
# Velocity S-wave (km/s) = 3.46181 3.92845 3.70249
# Velocity P-wave (km/s) = 5.37410 6.26154 5.83472
#
# Compressibility (1/GPa) = 0.02959085
#
# Stress axis : x y z
#
# Youngs Moduli (GPa) = 132.76803 55.48785 54.82197
#
# Poissons Ratio (x) = 0.21918 0.10080
# Poissons Ratio (y) = 0.52443 0.07200
# Poissons Ratio (z) = 0.24411 0.07288
#
# Static dielectric constant tensor:
#      x y z
#    x 2.165340 -0.048660 0.044570 
#    y -0.048660 2.256450 -0.030400 
#    z 0.044570 -0.030400 2.094170 
# 
# From -- ./inp_files/338870.got.cif
#   From: 2010.05.17/outbox.cif.g08.bks.cpg/sg2_170_cif.got.tgz:338870.got - 2010.06.03 11:33:40.
