data_PCOD9006352
_publ_section_title
;
Structure prediction by ZEFSAII (Michael W. Deem and Ramdas Pophale) SiO2 
 PCOD9006352
Probable space group: P -1
;
_chemical_formula_sum "Si O2"
_cell_formula_units_Z 16
_cell_length_a 22.958980
_cell_length_b 21.091472
_cell_length_c 5.845390
_cell_angle_alpha 135.278087
_cell_angle_beta 58.291579
_cell_angle_gamma 157.340540
_cell_volume 673.214044
_symmetry_space_group_name_H-M "P -1"
_symmetry_group_IT_number 2
_symmetry_cell_setting 'triclinic'
loop_
_space_group_symop_operation_xyz
x,y,z
-x,-y,-z
loop_
_atom_site_type_symbol
_atom_site_label
_atom_site_fract_x
_atom_site_fract_y
_atom_site_fract_z
Si Si1 0.505006 0.175109 0.020630
Si Si2 0.094892 0.781166 0.332216
Si Si3 0.236818 0.586028 0.234934
Si Si4 0.870830 0.621385 0.665160
Si Si5 0.812122 0.283440 0.213897
Si Si6 0.032813 0.001154 0.182186
Si Si7 0.373714 0.377497 0.640570
Si Si8 0.375257 0.208538 0.508870
O O1 0.676100 0.373058 0.334112
O O2 0.442747 0.203987 0.213382
O O3 0.579791 0.218912 0.749286
O O4 0.340982 0.928358 0.839301
O O5 0.031702 0.746442 0.611896
O O6 0.230981 0.000985 0.458177
O O7 0.172082 0.773511 0.161240
O O8 0.908022 0.561205 0.027809
O O9 0.159670 0.409607 0.081343
O O10 0.232771 0.667393 0.622303
O O11 0.940436 0.793763 0.843793
O O12 0.000000 0.500000 0.500000
O O13 0.233609 0.244858 0.419742
O O14 0.000000 0.000000 0.500000
O O15 0.000000 0.000000 0.000000
O O16 0.500000 0.500000 0.500000
O O17 0.314115 0.219288 0.509197
O O18 0.461283 0.554910 0.082478
#
# Coordination Sequence:
#
# PCOD9006352 Si02
#       8
#     2   2   2   2   2   2   2   2
#     4  10  22  39  64  95 137 176 224 287 348 429
#     4   9  20  40  64  91 134 174 228 286 347 421
#     4  10  21  38  65  96 135 176 230 280 355 425
#     4  11  24  40  65  95 132 181 232 290 353 421
#     4   9  19  40  66  96 130 178 220 284 355 424
#     4  12  30  47  74 105 148 195 246 301 367 435
#     4  11  25  41  69  98 135 183 240 302 359 427
#     4  10  22  41  65  96 137 180 239 291 360 420
#
# _framework density 23.766587000000001
#
# number of rings (size 3 to 8) (size 9 to 14) (size 15 to 20)
#    0.000    1.750    0.000    2.625   10.500    2.000 
#    0.000    6.250    0.000    0.000    0.000    0.000 
#    0.000    0.000    0.000    0.000    0.000    0.000 
#
# Total GULP energy -89199.958192 kJ/mol
# GULP energy per Si atom -5574.997387 kJ/mol
# Density = 2.371249 g / cm^3
# Si number density = 23.766587 Si / 1000 Ang^3
#
#
#
# Elastic Constant Matrix: (Units=GPa)
#
#
# Indices 1 2 3 4 5 6 
#
# 1 153.2526 93.6449 42.1662 52.4108 22.0183 4.0936
# 2 93.6449 213.4327 41.6115 39.9515 1.8898 24.8163
# 3 42.1662 41.6115 59.5410 11.9676 -2.7116 5.7471
# 4 52.4108 39.9515 11.9676 76.5107 18.8969 -2.4367
# 5 22.0183 1.8898 -2.7116 18.8969 44.1126 2.6722
# 6 4.0936 24.8163 5.7471 -2.4367 2.6722 33.4468
#
#
#
# Elastic Compliance Matrix: (Units=1/GPa)
#
#
# Indices 1 2 3 4 5 6 
#
# 1 0.012579 -0.003769 -0.005802 -0.004512 -0.004680 0.002299
# 2 -0.003769 0.007610 -0.001631 -0.001948 0.002608 -0.005255
# 3 -0.005802 -0.001631 0.022434 0.000154 0.004417 -0.002276
# 4 -0.004512 -0.001948 0.000154 0.018735 -0.005911 0.003808
# 5 -0.004680 0.002608 0.004417 -0.005911 0.027987 -0.004788
# 6 0.002299 -0.005255 -0.002276 0.003808 -0.004788 0.034567
#
#
# Mechanical properties :
#
#
# Convention : Reuss Voigt Hill
#
# Bulk Modulus (GPa) = 49.46313 86.78572 68.12442
# Shear Modulus (GPa) = 32.66778 47.40094 40.03436
#
# Velocity S-wave (km/s) = 3.71148 4.47076 4.10870
# Velocity P-wave (km/s) = 6.26291 7.95269 7.15784
#
# Compressibility (1/GPa) = 0.02021708
#
# Stress axis : x y z
#
# Youngs Moduli (GPa) = 79.49954 131.41298 44.57480
#
# Poissons Ratio (x) = 0.49531 0.25863
# Poissons Ratio (y) = 0.29965 0.07272
# Poissons Ratio (z) = 0.46127 0.21439
#
# Static dielectric constant tensor:
#      x y z
#    x 1.801500 0.016330 -0.158070 
#    y 0.016330 1.814800 -0.043040 
#    z -0.158070 -0.043040 1.902360 
# 
# From -- ./inp_files/112771.got.cif
#   From: 2010.05.17/outbox.cif.g08.bks.cpg/sg2_57_cif.got.tgz:112771.got - 2010.06.03 11:33:40.
