data_PCOD9006602
_publ_section_title
;
Structure prediction by ZEFSAII (Michael W. Deem and Ramdas Pophale) SiO2 
 PCOD9006602
Probable space group: P -1
;
_chemical_formula_sum "Si O2"
_cell_formula_units_Z 12
_cell_length_a 17.269658
_cell_length_b 7.944511
_cell_length_c 5.245494
_cell_angle_alpha 89.188103
_cell_angle_beta 66.816979
_cell_angle_gamma 47.354039
_cell_volume 451.404780
_symmetry_space_group_name_H-M "P -1"
_symmetry_group_IT_number 2
_symmetry_cell_setting 'triclinic'
loop_
_space_group_symop_operation_xyz
x,y,z
-x,-y,-z
loop_
_atom_site_type_symbol
_atom_site_label
_atom_site_fract_x
_atom_site_fract_y
_atom_site_fract_z
Si Si1 0.427673 0.659893 0.843228
Si Si2 0.663528 0.830244 0.114576
Si Si3 0.233203 0.829201 0.764481
Si Si4 0.112273 0.302140 0.043088
Si Si5 0.298737 0.411549 0.421906
Si Si6 0.989488 0.168018 0.314438
O O1 0.500000 0.500000 0.500000
O O2 0.300278 0.743038 0.954349
O O3 0.401627 0.897693 0.867859
O O4 0.500000 0.500000 0.000000
O O5 0.810404 0.662828 0.935350
O O6 0.641476 0.782650 0.421193
O O7 0.644289 0.725443 0.916648
O O8 0.302269 0.599999 0.500554
O O9 0.214631 0.054697 0.734507
O O10 0.091684 0.978044 0.968309
O O11 0.000000 0.500000 0.000000
O O12 0.055379 0.248025 0.314727
O O13 0.150678 0.593636 0.589706
O O14 0.000000 0.000000 0.500000
#
# Coordination Sequence:
#
# PCOD9006602 Si02
#       6
#     2   2   2   2   2   2
#     4  11  25  50  74  98 132 181 243 302 349 408
#     4  11  24  44  68 105 134 184 231 294 339 422
#     4   9  23  42  67 101 139 188 229 284 350 415
#     4   9  19  42  63  98 144 187 237 269 340 416
#     4  12  23  42  68 102 151 178 224 279 357 425
#     4  10  21  38  67 105 149 188 225 271 353 423
#
# _framework density 26.583679
#
# number of rings (size 3 to 8) (size 9 to 14) (size 15 to 20)
#    1.000    0.667    1.667    2.500    0.000    4.667 
#    6.000    5.000    0.000    0.000    0.000    0.000 
#    0.000    0.000    0.000    0.000    0.000    0.000 
#
# Total GULP energy -67074.339505 kJ/mol
# GULP energy per Si atom -5589.528292 kJ/mol
# Density = 2.652317 g / cm^3
# Si number density = 26.583679 Si / 1000 Ang^3
#
#
#
# Elastic Constant Matrix: (Units=GPa)
#
#
# Indices 1 2 3 4 5 6 
#
# 1 120.7351 35.5628 26.0101 0.7240 27.9710 -9.9196
# 2 35.5628 175.6184 55.5210 -4.7781 36.3093 -23.7101
# 3 26.0101 55.5210 86.2477 -4.8199 29.0063 -1.6293
# 4 0.7240 -4.7781 -4.8199 39.3903 4.0456 1.7515
# 5 27.9710 36.3093 29.0063 4.0456 57.8167 6.2030
# 6 -9.9196 -23.7101 -1.6293 1.7515 6.2030 49.9802
#
#
#
# Elastic Compliance Matrix: (Units=1/GPa)
#
#
# Indices 1 2 3 4 5 6 
#
# 1 0.009809 -0.000453 -0.001264 -0.000071 -0.004057 0.002197
# 2 -0.000453 0.008339 -0.003920 0.000720 -0.003547 0.004153
# 3 -0.001264 -0.003920 0.016334 0.002122 -0.005161 -0.001012
# 4 -0.000071 0.000720 0.002122 0.026078 -0.003295 -0.000108
# 5 -0.004057 -0.003547 -0.005161 -0.003295 0.024911 -0.005632
# 6 0.002197 0.004153 -0.001012 -0.000108 -0.005632 0.023084
#
#
# Mechanical properties :
#
#
# Convention : Reuss Voigt Hill
#
# Bulk Modulus (GPa) = 43.08872 68.53212 55.81042
# Shear Modulus (GPa) = 39.19524 47.13792 43.16658
#
# Velocity S-wave (km/s) = 3.84397 4.21550 4.03401
# Velocity P-wave (km/s) = 5.99545 7.03773 6.53739
#
# Compressibility (1/GPa) = 0.02320793
#
# Stress axis : x y z
#
# Youngs Moduli (GPa) = 101.94336 119.92156 61.22034
#
# Poissons Ratio (x) = 0.05434 0.07741
# Poissons Ratio (y) = 0.04619 0.23997
# Poissons Ratio (z) = 0.12890 0.47006
#
# Static dielectric constant tensor:
#      x y z
#    x 2.203310 0.026080 0.000820 
#    y 0.026080 2.142330 0.105340 
#    z 0.000820 0.105340 2.191250 
# 
# From -- ./inp_files/115113.got.cif
#   From: 2010.05.17/outbox.cif.g08.bks.cpg/sg2_58_cif.got.tgz:115113.got - 2010.06.03 11:33:40.
