data_PCOD9006004
_publ_section_title
;
Structure prediction by ZEFSAII (Michael W. Deem and Ramdas Pophale) SiO2 
 PCOD9006004
Probable space group: P -1
;
_chemical_formula_sum "Si O2"
_cell_formula_units_Z 16
_cell_length_a 7.443947
_cell_length_b 28.252149
_cell_length_c 13.689577
_cell_angle_alpha 18.959002
_cell_angle_beta 136.117023
_cell_angle_gamma 137.448752
_cell_volume 628.742567
_symmetry_space_group_name_H-M "P -1"
_symmetry_group_IT_number 2
_symmetry_cell_setting 'triclinic'
loop_
_space_group_symop_operation_xyz
x,y,z
-x,-y,-z
loop_
_atom_site_type_symbol
_atom_site_label
_atom_site_fract_x
_atom_site_fract_y
_atom_site_fract_z
Si Si1 0.273043 0.150788 0.195475
Si Si2 0.012576 0.167842 0.601940
Si Si3 0.818350 0.204338 0.791961
Si Si4 0.118716 0.809024 0.860316
Si Si5 0.823234 0.563904 0.727255
Si Si6 0.364194 0.933572 0.202391
Si Si7 0.117198 0.658450 0.960480
Si Si8 0.723603 0.405293 0.531310
O O1 0.575506 0.246450 0.116313
O O2 0.107365 0.184129 0.161138
O O3 0.236890 0.971354 0.541231
O O4 0.117042 0.196482 0.951096
O O5 0.703872 0.118109 0.612782
O O6 0.045908 0.269664 0.322016
O O7 0.135828 0.265727 0.553394
O O8 0.154330 0.035311 0.900541
O O9 0.703700 0.194314 0.656859
O O10 0.749198 0.336943 0.568741
O O11 0.649789 0.043937 0.084261
O O12 0.019470 0.691112 0.964258
O O13 0.335807 0.741865 0.134126
O O14 0.505653 0.506370 0.726368
O O15 0.892203 0.508723 0.755957
O O16 0.000000 0.500000 0.000000
O O17 0.000000 0.500000 0.500000
#
# Coordination Sequence:
#
# PCOD9006004 Si02
#       8
#     2   2   2   2   2   2   2   2
#     4  10  22  40  62  98 129 160 209 274 322 383
#     4  10  22  38  61  89 126 165 213 260 322 382
#     4  10  21  39  63  92 127 159 212 267 321 377
#     4  10  23  38  64  94 127 168 208 267 323 381
#     4  10  22  41  59  87 130 168 209 266 316 384
#     4  10  21  38  64  92 119 169 208 266 319 384
#     4  11  23  40  63  93 127 172 213 261 324 388
#     4  11  23  42  66  93 131 171 216 267 324 388
#
# _framework density 25.447614999999999
#
# number of rings (size 3 to 8) (size 9 to 14) (size 15 to 20)
#    0.000    1.750    1.250    2.625    5.250    2.500 
#    0.000    0.000    0.000    5.250    0.000    0.000 
#    0.000    0.000    0.000    0.000    0.000    0.000 
#
# Total GULP energy -89470.613816 kJ/mol
# GULP energy per Si atom -5591.913364 kJ/mol
# Density = 2.538970 g / cm^3
# Si number density = 25.447615 Si / 1000 Ang^3
#
#
#
# Elastic Constant Matrix: (Units=GPa)
#
#
# Indices 1 2 3 4 5 6 
#
# 1 85.8517 41.5291 15.4306 1.2378 9.1564 -24.2055
# 2 41.5291 106.7878 28.0842 -17.7708 25.5883 -23.9446
# 3 15.4306 28.0842 84.9558 -0.5727 20.6432 -8.5304
# 4 1.2378 -17.7708 -0.5727 43.8206 -6.8640 8.0228
# 5 9.1564 25.5883 20.6432 -6.8640 33.2962 -5.0059
# 6 -24.2055 -23.9446 -8.5304 8.0228 -5.0059 52.6990
#
#
#
# Elastic Compliance Matrix: (Units=1/GPa)
#
#
# Indices 1 2 3 4 5 6 
#
# 1 0.015945 -0.005522 -0.000638 -0.003619 0.000303 0.005292
# 2 -0.005522 0.015195 -0.001864 0.004612 -0.007656 0.002637
# 3 -0.000638 -0.001864 0.014413 -0.001879 -0.007602 0.000757
# 4 -0.003619 0.004612 -0.001879 0.025947 0.003440 -0.003495
# 5 0.000303 -0.007656 -0.007602 0.003440 0.041077 -0.001192
# 6 0.005292 0.002637 0.000757 -0.003495 -0.001192 0.023146
#
#
# Mechanical properties :
#
#
# Convention : Reuss Voigt Hill
#
# Bulk Modulus (GPa) = 33.88994 49.74256 41.81625
# Shear Modulus (GPa) = 30.93942 38.79990 34.86966
#
# Velocity S-wave (km/s) = 3.49063 3.90897 3.70571
# Velocity P-wave (km/s) = 5.43989 6.32162 5.89726
#
# Compressibility (1/GPa) = 0.02950728
#
# Stress axis : x y z
#
# Youngs Moduli (GPa) = 62.71369 65.80981 69.38029
#
# Poissons Ratio (x) = 0.36339 0.04423
# Poissons Ratio (y) = 0.34630 0.12932
# Poissons Ratio (z) = 0.03998 0.12267
#
# Static dielectric constant tensor:
#      x y z
#    x 2.120450 0.058230 -0.084640 
#    y 0.058230 2.032350 -0.057800 
#    z -0.084640 -0.057800 2.043780 
# 
# From -- ./inp_files/509198.got.cif
#   From: 2010.05.17/outbox.cif.g08.bks.cpg/sg2_255_cif.got.tgz:509198.got - 2010.06.03 11:33:40.
