data_PCOD9006918
_publ_section_title
;
Structure prediction by ZEFSAII (Michael W. Deem and Ramdas Pophale) SiO2 
 PCOD9006918
Probable space group: P -1
;
_chemical_formula_sum "Si O2"
_cell_formula_units_Z 16
_cell_length_a 14.862192
_cell_length_b 8.157397
_cell_length_c 16.598944
_cell_angle_alpha 73.294211
_cell_angle_beta 129.941651
_cell_angle_gamma 65.259368
_cell_volume 843.221435
_symmetry_space_group_name_H-M "P -1"
_symmetry_group_IT_number 2
_symmetry_cell_setting 'triclinic'
loop_
_space_group_symop_operation_xyz
x,y,z
-x,-y,-z
loop_
_atom_site_type_symbol
_atom_site_label
_atom_site_fract_x
_atom_site_fract_y
_atom_site_fract_z
Si Si1 0.905892 0.160925 0.639599
Si Si2 0.857696 0.409360 0.083478
Si Si3 0.556464 0.477586 0.287524
Si Si4 0.617726 0.408801 0.000293
Si Si5 0.532834 0.181683 0.436102
Si Si6 0.915351 0.274948 0.951693
Si Si7 0.253560 0.103327 0.103276
Si Si8 0.413965 0.246499 0.525467
O O1 0.767307 0.323734 0.455980
O O2 0.771987 0.416709 0.594435
O O3 0.943868 0.914802 0.717065
O O4 0.142483 0.944856 0.806810
O O5 0.663497 0.557039 0.995847
O O6 0.861291 0.327878 0.006883
O O7 0.845361 0.625488 0.042136
O O8 0.512349 0.489670 0.167434
O O9 0.553741 0.313822 0.367527
O O10 0.365800 0.824191 0.155620
O O11 0.500000 0.500000 0.000000
O O12 0.290280 0.426777 0.254022
O O13 0.540073 0.195683 0.534862
O O14 0.648859 0.868727 0.522605
O O15 0.084809 0.215778 0.045146
O O16 0.000000 0.000000 0.000000
O O17 0.429968 0.968746 0.280548
#
# Coordination Sequence:
#
# PCOD9006918 Si02
#       8
#     2   2   2   2   2   2   2   2
#     4   9  23  39  61  89 119 158 197 247 300 357
#     4  10  21  39  56  88 121 159 199 250 298 348
#     4  11  22  39  62  87 122 160 196 248 304 356
#     4  10  22  44  68  88 114 151 202 262 313 357
#     4  11  21  34  54  88 124 167 201 239 284 354
#     4  12  20  33  54  84 120 164 204 230 290 348
#     4  11  22  35  59  86 127 165 195 243 291 360
#     4  10  22  35  54  86 126 161 205 239 286 355
#
# _framework density 18.974851000000001
#
# number of rings (size 3 to 8) (size 9 to 14) (size 15 to 20)
#    0.750    0.750    3.750    1.125    3.500    2.500 
#    0.000    0.625    0.000    6.750    0.000    0.000 
#    0.000    0.000    0.000    0.000    0.000    0.000 
#
# Total GULP energy -89124.655229 kJ/mol
# GULP energy per Si atom -5570.290952 kJ/mol
# Density = 1.893166 g / cm^3
# Si number density = 18.974851 Si / 1000 Ang^3
#
#
#
# Elastic Constant Matrix: (Units=GPa)
#
#
# Indices 1 2 3 4 5 6 
#
# 1 100.5019 53.4363 27.6946 -6.0252 -11.8149 -9.4858
# 2 53.4363 85.8219 41.0455 -6.4586 -17.4113 1.3504
# 3 27.6946 41.0455 98.7961 -4.7466 -1.5202 -5.9795
# 4 -6.0252 -6.4586 -4.7466 24.9983 2.3593 -7.1473
# 5 -11.8149 -17.4113 -1.5202 2.3593 21.8553 0.3422
# 6 -9.4858 1.3504 -5.9795 -7.1473 0.3422 19.1222
#
#
#
# Elastic Compliance Matrix: (Units=1/GPa)
#
#
# Indices 1 2 3 4 5 6 
#
# 1 0.016661 -0.010455 0.000549 0.004519 0.000058 0.010863
# 2 -0.010455 0.024760 -0.007859 -0.001884 0.013892 -0.010345
# 3 0.000549 -0.007859 0.013678 0.003022 -0.005438 0.006331
# 4 0.004519 -0.001884 0.003022 0.047651 -0.004324 0.021208
# 5 0.000058 0.013892 -0.005438 -0.004324 0.057025 -0.005290
# 6 0.010863 -0.010345 0.006331 0.021208 -0.005290 0.068416
#
#
# Mechanical properties :
#
#
# Convention : Reuss Voigt Hill
#
# Bulk Modulus (GPa) = 51.10407 58.83027 54.96717
# Shear Modulus (GPa) = 18.50185 24.05805 21.27995
#
# Velocity S-wave (km/s) = 3.12600 3.56461 3.35249
# Velocity P-wave (km/s) = 6.32615 6.92918 6.63452
#
# Compressibility (1/GPa) = 0.01956791
#
# Stress axis : x y z
#
# Youngs Moduli (GPa) = 60.02093 40.38792 73.11178
#
# Poissons Ratio (x) = 0.42227 -0.04013
# Poissons Ratio (y) = 0.62754 0.57456
# Poissons Ratio (z) = -0.03294 0.31740
#
# Static dielectric constant tensor:
#      x y z
#    x 1.670270 0.039700 0.012260 
#    y 0.039700 1.694720 0.025520 
#    z 0.012260 0.025520 1.705020 
# 
# From -- ./inp_files/527423.got.cif
#   From: 2010.05.17/outbox.cif.g08.bks.cpg/sg2_264_cif.got.tgz:527423.got - 2010.06.03 11:33:40.
