data_PCOD9006607
_publ_section_title
;
Structure prediction by ZEFSAII (Michael W. Deem and Ramdas Pophale) SiO2 
 PCOD9006607
Probable space group: P -1
;
_chemical_formula_sum "Si O2"
_cell_formula_units_Z 14
_cell_length_a 10.492985
_cell_length_b 15.871278
_cell_length_c 8.393435
_cell_angle_alpha 124.706159
_cell_angle_beta 82.250987
_cell_angle_gamma 52.261834
_cell_volume 607.777917
_symmetry_space_group_name_H-M "P -1"
_symmetry_group_IT_number 2
_symmetry_cell_setting 'triclinic'
loop_
_space_group_symop_operation_xyz
x,y,z
-x,-y,-z
loop_
_atom_site_type_symbol
_atom_site_label
_atom_site_fract_x
_atom_site_fract_y
_atom_site_fract_z
Si Si1 0.508751 0.344828 0.407382
Si Si2 0.063183 0.947049 0.211833
Si Si3 0.565152 0.925541 0.093155
Si Si4 0.963054 0.342941 0.379000
Si Si5 0.694702 0.045818 0.258174
Si Si6 0.673241 0.388270 0.002605
Si Si7 0.064762 0.183531 0.514953
O O1 0.300666 0.474748 0.451383
O O2 0.520815 0.230940 0.379658
O O3 0.452753 0.474652 0.677280
O O4 0.769007 0.182301 0.110027
O O5 0.226967 0.789972 0.155514
O O6 0.009719 0.102668 0.393707
O O7 0.826929 0.035595 0.339803
O O8 0.562333 0.030866 0.314629
O O9 0.353934 0.996742 0.268794
O O10 0.845409 0.706723 0.787476
O O11 0.500000 0.000000 0.000000
O O12 0.974672 0.323830 0.546635
O O13 0.090429 0.150903 0.092867
O O14 0.905196 0.302806 0.828113
O O15 0.500000 0.500000 0.000000
#
# Coordination Sequence:
#
# PCOD9006607 Si02
#       7
#     2   2   2   2   2   2   2
#     4  12  22  39  65  92 119 163 210 247 293 368
#     4  12  23  41  64  90 119 169 205 243 302 373
#     4   8  17  39  60  87 120 161 197 249 300 359
#     4   9  20  40  65  88 119 159 210 243 292 362
#     4  10  21  38  67  90 116 160 213 241 293 362
#     4  12  26  37  57  96 131 151 199 263 308 350
#     4  11  22  42  63  90 128 160 195 259 311 347
#
# _framework density 23.034731000000001
#
# number of rings (size 3 to 8) (size 9 to 14) (size 15 to 20)
#    0.857    0.571    2.857    3.000    2.000    0.000 
#    0.000   11.429    0.000    0.000    0.000    0.000 
#    0.000    0.000    0.000    0.000    0.000    0.000 
#
# Total GULP energy -78116.882869 kJ/mol
# GULP energy per Si atom -5579.777348 kJ/mol
# Density = 2.298230 g / cm^3
# Si number density = 23.034731 Si / 1000 Ang^3
#
#
#
# Elastic Constant Matrix: (Units=GPa)
#
#
# Indices 1 2 3 4 5 6 
#
# 1 102.9590 6.4166 21.3805 1.1314 -21.1849 -15.3703
# 2 6.4166 75.0502 12.3391 17.6622 -9.3432 -4.3472
# 3 21.3805 12.3391 74.6566 -3.9014 -12.8638 -2.1922
# 4 1.1314 17.6622 -3.9014 34.3786 2.8834 -2.1907
# 5 -21.1849 -9.3432 -12.8638 2.8834 29.4587 2.0698
# 6 -15.3703 -4.3472 -2.1922 -2.1907 2.0698 21.4093
#
#
#
# Elastic Compliance Matrix: (Units=1/GPa)
#
#
# Indices 1 2 3 4 5 6 
#
# 1 0.013117 0.001125 -0.002336 -0.001433 0.008316 0.008455
# 2 0.001125 0.016660 -0.002497 -0.009205 0.005732 0.002439
# 3 -0.002336 -0.002497 0.015284 0.002714 0.003987 -0.000727
# 4 -0.001433 -0.009205 0.002714 0.034797 -0.006280 0.001547
# 5 0.008316 0.005732 0.003987 -0.006280 0.043913 0.002654
# 6 0.008455 0.002439 -0.000727 0.001547 0.002654 0.053102
#
#
# Mechanical properties :
#
#
# Convention : Reuss Voigt Hill
#
# Bulk Modulus (GPa) = 26.56511 36.99314 31.77912
# Shear Modulus (GPa) = 25.40161 31.21796 28.30979
#
# Velocity S-wave (km/s) = 3.32437 3.68537 3.50952
# Velocity P-wave (km/s) = 5.12767 5.84841 5.49986
#
# Compressibility (1/GPa) = 0.03764336
#
# Stress axis : x y z
#
# Youngs Moduli (GPa) = 76.23894 60.02408 65.42788
#
# Poissons Ratio (x) = -0.06753 0.15285
# Poissons Ratio (y) = -0.08577 0.16340
# Poissons Ratio (z) = 0.17810 0.14991
#
# Static dielectric constant tensor:
#      x y z
#    x 1.914610 -0.026230 -0.005340 
#    y -0.026230 1.908850 -0.035520 
#    z -0.005340 -0.035520 1.916570 
# 
# From -- ./inp_files/278246.got.cif
#   From: 2010.05.17/outbox.cif.g08.bks.cpg/sg2_140_cif.got.tgz:278246.got - 2010.06.03 11:33:40.
