data_PCOD9006553
_publ_section_title
;
Structure prediction by ZEFSAII (Michael W. Deem and Ramdas Pophale) SiO2 
 PCOD9006553
Probable space group: P -1
;
_chemical_formula_sum "Si O2"
_cell_formula_units_Z 14
_cell_length_a 6.062052
_cell_length_b 9.934430
_cell_length_c 9.567472
_cell_angle_alpha 84.697915
_cell_angle_beta 85.740560
_cell_angle_gamma 63.988976
_cell_volume 515.238110
_symmetry_space_group_name_H-M "P -1"
_symmetry_group_IT_number 2
_symmetry_cell_setting 'triclinic'
loop_
_space_group_symop_operation_xyz
x,y,z
-x,-y,-z
loop_
_atom_site_type_symbol
_atom_site_label
_atom_site_fract_x
_atom_site_fract_y
_atom_site_fract_z
Si Si1 0.140083 0.112487 0.266036
Si Si2 0.338023 0.560827 0.177333
Si Si3 0.076921 0.289984 0.588778
Si Si4 0.335215 0.855060 0.045509
Si Si5 0.301469 0.952378 0.712379
Si Si6 0.705327 0.500844 0.388658
Si Si7 0.806652 0.656883 0.942296
O O1 0.403622 0.094975 0.326386
O O2 0.078291 0.257419 0.161583
O O3 0.880129 0.118024 0.334571
O O4 0.231162 0.970556 0.166449
O O5 0.264674 0.715393 0.080070
O O6 0.600877 0.517290 0.238048
O O7 0.359946 0.405137 0.129853
O O8 0.127942 0.610796 0.298958
O O9 0.286208 0.343554 0.592285
O O10 0.951957 0.358547 0.439092
O O11 0.166965 0.119601 0.640886
O O12 0.288550 0.928705 0.884920
O O13 0.631647 0.775020 0.050178
O O14 0.500000 0.500000 0.500000
O O15 0.000000 0.500000 0.000000
#
# Coordination Sequence:
#
# PCOD9006553 Si02
#       7
#     2   2   2   2   2   2   2
#     4  11  24  41  62  91 135 181 227 264 319 404
#     4  11  22  38  64  94 134 173 216 279 333 388
#     4  10  21  38  66  98 121 170 224 286 324 396
#     4  11  23  41  63  96 137 184 224 265 326 413
#     4  11  22  38  66  94 129 170 225 270 324 390
#     4   9  21  40  62  94 126 163 225 282 337 388
#     4  11  25  38  60  97 142 181 220 269 335 397
#
# _framework density 27.171901999999999
#
# number of rings (size 3 to 8) (size 9 to 14) (size 15 to 20)
#    0.000    1.429    1.429    4.286    8.000    1.143 
#    0.000    0.000    0.000    4.286    0.000    0.000 
#    0.000    0.000    0.000    0.000    0.000    0.000 
#
# Total GULP energy -78248.090789 kJ/mol
# GULP energy per Si atom -5589.149342 kJ/mol
# Density = 2.711006 g / cm^3
# Si number density = 27.171902 Si / 1000 Ang^3
#
#
#
# Elastic Constant Matrix: (Units=GPa)
#
#
# Indices 1 2 3 4 5 6 
#
# 1 149.5070 53.4715 20.9445 1.1764 3.8802 23.8764
# 2 53.4715 159.9441 37.1606 -42.7054 7.9279 34.1742
# 3 20.9445 37.1606 79.8009 -19.8816 5.5986 9.1456
# 4 1.1764 -42.7054 -19.8816 45.7754 0.5880 -9.4574
# 5 3.8802 7.9279 5.5986 0.5880 52.2349 -2.5766
# 6 23.8764 34.1742 9.1456 -9.4574 -2.5766 67.1150
#
#
#
# Elastic Compliance Matrix: (Units=1/GPa)
#
#
# Indices 1 2 3 4 5 6 
#
# 1 0.008358 -0.003189 -0.001563 -0.004227 -0.000007 -0.001733
# 2 -0.003189 0.010734 -0.001517 0.008850 -0.001474 -0.002934
# 3 -0.001563 -0.001517 0.015032 0.005162 -0.001325 -0.000044
# 4 -0.004227 0.008850 0.005162 0.032647 -0.001909 0.000821
# 5 -0.000007 -0.001474 -0.001325 -0.001909 0.019602 0.001417
# 6 -0.001733 -0.002934 -0.000044 0.000821 0.001417 0.017186
#
#
# Mechanical properties :
#
#
# Convention : Reuss Voigt Hill
#
# Bulk Modulus (GPa) = 46.32578 68.04501 57.18539
# Shear Modulus (GPa) = 40.55457 51.53676 46.04566
#
# Velocity S-wave (km/s) = 3.86750 4.35983 4.12102
# Velocity P-wave (km/s) = 6.08520 7.10218 6.61326
#
# Compressibility (1/GPa) = 0.02158625
#
# Stress axis : x y z
#
# Youngs Moduli (GPa) = 119.64120 93.16579 66.52666
#
# Poissons Ratio (x) = 0.29713 0.10395
# Poissons Ratio (y) = 0.38157 0.10091
# Poissons Ratio (z) = 0.18695 0.14131
#
# Static dielectric constant tensor:
#      x y z
#    x 2.139710 -0.131350 -0.005970 
#    y -0.131350 1.961200 -0.029710 
#    z -0.005970 -0.029710 2.122840 
# 
# From -- ./inp_files/360682.got.cif
#   From: 2010.05.17/outbox.cif.g08.bks.cpg/sg2_181_cif.got.tgz:360682.got - 2010.06.03 11:33:40.
