data_PCOD9006343
_publ_section_title
;
Structure prediction by ZEFSAII (Michael W. Deem and Ramdas Pophale) SiO2 
 PCOD9006343
Probable space group: P -1
;
_chemical_formula_sum "Si O2"
_cell_formula_units_Z 14
_cell_length_a 11.927091
_cell_length_b 7.849381
_cell_length_c 20.259880
_cell_angle_alpha 36.686413
_cell_angle_beta 147.483966
_cell_angle_gamma 143.044021
_cell_volume 562.762115
_symmetry_space_group_name_H-M "P -1"
_symmetry_group_IT_number 2
_symmetry_cell_setting 'triclinic'
loop_
_space_group_symop_operation_xyz
x,y,z
-x,-y,-z
loop_
_atom_site_type_symbol
_atom_site_label
_atom_site_fract_x
_atom_site_fract_y
_atom_site_fract_z
Si Si1 0.379432 0.526821 0.365058
Si Si2 0.181583 0.847612 0.451126
Si Si3 0.189350 0.587744 0.675034
Si Si4 0.640141 0.688969 0.322109
Si Si5 0.750430 0.301565 0.963544
Si Si6 0.918793 0.391365 0.239196
Si Si7 0.447869 0.600950 0.031643
O O1 0.500000 0.500000 0.500000
O O2 0.554144 0.753438 0.330759
O O3 0.150860 0.564198 0.261855
O O4 0.309761 0.203848 0.391312
O O5 0.193669 0.817618 0.546335
O O6 0.276416 0.593253 0.551108
O O7 0.942974 0.731913 0.330686
O O8 0.053721 0.581774 0.676549
O O9 0.434243 0.614395 0.812430
O O10 0.430295 0.603328 0.195376
O O11 0.824803 0.025326 0.290705
O O12 0.713582 0.353040 0.005846
O O13 0.000000 0.500000 0.000000
O O14 0.652146 0.932111 0.018609
O O15 0.719027 0.496823 0.083159
#
# Coordination Sequence:
#
# PCOD9006343 Si02
#       7
#     2   2   2   2   2   2   2
#     4  12  26  43  66  96 132 172 216 269 327 382
#     4  11  24  40  67  96 128 172 222 263 318 390
#     4  11  22  41  67  97 131 174 215 264 321 387
#     4  11  23  43  65  95 129 171 216 269 320 379
#     4  10  21  38  65  96 124 165 215 268 318 377
#     4  11  24  43  67  95 135 169 216 269 325 382
#     4  10  22  40  66  94 129 170 212 265 325 379
#
# _framework density 24.877293999999999
#
# number of rings (size 3 to 8) (size 9 to 14) (size 15 to 20)
#    0.000    1.143    1.429    5.143    6.000    1.714 
#    0.000    0.000    0.000    6.000    0.000    0.000 
#    0.000    0.000    0.000    0.000    0.000    0.000 
#
# Total GULP energy -78303.824146 kJ/mol
# GULP energy per Si atom -5593.130296 kJ/mol
# Density = 2.482067 g / cm^3
# Si number density = 24.877294 Si / 1000 Ang^3
#
#
#
# Elastic Constant Matrix: (Units=GPa)
#
#
# Indices 1 2 3 4 5 6 
#
# 1 141.6744 19.2802 30.5482 3.6014 -10.8344 0.9994
# 2 19.2802 58.2873 7.1323 6.4114 4.1547 0.4574
# 3 30.5482 7.1323 141.0465 21.3748 -3.2652 -4.6284
# 4 3.6014 6.4114 21.3748 29.9955 -7.0669 2.1368
# 5 -10.8344 4.1547 -3.2652 -7.0669 44.2565 6.0544
# 6 0.9994 0.4574 -4.6284 2.1368 6.0544 44.1689
#
#
#
# Elastic Compliance Matrix: (Units=1/GPa)
#
#
# Indices 1 2 3 4 5 6 
#
# 1 0.007970 -0.002753 -0.001787 0.001529 0.002424 -0.000745
# 2 -0.002753 0.018774 0.000303 -0.004703 -0.003243 0.000572
# 3 -0.001787 0.000303 0.008420 -0.006187 -0.001019 0.001359
# 4 0.001529 -0.004703 -0.006187 0.040552 0.007327 -0.003600
# 5 0.002424 -0.003243 -0.001019 0.007327 0.025125 -0.003926
# 6 -0.000745 0.000572 0.001359 -0.003600 -0.003926 0.023506
#
#
# Mechanical properties :
#
#
# Convention : Reuss Voigt Hill
#
# Bulk Modulus (GPa) = 37.46564 50.54773 44.00669
# Shear Modulus (GPa) = 35.28139 42.62068 38.95103
#
# Velocity S-wave (km/s) = 3.77001 4.14362 3.96122
# Velocity P-wave (km/s) = 5.83468 6.57690 6.21688
#
# Compressibility (1/GPa) = 0.02669112
#
# Stress axis : x y z
#
# Youngs Moduli (GPa) = 125.46824 53.26554 118.76175
#
# Poissons Ratio (x) = 0.14663 0.21223
# Poissons Ratio (y) = 0.34539 -0.03602
# Poissons Ratio (z) = 0.22422 -0.01616
#
# Static dielectric constant tensor:
#      x y z
#    x 2.099200 0.054820 0.039170 
#    y 0.054820 1.976260 -0.001650 
#    z 0.039170 -0.001650 1.979170 
# 
# From -- ./inp_files/426427.got.cif
#   From: 2010.05.17/outbox.cif.g08.bks.cpg/sg2_214_cif.got.tgz:426427.got - 2010.06.03 11:33:40.
