data_PCOD9006594
_publ_section_title
;
Structure prediction by ZEFSAII (Michael W. Deem and Ramdas Pophale) SiO2 
 PCOD9006594
Probable space group: P -1
;
_chemical_formula_sum "Si O2"
_cell_formula_units_Z 16
_cell_length_a 12.929155
_cell_length_b 9.512618
_cell_length_c 22.307543
_cell_angle_alpha 139.155745
_cell_angle_beta 155.540592
_cell_angle_gamma 48.243383
_cell_volume 740.341759
_symmetry_space_group_name_H-M "P -1"
_symmetry_group_IT_number 2
_symmetry_cell_setting 'triclinic'
loop_
_space_group_symop_operation_xyz
x,y,z
-x,-y,-z
loop_
_atom_site_type_symbol
_atom_site_label
_atom_site_fract_x
_atom_site_fract_y
_atom_site_fract_z
Si Si1 0.580744 0.268532 0.451006
Si Si2 0.046906 0.040145 0.107340
Si Si3 0.129199 0.085169 0.465620
Si Si4 0.520280 0.465306 0.825698
Si Si5 0.684483 0.126239 0.328741
Si Si6 0.228911 0.867286 0.820714
Si Si7 0.611101 0.326178 0.959340
Si Si8 0.232354 0.202809 0.027396
O O1 0.500000 0.500000 0.500000
O O2 0.646149 0.257231 0.411310
O O3 0.334343 0.115339 0.288022
O O4 0.798874 0.159237 0.566064
O O5 0.863738 0.230192 0.085741
O O6 0.964548 0.823201 0.030697
O O7 0.000000 0.000000 0.000000
O O8 0.369776 0.258599 0.649334
O O9 0.958997 0.140188 0.450447
O O10 0.961074 0.103456 0.324004
O O11 0.304442 0.623960 0.781882
O O12 0.645935 0.410260 0.937095
O O13 0.711030 0.598848 0.923934
O O14 0.496618 0.186474 0.195992
O O15 0.591524 0.880356 0.216222
O O16 0.500000 0.000000 0.000000
O O17 0.140325 0.988509 0.871527
O O18 0.500000 0.500000 0.000000
#
# Coordination Sequence:
#
# PCOD9006594 Si02
#       8
#     2   2   2   2   2   2   2   2
#     4  12  28  45  69 100 143 194 233 288 360 413
#     4  11  22  48  69  95 142 189 239 285 335 425
#     4  12  24  44  70 106 145 177 234 299 349 422
#     4  11  21  39  66 111 141 179 222 292 363 401
#     4  11  22  45  69 103 139 175 239 296 344 411
#     4  10  21  38  67 103 141 174 227 285 351 418
#     4  11  24  38  74 108 136 181 242 291 345 413
#     4  10  22  41  71 100 138 182 232 281 351 413
#
# _framework density 21.611640000000001
#
# number of rings (size 3 to 8) (size 9 to 14) (size 15 to 20)
#    0.000    1.000    6.250    2.250    3.500    1.000 
#    0.000    3.125    2.750    0.000    0.000    0.000 
#    0.000    0.000    0.000    0.000    0.000    0.000 
#
# Total GULP energy -89342.984240 kJ/mol
# GULP energy per Si atom -5583.936515 kJ/mol
# Density = 2.156245 g / cm^3
# Si number density = 21.611640 Si / 1000 Ang^3
#
#
#
# Elastic Constant Matrix: (Units=GPa)
#
#
# Indices 1 2 3 4 5 6 
#
# 1 133.6473 48.2757 28.9654 6.2236 2.2976 25.6656
# 2 48.2757 136.9394 37.9606 0.7364 -17.9933 9.4562
# 3 28.9654 37.9606 54.9541 -5.2223 -6.9206 8.2052
# 4 6.2236 0.7364 -5.2223 34.9899 -1.9262 -4.7103
# 5 2.2976 -17.9933 -6.9206 -1.9262 40.7922 5.5414
# 6 25.6656 9.4562 8.2052 -4.7103 5.5414 48.1761
#
#
#
# Elastic Compliance Matrix: (Units=1/GPa)
#
#
# Indices 1 2 3 4 5 6 
#
# 1 0.010166 -0.002546 -0.003453 -0.002964 -0.001822 -0.004408
# 2 -0.002546 0.010151 -0.005200 -0.000360 0.003751 -0.000217
# 3 -0.003453 -0.005200 0.024502 0.004357 0.002422 -0.001166
# 4 -0.002964 -0.000360 0.004357 0.030353 0.001681 0.003682
# 5 -0.001822 0.003751 0.002422 0.001681 0.027189 -0.003141
# 6 -0.004408 -0.000217 -0.001166 0.003682 -0.003141 0.024068
#
#
# Mechanical properties :
#
#
# Convention : Reuss Voigt Hill
#
# Bulk Modulus (GPa) = 44.59771 61.77159 53.18465
# Shear Modulus (GPa) = 31.98984 38.81426 35.40205
#
# Velocity S-wave (km/s) = 3.85153 4.24251 4.05174
# Velocity P-wave (km/s) = 6.36080 7.25556 6.82286
#
# Compressibility (1/GPa) = 0.02242268
#
# Stress axis : x y z
#
# Youngs Moduli (GPa) = 98.36452 98.51011 40.81360
#
# Poissons Ratio (x) = 0.25080 0.14092
# Poissons Ratio (y) = 0.25043 0.21221
# Poissons Ratio (z) = 0.33963 0.51221
#
# Static dielectric constant tensor:
#      x y z
#    x 1.852670 -0.039610 -0.013300 
#    y -0.039610 1.867220 0.040180 
#    z -0.013300 0.040180 1.765940 
# 
# From -- ./inp_files/594283.got.cif
#   From: 2010.05.17/outbox.cif.g08.bks.cpg/sg2_298_cif.got.tgz:594283.got - 2010.06.03 11:33:40.
