data_PCOD9006289
_publ_section_title
;
Structure prediction by ZEFSAII (Michael W. Deem and Ramdas Pophale) SiO2 
 PCOD9006289
Probable space group: P -1
;
_chemical_formula_sum "Si O2"
_cell_formula_units_Z 16
_cell_length_a 17.432094
_cell_length_b 5.681792
_cell_length_c 9.921395
_cell_angle_alpha 41.788629
_cell_angle_beta 89.177056
_cell_angle_gamma 87.924924
_cell_volume 654.288751
_symmetry_space_group_name_H-M "P -1"
_symmetry_group_IT_number 2
_symmetry_cell_setting 'triclinic'
loop_
_space_group_symop_operation_xyz
x,y,z
-x,-y,-z
loop_
_atom_site_type_symbol
_atom_site_label
_atom_site_fract_x
_atom_site_fract_y
_atom_site_fract_z
Si Si1 0.224907 0.174600 0.508613
Si Si2 0.722069 0.815408 0.776269
Si Si3 0.549034 0.743748 0.797820
Si Si4 0.509269 0.695701 0.242960
Si Si5 0.028126 0.528342 0.834626
Si Si6 0.803324 0.658532 0.120459
Si Si7 0.936389 0.650190 0.538001
Si Si8 0.316481 0.372452 0.645392
O O1 0.231668 0.326523 0.293804
O O2 0.151937 0.389048 0.483997
O O3 0.304502 0.196936 0.575835
O O4 0.206724 0.764308 0.689398
O O5 0.638807 0.652641 0.858334
O O6 0.703903 0.219648 0.560794
O O7 0.768704 0.784594 0.925282
O O8 0.527159 0.635811 0.691712
O O9 0.530223 0.137965 0.691109
O O10 0.500000 0.500000 0.000000
O O11 0.600016 0.655319 0.282340
O O12 0.500000 0.000000 0.000000
O O13 0.105293 0.295500 0.897790
O O14 0.958933 0.479823 0.753419
O O15 0.051365 0.931761 0.637763
O O16 0.000000 0.500000 0.000000
O O17 0.747442 0.793038 0.184651
O O18 0.000000 0.500000 0.500000
#
# Coordination Sequence:
#
# PCOD9006289 Si02
#       8
#     2   2   2   2   2   2   2   2
#     4  10  24  41  63  97 129 170 219 272 338 404
#     4  11  25  42  68  94 132 171 224 279 334 405
#     4  10  23  42  68  97 132 180 227 280 345 406
#     4  10  23  41  69  96 132 179 228 279 342 409
#     4  10  21  38  65  93 128 170 219 269 329 400
#     4  10  22  42  64  93 129 176 216 271 339 402
#     4  10  21  40  64  92 132 170 212 273 332 397
#     4  11  25  42  67  95 131 172 222 278 338 405
#
# _framework density 24.454034
#
# number of rings (size 3 to 8) (size 9 to 14) (size 15 to 20)
#    0.000    1.750    0.000    3.000    8.750    5.500 
#    0.000    0.000    0.000    0.000    0.000    0.000 
#    0.000    0.000    0.000    0.000    0.000    0.000 
#
# Total GULP energy -89463.921354 kJ/mol
# GULP energy per Si atom -5591.495085 kJ/mol
# Density = 2.439838 g / cm^3
# Si number density = 24.454034 Si / 1000 Ang^3
#
#
#
# Elastic Constant Matrix: (Units=GPa)
#
#
# Indices 1 2 3 4 5 6 
#
# 1 109.8047 15.8362 53.2609 -4.7690 24.0244 -9.4355
# 2 15.8362 86.7412 13.9357 13.0264 8.1626 -1.4632
# 3 53.2609 13.9357 134.5447 24.5985 15.3440 -4.3710
# 4 -4.7690 13.0264 24.5985 37.2227 7.1432 -0.3320
# 5 24.0244 8.1626 15.3440 7.1432 37.0354 5.3296
# 6 -9.4355 -1.4632 -4.3710 -0.3320 5.3296 38.1860
#
#
#
# Elastic Compliance Matrix: (Units=1/GPa)
#
#
# Indices 1 2 3 4 5 6 
#
# 1 0.015115 -0.002127 -0.006149 0.008519 -0.009048 0.004286
# 2 -0.002127 0.012636 0.000509 -0.004900 -0.000681 0.000069
# 3 -0.006149 0.000509 0.011266 -0.008592 0.000926 -0.000414
# 4 0.008519 -0.004900 -0.008592 0.036977 -0.008367 0.002423
# 5 -0.009048 -0.000681 0.000926 -0.008367 0.035280 -0.007153
# 6 0.004286 0.000069 -0.000414 0.002423 -0.007153 0.028221
#
#
# Mechanical properties :
#
#
# Convention : Reuss Voigt Hill
#
# Bulk Modulus (GPa) = 42.58664 55.23958 48.91311
# Shear Modulus (GPa) = 30.70174 39.02601 34.86387
#
# Velocity S-wave (km/s) = 3.54713 3.99920 3.77993
# Velocity P-wave (km/s) = 5.85055 6.63046 6.25268
#
# Compressibility (1/GPa) = 0.02348154
#
# Stress axis : x y z
#
# Youngs Moduli (GPa) = 66.16132 79.13776 88.76350
#
# Poissons Ratio (x) = 0.16834 0.54584
# Poissons Ratio (y) = 0.14073 -0.04518
# Poissons Ratio (z) = 0.40685 -0.04028
#
# Static dielectric constant tensor:
#      x y z
#    x 1.844990 -0.163230 -0.025210 
#    y -0.163230 1.606860 -0.004090 
#    z -0.025210 -0.004090 1.896950 
# 
# From -- ./inp_files/107835.got.cif
#   From: 2010.05.17/outbox.cif.g08.bks.cpg/sg2_54_cif.got.tgz:107835.got - 2010.06.03 11:33:40.
