data_PCOD9006105
_publ_section_title
;
Structure prediction by ZEFSAII (Michael W. Deem and Ramdas Pophale) SiO2 
 PCOD9006105
Probable space group: P -1
;
_chemical_formula_sum "Si O2"
_cell_formula_units_Z 16
_cell_length_a 10.648940
_cell_length_b 13.965798
_cell_length_c 7.838022
_cell_angle_alpha 79.788810
_cell_angle_beta 136.838659
_cell_angle_gamma 119.808795
_cell_volume 657.293342
_symmetry_space_group_name_H-M "P -1"
_symmetry_group_IT_number 2
_symmetry_cell_setting 'triclinic'
loop_
_space_group_symop_operation_xyz
x,y,z
-x,-y,-z
loop_
_atom_site_type_symbol
_atom_site_label
_atom_site_fract_x
_atom_site_fract_y
_atom_site_fract_z
Si Si1 0.171534 0.413784 0.388224
Si Si2 0.656916 0.876926 0.016744
Si Si3 0.033701 0.677230 0.157434
Si Si4 0.671312 0.075178 0.494795
Si Si5 0.417246 0.656291 0.658147
Si Si6 0.351793 0.266911 0.632383
Si Si7 0.791574 0.441907 0.143790
Si Si8 0.900111 0.947252 0.734632
O O1 0.392213 0.543455 0.583177
O O2 0.216850 0.321697 0.541297
O O3 0.086908 0.369223 0.127192
O O4 0.982000 0.421387 0.289663
O O5 0.653163 0.821369 0.208993
O O6 0.883971 0.998852 0.183703
O O7 0.456166 0.891425 0.773334
O O8 0.627896 0.781174 0.877891
O O9 0.121220 0.807177 0.258394
O O10 0.258173 0.678893 0.382291
O O11 0.883687 0.577498 0.177433
O O12 0.756030 0.999274 0.526486
O O13 0.500000 0.000000 0.500000
O O14 0.309942 0.609673 0.756235
O O15 0.601001 0.372618 0.838511
O O16 0.246587 0.190853 0.384377
O O17 0.000000 0.000000 0.000000
#
# Coordination Sequence:
#
# PCOD9006105 Si02
#       8
#     2   2   2   2   2   2   2   2
#     4  11  22  38  64  92 133 166 203 263 315 374
#     4  10  24  44  64  95 130 163 216 265 311 377
#     4  10  21  38  64  97 122 165 213 258 321 371
#     4  11  24  43  69  92 124 170 214 262 321 369
#     4   9  20  40  66  96 127 166 210 255 320 384
#     4  11  27  41  62 100 128 168 216 257 318 385
#     4  10  22  41  65  93 132 164 208 263 314 383
#     4  12  25  42  67  93 126 170 214 265 311 377
#
# _framework density 24.342251000000001
#
# number of rings (size 3 to 8) (size 9 to 14) (size 15 to 20)
#    0.000    1.500    1.250    4.125    1.750    9.000 
#    0.000    0.000    0.000    0.000    0.000    0.000 
#    0.000    0.000    0.000    0.000    0.000    0.000 
#
# Total GULP energy -89483.407523 kJ/mol
# GULP energy per Si atom -5592.712970 kJ/mol
# Density = 2.428685 g / cm^3
# Si number density = 24.342251 Si / 1000 Ang^3
#
#
#
# Elastic Constant Matrix: (Units=GPa)
#
#
# Indices 1 2 3 4 5 6 
#
# 1 41.2223 18.9829 28.1259 0.6878 1.3008 -13.1726
# 2 18.9829 112.0540 42.3459 16.7325 3.3174 -28.9001
# 3 28.1259 42.3459 117.6220 15.4855 -3.6392 -15.4194
# 4 0.6878 16.7325 15.4855 58.7541 1.5476 -6.7001
# 5 1.3008 3.3174 -3.6392 1.5476 29.0689 2.9357
# 6 -13.1726 -28.9001 -15.4194 -6.7001 2.9357 39.3902
#
#
#
# Elastic Compliance Matrix: (Units=1/GPa)
#
#
# Indices 1 2 3 4 5 6 
#
# 1 0.031889 -0.001176 -0.006615 0.002686 -0.003061 0.007897
# 2 -0.001176 0.012570 -0.003097 -0.001832 -0.002428 0.007486
# 3 -0.006615 -0.003097 0.011487 -0.002188 0.002257 -0.000528
# 4 0.002686 -0.001832 -0.002188 0.018342 -0.001355 0.001918
# 5 -0.003061 -0.002428 0.002257 -0.001355 0.035656 -0.004809
# 6 0.007897 0.007486 -0.000528 0.001918 -0.004809 0.033998
#
#
# Mechanical properties :
#
#
# Convention : Reuss Voigt Hill
#
# Bulk Modulus (GPa) = 29.26517 49.97863 39.62190
# Shear Modulus (GPa) = 28.23138 37.53889 32.88513
#
# Velocity S-wave (km/s) = 3.40923 3.93126 3.67951
# Velocity P-wave (km/s) = 5.24839 6.41736 5.86209
#
# Compressibility (1/GPa) = 0.03417031
#
# Stress axis : x y z
#
# Youngs Moduli (GPa) = 31.35872 79.55413 87.05365
#
# Poissons Ratio (x) = 0.09357 0.57587
# Poissons Ratio (y) = 0.03689 0.26958
# Poissons Ratio (z) = 0.20744 0.24635
#
# Static dielectric constant tensor:
#      x y z
#    x 1.919120 0.005320 -0.007910 
#    y 0.005320 1.987800 0.006930 
#    z -0.007910 0.006930 1.982780 
# 
# From -- ./inp_files/270265.got.cif
#   From: 2010.05.17/outbox.cif.g08.bks.cpg/sg2_136_cif.got.tgz:270265.got - 2010.06.03 11:33:40.
