data_PCOD9006794
_publ_section_title
;
Structure prediction by ZEFSAII (Michael W. Deem and Ramdas Pophale) SiO2 
 PCOD9006794
Probable space group: P -1
;
_chemical_formula_sum "Si O2"
_cell_formula_units_Z 16
_cell_length_a 5.960350
_cell_length_b 14.457870
_cell_length_c 11.060945
_cell_angle_alpha 118.583288
_cell_angle_beta 54.084470
_cell_angle_gamma 128.001233
_cell_volume 597.935903
_symmetry_space_group_name_H-M "P -1"
_symmetry_group_IT_number 2
_symmetry_cell_setting 'triclinic'
loop_
_space_group_symop_operation_xyz
x,y,z
-x,-y,-z
loop_
_atom_site_type_symbol
_atom_site_label
_atom_site_fract_x
_atom_site_fract_y
_atom_site_fract_z
Si Si1 0.118995 0.884318 0.489360
Si Si2 0.494324 0.349990 0.498453
Si Si3 0.417648 0.712559 0.328171
Si Si4 0.665676 0.269498 0.097808
Si Si5 0.891255 0.511815 0.248889
Si Si6 0.051829 0.187232 0.102294
Si Si7 0.842297 0.106778 0.788189
Si Si8 0.123093 0.021740 0.804734
O O1 0.281972 0.801088 0.395614
O O2 0.215497 0.976640 0.625463
O O3 0.751663 0.784356 0.549025
O O4 0.208246 0.939664 0.361652
O O5 0.702106 0.340131 0.533433
O O6 0.699876 0.429088 0.372890
O O7 0.293643 0.410799 0.659435
O O8 0.788672 0.792357 0.271923
O O9 0.251396 0.601818 0.221682
O O10 0.863565 0.411175 0.101961
O O11 0.308856 0.250234 0.168381
O O12 0.843783 0.242102 0.140150
O O13 0.691827 0.184008 0.935826
O O14 0.847723 0.058824 0.150130
O O15 0.214082 0.149620 0.917968
O O16 0.795808 0.006513 0.839280
#
# Coordination Sequence:
#
# PCOD9006794 Si02
#       8
#     2   2   2   2   2   2   2   2
#     4  10  21  40  64  93 132 173 220 269 330 393
#     4   9  20  39  61  99 131 157 226 272 328 396
#     4  10  22  39  59  97 127 168 220 275 314 404
#     4  11  25  44  70  97 138 173 221 273 333 394
#     4  10  21  38  69  91 129 177 208 276 339 384
#     4  10  25  45  66 106 132 165 228 279 326 400
#     4  10  24  42  60  93 136 172 226 268 316 404
#     4  10  22  43  69  93 131 177 215 279 337 382
#
# _framework density 26.758721000000001
#
# number of rings (size 3 to 8) (size 9 to 14) (size 15 to 20)
#    0.000    2.000    0.000    1.500    7.000    5.500 
#    9.000    5.625    0.000    0.000    0.000    0.000 
#    0.000    0.000    0.000    0.000    0.000    0.000 
#
# Total GULP energy -89187.618058 kJ/mol
# GULP energy per Si atom -5574.226129 kJ/mol
# Density = 2.669782 g / cm^3
# Si number density = 26.758721 Si / 1000 Ang^3
#
#
#
# Elastic Constant Matrix: (Units=GPa)
#
#
# Indices 1 2 3 4 5 6 
#
# 1 164.3284 44.1081 32.0836 4.4308 18.4479 -10.1240
# 2 44.1081 100.3148 21.5323 16.7598 5.9940 3.0437
# 3 32.0836 21.5323 93.4627 13.9748 6.0749 -12.6846
# 4 4.4308 16.7598 13.9748 41.7182 -2.6121 8.7627
# 5 18.4479 5.9940 6.0749 -2.6121 44.3721 -7.4573
# 6 -10.1240 3.0437 -12.6846 8.7627 -7.4573 49.4101
#
#
#
# Elastic Compliance Matrix: (Units=1/GPa)
#
#
# Indices 1 2 3 4 5 6 
#
# 1 0.007500 -0.002918 -0.001739 0.000644 -0.002312 0.000807
# 2 -0.002918 0.012279 -0.001334 -0.003989 -0.000681 -0.001092
# 3 -0.001739 -0.001334 0.012793 -0.004375 -0.000482 0.003713
# 4 0.000644 -0.003989 -0.004375 0.028228 0.001606 -0.005509
# 5 -0.002312 -0.000681 -0.000482 0.001606 0.024224 0.002816
# 6 0.000807 -0.001092 0.003713 -0.005509 0.002816 0.022827
#
#
# Mechanical properties :
#
#
# Convention : Reuss Voigt Hill
#
# Bulk Modulus (GPa) = 48.57074 61.50598 55.03836
# Shear Modulus (GPa) = 39.46442 44.45886 41.96164
#
# Velocity S-wave (km/s) = 3.84451 4.08054 3.96428
# Velocity P-wave (km/s) = 6.15612 6.72580 6.44725
#
# Compressibility (1/GPa) = 0.02058853
#
# Stress axis : x y z
#
# Youngs Moduli (GPa) = 133.33047 81.44252 78.16655
#
# Poissons Ratio (x) = 0.23769 0.13591
# Poissons Ratio (y) = 0.38912 0.10431
# Poissons Ratio (z) = 0.23183 0.10868
#
# Static dielectric constant tensor:
#      x y z
#    x 2.184880 0.045960 -0.024620 
#    y 0.045960 2.192310 -0.107270 
#    z -0.024620 -0.107270 2.126170 
# 
# From -- ./inp_files/367918.got.cif
#   From: 2010.05.17/outbox.cif.g08.bks.cpg/sg2_184_cif.got.tgz:367918.got - 2010.06.03 11:33:40.
