data_PCOD9006570
_publ_section_title
;
Structure prediction by ZEFSAII (Michael W. Deem and Ramdas Pophale) SiO2 
 PCOD9006570
Probable space group: P -1
;
_chemical_formula_sum "Si O2"
_cell_formula_units_Z 16
_cell_length_a 8.844273
_cell_length_b 15.209220
_cell_length_c 19.004377
_cell_angle_alpha 142.627823
_cell_angle_beta 150.892621
_cell_angle_gamma 34.089937
_cell_volume 672.852021
_symmetry_space_group_name_H-M "P -1"
_symmetry_group_IT_number 2
_symmetry_cell_setting 'triclinic'
loop_
_space_group_symop_operation_xyz
x,y,z
-x,-y,-z
loop_
_atom_site_type_symbol
_atom_site_label
_atom_site_fract_x
_atom_site_fract_y
_atom_site_fract_z
Si Si1 0.520842 0.941350 0.890626
Si Si2 0.245167 0.804992 0.871122
Si Si3 0.621151 0.382191 0.054886
Si Si4 0.191731 0.392900 0.137573
Si Si5 0.344019 0.617548 0.444108
Si Si6 0.740736 0.688851 0.536971
Si Si7 0.713000 0.103948 0.641761
Si Si8 0.613635 0.703972 0.231709
O O1 0.130571 0.000632 0.740424
O O2 0.714886 0.749344 0.857225
O O3 0.721358 0.032602 0.995301
O O4 0.500000 0.000000 0.000000
O O5 0.221445 0.724076 0.881689
O O6 0.598730 0.687951 0.899072
O O7 0.948645 0.798253 0.696566
O O8 0.774541 0.509252 0.185192
O O9 0.598816 0.276746 0.913556
O O10 0.212478 0.506226 0.979545
O O11 0.317216 0.513451 0.300989
O O12 0.500000 0.500000 0.500000
O O13 0.572151 0.693109 0.547866
O O14 0.943590 0.739851 0.379029
O O15 0.452571 0.773829 0.413264
O O16 0.000000 0.500000 0.500000
O O17 0.626971 0.206002 0.743992
O O18 0.500000 0.000000 0.500000
#
# Coordination Sequence:
#
# PCOD9006570 Si02
#       8
#     2   2   2   2   2   2   2   2
#     4  10  23  40  65  98 135 178 227 270 336 400
#     4  11  21  38  67 101 137 169 233 278 333 407
#     4  10  21  39  68 100 133 171 226 287 343 394
#     4  10  21  38  66  99 129 175 223 276 335 400
#     4  11  23  39  67  97 139 172 223 284 345 398
#     4  12  25  42  69 106 136 179 234 282 343 407
#     4  12  26  45  72  99 142 184 232 281 338 418
#     4  10  23  40  64  99 136 177 220 281 350 392
#
# _framework density 23.779373
#
# number of rings (size 3 to 8) (size 9 to 14) (size 15 to 20)
#    0.000    1.250    1.250    5.625    5.250    0.000 
#    0.000    1.875    0.000   18.750    0.000    0.000 
#    0.000    0.000    0.000    0.000    0.000    0.000 
#
# Total GULP energy -89473.994428 kJ/mol
# GULP energy per Si atom -5592.124652 kJ/mol
# Density = 2.372525 g / cm^3
# Si number density = 23.779373 Si / 1000 Ang^3
#
#
#
# Elastic Constant Matrix: (Units=GPa)
#
#
# Indices 1 2 3 4 5 6 
#
# 1 90.3735 14.3110 12.7181 -13.2864 4.1916 7.4408
# 2 14.3110 76.2245 33.4784 -19.3246 2.1687 7.7042
# 3 12.7181 33.4784 118.7206 -8.2744 17.4640 1.8887
# 4 -13.2864 -19.3246 -8.2744 36.6308 1.1151 -0.4926
# 5 4.1916 2.1687 17.4640 1.1151 43.7762 -2.3843
# 6 7.4408 7.7042 1.8887 -0.4926 -2.3843 34.0180
#
#
#
# Elastic Compliance Matrix: (Units=1/GPa)
#
#
# Indices 1 2 3 4 5 6 
#
# 1 0.012090 -0.000742 -0.000615 0.003856 -0.001108 -0.002464
# 2 -0.000742 0.017496 -0.004328 0.007921 0.000544 -0.003407
# 3 -0.000615 -0.004328 0.010260 -0.000069 -0.003803 0.000278
# 4 0.003856 0.007921 -0.000069 0.032882 -0.001696 -0.002276
# 5 -0.001108 0.000544 -0.003803 -0.001696 0.024593 0.002030
# 6 -0.002464 -0.003407 0.000278 -0.002276 0.002030 0.030801
#
#
# Mechanical properties :
#
#
# Convention : Reuss Voigt Hill
#
# Bulk Modulus (GPa) = 35.11649 45.14816 40.13232
# Shear Modulus (GPa) = 33.56049 37.87241 35.71645
#
# Velocity S-wave (km/s) = 3.76084 3.99514 3.87976
# Velocity P-wave (km/s) = 5.80157 6.34894 6.08142
#
# Compressibility (1/GPa) = 0.02847665
#
# Stress axis : x y z
#
# Youngs Moduli (GPa) = 82.71077 57.15447 97.46897
#
# Poissons Ratio (x) = 0.04239 0.05996
# Poissons Ratio (y) = 0.06134 0.42185
# Poissons Ratio (z) = 0.05088 0.24737
#
# Static dielectric constant tensor:
#      x y z
#    x 1.966180 0.003260 0.107220 
#    y 0.003260 1.924910 0.063840 
#    z 0.107220 0.063840 2.038230 
# 
# From -- ./inp_files/590292.got.cif
#   From: 2010.05.17/outbox.cif.g08.bks.cpg/sg2_296_cif.got.tgz:590292.got - 2010.06.03 11:33:40.
