data_PCOD9006714
_publ_section_title
;
Structure prediction by ZEFSAII (Michael W. Deem and Ramdas Pophale) SiO2 
 PCOD9006714
Probable space group: P -1
;
_chemical_formula_sum "Si O2"
_cell_formula_units_Z 16
_cell_length_a 9.208690
_cell_length_b 23.890378
_cell_length_c 10.851602
_cell_angle_alpha 154.325120
_cell_angle_beta 140.107228
_cell_angle_gamma 45.204320
_cell_volume 662.646874
_symmetry_space_group_name_H-M "P -1"
_symmetry_group_IT_number 2
_symmetry_cell_setting 'triclinic'
loop_
_space_group_symop_operation_xyz
x,y,z
-x,-y,-z
loop_
_atom_site_type_symbol
_atom_site_label
_atom_site_fract_x
_atom_site_fract_y
_atom_site_fract_z
Si Si1 0.817234 0.596519 0.505381
Si Si2 0.541556 0.585702 0.986160
Si Si3 0.192979 0.691259 0.763672
Si Si4 0.282836 0.064396 0.196021
Si Si5 0.972709 0.672345 0.345442
Si Si6 0.066385 0.829979 0.501256
Si Si7 0.450633 0.203840 0.370397
Si Si8 0.680623 0.017736 0.543106
O O1 0.711450 0.743272 0.741163
O O2 0.000000 0.500000 0.500000
O O3 0.967707 0.626691 0.541459
O O4 0.585329 0.526466 0.248504
O O5 0.793957 0.565916 0.055260
O O6 0.541058 0.692602 0.306014
O O7 0.393078 0.633609 0.866292
O O8 0.188050 0.664487 0.561416
O O9 0.197614 0.846636 0.090534
O O10 0.166011 0.192606 0.434539
O O11 0.332345 0.088766 0.132973
O O12 0.525599 0.032955 0.352660
O O13 0.133596 0.940640 0.861649
O O14 0.013307 0.701695 0.287520
O O15 0.291814 0.808375 0.526945
O O16 0.856797 0.895629 0.421384
O O17 0.500000 0.000000 0.500000
#
# Coordination Sequence:
#
# PCOD9006714 Si02
#       8
#     2   2   2   2   2   2   2   2
#     4  10  21  38  68  87 108 153 200 254 289 353
#     4  10  21  40  64  86 111 150 207 246 290 347
#     4  11  19  35  64  90 109 147 218 233 273 346
#     4  11  21  38  60  84 122 165 198 229 280 358
#     4  11  20  36  61  86 116 163 195 239 276 355
#     4  12  24  37  57  89 129 157 189 241 299 338
#     4  11  22  40  58  91 121 150 192 254 297 343
#     4  12  21  36  59  89 121 161 200 229 278 355
#
# _framework density 24.145591
#
# number of rings (size 3 to 8) (size 9 to 14) (size 15 to 20)
#    0.000    1.000    7.500    1.875    0.000    0.500 
#    4.500    0.625    0.000    1.500    0.000    0.000 
#    0.000    0.000    0.000    0.000    0.000    0.000 
#
# Total GULP energy -89177.263523 kJ/mol
# GULP energy per Si atom -5573.578970 kJ/mol
# Density = 2.409063 g / cm^3
# Si number density = 24.145591 Si / 1000 Ang^3
#
#
#
# Elastic Constant Matrix: (Units=GPa)
#
#
# Indices 1 2 3 4 5 6 
#
# 1 81.2383 27.7349 11.3185 16.2403 35.4756 4.6585
# 2 27.7349 172.5719 22.4501 -10.6417 5.5774 13.0133
# 3 11.3185 22.4501 67.1922 7.9814 19.1659 23.0966
# 4 16.2403 -10.6417 7.9814 39.0738 11.7429 14.3644
# 5 35.4756 5.5774 19.1659 11.7429 41.2096 7.6374
# 6 4.6585 13.0133 23.0966 14.3644 7.6374 29.8091
#
#
#
# Elastic Compliance Matrix: (Units=1/GPa)
#
#
# Indices 1 2 3 4 5 6 
#
# 1 0.022871 -0.004150 0.002106 -0.007174 -0.018974 0.004924
# 2 -0.004150 0.007192 -0.001600 0.004736 0.002781 -0.004246
# 3 0.002106 -0.001600 0.023310 0.003095 -0.010251 -0.016556
# 4 -0.007174 0.004736 0.003095 0.037721 -0.002797 -0.020804
# 5 -0.018974 0.002781 -0.010251 -0.002797 0.045923 -0.000724
# 6 0.004924 -0.004246 -0.016556 -0.020804 -0.000724 0.057670
#
#
# Mechanical properties :
#
#
# Convention : Reuss Voigt Hill
#
# Bulk Modulus (GPa) = 21.69970 49.33438 35.51704
# Shear Modulus (GPa) = 23.00584 39.31842 31.16213
#
# Velocity S-wave (km/s) = 3.09009 4.03971 3.59638
# Velocity P-wave (km/s) = 4.66241 6.49888 5.65568
#
# Compressibility (1/GPa) = 0.04608359
#
# Stress axis : x y z
#
# Youngs Moduli (GPa) = 43.72442 139.04025 42.89994
#
# Poissons Ratio (x) = 0.57703 -0.09034
# Poissons Ratio (y) = 0.18146 0.06865
# Poissons Ratio (z) = -0.09207 0.22250
#
# Static dielectric constant tensor:
#      x y z
#    x 2.051010 0.044480 0.013780 
#    y 0.044480 2.033100 0.056740 
#    z 0.013780 0.056740 1.990120 
# 
# From -- ./inp_files/406834.got.cif
#   From: 2010.05.17/outbox.cif.g08.bks.cpg/sg2_204_cif.got.tgz:406834.got - 2010.06.03 11:33:40.
