data_PCOD9006353
_publ_section_title
;
Structure prediction by ZEFSAII (Michael W. Deem and Ramdas Pophale) SiO2 
 PCOD9006353
Probable space group: P -1
;
_chemical_formula_sum "Si O2"
_cell_formula_units_Z 14
_cell_length_a 11.638086
_cell_length_b 14.178148
_cell_length_c 12.805963
_cell_angle_alpha 47.750484
_cell_angle_beta 35.824863
_cell_angle_gamma 30.975626
_cell_volume 634.718737
_symmetry_space_group_name_H-M "P -1"
_symmetry_group_IT_number 2
_symmetry_cell_setting 'triclinic'
loop_
_space_group_symop_operation_xyz
x,y,z
-x,-y,-z
loop_
_atom_site_type_symbol
_atom_site_label
_atom_site_fract_x
_atom_site_fract_y
_atom_site_fract_z
Si Si1 0.268490 0.349070 0.028851
Si Si2 0.317337 0.975644 0.871928
Si Si3 0.844161 0.001929 0.239836
Si Si4 0.570788 0.296548 0.377042
Si Si5 0.113034 0.348759 0.753024
Si Si6 0.275763 0.552460 0.711820
Si Si7 0.738910 0.426346 0.794235
O O1 0.488670 0.181282 0.069351
O O2 0.108850 0.527840 0.084174
O O3 0.031252 0.356383 0.165727
O O4 0.391577 0.373819 0.823562
O O5 0.384601 0.920143 0.740961
O O6 0.281212 0.139896 0.797603
O O7 0.009103 0.054857 0.050277
O O8 0.073152 0.781219 0.230093
O O9 0.712024 0.101321 0.373550
O O10 0.324527 0.367216 0.583278
O O11 0.761703 0.309954 0.284724
O O12 0.417130 0.434422 0.289729
O O13 0.953299 0.414144 0.711123
O O14 0.500000 0.500000 0.500000
O O15 0.500000 0.500000 0.000000
#
# Coordination Sequence:
#
# PCOD9006353 Si02
#       7
#     2   2   2   2   2   2   2
#     4  11  23  45  74  90 131 175 220 278 328 382
#     4  10  21  40  64  98 127 171 211 261 336 398
#     4  10  21  38  65  96 136 164 215 268 321 403
#     4  12  23  40  63  95 135 172 219 274 329 388
#     4  11  23  39  65  98 135 166 214 272 332 401
#     4  11  24  46  69  96 126 176 231 276 323 385
#     4  11  22  39  67  98 129 177 216 263 337 399
#
# _framework density 22.057013999999999
#
# number of rings (size 3 to 8) (size 9 to 14) (size 15 to 20)
#    0.000    1.143    1.429    7.286    0.000    3.429 
#    2.571    8.571    0.000    0.000    0.000    0.000 
#    0.000    0.000    0.000    0.000    0.000    0.000 
#
# Total GULP energy -78226.457139 kJ/mol
# GULP energy per Si atom -5587.604081 kJ/mol
# Density = 2.200681 g / cm^3
# Si number density = 22.057014 Si / 1000 Ang^3
#
#
#
# Elastic Constant Matrix: (Units=GPa)
#
#
# Indices 1 2 3 4 5 6 
#
# 1 128.9431 62.2333 31.6469 -18.2590 -8.6262 -0.0474
# 2 62.2333 106.0110 40.1381 -6.4377 7.4781 0.5168
# 3 31.6469 40.1381 102.2040 -9.9367 1.0406 1.0003
# 4 -18.2590 -6.4377 -9.9367 11.7402 7.7762 -4.0439
# 5 -8.6262 7.4781 1.0406 7.7762 29.2954 -1.9032
# 6 -0.0474 0.5168 1.0003 -4.0439 -1.9032 18.6255
#
#
#
# Elastic Compliance Matrix: (Units=1/GPa)
#
#
# Indices 1 2 3 4 5 6 
#
# 1 0.013899 -0.007258 0.000292 0.018531 0.001301 0.004377
# 2 -0.007258 0.015393 -0.004063 -0.003413 -0.005113 -0.001491
# 3 0.000292 -0.004063 0.012316 0.010504 -0.002003 0.001528
# 4 0.018531 -0.003413 0.010504 0.152803 -0.032695 0.029413
# 5 0.001301 -0.005113 -0.002003 -0.032695 0.044423 -0.002307
# 6 0.004377 -0.001491 0.001528 0.029413 -0.002307 0.059811
#
#
# Mechanical properties :
#
#
# Convention : Reuss Voigt Hill
#
# Bulk Modulus (GPa) = 51.14912 67.24385 59.19648
# Shear Modulus (GPa) = 15.28029 25.47489 20.37759
#
# Velocity S-wave (km/s) = 2.63490 3.40215 3.04280
# Velocity P-wave (km/s) = 5.70059 6.78125 6.26427
#
# Compressibility (1/GPa) = 0.01955068
#
# Stress axis : x y z
#
# Youngs Moduli (GPa) = 71.94630 64.96611 81.19395
#
# Poissons Ratio (x) = 0.47151 -0.02371
# Poissons Ratio (y) = 0.52218 0.32988
# Poissons Ratio (z) = -0.02101 0.26395
#
# Static dielectric constant tensor:
#      x y z
#    x 1.865500 0.006700 0.042820 
#    y 0.006700 1.790760 0.019050 
#    z 0.042820 0.019050 1.879730 
# 
# From -- ./inp_files/427431.got.cif
#   From: 2010.05.17/outbox.cif.g08.bks.cpg/sg2_214_cif.got.tgz:427431.got - 2010.06.03 11:33:40.
