data_PCOD9006846
_publ_section_title
;
Structure prediction by ZEFSAII (Michael W. Deem and Ramdas Pophale) SiO2 
 PCOD9006846
Probable space group: P -1
;
_chemical_formula_sum "Si O2"
_cell_formula_units_Z 14
_cell_length_a 11.141606
_cell_length_b 20.319754
_cell_length_c 9.391141
_cell_angle_alpha 35.417086
_cell_angle_beta 58.950784
_cell_angle_gamma 35.761098
_cell_volume 650.198054
_symmetry_space_group_name_H-M "P -1"
_symmetry_group_IT_number 2
_symmetry_cell_setting 'triclinic'
loop_
_space_group_symop_operation_xyz
x,y,z
-x,-y,-z
loop_
_atom_site_type_symbol
_atom_site_label
_atom_site_fract_x
_atom_site_fract_y
_atom_site_fract_z
Si Si1 0.375181 0.575662 0.788515
Si Si2 0.348808 0.198225 0.304274
Si Si3 0.089229 0.967482 0.343799
Si Si4 0.837716 0.449994 0.240929
Si Si5 0.136270 0.299578 0.735541
Si Si6 0.431534 0.929174 0.320096
Si Si7 0.210599 0.657296 0.262293
O O1 0.178663 0.794448 0.529657
O O2 0.261862 0.531074 0.882399
O O3 0.559482 0.490975 0.706543
O O4 0.500000 0.500000 0.000000
O O5 0.500585 0.149911 0.425448
O O6 0.107269 0.300506 0.324461
O O7 0.500000 0.000000 0.500000
O O8 0.276058 0.357696 0.981586
O O9 0.297554 0.921361 0.324724
O O10 0.000000 0.000000 0.500000
O O11 0.904563 0.147344 0.041362
O O12 0.780888 0.390236 0.497445
O O13 0.333856 0.194984 0.684662
O O14 0.000000 0.500000 0.500000
O O15 0.955763 0.326824 0.737467
O O16 0.273095 0.142964 0.049440
#
# Coordination Sequence:
#
# PCOD9006846 Si02
#       7
#     2   2   2   2   2   2   2
#     4  12  25  44  73  96 133 184 228 282 341 403
#     4  11  26  43  71  96 139 180 222 275 344 406
#     4  11  24  42  68 100 135 176 230 277 334 406
#     4  11  27  46  66 105 138 176 233 280 339 410
#     4  10  21  38  70  95 132 173 220 276 337 396
#     4  10  22  41  63 101 130 170 228 274 327 410
#     4  11  24  44  65 102 138 174 229 281 339 404
#
# _framework density 21.531901000000001
#
# number of rings (size 3 to 8) (size 9 to 14) (size 15 to 20)
#    0.000    1.143    2.857    2.143    4.000    1.714 
#    0.000    0.000    0.000    0.000    0.000    0.000 
#    0.000    0.000    0.000    0.000    0.000    0.000 
#
# Total GULP energy -78205.959356 kJ/mol
# GULP energy per Si atom -5586.139954 kJ/mol
# Density = 2.148289 g / cm^3
# Si number density = 21.531901 Si / 1000 Ang^3
#
#
#
# Elastic Constant Matrix: (Units=GPa)
#
#
# Indices 1 2 3 4 5 6 
#
# 1 67.8012 22.5855 26.8190 -16.1257 -5.9456 8.3070
# 2 22.5855 75.5952 60.8724 -28.1899 -7.6911 -3.1440
# 3 26.8190 60.8724 146.1890 -14.0815 -19.4702 27.0714
# 4 -16.1257 -28.1899 -14.0815 38.7419 13.6726 -9.5869
# 5 -5.9456 -7.6911 -19.4702 13.6726 38.4694 -6.6464
# 6 8.3070 -3.1440 27.0714 -9.5869 -6.6464 27.8809
#
#
#
# Elastic Compliance Matrix: (Units=1/GPa)
#
#
# Indices 1 2 3 4 5 6 
#
# 1 0.017497 -0.003256 -0.000887 0.003860 -0.000369 -0.003479
# 2 -0.003256 0.051926 -0.026684 0.041506 -0.010698 0.044456
# 3 -0.000887 -0.026684 0.022765 -0.022081 0.008649 -0.030379
# 4 0.003860 0.041506 -0.022081 0.066915 -0.018538 0.043560
# 5 -0.000369 -0.010698 0.008649 -0.018538 0.033399 -0.007907
# 6 -0.003479 0.044456 -0.030379 0.043560 -0.007907 0.084507
#
#
# Mechanical properties :
#
#
# Convention : Reuss Voigt Hill
#
# Bulk Modulus (GPa) = 32.74998 56.68212 44.71605
# Shear Modulus (GPa) = 14.33322 32.97233 23.65278
#
# Velocity S-wave (km/s) = 2.58286 3.91746 3.31796
# Velocity P-wave (km/s) = 4.91304 6.84426 5.95742
#
# Compressibility (1/GPa) = 0.03053437
#
# Stress axis : x y z
#
# Youngs Moduli (GPa) = 57.15416 19.25810 43.92728
#
# Poissons Ratio (x) = 0.06270 0.03897
# Poissons Ratio (y) = 0.18608 1.17215
# Poissons Ratio (z) = 0.05070 0.51388
#
# Static dielectric constant tensor:
#      x y z
#    x 1.796340 0.011140 0.006970 
#    y 0.011140 1.758690 0.008700 
#    z 0.006970 0.008700 1.847930 
# 
# From -- ./inp_files/282708.got.cif
#   From: 2010.05.17/outbox.cif.g08.bks.cpg/sg2_142_cif.got.tgz:282708.got - 2010.06.03 11:33:40.
