data_PCOD9006562
_publ_section_title
;
Structure prediction by ZEFSAII (Michael W. Deem and Ramdas Pophale) SiO2 
 PCOD9006562
Probable space group: P -1
;
_chemical_formula_sum "Si O2"
_cell_formula_units_Z 12
_cell_length_a 14.337962
_cell_length_b 13.962535
_cell_length_c 10.856025
_cell_angle_alpha 35.456910
_cell_angle_beta 52.851732
_cell_angle_gamma 28.412672
_cell_volume 547.733307
_symmetry_space_group_name_H-M "P -1"
_symmetry_group_IT_number 2
_symmetry_cell_setting 'triclinic'
loop_
_space_group_symop_operation_xyz
x,y,z
-x,-y,-z
loop_
_atom_site_type_symbol
_atom_site_label
_atom_site_fract_x
_atom_site_fract_y
_atom_site_fract_z
Si Si1 0.679268 0.254460 0.965412
Si Si2 0.627020 0.218837 0.534106
Si Si3 0.358350 0.165070 0.065100
Si Si4 0.202780 0.681894 0.559823
Si Si5 0.909539 0.170356 0.085296
Si Si6 0.540600 0.832577 0.757478
O O1 0.751454 0.261874 0.023097
O O2 0.610987 0.147459 0.150581
O O3 0.486851 0.579263 0.710113
O O4 0.886476 0.011378 0.965838
O O5 0.423440 0.434040 0.563388
O O6 0.774519 0.187488 0.505884
O O7 0.729631 0.915933 0.762220
O O8 0.485799 0.052196 0.208618
O O9 0.207026 0.502162 0.812749
O O10 0.500000 0.000000 0.000000
O O11 0.009578 0.932602 0.356598
O O12 0.780176 0.474326 0.928907
O O13 0.500000 0.000000 0.500000
#
# Coordination Sequence:
#
# PCOD9006562 Si02
#       6
#     2   2   2   2   2   2
#     4  10  21  44  69  92 137 185 217 278 345 398
#     4   9  17  36  67  89 126 180 217 265 335 396
#     4  10  21  38  66  98 132 179 224 267 338 406
#     4   9  18  37  62  94 130 168 220 276 327 395
#     4  10  23  40  68 101 129 177 231 274 340 404
#     4  12  25  43  67 100 138 178 228 282 336 402
#
# _framework density 21.908473000000001
#
# number of rings (size 3 to 8) (size 9 to 14) (size 15 to 20)
#    0.000    2.000    1.667    1.500    2.333    2.667 
#    3.000    0.833    0.000    0.000    0.000    0.000 
#    0.000    0.000    0.000    0.000    0.000    0.000 
#
# Total GULP energy -67090.603206 kJ/mol
# GULP energy per Si atom -5590.883600 kJ/mol
# Density = 2.185861 g / cm^3
# Si number density = 21.908473 Si / 1000 Ang^3
#
#
#
# Elastic Constant Matrix: (Units=GPa)
#
#
# Indices 1 2 3 4 5 6 
#
# 1 148.8119 42.7042 105.3051 13.2646 0.2863 1.9701
# 2 42.7042 84.7283 21.9703 15.0888 0.8825 10.9367
# 3 105.3051 21.9703 210.8313 23.9582 -10.9902 -3.4142
# 4 13.2646 15.0888 23.9582 34.6699 2.1909 2.1015
# 5 0.2863 0.8825 -10.9902 2.1909 44.0154 5.3317
# 6 1.9701 10.9367 -3.4142 2.1015 5.3317 35.3248
#
#
#
# Elastic Compliance Matrix: (Units=1/GPa)
#
#
# Indices 1 2 3 4 5 6 
#
# 1 0.012067 -0.004906 -0.005769 0.001577 -0.001551 0.000429
# 2 -0.004906 0.015430 0.001463 -0.005652 0.000873 -0.004158
# 3 -0.005769 0.001463 0.008069 -0.004176 0.002162 0.000571
# 4 0.001577 -0.005652 -0.004176 0.033771 -0.002577 -0.000362
# 5 -0.001551 0.000873 0.002162 -0.002577 0.023793 -0.003413
# 6 0.000429 -0.004158 0.000571 -0.000362 -0.003413 0.030164
#
#
# Mechanical properties :
#
#
# Convention : Reuss Voigt Hill
#
# Bulk Modulus (GPa) = 58.33783 87.14786 72.74284
# Shear Modulus (GPa) = 33.91412 41.09482 37.50447
#
# Velocity S-wave (km/s) = 3.93872 4.33569 4.14196
# Velocity P-wave (km/s) = 6.88262 8.05784 7.49331
#
# Compressibility (1/GPa) = 0.01714154
#
# Stress axis : x y z
#
# Youngs Moduli (GPa) = 82.87187 64.80905 123.93646
#
# Poissons Ratio (x) = 0.31795 0.71498
# Poissons Ratio (y) = 0.40657 -0.18132
# Poissons Ratio (z) = 0.47808 -0.09481
#
# Static dielectric constant tensor:
#      x y z
#    x 1.775040 0.031190 0.004220 
#    y 0.031190 1.869760 -0.003670 
#    z 0.004220 -0.003670 1.766690 
# 
# From -- ./inp_files/309353.got.cif
#   From: 2010.05.17/outbox.cif.g08.bks.cpg/sg2_155_cif.got.tgz:309353.got - 2010.06.03 11:33:40.
