data_PCOD9006830
_publ_section_title
;
Structure prediction by ZEFSAII (Michael W. Deem and Ramdas Pophale) SiO2 
 PCOD9006830
Probable space group: P -1
;
_chemical_formula_sum "Si O2"
_cell_formula_units_Z 14
_cell_length_a 11.077931
_cell_length_b 13.245574
_cell_length_c 10.874766
_cell_angle_alpha 32.356632
_cell_angle_beta 127.629612
_cell_angle_gamma 136.212014
_cell_volume 590.956436
_symmetry_space_group_name_H-M "P -1"
_symmetry_group_IT_number 2
_symmetry_cell_setting 'triclinic'
loop_
_space_group_symop_operation_xyz
x,y,z
-x,-y,-z
loop_
_atom_site_type_symbol
_atom_site_label
_atom_site_fract_x
_atom_site_fract_y
_atom_site_fract_z
Si Si1 0.157654 0.314273 0.092103
Si Si2 0.670226 0.292586 0.377826
Si Si3 0.363226 0.159551 0.505846
Si Si4 0.611367 0.387462 0.646036
Si Si5 0.839402 0.652113 0.305352
Si Si6 0.151610 0.713049 0.937440
Si Si7 0.209853 0.044478 0.185855
O O1 0.249796 0.281795 0.302953
O O2 0.163982 0.150026 0.164383
O O3 0.958461 0.247683 0.064309
O O4 0.271671 0.557869 0.860848
O O5 0.489258 0.241453 0.381828
O O6 0.807739 0.461159 0.389301
O O7 0.675371 0.070483 0.600217
O O8 0.487605 0.214538 0.645211
O O9 0.229750 0.907506 0.689372
O O10 0.500000 0.500000 0.500000
O O11 0.779168 0.557759 0.498887
O O12 0.688883 0.306782 0.884745
O O13 0.725110 0.761825 0.071896
O O14 0.034248 0.843062 0.233178
O O15 0.000000 0.500000 0.000000
#
# Coordination Sequence:
#
# PCOD9006830 Si02
#       7
#     2   2   2   2   2   2   2
#     4  11  25  45  72 103 143 185 239 283 350 426
#     4  10  22  43  69 102 142 179 237 288 356 404
#     4  11  26  46  70 106 144 183 234 296 352 415
#     4  11  25  44  71 100 143 182 236 290 354 414
#     4   9  21  38  63 102 140 181 227 289 348 420
#     4  12  28  48  73 102 141 193 237 287 353 426
#     4  10  21  38  70 102 137 185 230 289 347 418
#
# _framework density 23.690408000000001
#
# number of rings (size 3 to 8) (size 9 to 14) (size 15 to 20)
#    0.000    1.429    0.000    3.429    8.000    6.286 
#    2.571    0.000    0.000    0.000    0.000    0.000 
#    0.000    0.000    0.000    0.000    0.000    0.000 
#
# Total GULP energy -78278.984092 kJ/mol
# GULP energy per Si atom -5591.356007 kJ/mol
# Density = 2.363649 g / cm^3
# Si number density = 23.690408 Si / 1000 Ang^3
#
#
#
# Elastic Constant Matrix: (Units=GPa)
#
#
# Indices 1 2 3 4 5 6 
#
# 1 54.2150 10.3440 21.5684 -1.8730 22.2422 7.3194
# 2 10.3440 63.6550 -2.5161 0.1222 10.1394 5.2695
# 3 21.5684 -2.5161 132.1309 -0.0923 9.5596 11.7958
# 4 -1.8730 0.1222 -0.0923 40.8004 9.2413 6.2946
# 5 22.2422 10.1394 9.5596 9.2413 45.0578 -2.7360
# 6 7.3194 5.2695 11.7958 6.2946 -2.7360 32.2739
#
#
#
# Elastic Compliance Matrix: (Units=1/GPa)
#
#
# Indices 1 2 3 4 5 6 
#
# 1 0.026613 -0.001685 -0.002759 0.005399 -0.013703 -0.006967
# 2 -0.001685 0.016889 0.001162 0.001223 -0.003670 -0.003350
# 3 -0.002759 0.001162 0.008361 0.000538 -0.000954 -0.002805
# 4 0.005399 0.001223 0.000538 0.028076 -0.009291 -0.007884
# 5 -0.013703 -0.003670 -0.000954 -0.009291 0.032415 0.008616
# 6 -0.006967 -0.003350 -0.002805 -0.007884 0.008616 0.036405
#
#
# Mechanical properties :
#
#
# Convention : Reuss Voigt Hill
#
# Bulk Modulus (GPa) = 22.07555 34.31039 28.19297
# Shear Modulus (GPa) = 29.33897 38.33339 33.83618
#
# Velocity S-wave (km/s) = 3.52295 4.02692 3.78334
# Velocity P-wave (km/s) = 5.08791 6.01130 5.56878
#
# Compressibility (1/GPa) = 0.04529899
#
# Stress axis : x y z
#
# Youngs Moduli (GPa) = 37.57550 59.21069 119.60849
#
# Poissons Ratio (x) = 0.09975 0.33002
# Poissons Ratio (y) = 0.06330 -0.13898
# Poissons Ratio (z) = 0.10368 -0.06880
#
# Static dielectric constant tensor:
#      x y z
#    x 1.944480 0.001460 0.045130 
#    y 0.001460 1.967280 0.080900 
#    z 0.045130 0.080900 1.943010 
# 
# From -- ./inp_files/432374.got.cif
#   From: 2010.05.17/outbox.cif.g08.bks.cpg/sg2_217_cif.got.tgz:432374.got - 2010.06.03 11:33:40.
