data_PCOD9006645
_publ_section_title
;
Structure prediction by ZEFSAII (Michael W. Deem and Ramdas Pophale) SiO2 
 PCOD9006645
Probable space group: P -1
;
_chemical_formula_sum "Si O2"
_cell_formula_units_Z 16
_cell_length_a 12.414940
_cell_length_b 8.291406
_cell_length_c 7.858633
_cell_angle_alpha 89.032553
_cell_angle_beta 75.994614
_cell_angle_gamma 48.485090
_cell_volume 576.136792
_symmetry_space_group_name_H-M "P -1"
_symmetry_group_IT_number 2
_symmetry_cell_setting 'triclinic'
loop_
_space_group_symop_operation_xyz
x,y,z
-x,-y,-z
loop_
_atom_site_type_symbol
_atom_site_label
_atom_site_fract_x
_atom_site_fract_y
_atom_site_fract_z
Si Si1 0.967851 0.283880 0.927146
Si Si2 0.533628 0.805666 0.796952
Si Si3 0.775996 0.797988 0.017302
Si Si4 0.890150 0.265584 0.325615
Si Si5 0.303093 0.630016 0.081115
Si Si6 0.204067 0.001337 0.333512
Si Si7 0.178150 0.338916 0.491491
Si Si8 0.628273 0.304681 0.330186
O O1 0.870627 0.543513 0.965064
O O2 0.954607 0.206326 0.112299
O O3 0.868524 0.271155 0.842821
O O4 0.139125 0.180633 0.867758
O O5 0.579080 0.628173 0.922625
O O6 0.692674 0.717859 0.679988
O O7 0.447722 0.791484 0.682725
O O8 0.400589 0.059585 0.891287
O O9 0.789125 0.889051 0.839330
O O10 0.821629 0.515896 0.372225
O O11 0.777486 0.225535 0.373556
O O12 0.029352 0.122475 0.402502
O O13 0.335462 0.663098 0.877673
O O14 0.308103 0.753651 0.230973
O O15 0.230719 0.098853 0.476303
O O16 0.000000 0.500000 0.500000
O O17 0.500000 0.500000 0.500000
#
# Coordination Sequence:
#
# PCOD9006645 Si02
#       8
#     2   2   2   2   2   2   2   2
#     4   9  21  40  67  94 138 171 229 282 340 408
#     4  12  24  42  70 101 138 178 232 285 343 400
#     4  10  21  40  65 102 126 179 228 286 336 402
#     4   9  20  40  65  90 131 182 225 276 342 406
#     4  11  24  41  67 107 135 176 230 286 339 409
#     4  10  21  38  67  94 133 176 229 281 335 402
#     4  10  22  43  66  93 138 189 223 276 345 409
#     4  11  22  41  68  98 142 179 217 286 349 407
#
# _framework density 27.771180999999999
#
# number of rings (size 3 to 8) (size 9 to 14) (size 15 to 20)
#    0.000    1.750    2.500    1.125    1.750    4.500 
#    2.250    4.375    0.000    0.000    0.000    0.000 
#    0.000    0.000    0.000    0.000    0.000    0.000 
#
# Total GULP energy -89351.584865 kJ/mol
# GULP energy per Si atom -5584.474054 kJ/mol
# Density = 2.770797 g / cm^3
# Si number density = 27.771181 Si / 1000 Ang^3
#
#
#
# Elastic Constant Matrix: (Units=GPa)
#
#
# Indices 1 2 3 4 5 6 
#
# 1 197.4873 36.7101 44.5532 7.0801 -16.3031 7.8791
# 2 36.7101 106.2543 32.1300 15.8001 6.7209 8.3226
# 3 44.5532 32.1300 130.3735 9.6168 -10.5668 -5.9111
# 4 7.0801 15.8001 9.6168 32.9179 -0.1521 2.0137
# 5 -16.3031 6.7209 -10.5668 -0.1521 54.0016 11.4265
# 6 7.8791 8.3226 -5.9111 2.0137 11.4265 55.0384
#
#
#
# Elastic Compliance Matrix: (Units=1/GPa)
#
#
# Indices 1 2 3 4 5 6 
#
# 1 0.005913 -0.001619 -0.001520 0.000030 0.001936 -0.001168
# 2 -0.001619 0.011520 -0.002179 -0.004485 -0.002120 -0.001140
# 3 -0.001520 -0.002179 0.008988 -0.001326 0.001294 0.001292
# 4 0.000030 -0.004485 -0.001326 0.032963 0.000568 -0.000792
# 5 0.001936 -0.002120 0.001294 0.000568 0.020487 -0.004092
# 6 -0.001168 -0.001140 0.001292 -0.000792 -0.004092 0.019526
#
#
# Mechanical properties :
#
#
# Convention : Reuss Voigt Hill
#
# Bulk Modulus (GPa) = 63.34669 73.43352 68.39010
# Shear Modulus (GPa) = 43.36784 49.77303 46.57043
#
# Velocity S-wave (km/s) = 3.95601 4.23810 4.09948
# Velocity P-wave (km/s) = 6.61260 7.10270 6.86203
#
# Compressibility (1/GPa) = 0.01578614
#
# Stress axis : x y z
#
# Youngs Moduli (GPa) = 169.12532 86.80831 111.26139
#
# Poissons Ratio (x) = 0.14051 0.16911
# Poissons Ratio (y) = 0.27375 0.24239
# Poissons Ratio (z) = 0.25705 0.18912
#
# Static dielectric constant tensor:
#      x y z
#    x 2.212760 0.021470 0.060980 
#    y 0.021470 2.232170 -0.013640 
#    z 0.060980 -0.013640 2.214850 
# 
# From -- ./inp_files/417548.got.cif
#   From: 2010.05.17/outbox.cif.g08.bks.cpg/sg2_209_cif.got.tgz:417548.got - 2010.06.03 11:33:40.
