data_PCOD9006138
_publ_section_title
;
Structure prediction by ZEFSAII (Michael W. Deem and Ramdas Pophale) SiO2 
 PCOD9006138
Probable space group: P -1
;
_chemical_formula_sum "Si O2"
_cell_formula_units_Z 16
_cell_length_a 11.615305
_cell_length_b 9.033722
_cell_length_c 11.164818
_cell_angle_alpha 78.422068
_cell_angle_beta 52.734634
_cell_angle_gamma 53.057167
_cell_volume 720.208066
_symmetry_space_group_name_H-M "P -1"
_symmetry_group_IT_number 2
_symmetry_cell_setting 'triclinic'
loop_
_space_group_symop_operation_xyz
x,y,z
-x,-y,-z
loop_
_atom_site_type_symbol
_atom_site_label
_atom_site_fract_x
_atom_site_fract_y
_atom_site_fract_z
Si Si1 0.676621 0.817913 0.987718
Si Si2 0.561862 0.280292 0.736989
Si Si3 0.067530 0.042540 0.833025
Si Si4 0.570937 0.169838 0.495294
Si Si5 0.563028 0.589549 0.819169
Si Si6 0.696921 0.751250 0.529833
Si Si7 0.226106 0.922728 0.134556
Si Si8 0.085744 0.571920 0.237072
O O1 0.810661 0.637713 0.847861
O O2 0.777771 0.905794 0.946269
O O3 0.597162 0.743329 0.139834
O O4 0.500000 0.000000 0.000000
O O5 0.597124 0.261514 0.576733
O O6 0.515157 0.475516 0.786996
O O7 0.725873 0.116029 0.747991
O O8 0.961966 0.034262 0.789527
O O9 0.001371 0.259074 0.834037
O O10 0.282058 0.894711 0.692447
O O11 0.000000 0.000000 0.000000
O O12 0.371404 0.286856 0.542655
O O13 0.617589 0.971099 0.544508
O O14 0.609892 0.708835 0.695668
O O15 0.755776 0.440622 0.789973
O O16 0.400022 0.732455 0.989718
O O17 0.914563 0.628954 0.414667
#
# Coordination Sequence:
#
# PCOD9006138 Si02
#       8
#     2   2   2   2   2   2   2   2
#     4  10  21  38  64  98 132 170 218 276 329 386
#     4  11  22  38  66  96 134 170 221 280 327 392
#     4  11  24  44  68  97 134 179 220 268 336 404
#     4  10  24  45  63  96 134 179 223 267 334 396
#     4  12  21  40  68  99 134 173 220 279 332 390
#     4  10  24  43  66  91 135 179 218 273 332 398
#     4  11  22  40  67  97 133 177 219 273 338 388
#     4  11  22  42  66 101 129 173 229 268 329 396
#
# _framework density 22.215803999999999
#
# number of rings (size 3 to 8) (size 9 to 14) (size 15 to 20)
#    0.000    1.250    3.750    3.000    1.750    4.000 
#    0.000    3.750    0.000    0.000    0.000    0.000 
#    0.000    0.000    0.000    0.000    0.000    0.000 
#
# Total GULP energy -89390.017506 kJ/mol
# GULP energy per Si atom -5586.876094 kJ/mol
# Density = 2.216524 g / cm^3
# Si number density = 22.215804 Si / 1000 Ang^3
#
#
#
# Elastic Constant Matrix: (Units=GPa)
#
#
# Indices 1 2 3 4 5 6 
#
# 1 70.8254 25.3104 17.7123 11.3760 -2.2186 10.4920
# 2 25.3104 51.2354 24.3003 -1.6176 -5.4946 13.0969
# 3 17.7123 24.3003 77.3684 -13.4733 -2.1038 4.2743
# 4 11.3760 -1.6176 -13.4733 32.7929 5.2402 0.6783
# 5 -2.2186 -5.4946 -2.1038 5.2402 38.5582 -1.4021
# 6 10.4920 13.0969 4.2743 0.6783 -1.4021 28.8611
#
#
#
# Elastic Compliance Matrix: (Units=1/GPa)
#
#
# Indices 1 2 3 4 5 6 
#
# 1 0.019482 -0.007402 -0.003449 -0.008630 0.000943 -0.002964
# 2 -0.007402 0.029080 -0.006668 0.000998 0.002877 -0.009402
# 3 -0.003449 -0.006668 0.017096 0.008061 -0.001257 0.001497
# 4 -0.008630 0.000998 0.008061 0.037644 -0.005017 0.000362
# 5 0.000943 0.002877 -0.001257 -0.005017 0.027011 -0.000032
# 6 -0.002964 -0.009402 0.001497 0.000362 -0.000032 0.039761
#
#
# Mechanical properties :
#
#
# Convention : Reuss Voigt Hill
#
# Bulk Modulus (GPa) = 32.65743 37.11945 34.88844
# Shear Modulus (GPa) = 23.22163 28.84952 26.03558
#
# Velocity S-wave (km/s) = 3.23658 3.60752 3.42707
# Velocity P-wave (km/s) = 5.35717 5.83928 5.60341
#
# Compressibility (1/GPa) = 0.03062091
#
# Stress axis : x y z
#
# Youngs Moduli (GPa) = 51.33063 34.38792 58.49368
#
# Poissons Ratio (x) = 0.25454 0.20172
# Poissons Ratio (y) = 0.37995 0.39002
# Poissons Ratio (z) = 0.17702 0.22929
#
# Static dielectric constant tensor:
#      x y z
#    x 1.848500 0.013440 0.022580 
#    y 0.013440 1.854670 -0.042180 
#    z 0.022580 -0.042180 1.812370 
# 
# From -- ./inp_files/419341.got.cif
#   From: 2010.05.17/outbox.cif.g08.bks.cpg/sg2_210_cif.got.tgz:419341.got - 2010.06.03 11:33:40.
