data_PCOD9006876
_publ_section_title
;
Structure prediction by ZEFSAII (Michael W. Deem and Ramdas Pophale) SiO2 
 PCOD9006876
Probable space group: P -1
;
_chemical_formula_sum "Si O2"
_cell_formula_units_Z 14
_cell_length_a 23.272767
_cell_length_b 13.843658
_cell_length_c 5.530208
_cell_angle_alpha 121.247958
_cell_angle_beta 65.268732
_cell_angle_gamma 157.260010
_cell_volume 579.007146
_symmetry_space_group_name_H-M "P -1"
_symmetry_group_IT_number 2
_symmetry_cell_setting 'triclinic'
loop_
_space_group_symop_operation_xyz
x,y,z
-x,-y,-z
loop_
_atom_site_type_symbol
_atom_site_label
_atom_site_fract_x
_atom_site_fract_y
_atom_site_fract_z
Si Si1 0.336759 0.894859 0.540296
Si Si2 0.900309 0.903039 0.740364
Si Si3 0.095872 0.320082 0.307684
Si Si4 0.588417 0.770939 0.879716
Si Si5 0.566921 0.420199 0.612365
Si Si6 0.109265 0.643247 0.282195
Si Si7 0.127612 0.883400 0.286168
O O1 0.250786 0.643156 0.452099
O O2 0.234962 0.768825 0.333643
O O3 0.005947 0.404864 0.975546
O O4 0.500462 0.186832 0.511519
O O5 0.864169 0.745130 0.791898
O O6 0.745396 0.696076 0.637708
O O7 0.000000 0.000000 0.500000
O O8 0.004693 0.168746 0.018849
O O9 0.964329 0.159434 0.503966
O O10 0.504356 0.652507 0.614066
O O11 0.673932 0.028561 0.127375
O O12 0.712613 0.871968 0.816365
O O13 0.477654 0.585333 0.067916
O O14 0.175881 0.873188 0.396936
O O15 0.000000 0.500000 0.500000
#
# Coordination Sequence:
#
# PCOD9006876 Si02
#       7
#     2   2   2   2   2   2   2
#     4  10  21  38  72 109 141 167 227 284 361 406
#     4  11  29  52  68  87 134 195 248 290 332 403
#     4  11  26  43  70 103 130 184 246 284 339 406
#     4  10  21  40  71 109 145 173 211 286 363 423
#     4  10  24  45  73  98 147 181 224 287 358 414
#     4  11  17  31  60 106 148 173 206 279 352 422
#     4  11  20  34  65 107 145 174 219 280 352 423
#
# _framework density 24.179323
#
# number of rings (size 3 to 8) (size 9 to 14) (size 15 to 20)
#    0.857    0.571    4.286    0.857    6.000    0.571 
#    0.000    2.857    0.000    0.000    0.000    0.000 
#    0.000    0.000    0.000    0.000    0.000    0.000 
#
# Total GULP energy -77954.434350 kJ/mol
# GULP energy per Si atom -5568.173882 kJ/mol
# Density = 2.412429 g / cm^3
# Si number density = 24.179323 Si / 1000 Ang^3
#
#
#
# Elastic Constant Matrix: (Units=GPa)
#
#
# Indices 1 2 3 4 5 6 
#
# 1 103.5450 27.0126 21.3410 8.7302 5.4881 4.8628
# 2 27.0126 101.4624 42.2635 0.7748 2.7033 13.0170
# 3 21.3410 42.2635 114.8089 1.9121 1.9193 17.6848
# 4 8.7302 0.7748 1.9121 43.5387 -0.7118 -3.0329
# 5 5.4881 2.7033 1.9193 -0.7118 29.8115 8.2891
# 6 4.8628 13.0170 17.6848 -3.0329 8.2891 46.5567
#
#
#
# Elastic Compliance Matrix: (Units=1/GPa)
#
#
# Indices 1 2 3 4 5 6 
#
# 1 0.010763 -0.002367 -0.001085 -0.002088 -0.001783 0.000131
# 2 -0.002367 0.012298 -0.003827 0.000304 0.000055 -0.001727
# 3 -0.001085 -0.003827 0.010787 -0.000390 0.000695 -0.003063
# 4 -0.002088 0.000304 -0.000390 0.023527 0.000462 0.001732
# 5 -0.001783 0.000055 0.000695 0.000462 0.035614 -0.006404
# 6 0.000131 -0.001727 -0.003063 0.001732 -0.006404 0.024365
#
#
# Mechanical properties :
#
#
# Convention : Reuss Voigt Hill
#
# Bulk Modulus (GPa) = 51.83875 55.67227 53.75551
# Shear Modulus (GPa) = 36.14212 39.26134 37.70173
#
# Velocity S-wave (km/s) = 3.87040 4.03396 3.95302
# Velocity P-wave (km/s) = 6.43888 6.69117 6.56624
#
# Compressibility (1/GPa) = 0.01929059
#
# Stress axis : x y z
#
# Youngs Moduli (GPa) = 92.90936 81.31401 92.70085
#
# Poissons Ratio (x) = 0.19247 0.10058
# Poissons Ratio (y) = 0.21991 0.35477
# Poissons Ratio (z) = 0.10080 0.31119
#
# Static dielectric constant tensor:
#      x y z
#    x 2.296220 0.492520 -0.074060 
#    y 0.492520 3.163570 -0.276340 
#    z -0.074060 -0.276340 1.989720 
# 
# From -- ./inp_files/127208.got.cif
#   From: 2010.05.17/outbox.cif.g08.bks.cpg/sg2_64_cif.got.tgz:127208.got - 2010.06.03 11:33:40.
