data_PCOD9006977
_publ_section_title
;
Structure prediction by ZEFSAII (Michael W. Deem and Ramdas Pophale) SiO2 
 PCOD9006977
Probable space group: P -1
;
_chemical_formula_sum "Si O2"
_cell_formula_units_Z 14
_cell_length_a 9.497784
_cell_length_b 12.951081
_cell_length_c 7.725218
_cell_angle_alpha 86.678247
_cell_angle_beta 48.896755
_cell_angle_gamma 92.932678
_cell_volume 709.787669
_symmetry_space_group_name_H-M "P -1"
_symmetry_group_IT_number 2
_symmetry_cell_setting 'triclinic'
loop_
_space_group_symop_operation_xyz
x,y,z
-x,-y,-z
loop_
_atom_site_type_symbol
_atom_site_label
_atom_site_fract_x
_atom_site_fract_y
_atom_site_fract_z
Si Si1 0.656784 0.731563 0.318447
Si Si2 0.326558 0.394605 0.331212
Si Si3 0.564295 0.359274 0.818156
Si Si4 0.031908 0.872392 0.112977
Si Si5 0.954633 0.262842 0.535664
Si Si6 0.370327 0.896161 0.571705
Si Si7 0.044957 0.933185 0.633126
O O1 0.658784 0.650253 0.482868
O O2 0.596943 0.678463 0.188841
O O3 0.848911 0.810469 0.174445
O O4 0.491345 0.802406 0.475697
O O5 0.371663 0.518617 0.278293
O O6 0.117282 0.356589 0.433127
O O7 0.472613 0.349212 0.084871
O O8 0.752497 0.301292 0.656803
O O9 0.060976 0.807772 0.271038
O O10 0.791672 0.128657 0.153760
O O11 0.010669 0.991442 0.176026
O O12 0.028565 0.187081 0.335714
O O13 0.264744 0.922500 0.479374
O O14 0.500000 0.000000 0.500000
O O15 0.000000 0.000000 0.500000
#
# Coordination Sequence:
#
# PCOD9006977 Si02
#       7
#     2   2   2   2   2   2   2
#     4  11  23  40  63  89 122 159 199 247 299 355
#     4  10  24  41  61  90 123 153 201 256 298 350
#     4  11  22  40  65  90 116 160 204 245 303 355
#     4  10  23  40  58  88 126 157 193 248 295 350
#     4  10  21  41  61  86 122 159 197 246 298 353
#     4  12  23  38  60  87 120 158 200 240 293 359
#     4  10  21  39  58  85 120 155 195 241 294 353
#
# _framework density 19.724208999999998
#
# number of rings (size 3 to 8) (size 9 to 14) (size 15 to 20)
#    0.000    1.429    2.857    2.143    2.000    0.000 
#    0.000    1.429    0.000    9.429    0.000    0.000 
#    0.000    0.000    0.000    0.000    0.000    0.000 
#
# Total GULP energy -78084.312674 kJ/mol
# GULP energy per Si atom -5577.450905 kJ/mol
# Density = 1.967932 g / cm^3
# Si number density = 19.724209 Si / 1000 Ang^3
#
#
#
# Elastic Constant Matrix: (Units=GPa)
#
#
# Indices 1 2 3 4 5 6 
#
# 1 129.5837 45.0233 36.8739 -2.7555 -3.8710 14.2767
# 2 45.0233 102.2516 41.1997 7.2351 -3.0622 16.8225
# 3 36.8739 41.1997 97.4143 -2.3563 -7.8717 6.5931
# 4 -2.7555 7.2351 -2.3563 23.7424 2.9981 -1.3446
# 5 -3.8710 -3.0622 -7.8717 2.9981 27.7721 1.5885
# 6 14.2767 16.8225 6.5931 -1.3446 1.5885 32.8090
#
#
#
# Elastic Compliance Matrix: (Units=1/GPa)
#
#
# Indices 1 2 3 4 5 6 
#
# 1 0.009705 -0.003186 -0.002114 0.001725 0.000337 -0.002110
# 2 -0.003186 0.014310 -0.004562 -0.005577 0.000746 -0.005299
# 3 -0.002114 -0.004562 0.013226 0.002150 0.002687 0.000559
# 4 0.001725 -0.005577 0.002150 0.045057 -0.004844 0.003758
# 5 0.000337 0.000746 0.002687 -0.004844 0.037598 -0.003088
# 6 -0.002110 -0.005299 0.000559 0.003758 -0.003088 0.034306
#
#
# Mechanical properties :
#
#
# Convention : Reuss Voigt Hill
#
# Bulk Modulus (GPa) = 57.09054 63.93814 60.51434
# Shear Modulus (GPa) = 27.81420 30.60822 29.21121
#
# Velocity S-wave (km/s) = 3.75928 3.94358 3.85253
# Velocity P-wave (km/s) = 6.91738 7.29535 7.10888
#
# Compressibility (1/GPa) = 0.01751604
#
# Stress axis : x y z
#
# Youngs Moduli (GPa) = 103.04074 69.88321 75.60618
#
# Poissons Ratio (x) = 0.22266 0.15985
# Poissons Ratio (y) = 0.32831 0.34491
# Poissons Ratio (z) = 0.21785 0.31880
#
# Static dielectric constant tensor:
#      x y z
#    x 1.736310 0.043660 0.045350 
#    y 0.043660 1.696370 0.018490 
#    z 0.045350 0.018490 1.694670 
# 
# From -- ./inp_files/177260.got.cif
#   From: 2010.05.17/outbox.cif.g08.bks.cpg/sg2_89_cif.got.tgz:177260.got - 2010.06.03 11:33:40.
