data_PCOD9006431
_publ_section_title
;
Structure prediction by ZEFSAII (Michael W. Deem and Ramdas Pophale) SiO2 
 PCOD9006431
Probable space group: P -1
;
_chemical_formula_sum "Si O2"
_cell_formula_units_Z 16
_cell_length_a 9.607199
_cell_length_b 9.192038
_cell_length_c 9.397382
_cell_angle_alpha 105.160073
_cell_angle_beta 63.799325
_cell_angle_gamma 99.737235
_cell_volume 717.318233
_symmetry_space_group_name_H-M "P -1"
_symmetry_group_IT_number 2
_symmetry_cell_setting 'triclinic'
loop_
_space_group_symop_operation_xyz
x,y,z
-x,-y,-z
loop_
_atom_site_type_symbol
_atom_site_label
_atom_site_fract_x
_atom_site_fract_y
_atom_site_fract_z
Si Si1 0.258445 0.784665 0.537499
Si Si2 0.861716 0.899931 0.964429
Si Si3 0.390349 0.640794 0.970928
Si Si4 0.912062 0.786109 0.617124
Si Si5 0.540546 0.595468 0.362600
Si Si6 0.634876 0.129416 0.190139
Si Si7 0.257850 0.398111 0.139282
Si Si8 0.307882 0.122338 0.491333
O O1 0.658113 0.737224 0.383276
O O2 0.267613 0.782596 0.705553
O O3 0.303648 0.959376 0.523696
O O4 0.089871 0.750022 0.539754
O O5 0.703721 0.967861 0.103497
O O6 0.884527 0.908200 0.785641
O O7 0.847059 0.718557 0.941606
O O8 0.000000 0.000000 0.000000
O O9 0.400177 0.516098 0.809691
O O10 0.347206 0.790132 0.949168
O O11 0.565288 0.654250 0.956597
O O12 0.270785 0.567017 0.119860
O O13 0.807040 0.640057 0.683765
O O14 0.846930 0.848492 0.518011
O O15 0.500000 0.500000 0.500000
O O16 0.386391 0.673870 0.401715
O O17 0.456144 0.128557 0.319045
#
# Coordination Sequence:
#
# PCOD9006431 Si02
#       8
#     2   2   2   2   2   2   2   2
#     4  11  23  37  63  87 123 160 202 251 299 359
#     4  10  21  38  66  84 120 159 194 249 311 347
#     4  11  21  39  63  89 121 155 202 248 302 355
#     4  10  21  42  59  87 127 152 199 259 298 349
#     4  11  21  39  63  87 120 162 199 247 301 361
#     4  11  19  39  62  90 117 153 205 251 297 356
#     4   9  22  39  62  87 122 153 196 259 294 353
#     4  11  23  37  62  90 120 157 209 250 294 356
#
# _framework density 22.305304
#
# number of rings (size 3 to 8) (size 9 to 14) (size 15 to 20)
#    0.750    0.750    5.000    1.875    3.500    2.000 
#    2.250    5.000    2.750    0.000    0.000    0.000 
#    0.000    0.000    0.000    0.000    0.000    0.000 
#
# Total GULP energy -89348.036457 kJ/mol
# GULP energy per Si atom -5584.252279 kJ/mol
# Density = 2.225454 g / cm^3
# Si number density = 22.305304 Si / 1000 Ang^3
#
#
#
# Elastic Constant Matrix: (Units=GPa)
#
#
# Indices 1 2 3 4 5 6 
#
# 1 113.9460 19.1052 6.2708 -8.1707 -3.4997 -2.4183
# 2 19.1052 64.7564 10.0995 -29.0592 -2.8234 3.3010
# 3 6.2708 10.0995 28.6687 -2.1425 8.7014 -0.9321
# 4 -8.1707 -29.0592 -2.1425 39.1834 -0.1990 0.3391
# 5 -3.4997 -2.8234 8.7014 -0.1990 23.4817 0.0537
# 6 -2.4183 3.3010 -0.9321 0.3391 0.0537 36.1367
#
#
#
# Elastic Compliance Matrix: (Units=1/GPa)
#
#
# Indices 1 2 3 4 5 6 
#
# 1 0.009351 -0.002441 -0.001678 0.000050 0.001721 0.000802
# 2 -0.002441 0.026437 -0.009452 0.018639 0.006482 -0.003007
# 3 -0.001678 -0.009452 0.043601 -0.005082 -0.017591 0.001949
# 4 0.000050 0.018639 -0.005082 0.039119 0.004468 -0.002204
# 5 0.001721 0.006482 -0.017591 0.004468 0.050181 -0.001047
# 6 0.000802 -0.003007 0.001949 -0.002204 -0.001047 0.028074
#
#
# Mechanical properties :
#
#
# Convention : Reuss Voigt Hill
#
# Bulk Modulus (GPa) = 19.13950 30.92468 25.03209
# Shear Modulus (GPa) = 20.71955 31.22009 25.96982
#
# Velocity S-wave (km/s) = 3.05110 3.74528 3.41587
# Velocity P-wave (km/s) = 4.58384 5.70939 5.17730
#
# Compressibility (1/GPa) = 0.05224796
#
# Stress axis : x y z
#
# Youngs Moduli (GPa) = 106.93918 37.82600 22.93547
#
# Poissons Ratio (x) = 0.09232 0.03849
# Poissons Ratio (y) = 0.26100 0.21678
# Poissons Ratio (z) = 0.17945 0.35752
#
# Static dielectric constant tensor:
#      x y z
#    x 1.830960 0.024960 0.008510 
#    y 0.024960 1.824710 -0.027680 
#    z 0.008510 -0.027680 1.857100 
# 
# From -- ./inp_files/378577.got.cif
#   From: 2010.05.17/outbox.cif.g08.bks.cpg/sg2_190_cif.got.tgz:378577.got - 2010.06.03 11:33:40.
