data_PCOD9006327
_publ_section_title
;
Structure prediction by ZEFSAII (Michael W. Deem and Ramdas Pophale) SiO2 
 PCOD9006327
Probable space group: P -1
;
_chemical_formula_sum "Si O2"
_cell_formula_units_Z 12
_cell_length_a 11.658143
_cell_length_b 15.915958
_cell_length_c 10.271266
_cell_angle_alpha 35.193433
_cell_angle_beta 52.731783
_cell_angle_gamma 28.007247
_cell_volume 466.050600
_symmetry_space_group_name_H-M "P -1"
_symmetry_group_IT_number 2
_symmetry_cell_setting 'triclinic'
loop_
_space_group_symop_operation_xyz
x,y,z
-x,-y,-z
loop_
_atom_site_type_symbol
_atom_site_label
_atom_site_fract_x
_atom_site_fract_y
_atom_site_fract_z
Si Si1 0.245288 0.696044 0.831454
Si Si2 0.280184 0.217378 0.538939
Si Si3 0.666537 0.132872 0.143663
Si Si4 0.527856 0.233957 0.534586
Si Si5 0.850589 0.799959 0.066333
Si Si6 0.757895 0.293944 0.679098
O O1 0.235435 0.858209 0.556936
O O2 0.500000 0.500000 0.000000
O O3 0.380833 0.456809 0.950633
O O4 0.014986 0.811529 0.923507
O O5 0.437125 0.223031 0.482632
O O6 0.203779 0.197803 0.750818
O O7 0.029115 0.507815 0.271136
O O8 0.390544 0.988382 0.671711
O O9 0.768119 0.128583 0.950155
O O10 0.942361 0.921788 0.307565
O O11 0.320050 0.517422 0.395757
O O12 0.613017 0.040080 0.826018
O O13 0.500000 0.500000 0.500000
#
# Coordination Sequence:
#
# PCOD9006327 Si02
#       6
#     2   2   2   2   2   2
#     4  11  24  44  66  92 129 175 212 264 322 374
#     4  11  23  42  67  96 131 170 210 264 321 380
#     4  10  24  40  62  93 130 164 215 262 317 380
#     4  11  23  42  69  96 128 170 217 263 317 380
#     4  11  23  40  68  96 130 167 214 259 321 381
#     4  10  21  38  65  95 124 168 216 265 308 373
#
# _framework density 25.748276000000001
#
# number of rings (size 3 to 8) (size 9 to 14) (size 15 to 20)
#    0.000    1.333    1.667    4.000    7.000    2.000 
#    0.000    0.833    0.000    0.000    0.000    0.000 
#    0.000    0.000    0.000    0.000    0.000    0.000 
#
# Total GULP energy -66981.913692 kJ/mol
# GULP energy per Si atom -5581.826141 kJ/mol
# Density = 2.568967 g / cm^3
# Si number density = 25.748276 Si / 1000 Ang^3
#
#
#
# Elastic Constant Matrix: (Units=GPa)
#
#
# Indices 1 2 3 4 5 6 
#
# 1 110.2024 19.1000 40.1460 -9.2049 -36.8835 -12.6950
# 2 19.1000 74.9312 13.4523 21.1800 -12.3755 -19.2882
# 3 40.1460 13.4523 188.2910 13.4226 -26.8859 -5.5493
# 4 -9.2049 21.1800 13.4226 47.4128 -5.6746 -13.8573
# 5 -36.8835 -12.3755 -26.8859 -5.6746 55.5485 -3.1629
# 6 -12.6950 -19.2882 -5.5493 -13.8573 -3.1629 32.2753
#
#
#
# Elastic Compliance Matrix: (Units=1/GPa)
#
#
# Indices 1 2 3 4 5 6 
#
# 1 0.015221 -0.001844 -0.001991 0.008194 0.010085 0.009049
# 2 -0.001844 0.017864 0.000140 -0.005793 0.002673 0.007750
# 3 -0.001991 0.000140 0.006064 -0.002124 0.001403 -0.000431
# 4 0.008194 -0.005793 -0.002124 0.030568 0.006997 0.013206
# 5 0.010085 0.002673 0.001403 0.006997 0.027342 0.011489
# 6 0.009049 0.007750 -0.000431 0.013206 0.011489 0.045896
#
#
# Mechanical properties :
#
#
# Convention : Reuss Voigt Hill
#
# Bulk Modulus (GPa) = 31.48625 57.64679 44.56652
# Shear Modulus (GPa) = 31.06905 47.09573 39.08239
#
# Velocity S-wave (km/s) = 3.47745 4.28142 3.90020
# Velocity P-wave (km/s) = 5.32715 6.84674 6.13419
#
# Compressibility (1/GPa) = 0.03175990
#
# Stress axis : x y z
#
# Youngs Moduli (GPa) = 65.69815 55.97821 164.89482
#
# Poissons Ratio (x) = 0.10320 0.32832
# Poissons Ratio (y) = 0.12112 -0.02305
# Poissons Ratio (z) = 0.13081 -0.00783
#
# Static dielectric constant tensor:
#      x y z
#    x 2.169470 0.025920 0.047780 
#    y 0.025920 2.273660 -0.098950 
#    z 0.047780 -0.098950 2.037770 
# 
# From -- ./inp_files/277283.got.cif
#   From: 2010.05.17/outbox.cif.g08.bks.cpg/sg2_139_cif.got.tgz:277283.got - 2010.06.03 11:33:40.
