data_PCOD9006717
_publ_section_title
;
Structure prediction by ZEFSAII (Michael W. Deem and Ramdas Pophale) SiO2 
 PCOD9006717
Probable space group: P -1
;
_chemical_formula_sum "Si O2"
_cell_formula_units_Z 16
_cell_length_a 9.554910
_cell_length_b 9.516361
_cell_length_c 12.942098
_cell_angle_alpha 92.111639
_cell_angle_beta 77.661740
_cell_angle_gamma 41.369499
_cell_volume 723.486937
_symmetry_space_group_name_H-M "P -1"
_symmetry_group_IT_number 2
_symmetry_cell_setting 'triclinic'
loop_
_space_group_symop_operation_xyz
x,y,z
-x,-y,-z
loop_
_atom_site_type_symbol
_atom_site_label
_atom_site_fract_x
_atom_site_fract_y
_atom_site_fract_z
Si Si1 0.328889 0.708381 0.955180
Si Si2 0.512677 0.145106 0.952842
Si Si3 0.138396 0.362406 0.611370
Si Si4 0.707632 0.242379 0.276606
Si Si5 0.954431 0.336997 0.009560
Si Si6 0.719860 0.928624 0.230423
Si Si7 0.317359 0.371213 0.390502
Si Si8 0.054032 0.228521 0.230357
O O1 0.377508 0.661854 0.824432
O O2 0.105695 0.782278 0.002558
O O3 0.500000 0.500000 0.000000
O O4 0.354201 0.849286 0.991018
O O5 0.269162 0.402175 0.977807
O O6 0.678973 0.013922 0.823377
O O7 0.500000 0.000000 0.000000
O O8 0.251547 0.203247 0.686496
O O9 0.304700 0.286452 0.492764
O O10 0.010481 0.599497 0.677427
O O11 0.940709 0.412840 0.598141
O O12 0.476990 0.385915 0.380765
O O13 0.886193 0.225314 0.277483
O O14 0.827963 0.997168 0.248729
O O15 0.846139 0.779678 0.105218
O O16 0.002780 0.317849 0.122669
O O17 0.457599 0.177907 0.275086
#
# Coordination Sequence:
#
# PCOD9006717 Si02
#       8
#     2   2   2   2   2   2   2   2
#     4   9  19  35  58  83 122 165 196 229 292 367
#     4  11  23  34  55  88 127 158 194 240 296 353
#     4  11  23  42  67  87 119 159 207 256 305 348
#     4   9  21  40  62  87 124 158 204 249 296 360
#     4  10  22  38  57  91 122 163 195 236 302 373
#     4  10  21  38  68  88 121 159 204 248 299 362
#     4   9  24  43  65  88 115 161 214 249 296 362
#     4  11  24  39  57  94 128 157 194 251 302 356
#
# _framework density 22.115119
#
# number of rings (size 3 to 8) (size 9 to 14) (size 15 to 20)
#    0.750    1.250    0.000    2.625    5.250    6.500 
#    2.250    0.000    0.000    1.500    0.000    0.000 
#    0.000    0.000    0.000    0.000    0.000    0.000 
#
# Total GULP energy -89267.680964 kJ/mol
# GULP energy per Si atom -5579.230060 kJ/mol
# Density = 2.206478 g / cm^3
# Si number density = 22.115119 Si / 1000 Ang^3
#
#
#
# Elastic Constant Matrix: (Units=GPa)
#
#
# Indices 1 2 3 4 5 6 
#
# 1 94.0486 17.1115 28.9842 6.1822 -23.2271 26.4123
# 2 17.1115 67.3462 9.4837 4.9909 -8.6737 10.4005
# 3 28.9842 9.4837 80.4188 3.2147 -31.5493 -5.0542
# 4 6.1822 4.9909 3.2147 27.7978 2.6344 -1.9827
# 5 -23.2271 -8.6737 -31.5493 2.6344 41.1089 3.1636
# 6 26.4123 10.4005 -5.0542 -1.9827 3.1636 33.0966
#
#
#
# Elastic Compliance Matrix: (Units=1/GPa)
#
#
# Indices 1 2 3 4 5 6 
#
# 1 0.019632 0.000004 -0.004155 -0.006055 0.009646 -0.017588
# 2 0.000004 0.016602 -0.000771 -0.003655 0.003602 -0.005902
# 3 -0.004155 -0.000771 0.019076 -0.001894 0.011849 0.005226
# 4 -0.006055 -0.003655 -0.001894 0.039673 -0.008874 0.008916
# 5 0.009646 0.003602 0.011849 -0.008874 0.041081 -0.011479
# 6 -0.017588 -0.005902 0.005226 0.008916 -0.011479 0.048534
#
#
# Mechanical properties :
#
#
# Convention : Reuss Voigt Hill
#
# Bulk Modulus (GPa) = 21.99453 39.21915 30.60684
# Shear Modulus (GPa) = 23.85510 32.81628 28.33569
#
# Velocity S-wave (km/s) = 3.28789 3.85630 3.58338
# Velocity P-wave (km/s) = 4.93768 6.13194 5.56693
#
# Compressibility (1/GPa) = 0.04546585
#
# Stress axis : x y z
#
# Youngs Moduli (GPa) = 50.93668 60.23249 52.42181
#
# Poissons Ratio (x) = -0.00025 0.21783
# Poissons Ratio (y) = -0.00021 0.04042
# Poissons Ratio (z) = 0.21166 0.04645
#
# Static dielectric constant tensor:
#      x y z
#    x 1.878350 0.007990 -0.025800 
#    y 0.007990 1.839360 0.019580 
#    z -0.025800 0.019580 1.788350 
# 
# From -- ./inp_files/318050.got.cif
#   From: 2010.05.17/outbox.cif.g08.bks.cpg/sg2_160_cif.got.tgz:318050.got - 2010.06.03 11:33:40.
