data_PCOD9006704
_publ_section_title
;
Structure prediction by ZEFSAII (Michael W. Deem and Ramdas Pophale) SiO2 
 PCOD9006704
Probable space group: P -1
;
_chemical_formula_sum "Si O2"
_cell_formula_units_Z 14
_cell_length_a 14.473575
_cell_length_b 10.087013
_cell_length_c 10.450935
_cell_angle_alpha 116.762619
_cell_angle_beta 27.738223
_cell_angle_gamma 118.279370
_cell_volume 623.604999
_symmetry_space_group_name_H-M "P -1"
_symmetry_group_IT_number 2
_symmetry_cell_setting 'triclinic'
loop_
_space_group_symop_operation_xyz
x,y,z
-x,-y,-z
loop_
_atom_site_type_symbol
_atom_site_label
_atom_site_fract_x
_atom_site_fract_y
_atom_site_fract_z
Si Si1 0.978505 0.171122 0.613841
Si Si2 0.588426 0.171742 0.497581
Si Si3 0.989641 0.677905 0.083085
Si Si4 0.244645 0.336921 0.882025
Si Si5 0.328991 0.663509 0.038364
Si Si6 0.322038 0.404568 0.264331
Si Si7 0.178390 0.687400 0.514271
O O1 0.755720 0.200875 0.864946
O O2 0.155441 0.271490 0.354614
O O3 0.024050 0.244213 0.729801
O O4 0.000000 0.000000 0.500000
O O5 0.803145 0.231498 0.193174
O O6 0.639214 0.194212 0.596453
O O7 0.500000 0.000000 0.500000
O O8 0.429966 0.271372 0.683707
O O9 0.805199 0.690506 0.218182
O O10 0.000000 0.500000 0.000000
O O11 0.276846 0.514577 0.951606
O O12 0.035592 0.267220 0.178866
O O13 0.207689 0.648797 0.315126
O O14 0.556745 0.666666 0.805998
O O15 0.195263 0.535501 0.507658
O O16 0.500000 0.500000 0.000000
#
# Coordination Sequence:
#
# PCOD9006704 Si02
#       7
#     2   2   2   2   2   2   2
#     4  12  27  45  66 102 142 173 216 286 341 382
#     4  11  26  43  66 100 134 173 223 285 336 385
#     4  11  25  47  67  97 135 182 232 261 325 425
#     4  11  22  40  72  93 129 183 224 270 333 395
#     4  11  22  38  70  98 131 178 221 275 336 391
#     4  10  22  40  68 100 127 167 229 269 319 414
#     4  10  21  38  68 104 127 164 232 276 324 405
#
# _framework density 22.450109000000001
#
# number of rings (size 3 to 8) (size 9 to 14) (size 15 to 20)
#    0.000    1.143    4.286    1.286    2.000    9.143 
#    0.000    0.000    0.000    0.000    0.000    0.000 
#    0.000    0.000    0.000    0.000    0.000    0.000 
#
# Total GULP energy -78168.927306 kJ/mol
# GULP energy per Si atom -5583.494808 kJ/mol
# Density = 2.239901 g / cm^3
# Si number density = 22.450109 Si / 1000 Ang^3
#
#
#
# Elastic Constant Matrix: (Units=GPa)
#
#
# Indices 1 2 3 4 5 6 
#
# 1 111.2145 22.1086 40.2185 20.2756 -21.0760 -1.9447
# 2 22.1086 133.4825 22.8558 16.3491 -0.9438 22.5594
# 3 40.2185 22.8558 78.8105 3.0922 -19.3841 -3.6298
# 4 20.2756 16.3491 3.0922 37.2777 -0.2630 -1.0139
# 5 -21.0760 -0.9438 -19.3841 -0.2630 48.0303 -0.8339
# 6 -1.9447 22.5594 -3.6298 -1.0139 -0.8339 16.8519
#
#
#
# Elastic Compliance Matrix: (Units=1/GPa)
#
#
# Indices 1 2 3 4 5 6 
#
# 1 0.012809 -0.000605 -0.005215 -0.006218 0.003487 0.000963
# 2 -0.000605 0.011818 -0.004223 -0.004986 -0.002064 -0.017203
# 3 -0.005215 -0.004223 0.018134 0.003477 0.005130 0.009420
# 4 -0.006218 -0.004986 0.003477 0.032332 -0.001097 0.008598
# 5 0.003487 -0.002064 0.005130 -0.001097 0.024468 0.005414
# 6 0.000963 -0.017203 0.009420 0.008598 0.005414 0.085295
#
#
# Mechanical properties :
#
#
# Convention : Reuss Voigt Hill
#
# Bulk Modulus (GPa) = 44.10161 54.87481 49.48821
# Shear Modulus (GPa) = 23.52921 36.32029 29.92475
#
# Velocity S-wave (km/s) = 3.24090 4.02658 3.65491
# Velocity P-wave (km/s) = 5.80444 6.79072 6.31686
#
# Compressibility (1/GPa) = 0.02267491
#
# Stress axis : x y z
#
# Youngs Moduli (GPa) = 78.06882 84.61371 55.14518
#
# Poissons Ratio (x) = 0.05120 0.28760
# Poissons Ratio (y) = 0.04724 0.23287
# Poissons Ratio (z) = 0.40716 0.35731
#
# Static dielectric constant tensor:
#      x y z
#    x 1.921980 -0.020850 0.060880 
#    y -0.020850 1.814700 -0.030730 
#    z 0.060880 -0.030730 1.916180 
# 
# From -- ./inp_files/446256.got.cif
#   From: 2010.05.17/outbox.cif.g08.bks.cpg/sg2_224_cif.got.tgz:446256.got - 2010.06.03 11:33:40.
