data_PCOD9006983
_publ_section_title
;
Structure prediction by ZEFSAII (Michael W. Deem and Ramdas Pophale) SiO2 
 PCOD9006983
Probable space group: P -1
;
_chemical_formula_sum "Si O2"
_cell_formula_units_Z 16
_cell_length_a 6.832135
_cell_length_b 14.443553
_cell_length_c 11.211313
_cell_angle_alpha 47.816039
_cell_angle_beta 114.354180
_cell_angle_gamma 96.318541
_cell_volume 723.662207
_symmetry_space_group_name_H-M "P -1"
_symmetry_group_IT_number 2
_symmetry_cell_setting 'triclinic'
loop_
_space_group_symop_operation_xyz
x,y,z
-x,-y,-z
loop_
_atom_site_type_symbol
_atom_site_label
_atom_site_fract_x
_atom_site_fract_y
_atom_site_fract_z
Si Si1 0.739121 0.299008 0.745954
Si Si2 0.419708 0.632633 0.746168
Si Si3 0.565319 0.989840 0.720321
Si Si4 0.112767 0.838772 0.320563
Si Si5 0.326341 0.948226 0.921740
Si Si6 0.330519 0.445783 0.355200
Si Si7 0.259425 0.185050 0.291175
Si Si8 0.955995 0.387410 0.169923
O O1 0.914679 0.241082 0.735744
O O2 0.508967 0.360204 0.563831
O O3 0.778238 0.417550 0.730349
O O4 0.714340 0.182500 0.923010
O O5 0.230564 0.741721 0.536514
O O6 0.536385 0.542229 0.744386
O O7 0.595311 0.708891 0.772155
O O8 0.283621 0.581893 0.857822
O O9 0.432167 0.929239 0.834165
O O10 0.730428 0.885636 0.770284
O O11 0.709596 0.078518 0.740032
O O12 0.388270 0.080657 0.509293
O O13 0.896329 0.937844 0.227357
O O14 0.500000 0.000000 0.000000
O O15 0.142079 0.375359 0.330212
O O16 0.021965 0.257794 0.220561
O O17 0.000000 0.500000 0.000000
#
# Coordination Sequence:
#
# PCOD9006983 Si02
#       8
#     2   2   2   2   2   2   2   2
#     4  10  21  41  60  85 124 162 195 250 291 356
#     4   9  20  39  64  84 116 157 194 249 297 356
#     4  10  21  39  60  88 119 160 193 243 300 355
#     4  10  21  39  58  87 121 156 198 237 301 365
#     4  12  24  35  60  92 121 156 195 250 302 347
#     4   9  22  43  59  84 121 160 205 241 296 358
#     4   9  21  40  61  84 122 155 198 243 295 361
#     4  11  23  38  60  88 113 154 202 254 301 345
#
# _framework density 22.109763999999998
#
# number of rings (size 3 to 8) (size 9 to 14) (size 15 to 20)
#    0.000    2.000    1.250    1.875    1.750    6.000 
#    2.250    5.625    0.000    0.000    0.000    0.000 
#    0.000    0.000    0.000    0.000    0.000    0.000 
#
# Total GULP energy -89467.315731 kJ/mol
# GULP energy per Si atom -5591.707233 kJ/mol
# Density = 2.205944 g / cm^3
# Si number density = 22.109764 Si / 1000 Ang^3
#
#
#
# Elastic Constant Matrix: (Units=GPa)
#
#
# Indices 1 2 3 4 5 6 
#
# 1 82.6165 20.4425 16.0040 6.7565 0.8841 -27.0550
# 2 20.4425 125.0191 20.8063 -17.2934 0.2362 -33.4048
# 3 16.0040 20.8063 38.0429 -2.4526 -2.4617 -8.8314
# 4 6.7565 -17.2934 -2.4526 21.2183 -7.6222 3.1748
# 5 0.8841 0.2362 -2.4617 -7.6222 27.5563 -6.6628
# 6 -27.0550 -33.4048 -8.8314 3.1748 -6.6628 27.5901
#
#
#
# Elastic Compliance Matrix: (Units=1/GPa)
#
#
# Indices 1 2 3 4 5 6 
#
# 1 0.020652 0.002613 -0.005061 -0.007661 0.002365 0.023248
# 2 0.002613 0.014973 -0.003466 0.010570 0.007267 0.020120
# 3 -0.005061 -0.003466 0.031168 0.003740 0.004359 0.001440
# 4 -0.007661 0.010570 0.003740 0.065021 0.019364 0.003677
# 5 0.002365 0.007267 0.004359 0.019364 0.047136 0.021667
# 6 0.023248 0.020120 0.001440 0.003677 0.021667 0.088672
#
#
# Mechanical properties :
#
#
# Convention : Reuss Voigt Hill
#
# Bulk Modulus (GPa) = 18.19325 40.02046 29.10686
# Shear Modulus (GPa) = 16.79140 27.83466 22.31303
#
# Velocity S-wave (km/s) = 2.75881 3.55199 3.18023
# Velocity P-wave (km/s) = 4.28889 5.91289 5.16512
#
# Compressibility (1/GPa) = 0.05496543
#
# Stress axis : x y z
#
# Youngs Moduli (GPa) = 48.42065 66.78860 32.08405
#
# Poissons Ratio (x) = -0.17452 0.16238
# Poissons Ratio (y) = -0.12652 0.11119
# Poissons Ratio (z) = 0.24506 0.23147
#
# Static dielectric constant tensor:
#      x y z
#    x 1.791190 -0.021570 0.015380 
#    y -0.021570 1.809640 0.012100 
#    z 0.015380 0.012100 1.845340 
# 
# From -- ./inp_files/66466.got.cif
#   From: 2010.05.17/outbox.cif.g08.bks.cpg/sg2_34_cif.got.tgz:66466.got - 2010.06.03 11:33:40.
