data_PCOD9006232
_publ_section_title
;
Structure prediction by ZEFSAII (Michael W. Deem and Ramdas Pophale) SiO2 
 PCOD9006232
Probable space group: P -1
;
_chemical_formula_sum "Si O2"
_cell_formula_units_Z 14
_cell_length_a 11.678790
_cell_length_b 5.555282
_cell_length_c 13.098077
_cell_angle_alpha 88.827619
_cell_angle_beta 138.596052
_cell_angle_gamma 78.608777
_cell_volume 531.992738
_symmetry_space_group_name_H-M "P -1"
_symmetry_group_IT_number 2
_symmetry_cell_setting 'triclinic'
loop_
_space_group_symop_operation_xyz
x,y,z
-x,-y,-z
loop_
_atom_site_type_symbol
_atom_site_label
_atom_site_fract_x
_atom_site_fract_y
_atom_site_fract_z
Si Si1 0.877537 0.463791 0.120299
Si Si2 0.185220 0.769972 0.115953
Si Si3 0.705226 0.801354 0.519556
Si Si4 0.680751 0.063720 0.990323
Si Si5 0.721923 0.697281 0.299868
Si Si6 0.297833 0.703094 0.422881
Si Si7 0.073868 0.781994 0.470020
O O1 0.853003 0.438622 0.981660
O O2 0.777377 0.263848 0.098004
O O3 0.779826 0.763293 0.073520
O O4 0.090992 0.335892 0.294569
O O5 0.315114 0.875554 0.129480
O O6 0.236896 0.698441 0.266810
O O7 0.000000 0.000000 0.000000
O O8 0.728861 0.824879 0.413812
O O9 0.610386 0.586991 0.479508
O O10 0.611040 0.079837 0.499129
O O11 0.469184 0.157791 0.879331
O O12 0.903367 0.671797 0.357066
O O13 0.747023 0.411572 0.354852
O O14 0.131705 0.808323 0.393339
O O15 0.000000 0.000000 0.500000
#
# Coordination Sequence:
#
# PCOD9006232 Si02
#       7
#     2   2   2   2   2   2   2
#     4  10  22  39  64  94 132 173 206 256 325 388
#     4  10  21  38  65  90 133 171 216 250 322 385
#     4  11  21  38  64  93 125 167 215 259 310 389
#     4  10  24  40  64  97 134 170 208 268 323 373
#     4  10  23  42  67  97 128 164 220 273 319 374
#     4  11  22  35  63  95 122 158 222 262 303 374
#     4  10  21  40  68  90 124 173 215 266 322 386
#
# _framework density 26.316147000000001
#
# number of rings (size 3 to 8) (size 9 to 14) (size 15 to 20)
#    0.857    0.857    2.857    1.714    4.000    1.143 
#    0.000    3.571    0.000   30.000    0.000    0.000 
#    0.000    0.000    0.000    0.000    0.000    0.000 
#
# Total GULP energy -78215.297432 kJ/mol
# GULP energy per Si atom -5586.806959 kJ/mol
# Density = 2.625625 g / cm^3
# Si number density = 26.316147 Si / 1000 Ang^3
#
#
#
# Elastic Constant Matrix: (Units=GPa)
#
#
# Indices 1 2 3 4 5 6 
#
# 1 123.6885 18.2321 56.2457 -5.4605 -7.9004 -0.3679
# 2 18.2321 170.1028 45.7045 -23.1786 7.9421 9.8458
# 3 56.2457 45.7045 107.9157 -11.0604 -12.9949 -6.2079
# 4 -5.4605 -23.1786 -11.0604 31.9519 -10.0353 -4.0436
# 5 -7.9004 7.9421 -12.9949 -10.0353 44.1806 -2.6966
# 6 -0.3679 9.8458 -6.2079 -4.0436 -2.6966 34.0434
#
#
#
# Elastic Compliance Matrix: (Units=1/GPa)
#
#
# Indices 1 2 3 4 5 6 
#
# 1 0.010658 0.000485 -0.005811 0.000042 0.000053 -0.001075
# 2 0.000485 0.007427 -0.003375 0.003487 -0.001600 -0.002471
# 3 -0.005811 -0.003375 0.015011 0.003947 0.005155 0.004528
# 4 0.000042 0.003487 0.003947 0.038887 0.009686 0.005098
# 5 0.000053 -0.001600 0.005155 0.009686 0.026934 0.004687
# 6 -0.001075 -0.002471 0.004528 0.005098 0.004687 0.031880
#
#
# Mechanical properties :
#
#
# Convention : Reuss Voigt Hill
#
# Bulk Modulus (GPa) = 63.73042 71.34128 67.53585
# Shear Modulus (GPa) = 32.58806 40.80348 36.69577
#
# Velocity S-wave (km/s) = 3.52281 3.94193 3.73824
# Velocity P-wave (km/s) = 6.38880 6.92001 6.65970
#
# Compressibility (1/GPa) = 0.01569109
#
# Stress axis : x y z
#
# Youngs Moduli (GPa) = 93.82529 134.65153 66.61939
#
# Poissons Ratio (x) = -0.06525 0.38715
# Poissons Ratio (y) = -0.04546 0.22486
# Poissons Ratio (z) = 0.54525 0.45449
#
# Static dielectric constant tensor:
#      x y z
#    x 2.182340 0.110560 -0.037930 
#    y 0.110560 2.165330 0.076430 
#    z -0.037930 0.076430 2.104440 
# 
# From -- ./inp_files/525785.got.cif
#   From: 2010.05.17/outbox.cif.g08.bks.cpg/sg2_263_cif.got.tgz:525785.got - 2010.06.03 11:33:40.
