data_PCOD9006430
_publ_section_title
;
Structure prediction by ZEFSAII (Michael W. Deem and Ramdas Pophale) SiO2 
 PCOD9006430
Probable space group: P -1
;
_chemical_formula_sum "Si O2"
_cell_formula_units_Z 15
_cell_length_a 4.987549
_cell_length_b 9.877003
_cell_length_c 15.348403
_cell_angle_alpha 60.869724
_cell_angle_beta 97.305173
_cell_angle_gamma 67.681968
_cell_volume 563.602244
_symmetry_space_group_name_H-M "P -1"
_symmetry_group_IT_number 2
_symmetry_cell_setting 'triclinic'
loop_
_space_group_symop_operation_xyz
x,y,z
-x,-y,-z
loop_
_atom_site_type_symbol
_atom_site_label
_atom_site_fract_x
_atom_site_fract_y
_atom_site_fract_z
Si Si1 0.500000 0.000000 0.000000
Si Si2 0.753673 0.799060 0.348673
Si Si3 0.292060 0.835070 0.452908
Si Si4 0.550234 0.593435 0.155211
Si Si5 0.469378 0.672073 0.872340
Si Si6 0.069327 0.259998 0.809892
Si Si7 0.810588 0.860684 0.878192
Si Si8 0.844251 0.235489 0.342149
O O1 0.227799 0.047585 0.894105
O O2 0.780471 0.920096 0.957674
O O3 0.612596 0.741884 0.440556
O O4 0.897231 0.683384 0.302651
O O5 0.023150 0.830926 0.386285
O O6 0.447171 0.973571 0.242817
O O7 0.290297 0.750779 0.571970
O O8 0.163267 0.045865 0.403445
O O9 0.470818 0.528179 0.083436
O O10 0.649972 0.743607 0.115317
O O11 0.856836 0.412892 0.260992
O O12 0.270527 0.641750 0.195035
O O13 0.730604 0.701045 0.916376
O O14 0.407448 0.747668 0.745738
O O15 0.135596 0.790772 0.865093
#
# Coordination Sequence:
#
# PCOD9006430 Si02
#       8
#     1   2   2   2   2   2   2   2
#     4  10  28  42  70  90 122 146 214 250 292 366
#     4  11  20  36  58  85 123 159 203 246 299 347
#     4  11  21  36  60  96 116 159 209 249 283 342
#     4  10  22  41  63  87 123 166 190 243 310 357
#     4  10  21  38  66  83 124 158 197 236 310 354
#     4  11  24  43  63  86 120 164 198 248 307 354
#     4  11  20  41  60  93 115 160 191 256 300 355
#     4   9  22  37  64  89 126 156 201 249 291 354
#
# _framework density 26.614514
#
# number of rings (size 3 to 8) (size 9 to 14) (size 15 to 20)
#    0.800    0.800    2.667    1.600    0.000   10.667 
#    0.000    8.000    0.000    0.000    0.000    0.000 
#    0.000    0.000    0.000    0.000    0.000    0.000 
#
# Total GULP energy -83743.035957 kJ/mol
# GULP energy per Si atom -5582.869064 kJ/mol
# Density = 2.655394 g / cm^3
# Si number density = 26.614514 Si / 1000 Ang^3
#
#
#
# Elastic Constant Matrix: (Units=GPa)
#
#
# Indices 1 2 3 4 5 6 
#
# 1 139.0293 53.5759 26.6001 32.4790 -19.9910 -8.0523
# 2 53.5759 75.2050 41.1116 28.1617 -2.4001 2.0185
# 3 26.6001 41.1116 107.9471 22.6526 -12.5999 -5.1594
# 4 32.4790 28.1617 22.6526 51.6298 -14.6061 -7.7932
# 5 -19.9910 -2.4001 -12.5999 -14.6061 27.1217 8.3208
# 6 -8.0523 2.0185 -5.1594 -7.7932 8.3208 42.6970
#
#
#
# Elastic Compliance Matrix: (Units=1/GPa)
#
#
# Indices 1 2 3 4 5 6 
#
# 1 0.011561 -0.008488 0.001534 -0.000997 0.007607 0.001102
# 2 -0.008488 0.026887 -0.007615 -0.009786 -0.011671 -0.003304
# 3 0.001534 -0.007615 0.012622 -0.000590 0.005710 0.000954
# 4 -0.000997 -0.009786 -0.000590 0.029798 0.013233 0.003063
# 5 0.007607 -0.011671 0.005710 0.013233 0.052820 -0.005202
# 6 0.001102 -0.003304 0.000954 0.003063 -0.005202 0.025473
#
#
# Mechanical properties :
#
#
# Convention : Reuss Voigt Hill
#
# Bulk Modulus (GPa) = 45.59627 62.75074 54.17350
# Shear Modulus (GPa) = 25.56113 37.68263 31.62188
#
# Velocity S-wave (km/s) = 3.10243 3.76688 3.45069
# Velocity P-wave (km/s) = 5.47747 6.52289 6.02290
#
# Compressibility (1/GPa) = 0.02193162
#
# Stress axis : x y z
#
# Youngs Moduli (GPa) = 86.49968 37.19285 79.22751
#
# Poissons Ratio (x) = 0.31568 -0.12151
# Poissons Ratio (y) = 0.73417 0.60332
# Poissons Ratio (z) = -0.13266 0.28322
#
# Static dielectric constant tensor:
#      x y z
#    x 2.144690 0.132040 -0.075220 
#    y 0.132040 2.418340 -0.181480 
#    z -0.075220 -0.181480 2.225920 
# 
# From -- ./inp_files/482137.got.cif
#   From: 2010.05.17/outbox.cif.g08.bks.cpg/sg2_242_cif.got.tgz:482137.got - 2010.06.03 11:33:40.
