data_PCOD9006080
_publ_section_title
;
Structure prediction by ZEFSAII (Michael W. Deem and Ramdas Pophale) SiO2 
 PCOD9006080
Probable space group: P -1
;
_chemical_formula_sum "Si O2"
_cell_formula_units_Z 14
_cell_length_a 7.325947
_cell_length_b 11.780384
_cell_length_c 7.653984
_cell_angle_alpha 83.700780
_cell_angle_beta 74.545979
_cell_angle_gamma 90.554153
_cell_volume 632.308909
_symmetry_space_group_name_H-M "P -1"
_symmetry_group_IT_number 2
_symmetry_cell_setting 'triclinic'
loop_
_space_group_symop_operation_xyz
x,y,z
-x,-y,-z
loop_
_atom_site_type_symbol
_atom_site_label
_atom_site_fract_x
_atom_site_fract_y
_atom_site_fract_z
Si Si1 0.588772 0.608709 0.858343
Si Si2 0.806322 0.013940 0.648485
Si Si3 0.842789 0.588134 0.474143
Si Si4 0.891301 0.610866 0.069253
Si Si5 0.964337 0.806632 0.252879
Si Si6 0.496518 0.152996 0.108490
Si Si7 0.577466 0.920433 0.250695
O O1 0.671990 0.579501 0.654202
O O2 0.461411 0.718560 0.864435
O O3 0.500000 0.500000 0.000000
O O4 0.761292 0.644547 0.937541
O O5 0.624131 0.073632 0.597059
O O6 0.877490 0.096349 0.772761
O O7 0.708788 0.895240 0.757429
O O8 0.000000 0.000000 0.500000
O O9 0.786331 0.575838 0.285741
O O10 0.945528 0.714479 0.429923
O O11 0.000000 0.500000 0.500000
O O12 0.001788 0.725593 0.090888
O O13 0.000000 0.500000 0.000000
O O14 0.757993 0.861015 0.288821
O O15 0.624085 0.052609 0.165655
O O16 0.476725 0.142337 0.907043
#
# Coordination Sequence:
#
# PCOD9006080 Si02
#       7
#     2   2   2   2   2   2   2
#     4  12  23  42  68  94 138 182 221 284 339 397
#     4  10  21  38  64  95 131 174 219 281 350 395
#     4  10  22  41  67  95 134 175 230 277 338 406
#     4  10  22  42  65  97 135 174 231 276 340 414
#     4  10  21  41  69  95 138 176 224 286 347 407
#     4   9  20  41  60  94 136 165 226 276 332 408
#     4   9  20  39  64  91 137 168 226 274 334 413
#
# _framework density 22.141076999999999
#
# number of rings (size 3 to 8) (size 9 to 14) (size 15 to 20)
#    1.714    0.286    2.857    0.857    0.000    4.000 
#    0.000    0.000    0.000    0.000    0.000    0.000 
#    0.000    0.000    0.000    0.000    0.000    0.000 
#
# Total GULP energy -77964.746449 kJ/mol
# GULP energy per Si atom -5568.910461 kJ/mol
# Density = 2.209068 g / cm^3
# Si number density = 22.141077 Si / 1000 Ang^3
#
#
#
# Elastic Constant Matrix: (Units=GPa)
#
#
# Indices 1 2 3 4 5 6 
#
# 1 68.3836 27.2206 15.5648 7.7289 -6.9898 -18.9092
# 2 27.2206 150.3556 25.2230 9.3220 -12.7120 -18.3047
# 3 15.5648 25.2230 119.1662 11.5364 -13.3775 -0.7799
# 4 7.7289 9.3220 11.5364 30.6490 0.7861 3.9805
# 5 -6.9898 -12.7120 -13.3775 0.7861 33.3805 1.1453
# 6 -18.9092 -18.3047 -0.7799 3.9805 1.1453 40.4271
#
#
#
# Elastic Compliance Matrix: (Units=1/GPa)
#
#
# Indices 1 2 3 4 5 6 
#
# 1 0.018703 -0.001625 -0.001276 -0.004899 0.002613 0.008396
# 2 -0.001625 0.007767 -0.000974 -0.002015 0.002176 0.002875
# 3 -0.001276 -0.000974 0.009404 -0.002919 0.003222 -0.000660
# 4 -0.004899 -0.002015 -0.002919 0.036544 -0.003592 -0.006757
# 5 0.002613 0.002176 0.003222 -0.003592 0.032651 0.001699
# 6 0.008396 0.002875 -0.000660 -0.006757 0.001699 0.030569
#
#
# Mechanical properties :
#
#
# Convention : Reuss Voigt Hill
#
# Bulk Modulus (GPa) = 35.55545 52.65803 44.10674
# Shear Modulus (GPa) = 32.73008 38.88446 35.80727
#
# Velocity S-wave (km/s) = 3.84897 4.19527 4.02585
# Velocity P-wave (km/s) = 5.98717 6.87762 6.44778
#
# Compressibility (1/GPa) = 0.02812509
#
# Stress axis : x y z
#
# Youngs Moduli (GPa) = 53.46654 128.74362 106.33329
#
# Poissons Ratio (x) = 0.20922 0.13572
# Poissons Ratio (y) = 0.08689 0.10352
# Poissons Ratio (z) = 0.06824 0.12534
#
# Static dielectric constant tensor:
#      x y z
#    x 1.822140 0.003290 -0.015040 
#    y 0.003290 1.883230 0.044050 
#    z -0.015040 0.044050 1.860810 
# 
# From -- ./inp_files/169195.got.cif
#   From: 2010.05.17/outbox.cif.g08.bks.cpg/sg2_85_cif.got.tgz:169195.got - 2010.06.03 11:33:40.
