data_PCOD9006049
_publ_section_title
;
Structure prediction by ZEFSAII (Michael W. Deem and Ramdas Pophale) SiO2 
 PCOD9006049
Probable space group: P -1
;
_chemical_formula_sum "Si O2"
_cell_formula_units_Z 16
_cell_length_a 20.230434
_cell_length_b 10.535607
_cell_length_c 6.578525
_cell_angle_alpha 60.232626
_cell_angle_beta 51.248581
_cell_angle_gamma 45.993486
_cell_volume 781.745863
_symmetry_space_group_name_H-M "P -1"
_symmetry_group_IT_number 2
_symmetry_cell_setting 'triclinic'
loop_
_space_group_symop_operation_xyz
x,y,z
-x,-y,-z
loop_
_atom_site_type_symbol
_atom_site_label
_atom_site_fract_x
_atom_site_fract_y
_atom_site_fract_z
Si Si1 0.450812 0.178100 0.323211
Si Si2 0.444598 0.757273 0.274620
Si Si3 0.613014 0.522889 0.462123
Si Si4 0.812253 0.943504 0.837901
Si Si5 0.093187 0.302277 0.515043
Si Si6 0.828463 0.191331 0.310599
Si Si7 0.292669 0.101695 0.556444
Si Si8 0.051913 0.074090 0.048471
O O1 0.416136 0.348587 0.392331
O O2 0.357320 0.186064 0.387192
O O3 0.500000 0.000000 0.500000
O O4 0.532214 0.160266 0.021879
O O5 0.547829 0.650909 0.298042
O O6 0.421820 0.613871 0.360949
O O7 0.354060 0.920024 0.451436
O O8 0.736548 0.396614 0.307230
O O9 0.855380 0.779357 0.735193
O O10 0.899810 0.914580 0.846951
O O11 0.786094 0.100901 0.607547
O O12 0.728622 0.955117 0.140180
O O13 0.185118 0.246257 0.539704
O O14 0.000000 0.500000 0.500000
O O15 0.044273 0.205582 0.785838
O O16 0.937085 0.128102 0.253547
O O17 0.864874 0.112076 0.075401
#
# Coordination Sequence:
#
# PCOD9006049 Si02
#       8
#     2   2   2   2   2   2   2   2
#     4  12  27  43  67  99 131 175 224 274 334 395
#     4  11  25  47  66  93 135 172 225 275 326 393
#     4  11  25  41  68  99 128 175 221 278 323 395
#     4  10  21  39  65  90 128 170 221 264 331 396
#     4  10  23  39  61  92 129 169 214 270 327 394
#     4  10  21  38  64  93 130 168 217 274 326 386
#     4  11  25  42  68  94 128 178 217 272 339 390
#     4   9  20  39  60  94 126 170 216 269 329 385
#
# _framework density 20.467008
#
# number of rings (size 3 to 8) (size 9 to 14) (size 15 to 20)
#    0.000    1.500    1.250    3.375    3.500    8.000 
#    0.000    0.000    0.000    0.000    0.000    0.000 
#    0.000    0.000    0.000    0.000    0.000    0.000 
#
# Total GULP energy -89306.418526 kJ/mol
# GULP energy per Si atom -5581.651158 kJ/mol
# Density = 2.042042 g / cm^3
# Si number density = 20.467008 Si / 1000 Ang^3
#
#
#
# Elastic Constant Matrix: (Units=GPa)
#
#
# Indices 1 2 3 4 5 6 
#
# 1 84.2721 21.6368 27.5223 4.3684 7.0054 6.7910
# 2 21.6368 113.5746 43.0515 14.1874 5.5186 -13.1345
# 3 27.5223 43.0515 113.5045 7.3850 1.9314 -0.5967
# 4 4.3684 14.1874 7.3850 20.1425 0.9399 1.3776
# 5 7.0054 5.5186 1.9314 0.9399 16.0239 -1.7845
# 6 6.7910 -13.1345 -0.5967 1.3776 -1.7845 34.2936
#
#
#
# Elastic Compliance Matrix: (Units=1/GPa)
#
#
# Indices 1 2 3 4 5 6 
#
# 1 0.013964 -0.001802 -0.002609 -0.000284 -0.005574 -0.003779
# 2 -0.001802 0.012091 -0.003630 -0.007052 -0.001956 0.005106
# 3 -0.002609 -0.003630 0.010855 -0.000866 0.001067 -0.000594
# 4 -0.000284 -0.007052 -0.000866 0.055384 -0.001142 -0.004944
# 5 -0.005574 -0.001956 0.001067 -0.001142 0.065884 0.003847
# 6 -0.003779 0.005106 -0.000594 -0.004944 0.003847 0.032252
#
#
# Mechanical properties :
#
#
# Convention : Reuss Voigt Hill
#
# Bulk Modulus (GPa) = 48.01420 55.08582 51.55001
# Shear Modulus (GPa) = 23.42429 28.70139 26.06284
#
# Velocity S-wave (km/s) = 3.38670 3.74882 3.57235
# Velocity P-wave (km/s) = 6.22922 6.76100 6.50055
#
# Compressibility (1/GPa) = 0.02082717
#
# Stress axis : x y z
#
# Youngs Moduli (GPa) = 71.61447 82.70954 92.12584
#
# Poissons Ratio (x) = 0.14904 0.24035
# Poissons Ratio (y) = 0.12905 0.33441
# Poissons Ratio (z) = 0.18684 0.30023
#
# Static dielectric constant tensor:
#      x y z
#    x 1.786290 0.010890 -0.020000 
#    y 0.010890 1.730120 0.011350 
#    z -0.020000 0.011350 1.728510 
# 
# From -- ./inp_files/106726.got.cif
#   From: 2010.05.17/outbox.cif.g08.bks.cpg/sg2_54_cif.got.tgz:106726.got - 2010.06.03 11:33:40.
