data_PCOD9006978
_publ_section_title
;
Structure prediction by ZEFSAII (Michael W. Deem and Ramdas Pophale) SiO2 
 PCOD9006978
Probable space group: P -1
;
_chemical_formula_sum "Si O2"
_cell_formula_units_Z 16
_cell_length_a 6.368214
_cell_length_b 8.927197
_cell_length_c 14.514296
_cell_angle_alpha 83.336556
_cell_angle_beta 89.663928
_cell_angle_gamma 118.574934
_cell_volume 717.955015
_symmetry_space_group_name_H-M "P -1"
_symmetry_group_IT_number 2
_symmetry_cell_setting 'triclinic'
loop_
_space_group_symop_operation_xyz
x,y,z
-x,-y,-z
loop_
_atom_site_type_symbol
_atom_site_label
_atom_site_fract_x
_atom_site_fract_y
_atom_site_fract_z
Si Si1 0.977193 0.085140 0.899706
Si Si2 0.834395 0.040983 0.245821
Si Si3 0.260595 0.423808 0.949365
Si Si4 0.996998 0.601809 0.868386
Si Si5 0.768535 0.637675 0.517478
Si Si6 0.327427 0.767610 0.175693
Si Si7 0.379712 0.098106 0.548665
Si Si8 0.136722 0.624196 0.376125
O O1 0.755471 0.123302 0.895827
O O2 0.975829 0.991736 0.811517
O O3 0.211884 0.272480 0.890518
O O4 0.000000 0.000000 0.000000
O O5 0.917401 0.239625 0.211296
O O6 0.585293 0.903204 0.206071
O O7 0.790813 0.003350 0.357254
O O8 0.058319 0.346711 0.035337
O O9 0.500000 0.500000 0.000000
O O10 0.213815 0.560588 0.885437
O O11 0.759549 0.420100 0.857423
O O12 0.500000 0.500000 0.500000
O O13 0.751401 0.813135 0.514927
O O14 0.868188 0.560751 0.603009
O O15 0.932141 0.638891 0.431925
O O16 0.151996 0.695744 0.269840
O O17 0.613559 0.250822 0.584562
O O18 0.500000 0.000000 0.500000
#
# Coordination Sequence:
#
# PCOD9006978 Si02
#       8
#     2   2   2   2   2   2   2   2
#     4  11  22  38  62  90 119 163 205 253 314 370
#     4  11  23  40  63  90 124 165 206 256 313 368
#     4  10  21  39  58  85 122 155 204 251 304 363
#     4  10  22  38  58  87 119 160 200 252 300 365
#     4   9  18  35  61  84 114 157 205 255 309 371
#     4  10  23  40  58  89 126 160 207 257 303 374
#     4  10  22  39  59  91 127 162 206 262 315 370
#     4   9  19  38  61  87 119 167 209 253 316 371
#
# _framework density 22.285520000000002
#
# number of rings (size 3 to 8) (size 9 to 14) (size 15 to 20)
#    0.000    2.000    1.250    1.500    1.750    4.000 
#    0.000    6.250    0.000    0.000    0.000    0.000 
#    0.000    0.000    0.000    0.000    0.000    0.000 
#
# Total GULP energy -89147.398831 kJ/mol
# GULP energy per Si atom -5571.712427 kJ/mol
# Density = 2.223480 g / cm^3
# Si number density = 22.285520 Si / 1000 Ang^3
#
#
#
# Elastic Constant Matrix: (Units=GPa)
#
#
# Indices 1 2 3 4 5 6 
#
# 1 64.4124 39.4264 15.6858 -7.4932 2.1515 -12.9803
# 2 39.4264 114.5833 35.6875 -8.8882 9.0008 -32.1719
# 3 15.6858 35.6875 77.4354 -6.4129 -7.6188 -25.9370
# 4 -7.4932 -8.8882 -6.4129 31.4115 4.4245 8.7958
# 5 2.1515 9.0008 -7.6188 4.4245 28.3613 3.0683
# 6 -12.9803 -32.1719 -25.9370 8.7958 3.0683 39.4906
#
#
#
# Elastic Compliance Matrix: (Units=1/GPa)
#
#
# Indices 1 2 3 4 5 6 
#
# 1 0.019971 -0.006302 -0.000838 0.002759 -0.000201 0.000281
# 2 -0.006302 0.014726 -0.003358 0.000574 -0.006059 0.008063
# 3 -0.000838 -0.003358 0.017934 -0.000590 0.005119 0.008501
# 4 0.002759 0.000574 -0.000590 0.035082 -0.005329 -0.006413
# 5 -0.000201 -0.006059 0.005119 -0.005329 0.039788 -0.003544
# 6 0.000281 0.008063 0.008501 -0.006413 -0.003544 0.039271
#
#
# Mechanical properties :
#
#
# Convention : Reuss Voigt Hill
#
# Bulk Modulus (GPa) = 31.61196 48.67006 40.14101
# Shear Modulus (GPa) = 25.21284 30.89478 28.05381
#
# Velocity S-wave (km/s) = 3.36721 3.72737 3.55186
# Velocity P-wave (km/s) = 5.41602 6.35697 5.90527
#
# Compressibility (1/GPa) = 0.03163359
#
# Stress axis : x y z
#
# Youngs Moduli (GPa) = 50.07326 67.90771 55.76104
#
# Poissons Ratio (x) = 0.42795 0.04674
# Poissons Ratio (y) = 0.31556 0.18725
# Poissons Ratio (z) = 0.04198 0.22804
#
# Static dielectric constant tensor:
#      x y z
#    x 1.899910 -0.089890 -0.016730 
#    y -0.089890 1.956270 0.004600 
#    z -0.016730 0.004600 1.859250 
# 
# From -- ./inp_files/297282.got.cif
#   From: 2010.05.17/outbox.cif.g08.bks.cpg/sg2_149_cif.got.tgz:297282.got - 2010.06.03 11:33:40.
