data_PCOD9006141
_publ_section_title
;
Structure prediction by ZEFSAII (Michael W. Deem and Ramdas Pophale) SiO2 
 PCOD9006141
Probable space group: P -1
;
_chemical_formula_sum "Si O2"
_cell_formula_units_Z 16
_cell_length_a 9.043105
_cell_length_b 8.180994
_cell_length_c 15.060829
_cell_angle_alpha 117.988100
_cell_angle_beta 68.919240
_cell_angle_gamma 140.554417
_cell_volume 625.115099
_symmetry_space_group_name_H-M "P -1"
_symmetry_group_IT_number 2
_symmetry_cell_setting 'triclinic'
loop_
_space_group_symop_operation_xyz
x,y,z
-x,-y,-z
loop_
_atom_site_type_symbol
_atom_site_label
_atom_site_fract_x
_atom_site_fract_y
_atom_site_fract_z
Si Si1 0.821380 0.917261 0.089796
Si Si2 0.945490 0.969448 0.323285
Si Si3 0.511484 0.280175 0.701109
Si Si4 0.870363 0.465967 0.810449
Si Si5 0.387766 0.653128 0.995080
Si Si6 0.637315 0.822265 0.807616
Si Si7 0.267356 0.544762 0.673109
Si Si8 0.211369 0.540003 0.481745
O O1 0.732555 0.646543 0.080756
O O2 0.594775 0.796250 0.056636
O O3 0.974519 0.220393 0.166993
O O4 0.000000 0.000000 0.000000
O O5 0.765587 0.941550 0.299449
O O6 0.794017 0.722401 0.362657
O O7 0.093641 0.962080 0.224402
O O8 0.114351 0.249980 0.411166
O O9 0.639344 0.284257 0.753722
O O10 0.589030 0.561129 0.763410
O O11 0.598988 0.271800 0.587689
O O12 0.041128 0.453617 0.737068
O O13 0.799830 0.401410 0.914457
O O14 0.526551 0.826737 0.919104
O O15 0.491518 0.773315 0.743478
O O16 0.299894 0.624239 0.584363
O O17 0.000000 0.500000 0.500000
#
# Coordination Sequence:
#
# PCOD9006141 Si02
#       8
#     2   2   2   2   2   2   2   2
#     4   9  19  36  62  94 132 175 223 285 333 386
#     4  10  25  45  69  95 139 187 218 278 342 405
#     4  10  22  42  69 100 132 174 230 274 338 404
#     4  11  23  40  65 103 140 175 227 289 333 399
#     4  10  21  38  64  98 134 183 234 269 335 406
#     4  10  23  43  65  94 135 182 228 276 330 407
#     4  11  25  45  65 101 141 176 224 276 348 410
#     4  11  23  45  71 104 134 171 229 282 339 407
#
# _framework density 25.595286000000002
#
# number of rings (size 3 to 8) (size 9 to 14) (size 15 to 20)
#    0.000    1.750    1.250    2.625    0.000   18.500 
#    2.250    1.250    0.000    0.000    0.000    0.000 
#    0.000    0.000    0.000    0.000    0.000    0.000 
#
# Total GULP energy -89433.523482 kJ/mol
# GULP energy per Si atom -5589.595218 kJ/mol
# Density = 2.553703 g / cm^3
# Si number density = 25.595286 Si / 1000 Ang^3
#
#
#
# Elastic Constant Matrix: (Units=GPa)
#
#
# Indices 1 2 3 4 5 6 
#
# 1 116.3218 24.3520 66.6621 -6.6398 11.1139 28.8273
# 2 24.3520 73.6990 55.1246 -23.5997 9.1548 5.8853
# 3 66.6621 55.1246 170.6679 -40.0989 -1.2360 16.9324
# 4 -6.6398 -23.5997 -40.0989 53.0390 5.0883 -3.2826
# 5 11.1139 9.1548 -1.2360 5.0883 35.5683 7.5463
# 6 28.8273 5.8853 16.9324 -3.2826 7.5463 43.0256
#
#
#
# Elastic Compliance Matrix: (Units=1/GPa)
#
#
# Indices 1 2 3 4 5 6 
#
# 1 0.013295 -0.000704 -0.004923 -0.002555 -0.002367 -0.006654
# 2 -0.000704 0.020063 -0.005032 0.005705 -0.006196 0.001229
# 3 -0.004923 -0.005032 0.010603 0.004900 0.002556 -0.000261
# 4 -0.002555 0.005705 0.004900 0.025314 -0.004486 0.001722
# 5 -0.002367 -0.006196 0.002556 -0.004486 0.032146 -0.004553
# 6 -0.006654 0.001229 -0.000261 0.001722 -0.004553 0.028564
#
#
# Mechanical properties :
#
#
# Convention : Reuss Voigt Hill
#
# Bulk Modulus (GPa) = 44.16148 72.55180 58.35664
# Shear Modulus (GPa) = 31.47626 40.62992 36.05309
#
# Velocity S-wave (km/s) = 3.51061 3.98854 3.75718
# Velocity P-wave (km/s) = 5.80721 7.04404 6.45532
#
# Compressibility (1/GPa) = 0.02264417
#
# Stress axis : x y z
#
# Youngs Moduli (GPa) = 75.21845 49.84221 94.31280
#
# Poissons Ratio (x) = 0.03507 0.46430
# Poissons Ratio (y) = 0.05292 0.47457
# Poissons Ratio (z) = 0.37030 0.25080
#
# Static dielectric constant tensor:
#      x y z
#    x 1.994050 -0.023150 -0.014650 
#    y -0.023150 2.028460 0.055870 
#    z -0.014650 0.055870 2.046600 
# 
# From -- ./inp_files/495422.got.cif
#   From: 2010.05.17/outbox.cif.g08.bks.cpg/sg2_248_cif.got.tgz:495422.got - 2010.06.03 11:33:40.
