data_PCOD9006629
_publ_section_title
;
Structure prediction by ZEFSAII (Michael W. Deem and Ramdas Pophale) SiO2 
 PCOD9006629
Probable space group: P -1
;
_chemical_formula_sum "Si O2"
_cell_formula_units_Z 14
_cell_length_a 17.191103
_cell_length_b 5.200068
_cell_length_c 11.456013
_cell_angle_alpha 78.016217
_cell_angle_beta 142.746003
_cell_angle_gamma 103.059385
_cell_volume 603.239559
_symmetry_space_group_name_H-M "P -1"
_symmetry_group_IT_number 2
_symmetry_cell_setting 'triclinic'
loop_
_space_group_symop_operation_xyz
x,y,z
-x,-y,-z
loop_
_atom_site_type_symbol
_atom_site_label
_atom_site_fract_x
_atom_site_fract_y
_atom_site_fract_z
Si Si1 0.537193 0.723993 0.120195
Si Si2 0.315329 0.422064 0.015158
Si Si3 0.841284 0.667869 0.833546
Si Si4 0.924886 0.257420 0.304900
Si Si5 0.065749 0.867072 0.930201
Si Si6 0.801395 0.796022 0.339764
Si Si7 0.586721 0.764571 0.611644
O O1 0.441449 0.630645 0.120726
O O2 0.693315 0.754729 0.314748
O O3 0.500000 0.500000 0.000000
O O4 0.500000 0.000000 0.000000
O O5 0.346844 0.260604 0.180779
O O6 0.184777 0.554530 0.867452
O O7 0.281677 0.261456 0.871827
O O8 0.701833 0.773652 0.654458
O O9 0.925658 0.725483 0.813409
O O10 0.841360 0.357850 0.896877
O O11 0.913209 0.859265 0.000250
O O12 0.925787 0.091706 0.201203
O O13 0.074723 0.369744 0.488648
O O14 0.873400 0.085100 0.371553
O O15 0.500000 0.500000 0.500000
O O16 0.500000 0.000000 0.500000
#
# Coordination Sequence:
#
# PCOD9006629 Si02
#       7
#     2   2   2   2   2   2   2
#     4  10  21  40  63  92 128 174 213 259 324 392
#     4  11  23  42  68  90 137 177 214 277 335 384
#     4  10  21  42  63  91 130 162 221 261 332 376
#     4  11  21  38  67  98 129 171 220 266 330 396
#     4  10  21  38  67  93 123 175 203 272 324 389
#     4  10  23  39  64  99 131 169 220 267 326 402
#     4  12  27  42  68  97 128 174 227 273 323 398
#
# _framework density 23.208027000000001
#
# number of rings (size 3 to 8) (size 9 to 14) (size 15 to 20)
#    0.000    1.429    2.857    2.143    2.000    1.143 
#    0.000    0.000    0.000    0.000    0.000    0.000 
#    0.000    0.000    0.000    0.000    0.000    0.000 
#
# Total GULP energy -78162.483008 kJ/mol
# GULP energy per Si atom -5583.034501 kJ/mol
# Density = 2.315520 g / cm^3
# Si number density = 23.208027 Si / 1000 Ang^3
#
#
#
# Elastic Constant Matrix: (Units=GPa)
#
#
# Indices 1 2 3 4 5 6 
#
# 1 96.4321 28.1485 40.7434 -14.4764 41.3896 9.0030
# 2 28.1485 92.7381 27.8294 -13.7833 12.7401 -13.1962
# 3 40.7434 27.8294 120.1752 -19.1456 38.6535 -2.8476
# 4 -14.4764 -13.7833 -19.1456 39.6780 -9.0282 5.1457
# 5 41.3896 12.7401 38.6535 -9.0282 54.7632 6.7987
# 6 9.0030 -13.1962 -2.8476 5.1457 6.7987 36.0774
#
#
#
# Elastic Compliance Matrix: (Units=1/GPa)
#
#
# Indices 1 2 3 4 5 6 
#
# 1 0.017165 -0.003600 -0.001391 0.002554 -0.010218 -0.004149
# 2 -0.003600 0.013336 -0.001550 0.001970 0.000379 0.005301
# 3 -0.001391 -0.001550 0.011782 0.002936 -0.006611 0.001537
# 4 0.002554 0.001970 0.002936 0.028932 0.000801 -0.003963
# 5 -0.010218 0.000379 -0.006611 0.000801 0.031168 -0.003821
# 6 -0.004149 0.005301 0.001537 -0.003963 -0.003821 0.032099
#
#
# Mechanical properties :
#
#
# Convention : Reuss Voigt Hill
#
# Bulk Modulus (GPa) = 34.24466 55.86533 45.05499
# Shear Modulus (GPa) = 31.78707 40.27865 36.03286
#
# Velocity S-wave (km/s) = 3.70490 4.17051 3.94458
# Velocity P-wave (km/s) = 5.75233 6.87857 6.34051
#
# Compressibility (1/GPa) = 0.02920164
#
# Stress axis : x y z
#
# Youngs Moduli (GPa) = 58.25937 74.98529 84.87296
#
# Poissons Ratio (x) = 0.26992 0.11804
# Poissons Ratio (y) = 0.20971 0.13158
# Poissons Ratio (z) = 0.08102 0.11625
#
# Static dielectric constant tensor:
#      x y z
#    x 1.928920 0.011500 0.063000 
#    y 0.011500 1.898300 0.019410 
#    z 0.063000 0.019410 1.914580 
# 
# From -- ./inp_files/93539.got.cif
#   From: 2010.05.17/outbox.cif.g08.bks.cpg/sg2_47_cif.got.tgz:93539.got - 2010.06.03 11:33:40.
