data_PCOD9006782
_publ_section_title
;
Structure prediction by ZEFSAII (Michael W. Deem and Ramdas Pophale) SiO2 
 PCOD9006782
Probable space group: P -1
;
_chemical_formula_sum "Si O2"
_cell_formula_units_Z 15
_cell_length_a 7.290145
_cell_length_b 11.599141
_cell_length_c 10.117219
_cell_angle_alpha 65.415972
_cell_angle_beta 48.881483
_cell_angle_gamma 67.119586
_cell_volume 577.725074
_symmetry_space_group_name_H-M "P -1"
_symmetry_group_IT_number 2
_symmetry_cell_setting 'triclinic'
loop_
_space_group_symop_operation_xyz
x,y,z
-x,-y,-z
loop_
_atom_site_type_symbol
_atom_site_label
_atom_site_fract_x
_atom_site_fract_y
_atom_site_fract_z
Si Si1 0.000000 0.500000 0.000000
Si Si2 0.190129 0.602562 0.185899
Si Si3 0.114409 0.354284 0.419511
Si Si4 0.724075 0.725956 0.250061
Si Si5 0.390994 0.252094 0.998105
Si Si6 0.968242 0.924209 0.684756
Si Si7 0.272900 0.650743 0.625805
Si Si8 0.747445 0.905140 0.393424
O O1 0.833054 0.627033 0.946712
O O2 0.750847 0.456350 0.204549
O O3 0.285977 0.451163 0.232375
O O4 0.375456 0.701219 0.069270
O O5 0.005892 0.618684 0.391536
O O6 0.999016 0.638837 0.135600
O O7 0.244306 0.209487 0.448765
O O8 0.888313 0.362151 0.422136
O O9 0.585687 0.769706 0.160041
O O10 0.552803 0.644490 0.449608
O O11 0.755294 0.844333 0.272860
O O12 0.287518 0.129521 0.161539
O O13 0.178169 0.796352 0.652141
O O14 0.000000 0.000000 0.500000
O O15 0.022849 0.020584 0.727532
O O16 0.500000 0.000000 0.500000
#
# Coordination Sequence:
#
# PCOD9006782 Si02
#       8
#     1   2   2   2   2   2   2   2
#     4  10  26  38  66 108 138 188 240 284 360 430
#     4  10  23  41  68 110 138 180 233 300 360 428
#     4  10  21  38  69 101 138 182 234 283 367 421
#     4  11  24  44  74 107 142 188 240 299 360 427
#     4  11  25  47  71 105 145 187 242 300 362 425
#     4  11  24  47  70  97 140 194 242 291 362 425
#     4  11  21  43  70 100 142 188 232 296 358 425
#     4  11  23  42  70 107 138 188 244 292 355 431
#
# _framework density 25.963906999999999
#
# number of rings (size 3 to 8) (size 9 to 14) (size 15 to 20)
#    0.000    1.333    4.000    0.800    5.600    1.600 
#    2.400   13.333    0.000    0.000    0.000    0.000 
#    0.000    0.000    0.000    0.000    0.000    0.000 
#
# Total GULP energy -83820.695946 kJ/mol
# GULP energy per Si atom -5588.046396 kJ/mol
# Density = 2.590481 g / cm^3
# Si number density = 25.963907 Si / 1000 Ang^3
#
#
#
# Elastic Constant Matrix: (Units=GPa)
#
#
# Indices 1 2 3 4 5 6 
#
# 1 119.4557 23.3693 43.7402 -26.5906 -24.8982 15.8532
# 2 23.3693 96.7293 27.4846 -33.3795 -1.0491 -2.2596
# 3 43.7402 27.4846 159.5178 -47.1645 -10.4645 11.7986
# 4 -26.5906 -33.3795 -47.1645 51.3617 14.1954 -1.8714
# 5 -24.8982 -1.0491 -10.4645 14.1954 41.3724 -4.7010
# 6 15.8532 -2.2596 11.7986 -1.8714 -4.7010 37.4633
#
#
#
# Elastic Compliance Matrix: (Units=1/GPa)
#
#
# Indices 1 2 3 4 5 6 
#
# 1 0.011277 -0.001740 -0.001731 0.001499 0.005383 -0.003581
# 2 -0.001740 0.013969 0.000632 0.009845 -0.003752 0.001401
# 3 -0.001731 0.000632 0.009116 0.008310 -0.001788 -0.001910
# 4 0.001499 0.009845 0.008310 0.036861 -0.009624 -0.002024
# 5 0.005383 -0.003752 -0.001788 -0.009624 0.030322 0.001383
# 6 -0.003581 0.001401 -0.001910 -0.002024 0.001383 0.028967
#
#
# Mechanical properties :
#
#
# Convention : Reuss Voigt Hill
#
# Bulk Modulus (GPa) = 34.86626 62.76568 48.81597
# Shear Modulus (GPa) = 34.30532 44.78006 39.54269
#
# Velocity S-wave (km/s) = 3.63887 4.15746 3.90678
# Velocity P-wave (km/s) = 5.57791 6.87551 6.26042
#
# Compressibility (1/GPa) = 0.02868102
#
# Stress axis : x y z
#
# Youngs Moduli (GPa) = 88.67937 71.58950 109.70304
#
# Poissons Ratio (x) = 0.12460 0.18989
# Poissons Ratio (y) = 0.15435 -0.06929
# Poissons Ratio (z) = 0.15350 -0.04522
#
# Static dielectric constant tensor:
#      x y z
#    x 2.032980 -0.026340 -0.064940 
#    y -0.026340 2.087480 -0.013950 
#    z -0.064940 -0.013950 2.016230 
# 
# From -- ./inp_files/389262.got.cif
#   From: 2010.05.17/outbox.cif.g08.bks.cpg/sg2_195_cif.got.tgz:389262.got - 2010.06.03 11:33:40.
