data_PCOD9006332
_publ_section_title
;
Structure prediction by ZEFSAII (Michael W. Deem and Ramdas Pophale) SiO2 
 PCOD9006332
Probable space group: P -1
;
_chemical_formula_sum "Si O2"
_cell_formula_units_Z 16
_cell_length_a 14.955030
_cell_length_b 7.611171
_cell_length_c 14.100811
_cell_angle_alpha 132.049827
_cell_angle_beta 144.302880
_cell_angle_gamma 51.158505
_cell_volume 682.483749
_symmetry_space_group_name_H-M "P -1"
_symmetry_group_IT_number 2
_symmetry_cell_setting 'triclinic'
loop_
_space_group_symop_operation_xyz
x,y,z
-x,-y,-z
loop_
_atom_site_type_symbol
_atom_site_label
_atom_site_fract_x
_atom_site_fract_y
_atom_site_fract_z
Si Si1 0.177378 0.365782 0.096996
Si Si2 0.367229 0.371384 0.446098
Si Si3 0.972829 0.037451 0.101888
Si Si4 0.584699 0.761484 0.253073
Si Si5 0.739076 0.307810 0.116436
Si Si6 0.631704 0.140957 0.277415
Si Si7 0.703632 0.866148 0.066908
Si Si8 0.315967 0.978352 0.392941
O O1 0.302124 0.426376 0.302961
O O2 0.214000 0.345836 0.009303
O O3 0.000000 0.500000 0.000000
O O4 0.155359 0.105659 0.021793
O O5 0.300218 0.141131 0.343685
O O6 0.679281 0.384462 0.444036
O O7 0.551960 0.261389 0.578461
O O8 0.891024 0.286794 0.171549
O O9 0.144272 0.941144 0.257768
O O10 0.000000 0.000000 0.000000
O O11 0.711844 0.552388 0.241713
O O12 0.582868 0.999681 0.274728
O O13 0.626711 0.838854 0.419651
O O14 0.418315 0.681678 0.077157
O O15 0.724132 0.103280 0.109216
O O16 0.742684 0.949061 0.235957
O O17 0.469410 0.198199 0.099931
#
# Coordination Sequence:
#
# PCOD9006332 Si02
#       8
#     2   2   2   2   2   2   2   2
#     4  11  25  43  65  94 135 170 206 266 333 380
#     4  11  24  42  65  96 129 169 220 265 314 386
#     4  11  23  42  63  93 127 169 218 260 318 383
#     4  10  21  38  66  96 122 170 212 265 320 377
#     4   9  20  40  64  88 131 163 213 261 319 383
#     4  10  21  38  65  95 126 161 220 265 313 378
#     4   9  20  40  61  92 126 167 207 261 319 380
#     4  11  24  40  66  94 127 169 218 266 314 377
#
# _framework density 23.44378
#
# number of rings (size 3 to 8) (size 9 to 14) (size 15 to 20)
#    0.000    1.750    1.250    3.000    5.250    3.500 
#    0.000    0.625    0.000    0.000    0.000    0.000 
#    0.000    0.000    0.000    0.000    0.000    0.000 
#
# Total GULP energy -89137.714505 kJ/mol
# GULP energy per Si atom -5571.107157 kJ/mol
# Density = 2.339042 g / cm^3
# Si number density = 23.443780 Si / 1000 Ang^3
#
#
#
# Elastic Constant Matrix: (Units=GPa)
#
#
# Indices 1 2 3 4 5 6 
#
# 1 100.4742 17.2897 26.0256 -3.3825 -10.6140 -21.3719
# 2 17.2897 56.5675 24.2367 1.1084 -16.1742 -17.0881
# 3 26.0256 24.2367 71.1893 6.0317 -16.6735 -17.2176
# 4 -3.3825 1.1084 6.0317 24.4209 -0.5020 3.3430
# 5 -10.6140 -16.1742 -16.6735 -0.5020 19.7598 8.6664
# 6 -21.3719 -17.0881 -17.2176 3.3430 8.6664 55.2230
#
#
#
# Elastic Compliance Matrix: (Units=1/GPa)
#
#
# Indices 1 2 3 4 5 6 
#
# 1 0.011780 -0.000956 -0.003040 0.002063 0.001753 0.002915
# 2 -0.000956 0.025066 -0.003625 -0.000596 0.015217 0.003904
# 3 -0.003040 -0.003625 0.020051 -0.005329 0.011070 0.002539
# 4 0.002063 -0.000596 -0.005329 0.043024 -0.001269 -0.003453
# 5 0.001753 0.015217 0.011070 -0.001269 0.074534 -0.002781
# 6 0.002915 0.003904 0.002539 -0.003453 -0.002781 0.021882
#
#
# Mechanical properties :
#
#
# Convention : Reuss Voigt Hill
#
# Bulk Modulus (GPa) = 24.00804 40.37057 32.18931
# Shear Modulus (GPa) = 22.17656 30.59266 26.38461
#
# Velocity S-wave (km/s) = 3.07896 3.61631 3.35840
# Velocity P-wave (km/s) = 4.78570 5.89020 5.36644
#
# Compressibility (1/GPa) = 0.04165271
#
# Stress axis : x y z
#
# Youngs Moduli (GPa) = 84.89307 39.89532 49.87331
#
# Poissons Ratio (x) = 0.03816 0.15161
# Poissons Ratio (y) = 0.08120 0.18081
# Poissons Ratio (z) = 0.25806 0.14463
#
# Static dielectric constant tensor:
#      x y z
#    x 1.969410 -0.043790 -0.054910 
#    y -0.043790 2.198470 0.074570 
#    z -0.054910 0.074570 1.920440 
# 
# From -- ./inp_files/527765.got.cif
#   From: 2010.05.17/outbox.cif.g08.bks.cpg/sg2_264_cif.got.tgz:527765.got - 2010.06.03 11:33:40.
