data_PCOD9006673
_publ_section_title
;
Structure prediction by ZEFSAII (Michael W. Deem and Ramdas Pophale) SiO2 
 PCOD9006673
Probable space group: P -1
;
_chemical_formula_sum "Si O2"
_cell_formula_units_Z 16
_cell_length_a 9.805238
_cell_length_b 14.930754
_cell_length_c 19.582923
_cell_angle_alpha 154.399170
_cell_angle_beta 144.722429
_cell_angle_gamma 36.205784
_cell_volume 686.155465
_symmetry_space_group_name_H-M "P -1"
_symmetry_group_IT_number 2
_symmetry_cell_setting 'triclinic'
loop_
_space_group_symop_operation_xyz
x,y,z
-x,-y,-z
loop_
_atom_site_type_symbol
_atom_site_label
_atom_site_fract_x
_atom_site_fract_y
_atom_site_fract_z
Si Si1 0.299600 0.077557 0.250695
Si Si2 0.341472 0.668353 0.464776
Si Si3 0.767070 0.262138 0.114435
Si Si4 0.213514 0.729089 0.602282
Si Si5 0.579101 0.885525 0.025423
Si Si6 0.706312 0.965065 0.621038
Si Si7 0.920998 0.395071 0.813724
Si Si8 0.693947 0.389632 0.854426
O O1 0.522620 0.145172 0.353658
O O2 0.041693 0.247759 0.239679
O O3 0.345088 0.079957 0.352344
O O4 0.254773 0.862030 0.050531
O O5 0.215404 0.640804 0.465609
O O6 0.564725 0.448982 0.392559
O O7 0.142744 0.704785 0.349286
O O8 0.592164 0.503721 0.202825
O O9 0.647023 0.144656 0.043064
O O10 0.288658 0.950070 0.774860
O O11 0.956938 0.794103 0.581243
O O12 0.761275 0.647592 0.925038
O O13 0.500000 0.000000 0.000000
O O14 0.750397 0.202638 0.803751
O O15 0.500000 0.000000 0.500000
O O16 0.825654 0.297455 0.773773
O O17 0.195173 0.413333 0.945308
#
# Coordination Sequence:
#
# PCOD9006673 Si02
#       8
#     2   2   2   2   2   2   2   2
#     4  11  25  45  68  99 139 178 228 279 343 404
#     4  11  24  42  68 104 134 178 226 285 340 389
#     4  10  24  43  68  98 136 181 222 281 337 410
#     4  11  24  42  66 101 138 170 232 279 330 409
#     4  11  18  38  68  96 129 172 225 273 327 398
#     4  12  27  45  67 101 139 184 225 281 346 409
#     4  10  21  38  67  97 133 172 225 279 331 401
#     4  10  23  42  65 100 133 178 228 271 344 408
#
# _framework density 23.318331000000001
#
# number of rings (size 3 to 8) (size 9 to 14) (size 15 to 20)
#    0.000    1.250    3.750    1.500    3.500    2.000 
#    2.250    1.875    0.000    0.000    0.000    0.000 
#    0.000    0.000    0.000    0.000    0.000    0.000 
#
# Total GULP energy -89445.323435 kJ/mol
# GULP energy per Si atom -5590.332715 kJ/mol
# Density = 2.326526 g / cm^3
# Si number density = 23.318331 Si / 1000 Ang^3
#
#
#
# Elastic Constant Matrix: (Units=GPa)
#
#
# Indices 1 2 3 4 5 6 
#
# 1 90.6188 24.7089 10.4700 -11.8065 -15.5498 6.1932
# 2 24.7089 71.8062 5.5322 -5.6091 -21.7461 8.2221
# 3 10.4700 5.5322 66.8255 -22.7972 -3.4801 4.7988
# 4 -11.8065 -5.6091 -22.7972 40.8337 10.4693 -0.0049
# 5 -15.5498 -21.7461 -3.4801 10.4693 23.4765 -0.8568
# 6 6.1932 8.2221 4.7988 -0.0049 -0.8568 24.1374
#
#
#
# Elastic Compliance Matrix: (Units=1/GPa)
#
#
# Indices 1 2 3 4 5 6 
#
# 1 0.013091 -0.002381 -0.000884 0.001536 0.005570 -0.002174
# 2 -0.002381 0.020949 -0.001086 -0.003268 0.018919 -0.005638
# 3 -0.000884 -0.001086 0.019062 0.011237 -0.003898 -0.003329
# 4 0.001536 -0.003268 0.011237 0.034850 -0.015961 -0.002074
# 5 0.005570 0.018919 -0.003898 -0.015961 0.070181 -0.004611
# 6 -0.002174 -0.005638 -0.003329 -0.002074 -0.004611 0.044406
#
#
# Mechanical properties :
#
#
# Convention : Reuss Voigt Hill
#
# Bulk Modulus (GPa) = 22.52188 34.51918 28.52053
# Shear Modulus (GPa) = 22.11989 30.25881 26.18935
#
# Velocity S-wave (km/s) = 3.08328 3.60619 3.35494
# Velocity P-wave (km/s) = 4.72810 5.67230 5.22159
#
# Compressibility (1/GPa) = 0.04440127
#
# Stress axis : x y z
#
# Youngs Moduli (GPa) = 76.38792 47.73488 52.46020
#
# Poissons Ratio (x) = 0.11364 0.04636
# Poissons Ratio (y) = 0.18186 0.05698
# Poissons Ratio (z) = 0.06750 0.05184
#
# Static dielectric constant tensor:
#      x y z
#    x 1.848630 -0.009910 -0.004880 
#    y -0.009910 1.902170 -0.031620 
#    z -0.004880 -0.031620 1.974420 
# 
# From -- ./inp_files/207350.got.cif
#   From: 2010.05.17/outbox.cif.g08.bks.cpg/sg2_104_cif.got.tgz:207350.got - 2010.06.03 11:33:40.
