data_PCOD9006237
_publ_section_title
;
Structure prediction by ZEFSAII (Michael W. Deem and Ramdas Pophale) SiO2 
 PCOD9006237
Probable space group: P -1
;
_chemical_formula_sum "Si O2"
_cell_formula_units_Z 14
_cell_length_a 5.251622
_cell_length_b 16.996011
_cell_length_c 12.733731
_cell_angle_alpha 38.452352
_cell_angle_beta 96.785912
_cell_angle_gamma 90.441072
_cell_volume 695.185064
_symmetry_space_group_name_H-M "P -1"
_symmetry_group_IT_number 2
_symmetry_cell_setting 'triclinic'
loop_
_space_group_symop_operation_xyz
x,y,z
-x,-y,-z
loop_
_atom_site_type_symbol
_atom_site_label
_atom_site_fract_x
_atom_site_fract_y
_atom_site_fract_z
Si Si1 0.217449 0.573617 0.882673
Si Si2 0.715824 0.160814 0.284448
Si Si3 0.956974 0.345326 0.442654
Si Si4 0.225761 0.060053 0.305096
Si Si5 0.331818 0.888093 0.087903
Si Si6 0.478749 0.382607 0.544402
Si Si7 0.037608 0.939200 0.234747
O O1 0.224717 0.712057 0.789398
O O2 0.144478 0.591619 0.737672
O O3 0.500000 0.500000 0.000000
O O4 0.000000 0.500000 0.000000
O O5 0.431091 0.158238 0.225938
O O6 0.935360 0.125092 0.245511
O O7 0.734120 0.049881 0.489338
O O8 0.716130 0.368460 0.487775
O O9 0.040411 0.192214 0.586101
O O10 0.207978 0.393843 0.456208
O O11 0.246253 0.988296 0.269901
O O12 0.491025 0.748031 0.248238
O O13 0.141693 0.895663 0.170744
O O14 0.500000 0.000000 0.000000
O O15 0.173602 0.937856 0.925315
O O16 0.500000 0.500000 0.500000
#
# Coordination Sequence:
#
# PCOD9006237 Si02
#       7
#     2   2   2   2   2   2   2
#     4  12  25  45  66  92 132 172 224 273 307 398
#     4  10  22  40  60  94 124 159 211 260 326 365
#     4  11  23  44  70  90 122 181 220 254 335 390
#     4  10  21  38  65  91 125 160 201 269 319 382
#     4  10  21  39  63  97 126 162 216 271 308 382
#     4  11  24  44  67  96 135 169 214 270 326 393
#     4  10  21  39  65  93 125 166 213 261 323 384
#
# _framework density 20.138521000000001
#
# number of rings (size 3 to 8) (size 9 to 14) (size 15 to 20)
#    0.000    1.429    2.857    2.143    2.000    0.000 
#    7.714    0.000    0.000    0.000    0.000    0.000 
#    0.000    0.000    0.000    0.000    0.000    0.000 
#
# Total GULP energy -78105.681308 kJ/mol
# GULP energy per Si atom -5578.977236 kJ/mol
# Density = 2.009269 g / cm^3
# Si number density = 20.138521 Si / 1000 Ang^3
#
#
#
# Elastic Constant Matrix: (Units=GPa)
#
#
# Indices 1 2 3 4 5 6 
#
# 1 130.2685 49.6085 59.9601 3.2129 0.7607 28.5217
# 2 49.6085 123.5044 60.0413 -1.5573 2.2708 28.3810
# 3 59.9601 60.0413 120.1458 4.2316 5.8112 5.2855
# 4 3.2129 -1.5573 4.2316 34.1186 10.5878 1.2287
# 5 0.7607 2.2708 5.8112 10.5878 24.6592 -1.9835
# 6 28.5217 28.3810 5.2855 1.2287 -1.9835 33.6066
#
#
#
# Elastic Compliance Matrix: (Units=1/GPa)
#
#
# Indices 1 2 3 4 5 6 
#
# 1 0.012460 0.000038 -0.005819 -0.000191 0.000288 -0.009668
# 2 0.000038 0.013743 -0.006414 0.002310 -0.001616 -0.010809
# 3 -0.005819 -0.006414 0.014190 -0.001384 -0.001328 0.008096
# 4 -0.000191 0.002310 -0.001384 0.034374 -0.014938 -0.003709
# 5 0.000288 -0.001616 -0.001328 -0.014938 0.047797 0.004697
# 6 -0.009668 -0.010809 0.008096 -0.003709 0.004697 0.046229
#
#
# Mechanical properties :
#
#
# Convention : Reuss Voigt Hill
#
# Bulk Modulus (GPa) = 62.49473 79.23761 70.86617
# Shear Modulus (GPa) = 25.18666 32.09748 28.64207
#
# Velocity S-wave (km/s) = 3.54032 3.99662 3.77537
# Velocity P-wave (km/s) = 6.91459 7.79288 7.36684
#
# Compressibility (1/GPa) = 0.01600135
#
# Stress axis : x y z
#
# Youngs Moduli (GPa) = 80.25520 72.76607 70.47353
#
# Poissons Ratio (x) = -0.00277 0.41011
# Poissons Ratio (y) = -0.00305 0.45204
# Poissons Ratio (z) = 0.46703 0.46675
#
# Static dielectric constant tensor:
#      x y z
#    x 1.735650 -0.028230 0.076210 
#    y -0.028230 1.704340 0.009760 
#    z 0.076210 0.009760 1.782540 
# 
# From -- ./inp_files/74716.got.cif
#   From: 2010.05.17/outbox.cif.g08.bks.cpg/sg2_38_cif.got.tgz:74716.got - 2010.06.03 11:33:40.
