data_PCOD9006433
_publ_section_title
;
Structure prediction by ZEFSAII (Michael W. Deem and Ramdas Pophale) SiO2 
 PCOD9006433
Probable space group: P -1
;
_chemical_formula_sum "Si O2"
_cell_formula_units_Z 16
_cell_length_a 11.180856
_cell_length_b 14.168082
_cell_length_c 11.657863
_cell_angle_alpha 137.035083
_cell_angle_beta 143.505950
_cell_angle_gamma 58.365692
_cell_volume 739.238096
_symmetry_space_group_name_H-M "P -1"
_symmetry_group_IT_number 2
_symmetry_cell_setting 'triclinic'
loop_
_space_group_symop_operation_xyz
x,y,z
-x,-y,-z
loop_
_atom_site_type_symbol
_atom_site_label
_atom_site_fract_x
_atom_site_fract_y
_atom_site_fract_z
Si Si1 0.774074 0.092710 0.311027
Si Si2 0.034112 0.481884 0.705970
Si Si3 0.406229 0.132948 0.198839
Si Si4 0.663991 0.576070 0.605401
Si Si5 0.820056 0.313725 0.190121
Si Si6 0.450055 0.440574 0.108672
Si Si7 0.531565 0.030719 0.685231
Si Si8 0.231457 0.152666 0.726290
O O1 0.616799 0.174913 0.327602
O O2 0.000479 0.172390 0.542619
O O3 0.777054 0.959465 0.278978
O O4 0.687553 0.018250 0.061440
O O5 0.862124 0.501003 0.682686
O O6 0.950267 0.354414 0.441735
O O7 0.054521 0.619134 0.761983
O O8 0.252915 0.472938 0.919489
O O9 0.279940 0.256956 0.186583
O O10 0.441526 0.101075 0.330737
O O11 0.500000 0.500000 0.500000
O O12 0.551724 0.556441 0.377836
O O13 0.627442 0.398260 0.127919
O O14 0.725445 0.152790 0.959207
O O15 0.370063 0.298576 0.992058
O O16 0.338385 0.090660 0.645128
O O17 0.500000 0.000000 0.500000
#
# Coordination Sequence:
#
# PCOD9006433 Si02
#       8
#     2   2   2   2   2   2   2   2
#     4   9  19  38  63  83 117 155 205 248 293 363
#     4  10  22  40  65  88 118 164 206 247 302 356
#     4  10  22  39  61  86 122 161 195 251 308 349
#     4  11  25  41  57  93 131 155 201 255 303 367
#     4   9  21  42  62  89 119 155 210 256 286 365
#     4  10  21  38  66  86 118 161 203 251 304 351
#     4  10  22  39  60  89 127 156 192 255 310 361
#     4   9  19  37  60  91 110 156 207 244 296 367
#
# _framework density 21.643906000000001
#
# number of rings (size 3 to 8) (size 9 to 14) (size 15 to 20)
#    0.000    2.250    0.000    1.125    5.250    3.500 
#    9.000    1.250    0.000    0.000    0.000    0.000 
#    0.000    0.000    0.000    0.000    0.000    0.000 
#
# Total GULP energy -89362.953278 kJ/mol
# GULP energy per Si atom -5585.184580 kJ/mol
# Density = 2.159464 g / cm^3
# Si number density = 21.643906 Si / 1000 Ang^3
#
#
#
# Elastic Constant Matrix: (Units=GPa)
#
#
# Indices 1 2 3 4 5 6 
#
# 1 75.9231 10.0245 19.9779 -3.4198 2.9313 17.1346
# 2 10.0245 53.4677 10.6823 -7.7454 -12.1509 3.8525
# 3 19.9779 10.6823 66.6192 -5.7557 4.0207 -1.1034
# 4 -3.4198 -7.7454 -5.7557 37.9758 0.6369 9.3338
# 5 2.9313 -12.1509 4.0207 0.6369 33.3723 -6.7713
# 6 17.1346 3.8525 -1.1034 9.3338 -6.7713 21.1766
#
#
#
# Elastic Compliance Matrix: (Units=1/GPa)
#
#
# Indices 1 2 3 4 5 6 
#
# 1 0.019887 -0.001751 -0.005157 0.005799 -0.006039 -0.020528
# 2 -0.001751 0.022295 -0.003207 0.004279 0.008153 -0.002085
# 3 -0.005157 -0.003207 0.017289 0.000318 -0.001801 0.004941
# 4 0.005799 0.004279 0.000318 0.033075 -0.003941 -0.021292
# 5 -0.006039 0.008153 -0.001801 -0.003941 0.037193 0.016939
# 6 -0.020528 -0.002085 0.004941 -0.021292 0.016939 0.079270
#
#
# Mechanical properties :
#
#
# Convention : Reuss Voigt Hill
#
# Bulk Modulus (GPa) = 25.48406 30.81992 28.15199
# Shear Modulus (GPa) = 20.63391 28.85994 24.74692
#
# Velocity S-wave (km/s) = 3.09096 3.65553 3.38504
# Velocity P-wave (km/s) = 4.95364 5.66460 5.32101
#
# Compressibility (1/GPa) = 0.03924021
#
# Stress axis : x y z
#
# Youngs Moduli (GPa) = 50.28501 44.85338 57.83876
#
# Poissons Ratio (x) = 0.07856 0.29829
# Poissons Ratio (y) = 0.08807 0.18547
# Poissons Ratio (z) = 0.25934 0.14383
#
# Static dielectric constant tensor:
#      x y z
#    x 1.805420 -0.006020 -0.005380 
#    y -0.006020 1.793810 -0.012180 
#    z -0.005380 -0.012180 1.785400 
# 
# From -- ./inp_files/434341.got.cif
#   From: 2010.05.17/outbox.cif.g08.bks.cpg/sg2_218_cif.got.tgz:434341.got - 2010.06.03 11:33:40.
