data_PCOD9006349
_publ_section_title
;
Structure prediction by ZEFSAII (Michael W. Deem and Ramdas Pophale) SiO2 
 PCOD9006349
Probable space group: P -1
;
_chemical_formula_sum "Si O2"
_cell_formula_units_Z 14
_cell_length_a 6.211001
_cell_length_b 12.149751
_cell_length_c 12.277214
_cell_angle_alpha 107.590698
_cell_angle_beta 132.039769
_cell_angle_gamma 72.806161
_cell_volume 650.180752
_symmetry_space_group_name_H-M "P -1"
_symmetry_group_IT_number 2
_symmetry_cell_setting 'triclinic'
loop_
_space_group_symop_operation_xyz
x,y,z
-x,-y,-z
loop_
_atom_site_type_symbol
_atom_site_label
_atom_site_fract_x
_atom_site_fract_y
_atom_site_fract_z
Si Si1 0.275078 0.644059 0.370386
Si Si2 0.681181 0.956441 0.864191
Si Si3 0.502572 0.823445 0.369651
Si Si4 0.414693 0.777016 0.854740
Si Si5 0.347128 0.210444 0.834033
Si Si6 0.283428 0.567460 0.597823
Si Si7 0.160596 0.052482 0.318979
O O1 0.505346 0.727738 0.434550
O O2 0.253010 0.624899 0.485232
O O3 0.414124 0.521560 0.329319
O O4 0.971176 0.713622 0.247566
O O5 0.658739 0.843112 0.896405
O O6 0.648262 0.923797 0.715957
O O7 0.435563 0.068932 0.834812
O O8 0.000000 0.000000 0.000000
O O9 0.550330 0.772952 0.250715
O O10 0.739425 0.902634 0.517498
O O11 0.205050 0.913289 0.296224
O O12 0.319981 0.668159 0.725913
O O13 0.148950 0.880297 0.792587
O O14 0.488308 0.744117 0.993761
O O15 0.000000 0.500000 0.500000
#
# Coordination Sequence:
#
# PCOD9006349 Si02
#       7
#     2   2   2   2   2   2   2
#     4  11  23  44  68  89 131 167 219 282 322 368
#     4  11  23  40  64 101 140 172 210 257 324 397
#     4  10  22  40  64  99 132 171 217 267 322 390
#     4  12  24  40  68  97 132 177 215 259 336 383
#     4  11  24  38  67 100 136 169 208 273 325 399
#     4  11  26  48  70  93 124 172 229 278 318 382
#     4  10  21  38  65  96 133 174 214 262 321 393
#
# _framework density 21.532475000000002
#
# number of rings (size 3 to 8) (size 9 to 14) (size 15 to 20)
#    0.000    1.143    1.429    4.714    4.000    1.714 
#    0.000    8.571    0.000    0.000    0.000    0.000 
#    0.000    0.000    0.000    0.000    0.000    0.000 
#
# Total GULP energy -78079.312083 kJ/mol
# GULP energy per Si atom -5577.093720 kJ/mol
# Density = 2.148347 g / cm^3
# Si number density = 21.532475 Si / 1000 Ang^3
#
#
#
# Elastic Constant Matrix: (Units=GPa)
#
#
# Indices 1 2 3 4 5 6 
#
# 1 87.1645 46.9583 63.8070 7.5466 -12.6899 2.9208
# 2 46.9583 103.3646 49.6425 -7.8603 2.4203 -7.8169
# 3 63.8070 49.6425 107.2787 -4.1915 -12.4798 -2.6749
# 4 7.5466 -7.8603 -4.1915 35.1013 -9.2838 8.6075
# 5 -12.6899 2.4203 -12.4798 -9.2838 31.9665 -13.5916
# 6 2.9208 -7.8169 -2.6749 8.6075 -13.5916 40.1582
#
#
#
# Elastic Compliance Matrix: (Units=1/GPa)
#
#
# Indices 1 2 3 4 5 6 
#
# 1 0.024369 -0.006208 -0.011559 -0.006887 0.003112 -0.001221
# 2 -0.006208 0.014456 -0.003249 0.002969 -0.003434 0.001251
# 3 -0.011559 -0.003249 0.018551 0.004820 0.005226 0.002180
# 4 -0.006887 0.002969 0.004820 0.033987 0.007349 -0.003398
# 5 0.003112 -0.003434 0.005226 0.007349 0.042110 0.012131
# 6 -0.001221 0.001251 0.002180 -0.003398 0.012131 0.030213
#
#
# Mechanical properties :
#
#
# Convention : Reuss Voigt Hill
#
# Bulk Modulus (GPa) = 65.17580 68.73594 66.95587
# Shear Modulus (GPa) = 23.71553 30.60520 27.16036
#
# Velocity S-wave (km/s) = 3.32231 3.77417 3.55543
# Velocity P-wave (km/s) = 6.71203 7.14029 6.92947
#
# Compressibility (1/GPa) = 0.01534312
#
# Stress axis : x y z
#
# Youngs Moduli (GPa) = 41.03625 69.17470 53.90688
#
# Poissons Ratio (x) = 0.42946 0.62309
# Poissons Ratio (y) = 0.25477 0.17515
# Poissons Ratio (z) = 0.47432 0.22476
#
# Static dielectric constant tensor:
#      x y z
#    x 1.872250 0.010530 0.021830 
#    y 0.010530 1.805070 -0.005730 
#    z 0.021830 -0.005730 1.785670 
# 
# From -- ./inp_files/365132.got.cif
#   From: 2010.05.17/outbox.cif.g08.bks.cpg/sg2_183_cif.got.tgz:365132.got - 2010.06.03 11:33:40.
