data_PCOD9006812
_publ_section_title
;
Structure prediction by ZEFSAII (Michael W. Deem and Ramdas Pophale) SiO2 
 PCOD9006812
Probable space group: P -1
;
_chemical_formula_sum "Si O2"
_cell_formula_units_Z 16
_cell_length_a 15.389753
_cell_length_b 12.494399
_cell_length_c 10.462025
_cell_angle_alpha 82.941092
_cell_angle_beta 68.049296
_cell_angle_gamma 28.312927
_cell_volume 781.711679
_symmetry_space_group_name_H-M "P -1"
_symmetry_group_IT_number 2
_symmetry_cell_setting 'triclinic'
loop_
_space_group_symop_operation_xyz
x,y,z
-x,-y,-z
loop_
_atom_site_type_symbol
_atom_site_label
_atom_site_fract_x
_atom_site_fract_y
_atom_site_fract_z
Si Si1 0.618577 0.798844 0.858285
Si Si2 0.315269 0.746699 0.975783
Si Si3 0.765040 0.858504 0.710881
Si Si4 0.257780 0.450221 0.932459
Si Si5 0.609697 0.465803 0.266153
Si Si6 0.799908 0.884259 0.985810
Si Si7 0.101458 0.063727 0.457190
Si Si8 0.964643 0.049998 0.309676
O O1 0.780600 0.713044 0.710220
O O2 0.733321 0.588670 0.915715
O O3 0.500000 0.000000 0.000000
O O4 0.409615 0.968188 0.871853
O O5 0.093911 0.922640 0.124869
O O6 0.283704 0.905846 0.990731
O O7 0.500000 0.500000 0.000000
O O8 0.372877 0.657261 0.813476
O O9 0.499968 0.157910 0.790635
O O10 0.906488 0.798722 0.562843
O O11 0.820762 0.831564 0.832123
O O12 0.263512 0.569878 0.874174
O O13 0.036957 0.629112 0.964289
O O14 0.359305 0.765032 0.370381
O O15 0.715162 0.332793 0.363944
O O16 0.030556 0.078979 0.362647
O O17 0.987493 0.112820 0.623513
#
# Coordination Sequence:
#
# PCOD9006812 Si02
#       8
#     2   2   2   2   2   2   2   2
#     4   8  17  27  43  67  96 124 160 200 249 289
#     4  12  20  33  50  75 107 133 164 207 245 296
#     4   9  17  31  45  68  96 127 161 206 240 291
#     4   9  16  27  45  67  97 127 153 199 248 290
#     4  11  20  33  50  75 105 132 165 201 247 297
#     4  10  17  29  43  70  98 126 159 200 250 290
#     4  10  20  36  51  71 104 134 167 200 246 294
#     4  11  21  33  51  73 102 137 164 202 244 297
#
# _framework density 20.467904000000001
#
# number of rings (size 3 to 8) (size 9 to 14) (size 15 to 20)
#    0.000    2.250    3.750    2.250    0.000    4.500 
#    0.000    0.000    0.000    0.000    0.000    4.375 
#    0.000    0.000    0.000    0.000    0.000    0.000 
#
# Total GULP energy -89097.956628 kJ/mol
# GULP energy per Si atom -5568.622289 kJ/mol
# Density = 2.042132 g / cm^3
# Si number density = 20.467904 Si / 1000 Ang^3
#
#
#
# Elastic Constant Matrix: (Units=GPa)
#
#
# Indices 1 2 3 4 5 6 
#
# 1 -163.8491 -60.7030 -164.8035 -37.6278 -118.1399 57.0479
# 2 -60.7030 45.8626 -59.5779 -20.7222 -27.7984 -6.0356
# 3 -164.8035 -59.5779 -113.0391 -30.6684 -83.1829 65.7748
# 4 -37.6278 -20.7222 -30.6684 16.0020 -3.8032 1.9157
# 5 -118.1399 -27.7984 -83.1829 -3.8032 -6.6715 13.6123
# 6 57.0479 -6.0356 65.7748 1.9157 13.6123 24.7589
#
#
#
# Elastic Compliance Matrix: (Units=1/GPa)
#
#
# Indices 1 2 3 4 5 6 
#
# 1 0.023444 0.000258 -0.030845 -0.003071 0.013058 0.021047
# 2 0.000258 0.024942 -0.006126 0.018557 -0.000571 0.020640
# 3 -0.030845 -0.006126 0.043321 -0.000687 -0.028633 -0.029713
# 4 -0.003071 0.018557 -0.000687 0.071461 -0.018385 0.018003
# 5 0.013058 -0.000571 -0.028633 -0.018385 0.040146 0.025191
# 6 0.021047 0.020640 -0.029713 0.018003 0.025191 0.060618
#
#
# Mechanical properties :
#
#
# Convention : Reuss Voigt Hill
#
# Bulk Modulus (GPa) = 54.70755 -89.02160 -17.15702
# Shear Modulus (GPa) = 14.55801 10.42178 12.48990
#
# Velocity S-wave (km/s) = 2.66984 2.25894 2.47294
# Velocity P-wave (km/s) = 6.02416 6.06498 0.49668
#
# Compressibility (1/GPa) = 0.01827901
#
# Stress axis : x y z
#
# Youngs Moduli (GPa) = 42.65464 40.09309 23.08369
#
# Poissons Ratio (x) = -0.01034 0.71202
# Poissons Ratio (y) = -0.01100 0.14142
# Poissons Ratio (z) = 1.31569 0.24563
#
# Static dielectric constant tensor:
#      x y z
#    x 1.793770 0.026150 -0.062480 
#    y 0.026150 1.865070 0.072380 
#    z -0.062480 0.072380 1.858020 
# 
# From -- ./inp_files/451404.got.cif
#   From: 2010.05.17/outbox.cif.g08.bks.cpg/sg2_226_cif.got.tgz:451404.got - 2010.06.03 11:33:40.
