data_PCOD9006936
_publ_section_title
;
Structure prediction by ZEFSAII (Michael W. Deem and Ramdas Pophale) SiO2 
 PCOD9006936
Probable space group: P -1
;
_chemical_formula_sum "Si O2"
_cell_formula_units_Z 16
_cell_length_a 18.648379
_cell_length_b 6.652017
_cell_length_c 8.236898
_cell_angle_alpha 90.273681
_cell_angle_beta 89.346443
_cell_angle_gamma 133.735430
_cell_volume 738.223076
_symmetry_space_group_name_H-M "P -1"
_symmetry_group_IT_number 2
_symmetry_cell_setting 'triclinic'
loop_
_space_group_symop_operation_xyz
x,y,z
-x,-y,-z
loop_
_atom_site_type_symbol
_atom_site_label
_atom_site_fract_x
_atom_site_fract_y
_atom_site_fract_z
Si Si1 0.596875 0.075073 0.559990
Si Si2 0.922895 0.382136 0.280426
Si Si3 0.757409 0.391877 0.275517
Si Si4 0.206019 0.142535 0.905136
Si Si5 0.065527 0.934498 0.442641
Si Si6 0.733228 0.616162 0.737245
Si Si7 0.569976 0.629901 0.740576
Si Si8 0.373753 0.142582 0.899931
O O1 0.678175 0.252715 0.418749
O O2 0.655736 0.284890 0.712903
O O3 0.500000 0.000000 0.500000
O O4 0.564256 0.789980 0.608443
O O5 0.836586 0.375940 0.321233
O O6 0.930455 0.221991 0.414211
O O7 0.018359 0.711174 0.294396
O O8 0.885513 0.189563 0.121042
O O9 0.802982 0.689754 0.218268
O O10 0.695945 0.182930 0.124919
O O11 0.305562 0.205951 0.864499
O O12 0.222672 0.262355 0.084364
O O13 0.173517 0.215981 0.384942
O O14 0.000000 0.000000 0.500000
O O15 0.663229 0.670579 0.699377
O O16 0.467065 0.316077 0.776803
O O17 0.590535 0.768450 0.916987
#
# Coordination Sequence:
#
# PCOD9006936 Si02
#       8
#     2   2   2   2   2   2   2   2
#     4  12  24  35  57  90 122 159 199 243 294 349
#     4  10  22  40  64  88 114 155 195 240 303 353
#     4  11  21  38  60  86 121 155 194 244 296 352
#     4  10  21  39  62  89 119 156 199 240 291 352
#     4  11  23  42  64  89 120 153 195 245 300 355
#     4  11  24  40  61  87 118 157 200 246 294 350
#     4  10  21  39  57  85 120 155 201 244 288 348
#     4   9  20  37  60  83 118 162 195 239 293 346
#
# _framework density 21.673663000000001
#
# number of rings (size 3 to 8) (size 9 to 14) (size 15 to 20)
#    0.000    1.500    0.000    5.250    0.000    5.500 
#    0.000    7.500    0.000    0.000    0.000    0.000 
#    0.000    0.000    0.000    0.000    0.000    0.000 
#
# Total GULP energy -89351.051370 kJ/mol
# GULP energy per Si atom -5584.440711 kJ/mol
# Density = 2.162433 g / cm^3
# Si number density = 21.673663 Si / 1000 Ang^3
#
#
#
# Elastic Constant Matrix: (Units=GPa)
#
#
# Indices 1 2 3 4 5 6 
#
# 1 91.6768 35.2766 41.5285 -24.3658 0.7176 -3.3530
# 2 35.2766 127.6540 19.1340 14.7864 1.5797 3.0817
# 3 41.5285 19.1340 44.4235 11.2440 2.4087 -7.4175
# 4 -24.3658 14.7864 11.2440 41.9982 0.2758 8.3847
# 5 0.7176 1.5797 2.4087 0.2758 26.3218 -3.5027
# 6 -3.3530 3.0817 -7.4175 8.3847 -3.5027 34.3221
#
#
#
# Elastic Compliance Matrix: (Units=1/GPa)
#
#
# Indices 1 2 3 4 5 6 
#
# 1 0.089341 -0.018982 -0.104987 0.093561 0.002695 -0.034838
# 2 -0.018982 0.012624 0.018928 -0.021783 -0.000901 0.006332
# 3 -0.104987 0.018928 0.150683 -0.117651 -0.004322 0.048909
# 4 0.093561 -0.021783 -0.117651 0.126215 0.002221 -0.044937
# 5 0.002695 -0.000901 -0.004322 0.002221 0.038719 0.002819
# 6 -0.034838 0.006332 0.048909 -0.044937 0.002819 0.046999
#
#
# Mechanical properties :
#
#
# Convention : Reuss Voigt Hill
#
# Bulk Modulus (GPa) = 23.49406 50.62582 37.05994
# Shear Modulus (GPa) = 7.25843 31.71613 19.48728
#
# Velocity S-wave (km/s) = 1.83200 3.82952 3.00179
# Velocity P-wave (km/s) = 3.91643 6.55459 5.39912
#
# Compressibility (1/GPa) = 0.04256395
#
# Stress axis : x y z
#
# Youngs Moduli (GPa) = 11.19301 79.21574 6.63645
#
# Poissons Ratio (x) = 1.50370 0.69674
# Poissons Ratio (y) = 0.21247 -0.12561
# Poissons Ratio (z) = 1.17513 -1.49936
#
# Static dielectric constant tensor:
#      x y z
#    x 1.746640 -0.003660 0.001290 
#    y -0.003660 1.880720 0.112600 
#    z 0.001290 0.112600 1.817290 
# 
# From -- ./inp_files/37435.got.cif
#   From: 2010.05.17/outbox.cif.g08.bks.cpg/sg2_19_cif.got.tgz:37435.got - 2010.06.03 11:33:40.
