data_PCOD9006323
_publ_section_title
;
Structure prediction by ZEFSAII (Michael W. Deem and Ramdas Pophale) SiO2 
 PCOD9006323
Probable space group: P -1
;
_chemical_formula_sum "Si O2"
_cell_formula_units_Z 16
_cell_length_a 20.205569
_cell_length_b 11.702580
_cell_length_c 9.497849
_cell_angle_alpha 79.073444
_cell_angle_beta 136.640976
_cell_angle_gamma 136.997437
_cell_volume 717.922685
_symmetry_space_group_name_H-M "P -1"
_symmetry_group_IT_number 2
_symmetry_cell_setting 'triclinic'
loop_
_space_group_symop_operation_xyz
x,y,z
-x,-y,-z
loop_
_atom_site_type_symbol
_atom_site_label
_atom_site_fract_x
_atom_site_fract_y
_atom_site_fract_z
Si Si1 0.148978 0.586678 0.313036
Si Si2 0.150608 0.404193 0.844336
Si Si3 0.920220 0.314855 0.317354
Si Si4 0.757794 0.658402 0.772867
Si Si5 0.766036 0.703756 0.208363
Si Si6 0.132984 0.307393 0.355068
Si Si7 0.434909 0.919923 0.255516
Si Si8 0.319550 0.211831 0.166509
O O1 0.195001 0.502703 0.357079
O O2 0.052091 0.470379 0.343978
O O3 0.364178 0.879553 0.573646
O O4 0.000000 0.500000 0.000000
O O5 0.269801 0.441298 0.920047
O O6 0.968769 0.252764 0.497917
O O7 0.097587 0.269977 0.927591
O O8 0.283169 0.652440 0.048256
O O9 0.000000 0.500000 0.500000
O O10 0.689270 0.096048 0.973914
O O11 0.847279 0.755397 0.733587
O O12 0.525633 0.360546 0.476624
O O13 0.716958 0.733808 0.776256
O O14 0.741939 0.621954 0.343451
O O15 0.649209 0.685463 0.956353
O O16 0.000000 0.000000 0.500000
O O17 0.901373 0.081756 0.105774
O O18 0.500000 0.000000 0.500000
#
# Coordination Sequence:
#
# PCOD9006323 Si02
#       8
#     2   2   2   2   2   2   2   2
#     4  12  25  40  64  98 129 171 220 266 319 389
#     4  10  21  41  64  92 133 170 211 266 326 384
#     4  10  23  43  64  89 132 168 220 268 327 376
#     4  10  21  38  65  95 123 163 220 257 328 386
#     4   9  19  40  64  91 127 170 205 266 333 381
#     4  11  22  38  64  91 128 165 217 260 321 385
#     4  11  23  41  67  94 129 172 220 271 317 389
#     4   9  21  40  64  90 126 167 206 272 321 382
#
# _framework density 22.286522999999999
#
# number of rings (size 3 to 8) (size 9 to 14) (size 15 to 20)
#    0.000    1.750    2.500    1.125    3.500    3.500 
#    0.000    1.250    2.750    0.000    0.000    0.000 
#    0.000    0.000    0.000    0.000    0.000    0.000 
#
# Total GULP energy -89232.526904 kJ/mol
# GULP energy per Si atom -5577.032932 kJ/mol
# Density = 2.223580 g / cm^3
# Si number density = 22.286523 Si / 1000 Ang^3
#
#
#
# Elastic Constant Matrix: (Units=GPa)
#
#
# Indices 1 2 3 4 5 6 
#
# 1 73.3150 30.7606 32.7878 -9.2985 -19.9881 11.3759
# 2 30.7606 51.6715 30.1715 -19.9772 -6.6797 -1.7460
# 3 32.7878 30.1715 121.5393 -26.5635 -2.7094 14.5858
# 4 -9.2985 -19.9772 -26.5635 45.1698 7.5211 -5.9404
# 5 -19.9881 -6.6797 -2.7094 7.5211 40.0622 1.4969
# 6 11.3759 -1.7460 14.5858 -5.9404 1.4969 30.2221
#
#
#
# Elastic Compliance Matrix: (Units=1/GPa)
#
#
# Indices 1 2 3 4 5 6 
#
# 1 0.025018 -0.014454 -0.003013 -0.006316 0.011451 -0.010607
# 2 -0.014454 0.034686 -0.003471 0.012624 -0.004475 0.011823
# 3 -0.003013 -0.003471 0.011225 0.004314 -0.002001 -0.003537
# 4 -0.006316 0.012624 0.004314 0.031085 -0.006870 0.007475
# 5 0.011451 -0.004475 -0.002001 -0.006870 0.031326 -0.006505
# 6 -0.010607 0.011823 -0.003537 0.007475 -0.006505 0.041262
#
#
# Mechanical properties :
#
#
# Convention : Reuss Voigt Hill
#
# Bulk Modulus (GPa) = 34.42025 48.21839 41.31932
# Shear Modulus (GPa) = 22.10788 33.27791 27.69289
#
# Velocity S-wave (km/s) = 3.15299 3.86837 3.52886
# Velocity P-wave (km/s) = 5.36033 6.45252 5.93162
#
# Compressibility (1/GPa) = 0.02905266
#
# Stress axis : x y z
#
# Youngs Moduli (GPa) = 39.97050 28.82996 89.08706
#
# Poissons Ratio (x) = 0.41672 0.26845
# Poissons Ratio (y) = 0.57774 0.30921
# Poissons Ratio (z) = 0.12044 0.10006
#
# Static dielectric constant tensor:
#      x y z
#    x 1.836150 -0.041550 -0.015460 
#    y -0.041550 1.876000 0.008920 
#    z -0.015460 0.008920 1.864540 
# 
# From -- ./inp_files/346100.got.cif
#   From: 2010.05.17/outbox.cif.g08.bks.cpg/sg2_174_cif.got.tgz:346100.got - 2010.06.03 11:33:40.
