data_PCOD9006535
_publ_section_title
;
Structure prediction by ZEFSAII (Michael W. Deem and Ramdas Pophale) SiO2 
 PCOD9006535
Probable space group: P -1
;
_chemical_formula_sum "Si O2"
_cell_formula_units_Z 16
_cell_length_a 11.539142
_cell_length_b 15.415182
_cell_length_c 12.283770
_cell_angle_alpha 153.223112
_cell_angle_beta 44.688547
_cell_angle_gamma 125.655754
_cell_volume 682.960378
_symmetry_space_group_name_H-M "P -1"
_symmetry_group_IT_number 2
_symmetry_cell_setting 'triclinic'
loop_
_space_group_symop_operation_xyz
x,y,z
-x,-y,-z
loop_
_atom_site_type_symbol
_atom_site_label
_atom_site_fract_x
_atom_site_fract_y
_atom_site_fract_z
Si Si1 0.733744 0.445616 0.117443
Si Si2 0.979479 0.597683 0.292473
Si Si3 0.439678 0.717098 0.241750
Si Si4 0.942195 0.087898 0.254118
Si Si5 0.285091 0.874373 0.066242
Si Si6 0.068669 0.156612 0.803403
Si Si7 0.432918 0.982471 0.355056
Si Si8 0.499654 0.819182 0.663422
O O1 0.657986 0.282205 0.052195
O O2 0.600846 0.608516 0.330269
O O3 0.825865 0.555255 0.273230
O O4 0.877797 0.359952 0.840239
O O5 0.951608 0.765440 0.590095
O O6 0.050338 0.388446 0.063866
O O7 0.246335 0.790404 0.484907
O O8 0.549619 0.855323 0.384171
O O9 0.456854 0.776208 0.169338
O O10 0.500000 0.500000 0.000000
O O11 0.938623 0.912895 0.145813
O O12 0.000000 0.000000 0.000000
O O13 0.354111 0.788607 0.807878
O O14 0.086870 0.906102 0.226674
O O15 0.368242 0.065602 0.236086
O O16 0.242417 0.048780 0.518057
O O17 0.553334 0.037484 0.241749
#
# Coordination Sequence:
#
# PCOD9006535 Si02
#       8
#     2   2   2   2   2   2   2   2
#     4  10  21  38  66  96 133 173 222 271 323 403
#     4  10  21  39  65 100 131 173 224 272 324 397
#     4  10  23  43  66  94 124 172 229 278 325 395
#     4  11  25  41  68  97 137 176 220 277 342 395
#     4  10  24  37  62  95 137 172 213 269 349 390
#     4  10  21  42  64  93 129 172 222 271 327 401
#     4  10  22  39  65  92 124 168 224 277 321 391
#     4  11  22  39  61  96 134 171 215 278 328 402
#
# _framework density 23.427419
#
# number of rings (size 3 to 8) (size 9 to 14) (size 15 to 20)
#    0.000    1.750    1.250    1.875    5.250    1.000 
#    0.000    0.000    0.000    0.000    0.000    0.000 
#    0.000    0.000    0.000    0.000    0.000    0.000 
#
# Total GULP energy -89465.217514 kJ/mol
# GULP energy per Si atom -5591.576095 kJ/mol
# Density = 2.337410 g / cm^3
# Si number density = 23.427419 Si / 1000 Ang^3
#
#
#
# Elastic Constant Matrix: (Units=GPa)
#
#
# Indices 1 2 3 4 5 6 
#
# 1 67.4608 19.4947 29.5628 3.0597 1.6135 -4.8721
# 2 19.4947 154.2982 66.7662 16.6862 -10.0015 -38.0537
# 3 29.5628 66.7662 100.6335 15.5946 9.4535 -22.1148
# 4 3.0597 16.6862 15.5946 44.2422 -11.0677 2.2384
# 5 1.6135 -10.0015 9.4535 -11.0677 36.5368 8.8596
# 6 -4.8721 -38.0537 -22.1148 2.2384 8.8596 48.6283
#
#
#
# Elastic Compliance Matrix: (Units=1/GPa)
#
#
# Indices 1 2 3 4 5 6 
#
# 1 0.017102 -0.000108 -0.005512 0.001180 0.001282 -0.001165
# 2 -0.000108 0.010695 -0.005939 -0.001511 0.002744 0.005227
# 3 -0.005512 -0.005939 0.018554 -0.006547 -0.009441 0.005260
# 4 0.001180 -0.001511 -0.006547 0.028717 0.011747 -0.007503
# 5 0.001282 0.002744 -0.009441 0.011747 0.036289 -0.009170
# 6 -0.001165 0.005227 0.005260 -0.007503 -0.009170 0.028946
#
#
# Mechanical properties :
#
#
# Convention : Reuss Voigt Hill
#
# Bulk Modulus (GPa) = 43.04137 61.55999 52.30068
# Shear Modulus (GPa) = 29.21198 39.65272 34.43235
#
# Velocity S-wave (km/s) = 3.53500 4.11856 3.83789
# Velocity P-wave (km/s) = 5.92231 6.99647 6.48168
#
# Compressibility (1/GPa) = 0.02323346
#
# Stress axis : x y z
#
# Youngs Moduli (GPa) = 58.47412 93.50430 53.89772
#
# Poissons Ratio (x) = 0.01006 0.29708
# Poissons Ratio (y) = 0.00629 0.32009
# Poissons Ratio (z) = 0.32230 0.55530
#
# Static dielectric constant tensor:
#      x y z
#    x 1.989890 -0.021580 0.058920 
#    y -0.021580 1.905350 -0.025020 
#    z 0.058920 -0.025020 1.919710 
# 
# From -- ./inp_files/433440.got.cif
#   From: 2010.05.17/outbox.cif.g08.bks.cpg/sg2_217_cif.got.tgz:433440.got - 2010.06.03 11:33:40.
