data_PCOD9006741
_publ_section_title
;
Structure prediction by ZEFSAII (Michael W. Deem and Ramdas Pophale) SiO2 
 PCOD9006741
Probable space group: P -1
;
_chemical_formula_sum "Si O2"
_cell_formula_units_Z 14
_cell_length_a 18.223039
_cell_length_b 5.861053
_cell_length_c 10.655921
_cell_angle_alpha 73.497352
_cell_angle_beta 148.926286
_cell_angle_gamma 104.054429
_cell_volume 563.230503
_symmetry_space_group_name_H-M "P -1"
_symmetry_group_IT_number 2
_symmetry_cell_setting 'triclinic'
loop_
_space_group_symop_operation_xyz
x,y,z
-x,-y,-z
loop_
_atom_site_type_symbol
_atom_site_label
_atom_site_fract_x
_atom_site_fract_y
_atom_site_fract_z
Si Si1 0.662928 0.748499 0.780002
Si Si2 0.667208 0.256490 0.206916
Si Si3 0.071521 0.954801 0.477810
Si Si4 0.405508 0.237298 0.685708
Si Si5 0.851151 0.560354 0.618892
Si Si6 0.931861 0.818086 0.029646
Si Si7 0.615845 0.212456 0.770326
O O1 0.697188 0.462767 0.876467
O O2 0.491055 0.743694 0.512122
O O3 0.688009 0.955486 0.889625
O O4 0.763980 0.841146 0.800537
O O5 0.751859 0.404905 0.408393
O O6 0.782406 0.195890 0.276486
O O7 0.630268 0.008211 0.258552
O O8 0.523932 0.369017 0.925187
O O9 0.113082 0.207496 0.442900
O O10 0.000000 0.000000 0.500000
O O11 0.985011 0.845089 0.249402
O O12 0.256811 0.375114 0.437432
O O13 0.499542 0.182469 0.712495
O O14 0.998235 0.426622 0.875553
O O15 0.000000 0.000000 0.000000
#
# Coordination Sequence:
#
# PCOD9006741 Si02
#       7
#     2   2   2   2   2   2   2
#     4  10  25  44  65  99 136 177 239 282 360 413
#     4   9  21  39  61  98 129 175 227 289 354 418
#     4  10  24  43  65 100 136 176 234 294 350 428
#     4  10  21  38  68  94 134 173 232 287 355 418
#     4  10  23  41  65 101 133 184 231 294 351 430
#     4  11  27  44  69  99 140 188 233 291 357 430
#     4  10  24  44  67  98 133 183 226 301 342 425
#
# _framework density 24.856608000000001
#
# number of rings (size 3 to 8) (size 9 to 14) (size 15 to 20)
#    0.000    2.000    0.000    0.429   12.000    6.286 
#    0.000    0.000    0.000    0.000    0.000    0.000 
#    0.000    0.000    0.000    0.000    0.000    0.000 
#
# Total GULP energy -78073.914552 kJ/mol
# GULP energy per Si atom -5576.708182 kJ/mol
# Density = 2.480003 g / cm^3
# Si number density = 24.856608 Si / 1000 Ang^3
#
#
#
# Elastic Constant Matrix: (Units=GPa)
#
#
# Indices 1 2 3 4 5 6 
#
# 1 178.0285 42.2004 12.5621 -2.6935 35.4816 -36.0779
# 2 42.2004 101.6021 17.6917 7.1396 10.0683 -30.5339
# 3 12.5621 17.6917 79.5031 -7.3325 18.0969 -9.6691
# 4 -2.6935 7.1396 -7.3325 29.5412 -7.5567 -1.8306
# 5 35.4816 10.0683 18.0969 -7.5567 41.4084 0.4190
# 6 -36.0779 -30.5339 -9.6691 -1.8306 0.4190 34.8452
#
#
#
# Elastic Compliance Matrix: (Units=1/GPa)
#
#
# Indices 1 2 3 4 5 6 
#
# 1 0.009358 -0.000285 0.001802 -0.000283 -0.008890 0.010031
# 2 -0.000285 0.014346 -0.001282 -0.003986 -0.003530 0.011753
# 3 0.001802 -0.001282 0.015141 0.002656 -0.007418 0.005173
# 4 -0.000283 -0.003986 0.002656 0.037124 0.006838 -0.001181
# 5 -0.008890 -0.003530 -0.007418 0.006838 0.037261 -0.014445
# 6 0.010031 0.011753 0.005173 -0.001181 -0.014445 0.050930
#
#
# Mechanical properties :
#
#
# Convention : Reuss Voigt Hill
#
# Bulk Modulus (GPa) = 25.43558 56.00469 40.72013
# Shear Modulus (GPa) = 28.28136 40.27092 34.27614
#
# Velocity S-wave (km/s) = 3.37676 4.02945 3.71746
# Velocity P-wave (km/s) = 5.04564 6.65046 5.90284
#
# Compressibility (1/GPa) = 0.03931501
#
# Stress axis : x y z
#
# Youngs Moduli (GPa) = 106.86222 69.70610 66.04538
#
# Poissons Ratio (x) = 0.01988 -0.11903
# Poissons Ratio (y) = 0.03047 0.08468
# Poissons Ratio (z) = -0.19260 0.08937
#
# Static dielectric constant tensor:
#      x y z
#    x 2.068390 -0.135090 -0.251530 
#    y -0.135090 2.039860 0.172000 
#    z -0.251530 0.172000 2.444180 
# 
# From -- ./inp_files/93100.got.cif
#   From: 2010.05.17/outbox.cif.g08.bks.cpg/sg2_47_cif.got.tgz:93100.got - 2010.06.03 11:33:40.
