data_PCOD9006800
_publ_section_title
;
Structure prediction by ZEFSAII (Michael W. Deem and Ramdas Pophale) SiO2 
 PCOD9006800
Probable space group: P -1
;
_chemical_formula_sum "Si O2"
_cell_formula_units_Z 14
_cell_length_a 26.092338
_cell_length_b 11.053532
_cell_length_c 9.589455
_cell_angle_alpha 126.846709
_cell_angle_beta 35.072925
_cell_angle_gamma 154.334370
_cell_volume 572.824167
_symmetry_space_group_name_H-M "P -1"
_symmetry_group_IT_number 2
_symmetry_cell_setting 'triclinic'
loop_
_space_group_symop_operation_xyz
x,y,z
-x,-y,-z
loop_
_atom_site_type_symbol
_atom_site_label
_atom_site_fract_x
_atom_site_fract_y
_atom_site_fract_z
Si Si1 0.719990 0.198148 0.531413
Si Si2 0.727261 0.287682 0.167129
Si Si3 0.381673 0.925809 0.020542
Si Si4 0.391861 0.488127 0.269389
Si Si5 0.352169 0.121929 0.785432
Si Si6 0.089391 0.985820 0.218966
Si Si7 0.015994 0.062987 0.847993
O O1 0.687597 0.007346 0.368442
O O2 0.917459 0.596294 0.338862
O O3 0.709197 0.148025 0.685987
O O4 0.534274 0.025573 0.790498
O O5 0.762663 0.171075 0.060866
O O6 0.853696 0.587466 0.188407
O O7 0.500000 0.000000 0.500000
O O8 0.768090 0.363682 0.963912
O O9 0.502621 0.229778 0.869768
O O10 0.160411 0.152926 0.527446
O O11 0.435796 0.572280 0.397168
O O12 0.500000 0.500000 0.000000
O O13 0.276182 0.178088 0.995952
O O14 0.144389 0.132842 0.043704
O O15 0.000000 0.000000 0.500000
O O16 0.000000 0.000000 0.000000
#
# Coordination Sequence:
#
# PCOD9006800 Si02
#       7
#     2   2   2   2   2   2   2
#     4  11  21  40  67  96 128 168 225 274 323 397
#     4  11  18  43  70  93 124 180 224 270 323 408
#     4  10  21  38  69  95 123 171 228 269 322 395
#     4  11  22  45  66  94 133 176 219 274 333 405
#     4  11  22  42  73  92 128 179 228 266 336 399
#     4  12  26  44  62  98 140 172 212 290 345 385
#     4  12  25  42  67  96 137 175 222 276 344 395
#
# _framework density 24.440306
#
# number of rings (size 3 to 8) (size 9 to 14) (size 15 to 20)
#    0.000    0.857    7.143    1.286    2.000    1.143 
#    0.000    2.857    0.000    0.000    0.000    0.000 
#    0.000    0.000    0.000    0.000    0.000    0.000 
#
# Total GULP energy -78134.855401 kJ/mol
# GULP energy per Si atom -5581.061100 kJ/mol
# Density = 2.438468 g / cm^3
# Si number density = 24.440306 Si / 1000 Ang^3
#
#
#
# Elastic Constant Matrix: (Units=GPa)
#
#
# Indices 1 2 3 4 5 6 
#
# 1 180.9732 8.3511 67.2794 16.2599 4.1624 19.6377
# 2 8.3511 28.2466 16.8184 15.3586 -1.8796 8.3184
# 3 67.2794 16.8184 63.8880 23.6322 4.0613 3.7138
# 4 16.2599 15.3586 23.6322 34.6309 3.0734 2.9925
# 5 4.1624 -1.8796 4.0613 3.0734 53.7336 14.9452
# 6 19.6377 8.3184 3.7138 2.9925 14.9452 36.6986
#
#
#
# Elastic Compliance Matrix: (Units=1/GPa)
#
#
# Indices 1 2 3 4 5 6 
#
# 1 0.010680 0.005850 -0.013193 0.001785 0.002143 -0.006724
# 2 0.005850 0.057201 -0.014231 -0.017704 0.008244 -0.016570
# 3 -0.013193 -0.014231 0.038191 -0.013988 -0.004133 0.009244
# 4 0.001785 -0.017704 -0.013988 0.045521 -0.002837 0.001917
# 5 0.002143 0.008244 -0.004133 -0.002837 0.022403 -0.011489
# 6 -0.006724 -0.016570 0.009244 0.001917 -0.011489 0.038190
#
#
# Mechanical properties :
#
#
# Convention : Reuss Voigt Hill
#
# Bulk Modulus (GPa) = 15.89191 50.88952 33.39072
# Shear Modulus (GPa) = 18.09573 37.05656 27.57615
#
# Velocity S-wave (km/s) = 2.72399 3.89807 3.36267
# Velocity P-wave (km/s) = 4.05092 6.41305 5.36363
#
# Compressibility (1/GPa) = 0.06292509
#
# Stress axis : x y z
#
# Youngs Moduli (GPa) = 93.62995 17.48236 26.18398
#
# Poissons Ratio (x) = -0.10227 0.34544
# Poissons Ratio (y) = -0.54773 0.37262
# Poissons Ratio (z) = 1.23523 0.24879
#
# Static dielectric constant tensor:
#      x y z
#    x 1.973980 0.002020 0.082490 
#    y 0.002020 2.087000 0.019340 
#    z 0.082490 0.019340 2.011940 
# 
# From -- ./inp_files/243235.got.cif
#   From: 2010.05.17/outbox.cif.g08.bks.cpg/sg2_122_cif.got.tgz:243235.got - 2010.06.03 11:33:40.
