data_PCOD9006869
_publ_section_title
;
Structure prediction by ZEFSAII (Michael W. Deem and Ramdas Pophale) SiO2 
 PCOD9006869
Probable space group: P -1
;
_chemical_formula_sum "Si O2"
_cell_formula_units_Z 12
_cell_length_a 7.708841
_cell_length_b 11.229215
_cell_length_c 10.157900
_cell_angle_alpha 98.916942
_cell_angle_beta 71.915470
_cell_angle_gamma 46.896443
_cell_volume 517.922162
_symmetry_space_group_name_H-M "P -1"
_symmetry_group_IT_number 2
_symmetry_cell_setting 'triclinic'
loop_
_space_group_symop_operation_xyz
x,y,z
-x,-y,-z
loop_
_atom_site_type_symbol
_atom_site_label
_atom_site_fract_x
_atom_site_fract_y
_atom_site_fract_z
Si Si1 0.844083 0.171108 0.467353
Si Si2 0.268770 0.081001 0.961057
Si Si3 0.515756 0.234384 0.317017
Si Si4 0.981370 0.640023 0.156939
Si Si5 0.253123 0.506151 0.816533
Si Si6 0.984392 0.681306 0.451127
O O1 0.755317 0.159128 0.348703
O O2 0.543587 0.360705 0.642753
O O3 0.023878 0.201565 0.429832
O O4 0.000000 0.000000 0.500000
O O5 0.255222 0.179137 0.854783
O O6 0.336982 0.914074 0.862111
O O7 0.950228 0.274723 0.127349
O O8 0.500000 0.000000 0.000000
O O9 0.300149 0.251958 0.445386
O O10 0.282549 0.454597 0.366068
O O11 0.906439 0.539129 0.187698
O O12 0.991828 0.709011 0.299701
O O13 0.266562 0.496105 0.971478
#
# Coordination Sequence:
#
# PCOD9006869 Si02
#       6
#     2   2   2   2   2   2
#     4  12  26  43  68  99 133 174 225 272 329 392
#     4  10  21  38  71  97 125 177 219 266 335 388
#     4  11  25  44  66  99 134 173 228 268 326 398
#     4   9  19  39  68  94 130 172 216 269 326 386
#     4   9  21  40  65  95 133 163 224 269 320 394
#     4  11  24  42  72  94 136 179 215 277 330 384
#
# _framework density 23.169505000000001
#
# number of rings (size 3 to 8) (size 9 to 14) (size 15 to 20)
#    1.000    0.667    1.667    2.500    4.667    2.000 
#    0.000    0.833    0.000    0.000    0.000    0.000 
#    0.000    0.000    0.000    0.000    0.000    0.000 
#
# Total GULP energy -67047.151039 kJ/mol
# GULP energy per Si atom -5587.262587 kJ/mol
# Density = 2.311677 g / cm^3
# Si number density = 23.169505 Si / 1000 Ang^3
#
#
#
# Elastic Constant Matrix: (Units=GPa)
#
#
# Indices 1 2 3 4 5 6 
#
# 1 102.8153 35.4073 35.4686 -13.6312 47.0347 -4.7167
# 2 35.4073 89.9599 34.1337 8.1788 31.6312 -11.1144
# 3 35.4686 34.1337 77.9556 9.8018 24.0279 -14.7896
# 4 -13.6312 8.1788 9.8018 43.4410 -2.2934 10.0913
# 5 47.0347 31.6312 24.0279 -2.2934 39.7408 -7.5719
# 6 -4.7167 -11.1144 -14.7896 10.0913 -7.5719 32.7605
#
#
#
# Elastic Compliance Matrix: (Units=1/GPa)
#
#
# Indices 1 2 3 4 5 6 
#
# 1 0.025059 -0.000011 -0.005812 0.009665 -0.027154 -0.008273
# 2 -0.000011 0.016925 -0.002840 -0.003850 -0.011390 0.003012
# 3 -0.005812 -0.002840 0.020006 -0.008058 -0.001644 0.009334
# 4 0.009665 -0.003850 -0.008058 0.031692 -0.004404 -0.014333
# 5 -0.027154 -0.011390 -0.001644 -0.004404 0.068771 0.008736
# 6 -0.008273 0.003012 0.009334 -0.014333 0.008736 0.041003
#
#
# Mechanical properties :
#
#
# Convention : Reuss Voigt Hill
#
# Bulk Modulus (GPa) = 22.38871 53.41665 37.90268
# Shear Modulus (GPa) = 21.21627 34.23654 27.72641
#
# Velocity S-wave (km/s) = 3.02933 3.84820 3.46305
# Velocity P-wave (km/s) = 4.68186 6.54596 5.69076
#
# Compressibility (1/GPa) = 0.04466536
#
# Stress axis : x y z
#
# Youngs Moduli (GPa) = 39.90637 59.08530 49.98459
#
# Poissons Ratio (x) = 0.00063 0.29050
# Poissons Ratio (y) = 0.00043 0.14194
# Poissons Ratio (z) = 0.23193 0.16778
#
# Static dielectric constant tensor:
#      x y z
#    x 1.965080 0.005120 0.016730 
#    y 0.005120 1.891090 -0.017090 
#    z 0.016730 -0.017090 1.905220 
# 
# From -- ./inp_files/390393.got.cif
#   From: 2010.05.17/outbox.cif.g08.bks.cpg/sg2_196_cif.got.tgz:390393.got - 2010.06.03 11:33:40.
