data_PCOD9006845
_publ_section_title
;
Structure prediction by ZEFSAII (Michael W. Deem and Ramdas Pophale) SiO2 
 PCOD9006845
Probable space group: P -1
;
_chemical_formula_sum "Si O2"
_cell_formula_units_Z 16
_cell_length_a 20.543547
_cell_length_b 9.693226
_cell_length_c 10.085097
_cell_angle_alpha 121.658482
_cell_angle_beta 58.852172
_cell_angle_gamma 151.359881
_cell_volume 811.414817
_symmetry_space_group_name_H-M "P -1"
_symmetry_group_IT_number 2
_symmetry_cell_setting 'triclinic'
loop_
_space_group_symop_operation_xyz
x,y,z
-x,-y,-z
loop_
_atom_site_type_symbol
_atom_site_label
_atom_site_fract_x
_atom_site_fract_y
_atom_site_fract_z
Si Si1 0.130273 0.121394 0.937442
Si Si2 0.421907 0.362475 0.876594
Si Si3 0.574760 0.086396 0.604126
Si Si4 0.135552 0.586605 0.528437
Si Si5 0.410801 0.718257 0.040697
Si Si6 0.846181 0.032332 0.432023
Si Si7 0.443905 0.530279 0.468727
Si Si8 0.892472 0.259864 0.102563
O O1 0.175040 0.117569 0.750088
O O2 0.086235 0.888660 0.953408
O O3 0.250745 0.444472 0.033737
O O4 0.000000 0.000000 0.000000
O O5 0.481113 0.360208 0.694871
O O6 0.269307 0.031529 0.904120
O O7 0.500000 0.500000 0.000000
O O8 0.434543 0.569572 0.914961
O O9 0.731767 0.294303 0.534506
O O10 0.571514 0.215592 0.787713
O O11 0.500000 0.000000 0.500000
O O12 0.485601 0.780232 0.601104
O O13 0.167713 0.803455 0.514441
O O14 0.093737 0.592455 0.715000
O O15 0.997215 0.267829 0.449817
O O16 0.500000 0.000000 0.000000
O O17 0.718619 0.773033 0.530779
O O18 0.500000 0.500000 0.500000
O O19 0.000000 0.500000 0.000000
#
# Coordination Sequence:
#
# PCOD9006845 Si02
#       8
#     2   2   2   2   2   2   2   2
#     4  10  21  42  62  92 130 159 209 274 320 376
#     4  11  24  41  63  94 131 166 214 270 318 385
#     4  12  24  42  64  94 139 170 207 275 332 385
#     4  10  21  41  63  96 127 164 220 266 321 385
#     4  11  24  40  64  96 127 168 215 262 329 383
#     4  10  21  38  70  95 121 167 220 273 316 381
#     4  12  21  42  69  92 126 171 224 265 318 391
#     4  10  22  41  63  88 127 170 213 257 316 390
#
# _framework density 19.718646
#
# number of rings (size 3 to 8) (size 9 to 14) (size 15 to 20)
#    0.000    1.250    2.500    4.500    1.750    1.000 
#    2.250    0.625    0.000    0.000    0.000    0.000 
#    0.000    0.000    0.000    0.000    0.000    0.000 
#
# Total GULP energy -89287.999676 kJ/mol
# GULP energy per Si atom -5580.499980 kJ/mol
# Density = 1.967377 g / cm^3
# Si number density = 19.718646 Si / 1000 Ang^3
#
#
#
# Elastic Constant Matrix: (Units=GPa)
#
#
# Indices 1 2 3 4 5 6 
#
# 1 80.2824 39.9129 18.0354 -6.9913 13.8690 28.8503
# 2 39.9129 125.4714 56.5355 -12.8427 5.3450 9.4847
# 3 18.0354 56.5355 77.6917 4.8916 13.5411 11.6894
# 4 -6.9913 -12.8427 4.8916 37.2177 5.1240 2.7719
# 5 13.8690 5.3450 13.5411 5.1240 30.7405 2.4114
# 6 28.8503 9.4847 11.6894 2.7719 2.4114 21.9427
#
#
#
# Elastic Compliance Matrix: (Units=1/GPa)
#
#
# Indices 1 2 3 4 5 6 
#
# 1 0.035481 -0.010078 0.008239 0.007668 -0.015559 -0.045942
# 2 -0.010078 0.015914 -0.012227 0.003548 0.005647 0.011817
# 3 0.008239 -0.012227 0.024445 -0.003172 -0.010496 -0.017016
# 4 0.007668 0.003548 -0.003172 0.031891 -0.006960 -0.013189
# 5 -0.015559 0.005647 -0.010496 -0.006960 0.042800 0.019783
# 6 -0.045942 0.011817 -0.017016 -0.013189 0.019783 0.109426
#
#
# Mechanical properties :
#
#
# Convention : Reuss Voigt Hill
#
# Bulk Modulus (GPa) = 20.96095 56.93480 38.94787
# Shear Modulus (GPa) = 16.44775 29.24431 22.84603
#
# Velocity S-wave (km/s) = 2.89125 3.85525 3.40751
# Velocity P-wave (km/s) = 4.66892 6.98238 5.93938
#
# Compressibility (1/GPa) = 0.04770776
#
# Stress axis : x y z
#
# Youngs Moduli (GPa) = 28.18424 62.83617 40.90749
#
# Poissons Ratio (x) = 0.63328 -0.33702
# Poissons Ratio (y) = 0.28405 0.50017
# Poissons Ratio (z) = -0.23220 0.76828
#
# Static dielectric constant tensor:
#      x y z
#    x 1.733280 0.022010 0.012880 
#    y 0.022010 1.687900 -0.013830 
#    z 0.012880 -0.013830 1.680340 
# 
# From -- ./inp_files/343759.got.cif
#   From: 2010.05.17/outbox.cif.g08.bks.cpg/sg2_172_cif.got.tgz:343759.got - 2010.06.03 11:33:40.
