data_PCOD9006194
_publ_section_title
;
Structure prediction by ZEFSAII (Michael W. Deem and Ramdas Pophale) SiO2 
 PCOD9006194
Probable space group: P -1
;
_chemical_formula_sum "Si O2"
_cell_formula_units_Z 16
_cell_length_a 15.707666
_cell_length_b 15.121169
_cell_length_c 16.665790
_cell_angle_alpha 149.038353
_cell_angle_beta 153.184836
_cell_angle_gamma 30.566112
_cell_volume 836.862890
_symmetry_space_group_name_H-M "P -1"
_symmetry_group_IT_number 2
_symmetry_cell_setting 'triclinic'
loop_
_space_group_symop_operation_xyz
x,y,z
-x,-y,-z
loop_
_atom_site_type_symbol
_atom_site_label
_atom_site_fract_x
_atom_site_fract_y
_atom_site_fract_z
Si Si1 0.513747 0.247326 0.754537
Si Si2 0.127078 0.461481 0.906278
Si Si3 0.995300 0.819473 0.311581
Si Si4 0.258659 0.182125 0.345174
Si Si5 0.369680 0.144250 0.069141
Si Si6 0.628200 0.470254 0.690651
Si Si7 0.784804 0.487113 0.159300
Si Si8 0.661258 0.737420 0.702115
O O1 0.389679 0.239224 0.564641
O O2 0.337116 0.345816 0.750398
O O3 0.681842 0.037542 0.755764
O O4 0.640811 0.373058 0.944471
O O5 0.199813 0.432214 0.852780
O O6 0.093403 0.289768 0.786496
O O7 0.899836 0.630191 0.844665
O O8 0.271921 0.519738 0.131559
O O9 0.218903 0.686258 0.362656
O O10 0.000000 0.000000 0.500000
O O11 0.854773 0.847603 0.135595
O O12 0.344904 0.185370 0.331377
O O13 0.017338 0.335014 0.261653
O O14 0.395280 0.335675 0.219271
O O15 0.432692 0.107264 0.186029
O O16 0.500000 0.000000 0.000000
O O17 0.436255 0.416312 0.499451
#
# Coordination Sequence:
#
# PCOD9006194 Si02
#       8
#     2   2   2   2   2   2   2   2
#     4  10  21  40  62  89 119 153 195 243 311 363
#     4  10  21  39  57  87 117 152 199 241 290 348
#     4  11  22  37  58  82 119 159 197 238 291 341
#     4  10  22  38  62  90 120 152 199 245 300 360
#     4  11  22  36  56  84 116 156 201 242 284 345
#     4  11  21  38  58  79 119 157 192 238 290 340
#     4  10  21  38  65  86 119 155 194 247 302 356
#     4  11  21  37  61  85 117 156 198 240 293 344
#
# _framework density 19.119022000000001
#
# number of rings (size 3 to 8) (size 9 to 14) (size 15 to 20)
#    0.000    1.500    2.500    3.375    1.750    3.000 
#    0.000    0.000    2.750    0.000    0.000    0.000 
#    0.000    0.000    0.000    0.000    0.000    0.000 
#
# Total GULP energy -89248.501437 kJ/mol
# GULP energy per Si atom -5578.031340 kJ/mol
# Density = 1.907551 g / cm^3
# Si number density = 19.119022 Si / 1000 Ang^3
#
#
#
# Elastic Constant Matrix: (Units=GPa)
#
#
# Indices 1 2 3 4 5 6 
#
# 1 85.8722 16.2068 39.4790 -13.2680 -29.7189 0.0560
# 2 16.2068 53.5895 16.3041 -2.1945 -19.8693 -5.9814
# 3 39.4790 16.3041 100.9147 -5.0189 -25.1815 12.1204
# 4 -13.2680 -2.1945 -5.0189 26.7757 -5.7698 -2.3285
# 5 -29.7189 -19.8693 -25.1815 -5.7698 30.1138 -1.5398
# 6 0.0560 -5.9814 12.1204 -2.3285 -1.5398 24.1023
#
#
#
# Elastic Compliance Matrix: (Units=1/GPa)
#
#
# Indices 1 2 3 4 5 6 
#
# 1 0.025789 0.006329 -0.003185 0.020027 0.031160 0.007038
# 2 0.006329 0.028850 -0.000985 0.012121 0.027320 0.010556
# 3 -0.003185 -0.000985 0.014280 0.002210 0.008230 -0.006679
# 4 0.020027 0.012121 0.002210 0.058467 0.041331 0.010139
# 5 0.031160 0.027320 0.008230 0.041331 0.097439 0.012787
# 6 0.007038 0.010556 -0.006679 0.010139 0.012787 0.049248
#
#
# Mechanical properties :
#
#
# Convention : Reuss Voigt Hill
#
# Bulk Modulus (GPa) = 13.65442 42.70623 28.18033
# Shear Modulus (GPa) = 16.99704 27.42411 22.21058
#
# Velocity S-wave (km/s) = 2.98487 3.79144 3.41207
# Velocity P-wave (km/s) = 4.36309 6.44610 5.50403
#
# Compressibility (1/GPa) = 0.07323636
#
# Stress axis : x y z
#
# Youngs Moduli (GPa) = 38.77645 34.66211 70.02618
#
# Poissons Ratio (x) = -0.21936 0.22305
# Poissons Ratio (y) = -0.24540 0.06896
# Poissons Ratio (z) = 0.12351 0.03414
#
# Static dielectric constant tensor:
#      x y z
#    x 1.673230 -0.029860 -0.028120 
#    y -0.029860 1.723380 -0.013600 
#    z -0.028120 -0.013600 1.620470 
# 
# From -- ./inp_files/214892.got.cif
#   From: 2010.05.17/outbox.cif.g08.bks.cpg/sg2_108_cif.got.tgz:214892.got - 2010.06.03 11:33:40.
