data_PCOD9006028
_publ_section_title
;
Structure prediction by ZEFSAII (Michael W. Deem and Ramdas Pophale) SiO2 
 PCOD9006028
Probable space group: P -1
;
_chemical_formula_sum "Si O2"
_cell_formula_units_Z 16
_cell_length_a 17.382936
_cell_length_b 24.307437
_cell_length_c 5.154779
_cell_angle_alpha 69.204246
_cell_angle_beta 104.202975
_cell_angle_gamma 158.566025
_cell_volume 720.606927
_symmetry_space_group_name_H-M "P -1"
_symmetry_group_IT_number 2
_symmetry_cell_setting 'triclinic'
loop_
_space_group_symop_operation_xyz
x,y,z
-x,-y,-z
loop_
_atom_site_type_symbol
_atom_site_label
_atom_site_fract_x
_atom_site_fract_y
_atom_site_fract_z
Si Si1 0.131098 0.029553 0.054742
Si Si2 0.011385 0.184568 0.888014
Si Si3 0.362941 0.525385 0.579733
Si Si4 0.906601 0.369416 0.138318
Si Si5 0.618277 0.143867 0.780933
Si Si6 0.170764 0.444336 0.055043
Si Si7 0.750010 0.847172 0.545133
Si Si8 0.187971 0.903630 0.630014
O O1 0.275839 0.131944 0.257230
O O2 0.963668 0.862481 0.134258
O O3 0.286884 0.137031 0.757359
O O4 0.000000 0.000000 0.000000
O O5 0.841209 0.095876 0.690939
O O6 0.230117 0.373515 0.743725
O O7 0.921969 0.127699 0.201191
O O8 0.334948 0.528139 0.258307
O O9 0.604038 0.690192 0.620727
O O10 0.254074 0.495766 0.744237
O O11 0.795941 0.268643 0.483409
O O12 0.100796 0.459646 0.065509
O O13 0.731269 0.243368 0.971629
O O14 0.000000 0.500000 0.000000
O O15 0.428066 0.054809 0.667349
O O16 0.500000 0.000000 0.000000
O O17 0.955180 0.254676 0.203919
O O18 0.000000 0.000000 0.500000
#
# Coordination Sequence:
#
# PCOD9006028 Si02
#       8
#     2   2   2   2   2   2   2   2
#     4  10  21  40  61  88 126 159 190 256 322 380
#     4  10  21  39  61  90 125 157 211 268 309 378
#     4  10  21  39  63  89 118 166 215 249 320 376
#     4  12  26  44  61  94 139 170 223 276 333 387
#     4  12  24  42  70  90 126 182 231 266 330 393
#     4  10  21  39  64  87 125 169 208 269 316 378
#     4  10  21  40  62  89 125 158 198 252 315 389
#     4  10  21  38  64  93 118 163 223 272 308 368
#
# _framework density 22.203506000000001
#
# number of rings (size 3 to 8) (size 9 to 14) (size 15 to 20)
#    0.000    1.500    1.250    3.750    3.500    0.000 
#   13.500    5.000    0.000    0.000    0.000    0.000 
#    0.000    0.000    0.000    0.000    0.000    0.000 
#
# Total GULP energy -89249.626823 kJ/mol
# GULP energy per Si atom -5578.101676 kJ/mol
# Density = 2.215297 g / cm^3
# Si number density = 22.203506 Si / 1000 Ang^3
#
#
#
# Elastic Constant Matrix: (Units=GPa)
#
#
# Indices 1 2 3 4 5 6 
#
# 1 75.7818 31.1727 8.6919 -14.3391 9.4859 -33.7572
# 2 31.1727 156.1948 38.5827 3.8151 1.1625 -35.4363
# 3 8.6919 38.5827 111.8951 21.7221 -12.3179 -27.1000
# 4 -14.3391 3.8151 21.7221 37.7556 -11.7547 -4.6401
# 5 9.4859 1.1625 -12.3179 -11.7547 18.7498 -1.0749
# 6 -33.7572 -35.4363 -27.1000 -4.6401 -1.0749 43.0173
#
#
#
# Elastic Compliance Matrix: (Units=1/GPa)
#
#
# Indices 1 2 3 4 5 6 
#
# 1 0.025077 -0.000757 0.000804 0.010263 -0.004499 0.020556
# 2 -0.000757 0.008105 -0.001639 0.000218 -0.000770 0.005055
# 3 0.000804 -0.001639 0.012536 -0.004105 0.005751 0.006879
# 4 0.010263 0.000218 -0.004105 0.039410 0.017396 0.010333
# 5 -0.004499 -0.000770 0.005751 0.017396 0.070520 0.003097
# 6 0.020556 0.005055 0.006879 0.010333 0.003097 0.049067
#
#
# Mechanical properties :
#
#
# Convention : Reuss Voigt Hill
#
# Bulk Modulus (GPa) = 23.51045 55.64072 39.57559
# Shear Modulus (GPa) = 22.51476 37.59950 30.05713
#
# Velocity S-wave (km/s) = 3.18782 4.11956 3.68327
# Velocity P-wave (km/s) = 4.91540 6.90953 5.99595
#
# Compressibility (1/GPa) = 0.04253427
#
# Stress axis : x y z
#
# Youngs Moduli (GPa) = 39.87724 123.37537 79.77243
#
# Poissons Ratio (x) = 0.09338 -0.06413
# Poissons Ratio (y) = 0.03018 0.13074
# Poissons Ratio (z) = -0.03206 0.20219
#
# Static dielectric constant tensor:
#      x y z
#    x 1.838060 -0.028860 -0.012800 
#    y -0.028860 1.905310 -0.003870 
#    z -0.012800 -0.003870 1.966150 
# 
# From -- ./inp_files/112806.got.cif
#   From: 2010.05.17/outbox.cif.g08.bks.cpg/sg2_57_cif.got.tgz:112806.got - 2010.06.03 11:33:40.
