data_PCOD9006625
_publ_section_title
;
Structure prediction by ZEFSAII (Michael W. Deem and Ramdas Pophale) SiO2 
 PCOD9006625
Probable space group: P -1
;
_chemical_formula_sum "Si O2"
_cell_formula_units_Z 12
_cell_length_a 11.384506
_cell_length_b 14.040643
_cell_length_c 9.163022
_cell_angle_alpha 136.841085
_cell_angle_beta 37.598451
_cell_angle_gamma 149.469650
_cell_volume 448.709936
_symmetry_space_group_name_H-M "P -1"
_symmetry_group_IT_number 2
_symmetry_cell_setting 'triclinic'
loop_
_space_group_symop_operation_xyz
x,y,z
-x,-y,-z
loop_
_atom_site_type_symbol
_atom_site_label
_atom_site_fract_x
_atom_site_fract_y
_atom_site_fract_z
Si Si1 0.372109 0.850105 0.821619
Si Si2 0.482531 0.413816 0.242501
Si Si3 0.603204 0.750679 0.168652
Si Si4 0.154152 0.861341 0.754173
Si Si5 0.872379 0.532970 0.459349
Si Si6 0.274698 0.196849 0.485630
O O1 0.292028 0.901497 0.818531
O O2 0.133358 0.614486 0.790988
O O3 0.607253 0.854831 0.576134
O O4 0.500000 0.000000 0.000000
O O5 0.487632 0.339811 0.004005
O O6 0.221435 0.385841 0.461210
O O7 0.449404 0.293721 0.275333
O O8 0.712332 0.638968 0.288875
O O9 0.637327 0.405272 0.666007
O O10 0.869973 0.794378 0.987398
O O11 0.688444 0.951460 0.288584
O O12 0.105579 0.701846 0.521494
O O13 0.000000 0.000000 0.500000
#
# Coordination Sequence:
#
# PCOD9006625 Si02
#       6
#     2   2   2   2   2   2
#     4  11  24  39  59  90 125 161 202 252 304 354
#     4   9  19  37  62  93 119 150 207 254 293 357
#     4  10  21  38  67  93 116 159 207 249 300 363
#     4  10  21  40  63  89 125 157 197 254 305 353
#     4  10  22  40  65  90 119 161 205 248 301 363
#     4  10  22  40  63  87 123 167 203 244 302 365
#
# _framework density 26.743331999999999
#
# number of rings (size 3 to 8) (size 9 to 14) (size 15 to 20)
#    0.000    2.000    0.000    3.500    0.000   14.000 
#    0.000    5.000    0.000   22.000    0.000    0.000 
#    0.000    0.000    0.000    0.000    0.000    0.000 
#
# Total GULP energy -67086.639453 kJ/mol
# GULP energy per Si atom -5590.553288 kJ/mol
# Density = 2.668246 g / cm^3
# Si number density = 26.743332 Si / 1000 Ang^3
#
#
#
# Elastic Constant Matrix: (Units=GPa)
#
#
# Indices 1 2 3 4 5 6 
#
# 1 205.3950 74.0710 45.4658 22.6929 9.1801 17.5949
# 2 74.0710 174.3001 51.7933 37.9600 10.5956 20.7631
# 3 45.4658 51.7933 103.8907 32.3458 5.3210 17.7799
# 4 22.6929 37.9600 32.3458 45.7675 9.3416 10.9082
# 5 9.1801 10.5956 5.3210 9.3416 49.4757 13.1484
# 6 17.5949 20.7631 17.7799 10.9082 13.1484 49.8895
#
#
#
# Elastic Compliance Matrix: (Units=1/GPa)
#
#
# Indices 1 2 3 4 5 6 
#
# 1 0.005994 -0.001999 -0.001485 -0.000039 -0.000343 -0.000654
# 2 -0.001999 0.008158 -0.001648 -0.004324 -0.000081 -0.001137
# 3 -0.001485 -0.001648 0.013704 -0.007248 0.001160 -0.002395
# 4 -0.000039 -0.004324 -0.007248 0.031731 -0.003874 -0.001521
# 5 -0.000343 -0.000081 0.001160 -0.003874 0.022306 -0.005290
# 6 -0.000654 -0.001137 -0.002395 -0.001521 -0.005290 0.023328
#
#
# Mechanical properties :
#
#
# Convention : Reuss Voigt Hill
#
# Bulk Modulus (GPa) = 56.84070 91.80511 74.32290
# Shear Modulus (GPa) = 41.20394 49.84359 45.52376
#
# Velocity S-wave (km/s) = 3.92946 4.32183 4.13031
# Velocity P-wave (km/s) = 6.47208 7.70111 7.11319
#
# Compressibility (1/GPa) = 0.01759303
#
# Stress axis : x y z
#
# Youngs Moduli (GPa) = 166.83868 122.57764 72.97113
#
# Poissons Ratio (x) = 0.24499 0.10837
# Poissons Ratio (y) = 0.33345 0.12023
# Poissons Ratio (z) = 0.24778 0.20197
#
# Static dielectric constant tensor:
#      x y z
#    x 2.168650 0.106270 -0.013740 
#    y 0.106270 2.109830 0.041790 
#    z -0.013740 0.041790 2.249300 
# 
# From -- ./inp_files/431916.got.cif
#   From: 2010.05.17/outbox.cif.g08.bks.cpg/sg2_216_cif.got.tgz:431916.got - 2010.06.03 11:33:40.
