data_PCOD9006301
_publ_section_title
;
Structure prediction by ZEFSAII (Michael W. Deem and Ramdas Pophale) SiO2 
 PCOD9006301
Probable space group: P -1
;
_chemical_formula_sum "Si O2"
_cell_formula_units_Z 16
_cell_length_a 25.867494
_cell_length_b 24.110752
_cell_length_c 10.643395
_cell_angle_alpha 35.152447
_cell_angle_beta 144.127244
_cell_angle_gamma 168.605424
_cell_volume 752.807326
_symmetry_space_group_name_H-M "P -1"
_symmetry_group_IT_number 2
_symmetry_cell_setting 'triclinic'
loop_
_space_group_symop_operation_xyz
x,y,z
-x,-y,-z
loop_
_atom_site_type_symbol
_atom_site_label
_atom_site_fract_x
_atom_site_fract_y
_atom_site_fract_z
Si Si1 0.881258 0.332716 0.447152
Si Si2 0.550328 0.694120 0.133064
Si Si3 0.340609 0.665418 0.652969
Si Si4 0.142422 0.103167 0.467563
Si Si5 0.245489 0.494109 0.498551
Si Si6 0.282557 0.161278 0.286621
Si Si7 0.703515 0.727381 0.155669
Si Si8 0.793159 0.335273 0.996171
O O1 0.858189 0.372955 0.198904
O O2 0.000000 0.500000 0.500000
O O3 0.079587 0.450938 0.580606
O O4 0.589721 0.993054 0.529883
O O5 0.346049 0.396634 0.293650
O O6 0.724758 0.859134 0.295703
O O7 0.707643 0.823248 0.078970
O O8 0.417099 0.657863 0.911829
O O9 0.295691 0.576875 0.589059
O O10 0.000000 0.000000 0.500000
O O11 0.914170 0.866405 0.356672
O O12 0.495538 0.690027 0.583244
O O13 0.204951 0.548475 0.237143
O O14 0.980495 0.159922 0.594199
O O15 0.425463 0.386805 0.237430
O O16 0.229041 0.164901 0.047303
O O17 0.000000 0.500000 0.000000
O O18 0.500000 0.000000 0.000000
#
# Coordination Sequence:
#
# PCOD9006301 Si02
#       8
#     2   2   2   2   2   2   2   2
#     4  12  27  49  71 106 138 177 221 291 365 413
#     4  10  21  38  65  94 121 179 229 272 317 402
#     4  12  24  43  77  96 133 172 235 283 332 418
#     4   9  20  38  58  87 130 170 232 259 325 393
#     4  12  23  42  67 103 129 172 238 272 326 423
#     4  11  25  38  63  99 139 174 217 279 335 380
#     4  10  22  38  61  89 141 179 212 276 336 386
#     4  12  23  45  74 101 135 179 224 288 354 415
#
# _framework density 21.253778000000001
#
# number of rings (size 3 to 8) (size 9 to 14) (size 15 to 20)
#    0.000    1.000    3.750    2.625    5.250    1.000 
#    2.250    0.000    0.000    0.000    0.000    0.000 
#    0.000    0.000    0.000    0.000    0.000    0.000 
#
# Total GULP energy -89429.019172 kJ/mol
# GULP energy per Si atom -5589.313698 kJ/mol
# Density = 2.120540 g / cm^3
# Si number density = 21.253778 Si / 1000 Ang^3
#
#
#
# Elastic Constant Matrix: (Units=GPa)
#
#
# Indices 1 2 3 4 5 6 
#
# 1 78.2481 21.7594 26.6302 9.5663 3.2827 4.2479
# 2 21.7594 106.2389 41.9072 5.2915 -18.8668 -3.3228
# 3 26.6302 41.9072 169.6629 27.9829 -22.2061 -23.5715
# 4 9.5663 5.2915 27.9829 41.9629 1.4719 1.5229
# 5 3.2827 -18.8668 -22.2061 1.4719 18.0052 0.7423
# 6 4.2479 -3.3228 -23.5715 1.5229 0.7423 19.3553
#
#
#
# Elastic Compliance Matrix: (Units=1/GPa)
#
#
# Indices 1 2 3 4 5 6 
#
# 1 0.016499 -0.004134 -0.004689 0.000684 -0.012783 -0.009604
# 2 -0.004134 0.012971 -0.000169 -0.001166 0.014130 0.002478
# 3 -0.004689 -0.000169 0.012363 -0.008297 0.015940 0.016097
# 4 0.000684 -0.001166 -0.008297 0.030277 -0.013547 -0.012318
# 5 -0.012783 0.014130 0.015940 -0.013547 0.092529 0.022160
# 6 -0.009604 0.002478 0.016097 -0.012318 0.022160 0.073922
#
#
# Mechanical properties :
#
#
# Convention : Reuss Voigt Hill
#
# Bulk Modulus (GPa) = 41.92963 59.41596 50.67279
# Shear Modulus (GPa) = 18.90391 33.45490 26.17940
#
# Velocity S-wave (km/s) = 2.98558 3.97176 3.51344
# Velocity P-wave (km/s) = 5.62635 7.00352 6.35237
#
# Compressibility (1/GPa) = 0.02384949
#
# Stress axis : x y z
#
# Youngs Moduli (GPa) = 60.60832 77.09416 80.88715
#
# Poissons Ratio (x) = 0.31873 0.37926
# Poissons Ratio (y) = 0.25058 0.01366
# Poissons Ratio (z) = 0.28418 0.01302
#
# Static dielectric constant tensor:
#      x y z
#    x 1.821960 0.024490 -0.016080 
#    y 0.024490 1.810070 0.037680 
#    z -0.016080 0.037680 1.768780 
# 
# From -- ./inp_files/477796.got.cif
#   From: 2010.05.17/outbox.cif.g08.bks.cpg/sg2_239_cif.got.tgz:477796.got - 2010.06.03 11:33:40.
