data_PCOD9006061
_publ_section_title
;
Structure prediction by ZEFSAII (Michael W. Deem and Ramdas Pophale) SiO2 
 PCOD9006061
Probable space group: P -1
;
_chemical_formula_sum "Si O2"
_cell_formula_units_Z 14
_cell_length_a 8.176677
_cell_length_b 7.048041
_cell_length_c 14.609277
_cell_angle_alpha 117.060037
_cell_angle_beta 109.460806
_cell_angle_gamma 108.614377
_cell_volume 585.367820
_symmetry_space_group_name_H-M "P -1"
_symmetry_group_IT_number 2
_symmetry_cell_setting 'triclinic'
loop_
_space_group_symop_operation_xyz
x,y,z
-x,-y,-z
loop_
_atom_site_type_symbol
_atom_site_label
_atom_site_fract_x
_atom_site_fract_y
_atom_site_fract_z
Si Si1 0.827439 0.094861 0.813284
Si Si2 0.806305 0.321188 0.022693
Si Si3 0.444360 0.540956 0.895588
Si Si4 0.515627 0.859521 0.386623
Si Si5 0.192612 0.312341 0.146069
Si Si6 0.298907 0.255237 0.451150
Si Si7 0.124377 0.000969 0.614261
O O1 0.047648 0.371380 0.904596
O O2 0.830147 0.866969 0.813777
O O3 0.738370 0.978634 0.671439
O O4 0.701977 0.164997 0.874919
O O5 0.653650 0.294189 0.067314
O O6 0.963783 0.236613 0.057522
O O7 0.650054 0.671042 0.898626
O O8 0.263821 0.274029 0.754041
O O9 0.500000 0.500000 0.000000
O O10 0.304060 0.611325 0.258153
O O11 0.622966 0.729064 0.427931
O O12 0.699067 0.049385 0.392386
O O13 0.500000 0.000000 0.500000
O O14 0.500000 0.500000 0.500000
O O15 0.069645 0.203375 0.402688
O O16 0.000000 0.000000 0.500000
#
# Coordination Sequence:
#
# PCOD9006061 Si02
#       7
#     2   2   2   2   2   2   2
#     4  11  22  41  66  98 135 175 227 285 337 406
#     4  11  24  43  71  95 134 187 229 276 350 411
#     4  11  23  42  69 101 138 183 229 285 351 410
#     4  10  21  38  64  94 128 175 227 274 340 415
#     4  11  24  42  66 101 135 175 231 283 340 411
#     4  11  20  39  66  91 130 176 219 278 350 398
#     4   9  21  39  64  95 131 177 226 279 345 413
#
# _framework density 23.916587
#
# number of rings (size 3 to 8) (size 9 to 14) (size 15 to 20)
#    0.000    1.429    2.857    3.000    2.000    1.714 
#    0.000    2.143    3.143    0.000    0.000    0.000 
#    0.000    0.000    0.000    0.000    0.000    0.000 
#
# Total GULP energy -78039.896582 kJ/mol
# GULP energy per Si atom -5574.278327 kJ/mol
# Density = 2.386215 g / cm^3
# Si number density = 23.916587 Si / 1000 Ang^3
#
#
#
# Elastic Constant Matrix: (Units=GPa)
#
#
# Indices 1 2 3 4 5 6 
#
# 1 116.2341 18.0174 34.4115 10.2935 -14.9381 29.6598
# 2 18.0174 96.2843 18.3903 7.6479 12.7557 9.8069
# 3 34.4115 18.3903 144.0125 -1.7826 2.4611 8.1453
# 4 10.2935 7.6479 -1.7826 43.8043 0.5772 11.3418
# 5 -14.9381 12.7557 2.4611 0.5772 44.3903 -5.2711
# 6 29.6598 9.8069 8.1453 11.3418 -5.2711 27.2351
#
#
#
# Elastic Compliance Matrix: (Units=1/GPa)
#
#
# Indices 1 2 3 4 5 6 
#
# 1 0.013101 -0.001194 -0.002320 0.000252 0.003382 -0.012594
# 2 -0.001194 0.011718 -0.000984 -0.000974 -0.004059 -0.003005
# 3 -0.002320 -0.000984 0.007654 0.001048 -0.000939 -0.000026
# 4 0.000252 -0.000974 0.001048 0.025926 -0.001372 -0.011299
# 5 0.003382 -0.004059 -0.000939 -0.001372 0.025321 0.003532
# 6 -0.012594 -0.003005 -0.000026 -0.011299 0.003532 0.056912
#
#
# Mechanical properties :
#
#
# Convention : Reuss Voigt Hill
#
# Bulk Modulus (GPa) = 42.59282 55.35213 48.97248
# Shear Modulus (GPa) = 31.75511 42.13338 36.94425
#
# Velocity S-wave (km/s) = 3.64778 4.20179 3.93455
# Velocity P-wave (km/s) = 5.96567 6.83624 6.41574
#
# Compressibility (1/GPa) = 0.02347813
#
# Stress axis : x y z
#
# Youngs Moduli (GPa) = 76.32786 85.33626 130.64297
#
# Poissons Ratio (x) = 0.10186 0.30315
# Poissons Ratio (y) = 0.09111 0.12854
# Poissons Ratio (z) = 0.17712 0.08396
#
# Static dielectric constant tensor:
#      x y z
#    x 2.383820 0.008670 0.091930 
#    y 0.008670 2.019570 -0.052560 
#    z 0.091930 -0.052560 1.953400 
# 
# From -- ./inp_files/489960.got.cif
#   From: 2010.05.17/outbox.cif.g08.bks.cpg/sg2_245_cif.got.tgz:489960.got - 2010.06.03 11:33:40.
