data_PCOD9006079
_publ_section_title
;
Structure prediction by ZEFSAII (Michael W. Deem and Ramdas Pophale) SiO2 
 PCOD9006079
Probable space group: P -1
;
_chemical_formula_sum "Si O2"
_cell_formula_units_Z 14
_cell_length_a 8.883462
_cell_length_b 13.733920
_cell_length_c 7.641111
_cell_angle_alpha 92.519351
_cell_angle_beta 90.854445
_cell_angle_gamma 142.715986
_cell_volume 562.260975
_symmetry_space_group_name_H-M "P -1"
_symmetry_group_IT_number 2
_symmetry_cell_setting 'triclinic'
loop_
_space_group_symop_operation_xyz
x,y,z
-x,-y,-z
loop_
_atom_site_type_symbol
_atom_site_label
_atom_site_fract_x
_atom_site_fract_y
_atom_site_fract_z
Si Si1 0.536853 0.265681 0.479766
Si Si2 0.358178 0.550328 0.845582
Si Si3 0.368457 0.884942 0.708110
Si Si4 0.864830 0.833763 0.932140
Si Si5 0.145551 0.788032 0.070447
Si Si6 0.434297 0.397338 0.656203
Si Si7 0.945772 0.097983 0.445796
O O1 0.608825 0.365160 0.317261
O O2 0.647150 0.216958 0.426240
O O3 0.586190 0.374519 0.638144
O O4 0.255092 0.085026 0.509485
O O5 0.581616 0.702692 0.983152
O O6 0.457698 0.490986 0.810238
O O7 0.072300 0.395248 0.881055
O O8 0.208583 0.886822 0.615639
O O9 0.642075 0.070949 0.775462
O O10 0.267647 0.809139 0.895980
O O11 0.898257 0.844847 0.723139
O O12 0.006364 0.814426 0.009619
O O13 0.000000 0.000000 0.000000
O O14 0.500000 0.500000 0.500000
O O15 0.142559 0.223236 0.610456
#
# Coordination Sequence:
#
# PCOD9006079 Si02
#       7
#     2   2   2   2   2   2   2
#     4  11  22  38  66  94 128 171 212 260 320 390
#     4  11  23  41  65 100 133 162 217 274 324 371
#     4  10  23  44  65  92 133 177 216 255 326 386
#     4  11  23  39  67  98 125 169 219 266 324 382
#     4  10  23  42  65  89 134 178 210 267 317 381
#     4  10  21  38  64  95 131 161 208 273 322 367
#     4  11  22  41  66  98 130 167 215 267 323 387
#
# _framework density 24.899471999999999
#
# number of rings (size 3 to 8) (size 9 to 14) (size 15 to 20)
#    0.000    1.429    2.857    3.000    2.000    0.571 
#    0.000    6.429    0.000    0.000    0.000    0.000 
#    0.000    0.000    0.000    0.000    0.000    0.000 
#
# Total GULP energy -78159.122612 kJ/mol
# GULP energy per Si atom -5582.794472 kJ/mol
# Density = 2.484280 g / cm^3
# Si number density = 24.899472 Si / 1000 Ang^3
#
#
#
# Elastic Constant Matrix: (Units=GPa)
#
#
# Indices 1 2 3 4 5 6 
#
# 1 92.1893 44.6583 30.3875 -2.6850 -7.4156 -0.5029
# 2 44.6583 159.2337 23.9018 -22.4639 -14.1463 1.9150
# 3 30.3875 23.9018 87.5829 -14.9299 -11.2597 -4.9688
# 4 -2.6850 -22.4639 -14.9299 48.6800 2.9500 -4.6879
# 5 -7.4156 -14.1463 -11.2597 2.9500 30.1459 -3.6551
# 6 -0.5029 1.9150 -4.9688 -4.6879 -3.6551 38.9240
#
#
#
# Elastic Compliance Matrix: (Units=1/GPa)
#
#
# Indices 1 2 3 4 5 6 
#
# 1 0.013917 -0.003548 -0.004219 -0.002225 0.000350 -0.000419
# 2 -0.003548 0.007976 -0.000037 0.003338 0.002554 0.000199
# 3 -0.004219 -0.000037 0.014287 0.004134 0.004200 0.002663
# 4 -0.002225 0.003338 0.004134 0.023499 0.000655 0.003226
# 5 0.000350 0.002554 0.004200 0.000655 0.036436 0.003915
# 6 -0.000419 0.000199 0.002663 0.003226 0.003915 0.026772
#
#
# Mechanical properties :
#
#
# Convention : Reuss Voigt Hill
#
# Bulk Modulus (GPa) = 48.60594 59.65568 54.13081
# Shear Modulus (GPa) = 34.39915 39.55387 36.97651
#
# Velocity S-wave (km/s) = 3.72091 3.98998 3.85779
# Velocity P-wave (km/s) = 6.16632 6.72586 6.45216
#
# Compressibility (1/GPa) = 0.02057362
#
# Stress axis : x y z
#
# Youngs Moduli (GPa) = 71.85215 125.37550 69.99225
#
# Poissons Ratio (x) = 0.44480 0.29527
# Poissons Ratio (y) = 0.25492 0.00260
# Poissons Ratio (z) = 0.30312 0.00466
#
# Static dielectric constant tensor:
#      x y z
#    x 2.000430 0.019270 -0.028050 
#    y 0.019270 2.002090 -0.011550 
#    z -0.028050 -0.011550 2.169680 
# 
# From -- ./inp_files/187738.got.cif
#   From: 2010.05.17/outbox.cif.g08.bks.cpg/sg2_94_cif.got.tgz:187738.got - 2010.06.03 11:33:40.
