data_PCOD9006579
_publ_section_title
;
Structure prediction by ZEFSAII (Michael W. Deem and Ramdas Pophale) SiO2 
 PCOD9006579
Probable space group: P -1
;
_chemical_formula_sum "Si O2"
_cell_formula_units_Z 16
_cell_length_a 8.516439
_cell_length_b 8.476209
_cell_length_c 11.342447
_cell_angle_alpha 106.836146
_cell_angle_beta 69.669045
_cell_angle_gamma 122.070994
_cell_volume 644.878938
_symmetry_space_group_name_H-M "P -1"
_symmetry_group_IT_number 2
_symmetry_cell_setting 'triclinic'
loop_
_space_group_symop_operation_xyz
x,y,z
-x,-y,-z
loop_
_atom_site_type_symbol
_atom_site_label
_atom_site_fract_x
_atom_site_fract_y
_atom_site_fract_z
Si Si1 0.199057 0.248731 0.546937
Si Si2 0.273882 0.909600 0.064403
Si Si3 0.938016 0.414280 0.624892
Si Si4 0.317329 0.384777 0.903405
Si Si5 0.663968 0.356001 0.846584
Si Si6 0.817326 0.234605 0.201800
Si Si7 0.518214 0.361902 0.306076
Si Si8 0.044166 0.028483 0.762244
O O1 0.311013 0.263350 0.400079
O O2 0.349825 0.441980 0.616020
O O3 0.128924 0.075971 0.618351
O O4 0.007243 0.261832 0.580823
O O5 0.254002 0.768297 0.143117
O O6 0.176465 0.032848 0.161930
O O7 0.176791 0.801223 0.945766
O O8 0.500000 0.000000 0.000000
O O9 0.723260 0.366899 0.697555
O O10 0.000000 0.500000 0.500000
O O11 0.045962 0.563327 0.733240
O O12 0.439066 0.283109 0.889520
O O13 0.446647 0.561979 0.822048
O O14 0.144033 0.234172 0.841946
O O15 0.266186 0.461264 0.049760
O O16 0.610506 0.224162 0.270401
O O17 0.877727 0.098859 0.225248
#
# Coordination Sequence:
#
# PCOD9006579 Si02
#       8
#     2   2   2   2   2   2   2   2
#     4   9  19  37  63  92 127 175 217 273 322 395
#     4  12  25  43  67 101 140 173 222 280 335 396
#     4  11  23  42  69  97 134 173 229 279 329 396
#     4  10  21  38  67 100 133 171 221 277 331 405
#     4  11  22  39  68 102 130 174 224 276 336 397
#     4  11  24  42  67  99 135 181 217 276 339 391
#     4   9  18  37  63  95 129 167 225 267 327 391
#     4  11  23  42  65  97 136 177 219 272 340 402
#
# _framework density 24.810856999999999
#
# number of rings (size 3 to 8) (size 9 to 14) (size 15 to 20)
#    0.000    1.500    2.500    2.625    0.000    4.500 
#    2.250    1.875    0.000    0.000    0.000    0.000 
#    0.000    0.000    0.000    0.000    0.000    0.000 
#
# Total GULP energy -89390.729964 kJ/mol
# GULP energy per Si atom -5586.920623 kJ/mol
# Density = 2.475439 g / cm^3
# Si number density = 24.810857 Si / 1000 Ang^3
#
#
#
# Elastic Constant Matrix: (Units=GPa)
#
#
# Indices 1 2 3 4 5 6 
#
# 1 94.1452 44.0826 53.9624 -5.3687 -24.8158 -30.0048
# 2 44.0826 66.9844 45.0659 -5.3087 -13.6754 -9.7053
# 3 53.9624 45.0659 176.0457 -4.8393 -27.6127 -7.2781
# 4 -5.3687 -5.3087 -4.8393 34.1447 2.5161 10.3923
# 5 -24.8158 -13.6754 -27.6127 2.5161 50.1417 6.3859
# 6 -30.0048 -9.7053 -7.2781 10.3923 6.3859 47.6773
#
#
#
# Elastic Compliance Matrix: (Units=1/GPa)
#
#
# Indices 1 2 3 4 5 6 
#
# 1 0.021594 -0.009793 -0.002917 -0.002253 0.005128 0.010955
# 2 -0.009793 0.023219 -0.002970 0.002381 0.000038 -0.002414
# 3 -0.002917 -0.002970 0.007613 0.000512 0.002126 -0.001674
# 4 -0.002253 0.002381 0.000512 0.031770 -0.000801 -0.007673
# 5 0.005128 0.000038 0.002126 -0.000801 0.023630 0.000569
# 6 0.010955 -0.002414 -0.001674 -0.007673 0.000569 0.028718
#
#
# Mechanical properties :
#
#
# Convention : Reuss Voigt Hill
#
# Bulk Modulus (GPa) = 47.47117 69.26636 58.36877
# Shear Modulus (GPa) = 28.58344 39.33036 33.95690
#
# Velocity S-wave (km/s) = 3.39787 3.98579 3.70351
# Velocity P-wave (km/s) = 5.87953 7.01144 6.47029
#
# Compressibility (1/GPa) = 0.02106542
#
# Stress axis : x y z
#
# Youngs Moduli (GPa) = 46.30920 43.06868 131.35106
#
# Poissons Ratio (x) = 0.42177 0.38314
# Poissons Ratio (y) = 0.45350 0.39016
# Poissons Ratio (z) = 0.13508 0.12793
#
# Static dielectric constant tensor:
#      x y z
#    x 2.040900 0.068140 0.020750 
#    y 0.068140 2.033810 -0.043750 
#    z 0.020750 -0.043750 2.006790 
# 
# From -- ./inp_files/382584.got.cif
#   From: 2010.05.17/outbox.cif.g08.bks.cpg/sg2_192_cif.got.tgz:382584.got - 2010.06.03 11:33:40.
