data_PCOD9006432
_publ_section_title
;
Structure prediction by ZEFSAII (Michael W. Deem and Ramdas Pophale) SiO2 
 PCOD9006432
Probable space group: P -1
;
_chemical_formula_sum "Si O2"
_cell_formula_units_Z 16
_cell_length_a 17.650600
_cell_length_b 7.346049
_cell_length_c 14.553819
_cell_angle_alpha 109.446703
_cell_angle_beta 133.287943
_cell_angle_gamma 40.537195
_cell_volume 819.133824
_symmetry_space_group_name_H-M "P -1"
_symmetry_group_IT_number 2
_symmetry_cell_setting 'triclinic'
loop_
_space_group_symop_operation_xyz
x,y,z
-x,-y,-z
loop_
_atom_site_type_symbol
_atom_site_label
_atom_site_fract_x
_atom_site_fract_y
_atom_site_fract_z
Si Si1 0.390960 0.885429 0.452032
Si Si2 0.996452 0.804087 0.104965
Si Si3 0.450622 0.203975 0.613696
Si Si4 0.329346 0.446255 0.250942
Si Si5 0.306057 0.600436 0.934086
Si Si6 0.297823 0.303097 0.015053
Si Si7 0.935255 0.714663 0.844997
Si Si8 0.454711 0.392836 0.835598
O O1 0.339985 0.178779 0.490435
O O2 0.222488 0.029310 0.307385
O O3 0.501949 0.752223 0.430938
O O4 0.521565 0.640580 0.598991
O O5 0.151092 0.717335 0.193840
O O6 0.054142 0.522266 0.152525
O O7 0.863400 0.088013 0.108648
O O8 0.920841 0.855626 0.951439
O O9 0.398600 0.406099 0.690459
O O10 0.614999 0.852235 0.723061
O O11 0.326886 0.430089 0.136917
O O12 0.313935 0.599600 0.830442
O O13 0.331858 0.349907 0.953530
O O14 0.449037 0.542902 0.075691
O O15 0.414334 0.955130 0.076548
O O16 0.108398 0.515499 0.908090
#
# Coordination Sequence:
#
# PCOD9006432 Si02
#       8
#     2   2   2   2   2   2   2   2
#     4   9  14  27  54  85  96 144 176 205 262 327
#     4  10  17  30  49  80 109 136 170 223 261 313
#     4   8  14  27  52  78  98 130 185 205 253 307
#     4   8  16  28  51  79 105 133 175 209 259 310
#     4  11  22  32  55  79 110 137 176 220 267 305
#     4  10  20  35  53  83 106 135 175 224 262 308
#     4  10  17  28  55  80 108 136 173 215 272 309
#     4  10  20  37  53  79 102 142 179 221 256 314
#
# _framework density 19.532826
#
# number of rings (size 3 to 8) (size 9 to 14) (size 15 to 20)
#    0.750    1.750    2.500    1.125    0.000    2.000 
#    0.000    0.000    0.000   12.000    0.000    0.000 
#    0.000    0.000    0.000    0.000    0.000    0.000 
#
# Total GULP energy -89189.547030 kJ/mol
# GULP energy per Si atom -5574.346689 kJ/mol
# Density = 1.948837 g / cm^3
# Si number density = 19.532826 Si / 1000 Ang^3
#
#
#
# Elastic Constant Matrix: (Units=GPa)
#
#
# Indices 1 2 3 4 5 6 
#
# 1 56.7117 6.0780 13.2918 15.1085 8.2592 -0.2544
# 2 6.0780 57.6168 12.2823 5.3820 8.4064 -13.5940
# 3 13.2918 12.2823 104.2243 14.0121 13.9810 -11.1681
# 4 15.1085 5.3820 14.0121 26.5986 -4.8641 -5.9783
# 5 8.2592 8.4064 13.9810 -4.8641 18.1439 1.6704
# 6 -0.2544 -13.5940 -11.1681 -5.9783 1.6704 36.7584
#
#
#
# Elastic Compliance Matrix: (Units=1/GPa)
#
#
# Indices 1 2 3 4 5 6 
#
# 1 0.024685 0.001127 0.001465 -0.018531 -0.017748 -0.001174
# 2 0.001127 0.021431 0.000780 -0.006086 -0.013392 0.007789
# 3 0.001465 0.000780 0.012784 -0.009502 -0.013727 0.003261
# 4 -0.018531 -0.006086 -0.009502 0.061422 0.034754 0.003144
# 5 -0.017748 -0.013392 -0.013727 0.034754 0.090001 -0.007684
# 6 -0.001174 0.007789 0.003261 0.003144 -0.007684 0.031928
#
#
# Mechanical properties :
#
#
# Convention : Reuss Voigt Hill
#
# Bulk Modulus (GPa) = 15.23343 31.31745 23.27544
# Shear Modulus (GPa) = 19.42592 28.76023 24.09308
#
# Velocity S-wave (km/s) = 3.15703 3.84136 3.51588
# Velocity P-wave (km/s) = 4.59401 5.97852 5.33140
#
# Compressibility (1/GPa) = 0.06564510
#
# Stress axis : x y z
#
# Youngs Moduli (GPa) = 40.51017 46.66131 78.22125
#
# Poissons Ratio (x) = -0.05258 -0.11462
# Poissons Ratio (y) = -0.04565 -0.06101
# Poissons Ratio (z) = -0.05936 -0.03640
#
# Static dielectric constant tensor:
#      x y z
#    x 1.678650 0.061140 -0.002190 
#    y 0.061140 1.747510 0.017360 
#    z -0.002190 0.017360 1.720080 
# 
# From -- ./inp_files/536701.got.cif
#   From: 2010.05.17/outbox.cif.g08.bks.cpg/sg2_269_cif.got.tgz:536701.got - 2010.06.03 11:33:40.
