data_PCOD9006530
_publ_section_title
;
Structure prediction by ZEFSAII (Michael W. Deem and Ramdas Pophale) SiO2 
 PCOD9006530
Probable space group: P -1
;
_chemical_formula_sum "Si O2"
_cell_formula_units_Z 16
_cell_length_a 9.015942
_cell_length_b 12.096806
_cell_length_c 14.632123
_cell_angle_alpha 132.050723
_cell_angle_beta 78.316444
_cell_angle_gamma 64.275739
_cell_volume 721.207061
_symmetry_space_group_name_H-M "P -1"
_symmetry_group_IT_number 2
_symmetry_cell_setting 'triclinic'
loop_
_space_group_symop_operation_xyz
x,y,z
-x,-y,-z
loop_
_atom_site_type_symbol
_atom_site_label
_atom_site_fract_x
_atom_site_fract_y
_atom_site_fract_z
Si Si1 0.375005 0.113031 0.815764
Si Si2 0.326461 0.313688 0.744024
Si Si3 0.971702 0.849886 0.046261
Si Si4 0.881664 0.750168 0.640680
Si Si5 0.162896 0.964141 0.531997
Si Si6 0.718429 0.434153 0.631884
Si Si7 0.050313 0.590833 0.232152
Si Si8 0.197617 0.979989 0.038414
O O1 0.300762 0.234716 0.794259
O O2 0.267526 0.032182 0.807955
O O3 0.661123 0.906484 0.683207
O O4 0.244602 0.327080 0.020996
O O5 0.606204 0.135257 0.597067
O O6 0.196261 0.317103 0.683207
O O7 0.183295 0.580354 0.909725
O O8 0.050760 0.961550 0.099561
O O9 0.935768 0.857530 0.945594
O O10 0.000000 0.500000 0.500000
O O11 0.111170 0.666453 0.530582
O O12 0.772331 0.908603 0.833145
O O13 0.275297 0.748966 0.460718
O O14 0.000000 0.000000 0.500000
O O15 0.995485 0.231616 0.730835
O O16 0.855531 0.410782 0.686746
O O17 0.448413 0.710900 0.822604
#
# Coordination Sequence:
#
# PCOD9006530 Si02
#       8
#     2   2   2   2   2   2   2   2
#     4  11  23  43  68 105 136 177 234 282 348 409
#     4  11  22  41  67 102 138 176 235 279 344 414
#     4  10  23  43  74  97 140 191 223 286 351 401
#     4  12  28  44  71 105 133 181 239 286 339 420
#     4  10  21  39  61  97 135 174 223 272 339 414
#     4  11  23  45  68  99 138 181 231 279 349 402
#     4  10  21  38  66  95 139 182 210 286 342 396
#     4  11  24  49  71  99 142 185 233 283 346 411
#
# _framework density 22.185030000000001
#
# number of rings (size 3 to 8) (size 9 to 14) (size 15 to 20)
#    0.000    1.250    2.500    4.125    3.500    3.000 
#    0.000    8.125    0.000    0.000    0.000    0.000 
#    0.000    0.000    0.000    0.000    0.000    0.000 
#
# Total GULP energy -89319.130619 kJ/mol
# GULP energy per Si atom -5582.445664 kJ/mol
# Density = 2.213454 g / cm^3
# Si number density = 22.185030 Si / 1000 Ang^3
#
#
#
# Elastic Constant Matrix: (Units=GPa)
#
#
# Indices 1 2 3 4 5 6 
#
# 1 84.6002 27.9022 23.3607 6.0761 -10.1386 9.7609
# 2 27.9022 101.8274 28.0054 12.8100 -0.9877 11.8575
# 3 23.3607 28.0054 81.0927 17.8709 -13.5775 7.7539
# 4 6.0761 12.8100 17.8709 26.0834 5.7471 -2.7392
# 5 -10.1386 -0.9877 -13.5775 5.7471 24.4741 -9.7151
# 6 9.7609 11.8575 7.7539 -2.7392 -9.7151 36.1608
#
#
#
# Elastic Compliance Matrix: (Units=1/GPa)
#
#
# Indices 1 2 3 4 5 6 
#
# 1 0.014121 -0.002961 -0.001737 -0.001813 0.004654 -0.001355
# 2 -0.002961 0.012193 -0.002844 -0.003063 -0.003036 -0.003637
# 3 -0.001737 -0.002844 0.019155 -0.014221 0.013018 -0.000286
# 4 -0.001813 -0.003063 -0.014221 0.054834 -0.020359 0.003227
# 5 0.004654 -0.003036 0.013018 -0.020359 0.059153 0.011298
# 6 -0.001355 -0.003637 -0.000286 0.003227 0.011298 0.032554
#
#
# Mechanical properties :
#
#
# Convention : Reuss Voigt Hill
#
# Bulk Modulus (GPa) = 32.90888 47.33963 40.12425
# Shear Modulus (GPa) = 23.01808 29.89381 26.45594
#
# Velocity S-wave (km/s) = 3.22460 3.67478 3.45702
# Velocity P-wave (km/s) = 5.36004 6.27616 5.83611
#
# Compressibility (1/GPa) = 0.03038694
#
# Stress axis : x y z
#
# Youngs Moduli (GPa) = 70.81787 82.01214 52.20576
#
# Poissons Ratio (x) = 0.24280 0.09068
# Poissons Ratio (y) = 0.20966 0.14845
# Poissons Ratio (z) = 0.12300 0.23321
#
# Static dielectric constant tensor:
#      x y z
#    x 0.928920 -0.676530 0.238210 
#    y -0.676530 1.314730 0.196080 
#    z 0.238210 0.196080 1.746370 
# 
# From -- ./inp_files/316091.got.cif
#   From: 2010.05.17/outbox.cif.g08.bks.cpg/sg2_159_cif.got.tgz:316091.got - 2010.06.03 11:33:40.
