data_PCOD9006825
_publ_section_title
;
Structure prediction by ZEFSAII (Michael W. Deem and Ramdas Pophale) SiO2 
 PCOD9006825
Probable space group: P -1
;
_chemical_formula_sum "Si O2"
_cell_formula_units_Z 16
_cell_length_a 8.618188
_cell_length_b 14.993007
_cell_length_c 9.219309
_cell_angle_alpha 143.062333
_cell_angle_beta 105.225449
_cell_angle_gamma 86.950780
_cell_volume 665.044068
_symmetry_space_group_name_H-M "P -1"
_symmetry_group_IT_number 2
_symmetry_cell_setting 'triclinic'
loop_
_space_group_symop_operation_xyz
x,y,z
-x,-y,-z
loop_
_atom_site_type_symbol
_atom_site_label
_atom_site_fract_x
_atom_site_fract_y
_atom_site_fract_z
Si Si1 0.906668 0.847498 0.975251
Si Si2 0.043670 0.811607 0.650860
Si Si3 0.537813 0.713290 0.780476
Si Si4 0.242021 0.900086 0.285763
Si Si5 0.274278 0.371081 0.805755
Si Si6 0.691631 0.348029 0.608880
Si Si7 0.532743 0.025408 0.298480
Si Si8 0.402915 0.625440 0.949343
O O1 0.734121 0.733414 0.837166
O O2 0.983846 0.792675 0.777965
O O3 0.050407 0.879235 0.173848
O O4 0.872189 0.008717 0.126192
O O5 0.158537 0.702175 0.496025
O O6 0.887104 0.764081 0.441594
O O7 0.429927 0.622244 0.505667
O O8 0.454791 0.646325 0.823462
O O9 0.517008 0.887930 0.002822
O O10 0.320377 0.982742 0.561083
O O11 0.360878 0.985455 0.294892
O O12 0.280612 0.733180 0.087466
O O13 0.325975 0.456533 0.775748
O O14 0.249705 0.506025 0.081620
O O15 0.426158 0.318913 0.844334
O O16 0.586387 0.195109 0.467516
#
# Coordination Sequence:
#
# PCOD9006825 Si02
#       8
#     2   2   2   2   2   2   2   2
#     4  11  26  42  71 106 142 173 225 298 344 405
#     4  11  26  45  68 106 139 181 229 282 351 404
#     4  11  25  43  71 105 138 179 233 287 343 399
#     4  10  22  40  68 103 139 179 225 286 352 394
#     4  11  26  46  76  95 140 187 234 276 337 421
#     4  12  24  47  71 101 140 185 230 279 345 413
#     4  10  21  38  70 100 136 180 226 284 342 409
#     4  10  24  47  69 103 133 186 230 280 338 413
#
# _framework density 24.058558000000001
#
# number of rings (size 3 to 8) (size 9 to 14) (size 15 to 20)
#    0.000    1.250    2.500    2.250   12.250    2.000 
#    2.250    1.250    0.000    0.000    0.000    0.000 
#    0.000    0.000    0.000    0.000    0.000    0.000 
#
# Total GULP energy -89654.011130 kJ/mol
# GULP energy per Si atom -5603.375696 kJ/mol
# Density = 2.400380 g / cm^3
# Si number density = 24.058558 Si / 1000 Ang^3
#
#
#
# Elastic Constant Matrix: (Units=GPa)
#
#
# Indices 1 2 3 4 5 6 
#
# 1 72.9003 11.6906 13.4794 -13.6665 -2.3680 -8.0396
# 2 11.6906 72.9224 19.0867 -0.4428 -8.5241 8.2291
# 3 13.4794 19.0867 78.8103 -10.9162 -6.9538 7.8375
# 4 -13.6665 -0.4428 -10.9162 23.2061 -8.6246 -8.5102
# 5 -2.3680 -8.5241 -6.9538 -8.6246 40.7328 -2.0615
# 6 -8.0396 8.2291 7.8375 -8.5102 -2.0615 35.9389
#
#
#
# Elastic Compliance Matrix: (Units=1/GPa)
#
#
# Indices 1 2 3 4 5 6 
#
# 1 0.018272 -0.003160 -0.000816 0.014967 0.003874 0.008755
# 2 -0.003160 0.015728 -0.003280 -0.004230 0.001424 -0.004513
# 3 -0.000816 -0.003280 0.015036 0.007520 0.003388 -0.000736
# 4 0.014967 -0.004230 0.007520 0.068963 0.016881 0.019975
# 5 0.003874 0.001424 0.003388 0.016881 0.029504 0.005492
# 6 0.008755 -0.004513 -0.000736 0.019975 0.005492 0.036022
#
#
# Mechanical properties :
#
#
# Convention : Reuss Voigt Hill
#
# Bulk Modulus (GPa) = 28.96439 34.79403 31.87921
# Shear Modulus (GPa) = 23.86111 32.00064 27.93087
#
# Velocity S-wave (km/s) = 3.15269 3.65103 3.41097
# Velocity P-wave (km/s) = 5.03169 5.68040 5.36586
#
# Compressibility (1/GPa) = 0.03452516
#
# Stress axis : x y z
#
# Youngs Moduli (GPa) = 54.72778 63.57928 66.50599
#
# Poissons Ratio (x) = 0.20092 0.05424
# Poissons Ratio (y) = 0.17295 0.21815
# Poissons Ratio (z) = 0.04464 0.20855
#
# Static dielectric constant tensor:
#      x y z
#    x 1.913920 -0.005200 -0.032120 
#    y -0.005200 1.911120 0.008760 
#    z -0.032120 0.008760 1.910990 
# 
# From -- ./inp_files/209549.got.cif
#   From: 2010.05.17/outbox.cif.g08.bks.cpg/sg2_105_cif.got.tgz:209549.got - 2010.06.03 11:33:40.
