data_PCOD9006188
_publ_section_title
;
Structure prediction by ZEFSAII (Michael W. Deem and Ramdas Pophale) SiO2 
 PCOD9006188
Probable space group: P -1
;
_chemical_formula_sum "Si O2"
_cell_formula_units_Z 14
_cell_length_a 10.003682
_cell_length_b 11.886655
_cell_length_c 10.230065
_cell_angle_alpha 76.344915
_cell_angle_beta 41.315686
_cell_angle_gamma 97.362959
_cell_volume 686.272403
_symmetry_space_group_name_H-M "P -1"
_symmetry_group_IT_number 2
_symmetry_cell_setting 'triclinic'
loop_
_space_group_symop_operation_xyz
x,y,z
-x,-y,-z
loop_
_atom_site_type_symbol
_atom_site_label
_atom_site_fract_x
_atom_site_fract_y
_atom_site_fract_z
Si Si1 0.654751 0.691372 0.542534
Si Si2 0.472428 0.351679 0.074693
Si Si3 0.643066 0.901356 0.291634
Si Si4 0.324271 0.233889 0.936172
Si Si5 0.170774 0.596587 0.008524
Si Si6 0.689307 0.481051 0.448649
Si Si7 0.161574 0.824736 0.786749
O O1 0.689727 0.726489 0.660323
O O2 0.683019 0.799666 0.384909
O O3 0.788757 0.613379 0.425873
O O4 0.377943 0.587291 0.783783
O O5 0.500000 0.500000 0.000000
O O6 0.380097 0.261942 0.039741
O O7 0.724416 0.377883 0.929732
O O8 0.694490 0.886524 0.106795
O O9 0.376573 0.864944 0.520215
O O10 0.792415 0.045387 0.201983
O O11 0.542289 0.353586 0.675089
O O12 0.085331 0.235248 0.083508
O O13 0.911554 0.480971 0.223137
O O14 0.169208 0.721959 0.911109
O O15 0.500000 0.500000 0.500000
#
# Coordination Sequence:
#
# PCOD9006188 Si02
#       7
#     2   2   2   2   2   2   2
#     4   9  20  39  56  82 119 155 182 236 292 344
#     4  10  22  41  55  85 130 153 180 239 301 346
#     4  10  21  38  65  83 110 154 203 237 285 337
#     4  12  22  36  59  92 115 148 199 241 280 348
#     4   9  21  38  58  81 120 157 180 239 295 339
#     4  12  20  33  60  92 114 147 200 235 285 352
#     4  10  21  40  62  84 113 151 201 246 281 330
#
# _framework density 20.400064
#
# number of rings (size 3 to 8) (size 9 to 14) (size 15 to 20)
#    0.857    0.857    4.286    0.429    0.000    3.429 
#    2.571    1.429    0.000    0.000    0.000    0.000 
#    0.000    0.000    0.000    0.000    0.000    0.000 
#
# Total GULP energy -77955.888473 kJ/mol
# GULP energy per Si atom -5568.277748 kJ/mol
# Density = 2.035363 g / cm^3
# Si number density = 20.400064 Si / 1000 Ang^3
#
#
#
# Elastic Constant Matrix: (Units=GPa)
#
#
# Indices 1 2 3 4 5 6 
#
# 1 114.6930 36.4241 28.8916 13.7730 -6.3150 29.1637
# 2 36.4241 82.1712 14.6044 20.1227 6.7995 15.9743
# 3 28.8916 14.6044 71.8163 8.3887 -13.5106 12.5229
# 4 13.7730 20.1227 8.3887 26.8427 6.2327 5.5354
# 5 -6.3150 6.7995 -13.5106 6.2327 30.4295 9.8340
# 6 29.1637 15.9743 12.5229 5.5354 9.8340 26.3791
#
#
#
# Elastic Compliance Matrix: (Units=1/GPa)
#
#
# Indices 1 2 3 4 5 6 
#
# 1 0.015474 -0.003139 0.000170 -0.004358 0.010831 -0.018410
# 2 -0.003139 0.016939 -0.000641 -0.009744 -0.001468 -0.003891
# 3 0.000170 -0.000641 0.019798 -0.006440 0.014580 -0.013282
# 4 -0.004358 -0.009744 -0.006440 0.050436 -0.014722 0.008681
# 5 0.010831 -0.001468 0.014580 -0.014722 0.056563 -0.036004
# 6 -0.018410 -0.003891 -0.013282 0.008681 -0.036004 0.078524
#
#
# Mechanical properties :
#
#
# Convention : Reuss Voigt Hill
#
# Bulk Modulus (GPa) = 22.22739 47.61340 34.92039
# Shear Modulus (GPa) = 19.23433 29.31430 24.27431
#
# Velocity S-wave (km/s) = 3.07393 3.79485 3.45325
# Velocity P-wave (km/s) = 4.84955 6.52623 5.74934
#
# Compressibility (1/GPa) = 0.04498954
#
# Stress axis : x y z
#
# Youngs Moduli (GPa) = 64.62446 59.03413 50.51099
#
# Poissons Ratio (x) = 0.18533 -0.00859
# Poissons Ratio (y) = 0.20289 0.03240
# Poissons Ratio (z) = -0.01099 0.03786
#
# Static dielectric constant tensor:
#      x y z
#    x 1.774910 0.074300 -0.007670 
#    y 0.074300 1.830570 0.033280 
#    z -0.007670 0.033280 1.776540 
# 
# From -- ./inp_files/206705.got.cif
#   From: 2010.05.17/outbox.cif.g08.bks.cpg/sg2_104_cif.got.tgz:206705.got - 2010.06.03 11:33:40.
