data_PCOD9006123
_publ_section_title
;
Structure prediction by ZEFSAII (Michael W. Deem and Ramdas Pophale) SiO2 
 PCOD9006123
Probable space group: P -1
;
_chemical_formula_sum "Si O2"
_cell_formula_units_Z 16
_cell_length_a 7.028166
_cell_length_b 19.751275
_cell_length_c 8.756800
_cell_angle_alpha 52.160780
_cell_angle_beta 74.172358
_cell_angle_gamma 42.707128
_cell_volume 614.091900
_symmetry_space_group_name_H-M "P -1"
_symmetry_group_IT_number 2
_symmetry_cell_setting 'triclinic'
loop_
_space_group_symop_operation_xyz
x,y,z
-x,-y,-z
loop_
_atom_site_type_symbol
_atom_site_label
_atom_site_fract_x
_atom_site_fract_y
_atom_site_fract_z
Si Si1 0.276782 0.508513 0.700449
Si Si2 0.709049 0.977430 0.107771
Si Si3 0.302754 0.476092 0.070216
Si Si4 0.681217 0.239854 0.850723
Si Si5 0.432152 0.798892 0.593658
Si Si6 0.248885 0.952932 0.699893
Si Si7 0.349345 0.238071 0.722076
Si Si8 0.168919 0.563320 0.306872
O O1 0.541210 0.354680 0.833685
O O2 0.103426 0.559711 0.506357
O O3 0.481023 0.528012 0.634715
O O4 0.137011 0.538386 0.855979
O O5 0.028649 0.833020 0.209100
O O6 0.645801 0.008085 0.258606
O O7 0.500000 0.000000 0.000000
O O8 0.661785 0.089412 0.902633
O O9 0.483955 0.328425 0.228188
O O10 0.126893 0.534811 0.189084
O O11 0.500000 0.500000 0.000000
O O12 0.422734 0.305536 0.691554
O O13 0.762198 0.133792 0.086949
O O14 0.456881 0.857572 0.646281
O O15 0.633732 0.769029 0.452801
O O16 0.082620 0.915437 0.463792
O O17 0.100463 0.279737 0.835276
#
# Coordination Sequence:
#
# PCOD9006123 Si02
#       8
#     2   2   2   2   2   2   2   2
#     4  10  21  41  65  92 128 175 216 275 334 390
#     4  11  22  40  64  96 134 170 223 273 332 403
#     4  10  22  41  65  98 128 176 224 272 332 392
#     4  11  19  39  66  91 125 167 221 268 331 394
#     4  11  20  39  68  93 137 166 223 276 328 406
#     4  10  21  38  64  98 124 175 214 267 341 390
#     4  11  22  40  63  97 129 175 222 270 332 398
#     4  10  23  41  62  93 134 172 223 269 330 395
#
# _framework density 26.054729999999999
#
# number of rings (size 3 to 8) (size 9 to 14) (size 15 to 20)
#    0.000    1.500    3.750    2.250    0.000    2.000 
#    6.750    1.875    2.750    0.000    0.000    0.000 
#    0.000    0.000    0.000    0.000    0.000    0.000 
#
# Total GULP energy -89147.073760 kJ/mol
# GULP energy per Si atom -5571.692110 kJ/mol
# Density = 2.599543 g / cm^3
# Si number density = 26.054730 Si / 1000 Ang^3
#
#
#
# Elastic Constant Matrix: (Units=GPa)
#
#
# Indices 1 2 3 4 5 6 
#
# 1 77.2299 36.7117 12.6443 21.3258 19.1215 9.8112
# 2 36.7117 217.5029 59.5140 58.1137 16.8406 21.8476
# 3 12.6443 59.5140 113.5481 43.4498 23.0729 12.0876
# 4 21.3258 58.1137 43.4498 40.3223 11.2296 1.6016
# 5 19.1215 16.8406 23.0729 11.2296 39.1800 6.5581
# 6 9.8112 21.8476 12.0876 1.6016 6.5581 39.1551
#
#
#
# Elastic Compliance Matrix: (Units=1/GPa)
#
#
# Indices 1 2 3 4 5 6 
#
# 1 0.017904 -0.000048 0.004609 -0.012184 -0.007241 -0.004171
# 2 -0.000048 0.008139 0.001000 -0.012694 0.000306 -0.004370
# 3 0.004609 0.001000 0.017575 -0.020893 -0.006162 -0.005252
# 4 -0.012184 -0.012694 -0.020893 0.071229 0.001031 0.013499
# 5 -0.007241 0.000306 -0.006162 0.001031 0.032586 -0.001954
# 6 -0.004171 -0.004370 -0.005252 0.013499 -0.001954 0.030419
#
#
# Mechanical properties :
#
#
# Convention : Reuss Voigt Hill
#
# Bulk Modulus (GPa) = 18.26795 69.55788 43.91292
# Shear Modulus (GPa) = 27.03030 43.69218 35.36124
#
# Velocity S-wave (km/s) = 3.22443 4.09949 3.68800
# Velocity P-wave (km/s) = 4.57047 7.01160 5.91826
#
# Compressibility (1/GPa) = 0.05474067
#
# Stress axis : x y z
#
# Youngs Moduli (GPa) = 55.85406 122.86413 56.89744
#
# Poissons Ratio (x) = 0.00590 -0.26226
# Poissons Ratio (y) = 0.00268 -0.05689
# Poissons Ratio (z) = -0.25745 -0.12285
#
# Static dielectric constant tensor:
#      x y z
#    x 2.408270 0.074060 -0.031010 
#    y 0.074060 2.468490 -0.266340 
#    z -0.031010 -0.266340 2.306250 
# 
# From -- ./inp_files/202548.got.cif
#   From: 2010.05.17/outbox.cif.g08.bks.cpg/sg2_102_cif.got.tgz:202548.got - 2010.06.03 11:33:40.
