data_PCOD9006395
_publ_section_title
;
Structure prediction by ZEFSAII (Michael W. Deem and Ramdas Pophale) SiO2 
 PCOD9006395
Probable space group: P -1
;
_chemical_formula_sum "Si O2"
_cell_formula_units_Z 16
_cell_length_a 22.509472
_cell_length_b 30.028972
_cell_length_c 13.528494
_cell_angle_alpha 23.228066
_cell_angle_beta 31.313297
_cell_angle_gamma 13.679873
_cell_volume 776.722806
_symmetry_space_group_name_H-M "P -1"
_symmetry_group_IT_number 2
_symmetry_cell_setting 'triclinic'
loop_
_space_group_symop_operation_xyz
x,y,z
-x,-y,-z
loop_
_atom_site_type_symbol
_atom_site_label
_atom_site_fract_x
_atom_site_fract_y
_atom_site_fract_z
Si Si1 0.944613 0.889765 0.092357
Si Si2 0.636015 0.818683 0.535098
Si Si3 0.140934 0.140046 0.932371
Si Si4 0.674046 0.554468 0.913311
Si Si5 0.896872 0.571406 0.870883
Si Si6 0.102649 0.965946 0.821484
Si Si7 0.760835 0.553699 0.284568
Si Si8 0.642408 0.494059 0.296152
O O1 0.611812 0.193586 0.957575
O O2 0.077742 0.690232 0.392944
O O3 0.068037 0.901944 0.916209
O O4 0.986052 0.803320 0.100660
O O5 0.784771 0.796559 0.327095
O O6 0.606222 0.744692 0.651384
O O7 0.820801 0.608485 0.792701
O O8 0.345526 0.123869 0.369951
O O9 0.931468 0.319627 0.953619
O O10 0.438434 0.818267 0.191313
O O11 0.408663 0.734821 0.873955
O O12 0.729505 0.439209 0.172247
O O13 0.178825 0.387675 0.855380
O O14 0.877219 0.488921 0.145430
O O15 0.000000 0.000000 0.000000
O O16 0.901377 0.248968 0.499740
O O17 0.500000 0.500000 0.500000
#
# Coordination Sequence:
#
# PCOD9006395 Si02
#       8
#     2   2   2   2   2   2   2   2
#     4  11  23  42  71  94 132 170 220 283 315 384
#     4  10  21  41  66  98 136 169 222 274 324 390
#     4  11  26  42  64  99 143 172 217 266 330 403
#     4  12  25  44  67  96 138 183 208 270 341 386
#     4   9  19  36  67 101 126 167 230 270 323 385
#     4  11  25  43  72  99 126 166 227 276 329 383
#     4  10  21  38  65  99 131 172 218 268 327 382
#     4  10  23  44  69  99 124 165 229 279 318 384
#
# _framework density 20.599367999999998
#
# number of rings (size 3 to 8) (size 9 to 14) (size 15 to 20)
#    0.000    1.500    3.750    1.125    5.250    1.500 
#    4.500    5.000    0.000    0.000    0.000    0.000 
#    0.000    0.000    0.000    0.000    0.000    0.000 
#
# Total GULP energy -89422.657264 kJ/mol
# GULP energy per Si atom -5588.916079 kJ/mol
# Density = 2.055248 g / cm^3
# Si number density = 20.599368 Si / 1000 Ang^3
#
#
#
# Elastic Constant Matrix: (Units=GPa)
#
#
# Indices 1 2 3 4 5 6 
#
# 1 108.8586 42.7527 53.9574 8.3932 -2.7049 -12.3111
# 2 42.7527 81.7564 31.6438 6.7731 7.3000 -1.0887
# 3 53.9574 31.6438 113.1747 -11.4044 16.0093 1.1021
# 4 8.3932 6.7731 -11.4044 18.5570 -12.0111 5.2490
# 5 -2.7049 7.3000 16.0093 -12.0111 44.5106 2.9536
# 6 -12.3111 -1.0887 1.1021 5.2490 2.9536 34.6712
#
#
#
# Elastic Compliance Matrix: (Units=1/GPa)
#
#
# Indices 1 2 3 4 5 6 
#
# 1 0.017047 -0.004572 -0.008340 -0.012965 0.000751 0.008073
# 2 -0.004572 0.016857 -0.002805 -0.008920 -0.004489 0.000728
# 3 -0.008340 -0.002805 0.015332 0.015129 -0.001098 -0.005734
# 4 -0.012965 -0.008920 0.015129 0.092222 0.021523 -0.021160
# 5 0.000751 -0.004489 -0.001098 0.021523 0.029826 -0.005639
# 6 0.008073 0.000728 -0.005734 -0.021160 -0.005639 0.035598
#
#
# Mechanical properties :
#
#
# Convention : Reuss Voigt Hill
#
# Bulk Modulus (GPa) = 56.17049 62.27747 59.22398
# Shear Modulus (GPa) = 20.47086 31.24349 25.85717
#
# Velocity S-wave (km/s) = 3.15582 3.89874 3.54678
# Velocity P-wave (km/s) = 6.37230 7.11092 6.75172
#
# Compressibility (1/GPa) = 0.01780294
#
# Stress axis : x y z
#
# Youngs Moduli (GPa) = 58.66110 59.32194 65.22207
#
# Poissons Ratio (x) = 0.27121 0.54398
# Poissons Ratio (y) = 0.26818 0.18292
# Poissons Ratio (z) = 0.48926 0.16637
#
# Static dielectric constant tensor:
#      x y z
#    x 1.786150 -0.036210 -0.024410 
#    y -0.036210 1.716860 -0.016000 
#    z -0.024410 -0.016000 1.787710 
# 
# From -- ./inp_files/467425.got.cif
#   From: 2010.05.17/outbox.cif.g08.bks.cpg/sg2_234_cif.got.tgz:467425.got - 2010.06.03 11:33:40.
