data_PCOD9006708
_publ_section_title
;
Structure prediction by ZEFSAII (Michael W. Deem and Ramdas Pophale) SiO2 
 PCOD9006708
Probable space group: P -1
;
_chemical_formula_sum "Si O2"
_cell_formula_units_Z 14
_cell_length_a 5.275787
_cell_length_b 14.651974
_cell_length_c 10.617889
_cell_angle_alpha 139.473079
_cell_angle_beta 76.447938
_cell_angle_gamma 93.557434
_cell_volume 509.664812
_symmetry_space_group_name_H-M "P -1"
_symmetry_group_IT_number 2
_symmetry_cell_setting 'triclinic'
loop_
_space_group_symop_operation_xyz
x,y,z
-x,-y,-z
loop_
_atom_site_type_symbol
_atom_site_label
_atom_site_fract_x
_atom_site_fract_y
_atom_site_fract_z
Si Si1 0.246138 0.011496 0.626362
Si Si2 0.914377 0.237441 0.770965
Si Si3 0.252641 0.553001 0.179185
Si Si4 0.340837 0.808046 0.615965
Si Si5 0.946130 0.613756 0.740553
Si Si6 0.629768 0.223444 0.027006
Si Si7 0.246900 0.079508 0.190113
O O1 0.119280 0.174238 0.788065
O O2 0.500000 0.000000 0.500000
O O3 0.090875 0.893571 0.461467
O O4 0.341199 0.952284 0.687287
O O5 0.959277 0.363759 0.809766
O O6 0.658671 0.263144 0.917642
O O7 0.338482 0.675600 0.386428
O O8 0.125249 0.460647 0.198265
O O9 0.500000 0.500000 0.000000
O O10 0.620415 0.791698 0.636010
O O11 0.044897 0.853567 0.758177
O O12 0.682386 0.730944 0.860847
O O13 0.000000 0.500000 0.500000
O O14 0.207001 0.681145 0.807888
O O15 0.772613 0.057800 0.861220
O O16 0.500000 0.000000 0.000000
#
# Coordination Sequence:
#
# PCOD9006708 Si02
#       7
#     2   2   2   2   2   2   2
#     4  10  21  38  68 104 150 184 233 306 397 444
#     4  10  22  42  68 107 145 189 246 309 378 440
#     4  11  26  51  76 115 156 210 263 319 378 467
#     4  11  26  45  75 112 153 195 252 326 392 452
#     4  12  30  52  77 107 157 211 259 309 380 466
#     4  12  26  49  79 108 148 199 261 314 386 454
#     4  12  27  48  78 114 152 198 258 327 392 463
#
# _framework density 27.469033
#
# number of rings (size 3 to 8) (size 9 to 14) (size 15 to 20)
#    0.000    0.857    2.857    2.571   10.000    1.714 
#    2.571    0.000    0.000    0.000    0.000    0.000 
#    0.000    0.000    0.000    0.000    0.000    0.000 
#
# Total GULP energy -78254.120491 kJ/mol
# GULP energy per Si atom -5589.580035 kJ/mol
# Density = 2.740651 g / cm^3
# Si number density = 27.469033 Si / 1000 Ang^3
#
#
#
# Elastic Constant Matrix: (Units=GPa)
#
#
# Indices 1 2 3 4 5 6 
#
# 1 116.4192 31.4145 21.6116 9.7519 10.2897 18.1645
# 2 31.4145 140.6502 14.8311 -8.2947 2.0517 1.6808
# 3 21.6116 14.8311 149.5475 -3.1115 15.0595 21.4317
# 4 9.7519 -8.2947 -3.1115 40.2706 13.5994 -4.0070
# 5 10.2897 2.0517 15.0595 13.5994 56.1388 -3.0440
# 6 18.1645 1.6808 21.4317 -4.0070 -3.0440 26.3778
#
#
#
# Elastic Compliance Matrix: (Units=1/GPa)
#
#
# Indices 1 2 3 4 5 6 
#
# 1 0.010961 -0.002525 -0.000111 -0.003480 -0.001478 -0.007996
# 2 -0.002525 0.007863 -0.000657 0.002433 -0.000123 0.002127
# 3 -0.000111 -0.000657 0.007990 0.000746 -0.002635 -0.006564
# 4 -0.003480 0.002433 0.000746 0.028910 -0.006368 0.005292
# 5 -0.001478 -0.000123 -0.002635 -0.006368 0.020586 0.004575
# 6 -0.007996 0.002127 -0.006564 0.005292 0.004575 0.049946
#
#
# Mechanical properties :
#
#
# Convention : Reuss Voigt Hill
#
# Bulk Modulus (GPa) = 49.43564 60.25903 54.84733
# Shear Modulus (GPa) = 35.82069 47.14144 41.48106
#
# Velocity S-wave (km/s) = 3.61507 4.14716 3.89022
# Velocity P-wave (km/s) = 5.95490 6.70198 6.33946
#
# Compressibility (1/GPa) = 0.02022832
#
# Stress axis : x y z
#
# Youngs Moduli (GPa) = 91.23092 127.18084 125.16223
#
# Poissons Ratio (x) = 0.32108 0.01394
# Poissons Ratio (y) = 0.23032 0.08220
# Poissons Ratio (z) = 0.01016 0.08352
#
# Static dielectric constant tensor:
#      x y z
#    x 2.239010 0.010890 -0.013180 
#    y 0.010890 2.217130 -0.055970 
#    z -0.013180 -0.055970 2.395850 
# 
# From -- ./inp_files/368146.got.cif
#   From: 2010.05.17/outbox.cif.g08.bks.cpg/sg2_185_cif.got.tgz:368146.got - 2010.06.03 11:33:40.
