data_PCOD9006598
_publ_section_title
;
Structure prediction by ZEFSAII (Michael W. Deem and Ramdas Pophale) SiO2 
 PCOD9006598
Probable space group: P -1
;
_chemical_formula_sum "Si O2"
_cell_formula_units_Z 16
_cell_length_a 15.489204
_cell_length_b 12.950461
_cell_length_c 14.522640
_cell_angle_alpha 105.851133
_cell_angle_beta 75.459471
_cell_angle_gamma 162.407971
_cell_volume 846.543440
_symmetry_space_group_name_H-M "P -1"
_symmetry_group_IT_number 2
_symmetry_cell_setting 'triclinic'
loop_
_space_group_symop_operation_xyz
x,y,z
-x,-y,-z
loop_
_atom_site_type_symbol
_atom_site_label
_atom_site_fract_x
_atom_site_fract_y
_atom_site_fract_z
Si Si1 0.575838 0.839758 0.755189
Si Si2 0.677464 0.787961 0.457868
Si Si3 0.353724 0.154258 0.967743
Si Si4 0.467632 0.506495 0.819037
Si Si5 0.679982 0.098374 0.967296
Si Si6 0.057547 0.272590 0.635168
Si Si7 0.149385 0.190348 0.344104
Si Si8 0.947594 0.840061 0.906468
O O1 0.437975 0.576565 0.777316
O O2 0.385945 0.653063 0.671574
O O3 0.609115 0.967976 0.854392
O O4 0.887972 0.158194 0.719703
O O5 0.500000 0.500000 0.500000
O O6 0.416456 0.546505 0.416499
O O7 0.903161 0.110649 0.538670
O O8 0.878753 0.958981 0.370911
O O9 0.606839 0.447486 0.896059
O O10 0.412770 0.306709 0.071918
O O11 0.062261 0.862344 0.929441
O O12 0.368732 0.055556 0.986405
O O13 0.694306 0.684160 0.755757
O O14 0.162458 0.107279 0.830185
O O15 0.000000 0.500000 0.000000
O O16 0.500000 0.000000 0.000000
O O17 0.965125 0.045690 0.629172
O O18 0.000000 0.000000 0.000000
#
# Coordination Sequence:
#
# PCOD9006598 Si02
#       8
#     2   2   2   2   2   2   2   2
#     4  10  20  30  47  68  89 125 164 194 232 280
#     4  10  18  28  40  59  89 128 165 194 229 268
#     4  10  21  34  50  70  93 130 169 197 240 288
#     4   9  19  30  45  68  97 126 164 197 223 274
#     4  11  22  37  53  71  96 124 158 207 253 290
#     4  10  17  29  42  60  89 122 162 198 221 271
#     4  10  18  26  41  63  90 128 164 195 226 268
#     4  10  19  32  49  69  96 129 163 202 235 275
#
# _framework density 18.900389000000001
#
# number of rings (size 3 to 8) (size 9 to 14) (size 15 to 20)
#    0.000    2.000    0.000    7.500    0.000   13.000 
#    0.000    0.000    0.000    0.000    0.000    0.000 
#    0.000    0.000    0.000   78.750    0.000   31.000 
#
# Total GULP energy -89135.335241 kJ/mol
# GULP energy per Si atom -5570.958453 kJ/mol
# Density = 1.885737 g / cm^3
# Si number density = 18.900389 Si / 1000 Ang^3
#
#
#
# Elastic Constant Matrix: (Units=GPa)
#
#
# Indices 1 2 3 4 5 6 
#
# 1 81.8496 23.8107 19.8475 2.0927 -10.6918 19.8654
# 2 23.8107 72.7861 21.1380 -1.5373 0.1716 22.2767
# 3 19.8475 21.1380 78.9490 -0.5829 -8.5799 -0.8395
# 4 2.0927 -1.5373 -0.5829 31.0065 6.1077 1.0044
# 5 -10.6918 0.1716 -8.5799 6.1077 20.1555 0.7055
# 6 19.8654 22.2767 -0.8395 1.0044 0.7055 35.0238
#
#
#
# Elastic Compliance Matrix: (Units=1/GPa)
#
#
# Indices 1 2 3 4 5 6 
#
# 1 0.016771 -0.002238 -0.002761 -0.002775 0.008870 -0.008255
# 2 -0.002238 0.019457 -0.005164 0.002131 -0.003804 -0.011214
# 3 -0.002761 -0.005164 0.015359 -0.000978 0.005234 0.005141
# 4 -0.002775 0.002131 -0.000978 0.035005 -0.012494 -0.000557
# 5 0.008870 -0.003804 0.005234 -0.012494 0.060483 -0.003346
# 6 -0.008255 -0.011214 0.005141 -0.000557 -0.003346 0.040574
#
#
# Mechanical properties :
#
#
# Convention : Reuss Voigt Hill
#
# Bulk Modulus (GPa) = 31.98798 40.35301 36.17049
# Shear Modulus (GPa) = 22.89430 28.48972 25.69201
#
# Velocity S-wave (km/s) = 3.48417 3.88669 3.69092
# Velocity P-wave (km/s) = 5.75736 6.44504 6.11088
#
# Compressibility (1/GPa) = 0.03126174
#
# Stress axis : x y z
#
# Youngs Moduli (GPa) = 59.62639 51.39603 65.10657
#
# Poissons Ratio (x) = 0.11500 0.17979
# Poissons Ratio (y) = 0.13342 0.33620
# Poissons Ratio (z) = 0.16465 0.26540
#
# Static dielectric constant tensor:
#      x y z
#    x 1.690190 0.029170 0.066640 
#    y 0.029170 1.666430 0.008600 
#    z 0.066640 0.008600 1.764980 
# 
# From -- ./inp_files/531889.got.cif
#   From: 2010.05.17/outbox.cif.g08.bks.cpg/sg2_266_cif.got.tgz:531889.got - 2010.06.03 11:33:40.
