data_PCOD9006774
_publ_section_title
;
Structure prediction by ZEFSAII (Michael W. Deem and Ramdas Pophale) SiO2 
 PCOD9006774
Probable space group: P -1
;
_chemical_formula_sum "Si O2"
_cell_formula_units_Z 16
_cell_length_a 11.909041
_cell_length_b 15.891767
_cell_length_c 9.028971
_cell_angle_alpha 111.146250
_cell_angle_beta 103.954809
_cell_angle_gamma 26.091013
_cell_volume 686.474987
_symmetry_space_group_name_H-M "P -1"
_symmetry_group_IT_number 2
_symmetry_cell_setting 'triclinic'
loop_
_space_group_symop_operation_xyz
x,y,z
-x,-y,-z
loop_
_atom_site_type_symbol
_atom_site_label
_atom_site_fract_x
_atom_site_fract_y
_atom_site_fract_z
Si Si1 0.194393 0.653767 0.921461
Si Si2 0.345917 0.015455 0.178915
Si Si3 0.019298 0.583914 0.629372
Si Si4 0.402090 0.776915 0.111939
Si Si5 0.469727 0.724672 0.759388
Si Si6 0.805096 0.664344 0.913974
Si Si7 0.086815 0.878937 0.264291
Si Si8 0.555473 0.570069 0.419561
O O1 0.361650 0.451604 0.903567
O O2 0.297067 0.601537 0.753615
O O3 0.890578 0.848130 0.918575
O O4 0.212194 0.716373 0.091835
O O5 0.213083 0.184620 0.344382
O O6 0.153444 0.923173 0.222950
O O7 0.586847 0.874670 0.064337
O O8 0.668360 0.669438 0.807015
O O9 0.000000 0.500000 0.500000
O O10 0.290404 0.444518 0.588335
O O11 0.049160 0.386494 0.202311
O O12 0.436141 0.860520 0.189363
O O13 0.000000 0.500000 0.000000
O O14 0.374224 0.774553 0.927596
O O15 0.577669 0.562867 0.599224
O O16 0.218264 0.927586 0.710228
O O17 0.256898 0.767029 0.395803
#
# Coordination Sequence:
#
# PCOD9006774 Si02
#       8
#     2   2   2   2   2   2   2   2
#     4  10  21  41  71  96 131 180 219 267 332 400
#     4  10  23  41  70  97 131 173 226 269 339 386
#     4  11  23  45  70  93 136 176 217 284 337 389
#     4  10  21  38  68  99 132 168 226 272 320 403
#     4  11  22  40  64  98 136 171 215 279 333 386
#     4  11  24  42  70  97 129 174 233 274 324 399
#     4  11  21  42  71  99 132 179 224 268 329 403
#     4  10  22  38  68  94 136 172 213 269 343 383
#
# _framework density 23.307476000000001
#
# number of rings (size 3 to 8) (size 9 to 14) (size 15 to 20)
#    0.000    1.500    3.750    2.625   10.500    0.000 
#    0.000    3.125   11.000    0.000    0.000    0.000 
#    0.000    0.000    0.000    0.000    0.000    0.000 
#
# Total GULP energy -89234.310734 kJ/mol
# GULP energy per Si atom -5577.144421 kJ/mol
# Density = 2.325443 g / cm^3
# Si number density = 23.307476 Si / 1000 Ang^3
#
#
#
# Elastic Constant Matrix: (Units=GPa)
#
#
# Indices 1 2 3 4 5 6 
#
# 1 76.9843 17.7151 7.3992 8.2518 6.4745 3.0544
# 2 17.7151 112.6833 12.4386 19.8265 -0.6278 -17.7264
# 3 7.3992 12.4386 109.5194 -9.7158 23.0060 0.1305
# 4 8.2518 19.8265 -9.7158 31.8246 -0.4939 9.3816
# 5 6.4745 -0.6278 23.0060 -0.4939 41.9684 3.7468
# 6 3.0544 -17.7264 0.1305 9.3816 3.7468 35.5968
#
#
#
# Elastic Compliance Matrix: (Units=1/GPa)
#
#
# Indices 1 2 3 4 5 6 
#
# 1 0.013935 -0.001992 -0.000528 -0.002139 -0.001787 -0.001434
# 2 -0.001992 0.012895 -0.002511 -0.011046 0.000906 0.009417
# 3 -0.000528 -0.002511 0.011180 0.005650 -0.005829 -0.002122
# 4 -0.002139 -0.011046 0.005650 0.045664 -0.000852 -0.017283
# 5 -0.001787 0.000906 -0.005829 -0.000852 0.027484 -0.002042
# 6 -0.001434 0.009417 -0.002122 -0.017283 -0.002042 0.037683
#
#
# Mechanical properties :
#
#
# Convention : Reuss Voigt Hill
#
# Bulk Modulus (GPa) = 35.78098 41.58808 38.68453
# Shear Modulus (GPa) = 29.72324 39.32024 34.52174
#
# Velocity S-wave (km/s) = 3.57496 4.11179 3.85274
# Velocity P-wave (km/s) = 5.69434 6.35802 6.03531
#
# Compressibility (1/GPa) = 0.02794781
#
# Stress axis : x y z
#
# Youngs Moduli (GPa) = 71.76090 77.55140 89.44705
#
# Poissons Ratio (x) = 0.15446 0.04721
# Poissons Ratio (y) = 0.14293 0.22464
# Poissons Ratio (z) = 0.03788 0.19476
#
# Static dielectric constant tensor:
#      x y z
#    x 1.941530 -0.001130 0.012120 
#    y -0.001130 1.912560 0.045810 
#    z 0.012120 0.045810 1.970870 
# 
# From -- ./inp_files/535322.got.cif
#   From: 2010.05.17/outbox.cif.g08.bks.cpg/sg2_268_cif.got.tgz:535322.got - 2010.06.03 11:33:40.
