data_PCOD9006832
_publ_section_title
;
Structure prediction by ZEFSAII (Michael W. Deem and Ramdas Pophale) SiO2 
 PCOD9006832
Probable space group: P -1
;
_chemical_formula_sum "Si O2"
_cell_formula_units_Z 16
_cell_length_a 11.018070
_cell_length_b 8.503800
_cell_length_c 11.124311
_cell_angle_alpha 88.261284
_cell_angle_beta 127.378716
_cell_angle_gamma 108.799447
_cell_volume 764.903590
_symmetry_space_group_name_H-M "P -1"
_symmetry_group_IT_number 2
_symmetry_cell_setting 'triclinic'
loop_
_space_group_symop_operation_xyz
x,y,z
-x,-y,-z
loop_
_atom_site_type_symbol
_atom_site_label
_atom_site_fract_x
_atom_site_fract_y
_atom_site_fract_z
Si Si1 0.481366 0.746003 0.791597
Si Si2 0.412526 0.437241 0.576238
Si Si3 0.361330 0.967638 0.312486
Si Si4 0.239551 0.360753 0.927698
Si Si5 0.278113 0.600361 0.174436
Si Si6 0.141602 0.563500 0.685738
Si Si7 0.925030 0.664873 0.734402
Si Si8 0.031416 0.991045 0.158952
O O1 0.437967 0.601514 0.666495
O O2 0.305393 0.723682 0.742765
O O3 0.565436 0.919924 0.764689
O O4 0.607575 0.699541 0.955291
O O5 0.500000 0.500000 0.500000
O O6 0.523265 0.343712 0.698119
O O7 0.221068 0.340996 0.442949
O O8 0.264055 0.774065 0.209025
O O9 0.500000 0.000000 0.500000
O O10 0.224597 0.028925 0.286625
O O11 0.221795 0.431761 0.784498
O O12 0.244672 0.502028 0.028668
O O13 0.077239 0.193238 0.854299
O O14 0.166235 0.453957 0.204250
O O15 0.000000 0.500000 0.500000
O O16 0.045707 0.597478 0.740005
O O17 0.015219 0.859983 0.818185
O O18 0.000000 0.000000 0.000000
#
# Coordination Sequence:
#
# PCOD9006832 Si02
#       8
#     2   2   2   2   2   2   2   2
#     4  11  23  45  64  95 140 176 221 269 334 404
#     4   9  17  36  64  94 127 167 211 274 333 383
#     4  12  24  39  70 106 138 167 221 285 339 389
#     4  11  25  45  70  97 135 177 228 275 341 397
#     4  10  21  38  70 103 129 170 223 283 340 389
#     4  12  27  45  68  96 135 186 228 269 325 417
#     4  11  21  41  67  99 136 173 223 274 339 392
#     4  12  23  42  70 103 137 166 217 292 344 384
#
# _framework density 20.917667000000002
#
# number of rings (size 3 to 8) (size 9 to 14) (size 15 to 20)
#    0.000    1.000    3.750    4.875    3.500    1.000 
#    0.000    5.625    0.000    0.000    0.000    0.000 
#    0.000    0.000    0.000    0.000    0.000    0.000 
#
# Total GULP energy -89252.696781 kJ/mol
# GULP energy per Si atom -5578.293549 kJ/mol
# Density = 2.087006 g / cm^3
# Si number density = 20.917667 Si / 1000 Ang^3
#
#
#
# Elastic Constant Matrix: (Units=GPa)
#
#
# Indices 1 2 3 4 5 6 
#
# 1 57.9636 -5.3578 29.4690 -5.7512 30.7205 7.1706
# 2 -5.3578 87.5343 32.3806 -0.4921 -3.4252 6.2384
# 3 29.4690 32.3806 116.6716 -16.2858 20.1811 4.6886
# 4 -5.7512 -0.4921 -16.2858 20.6047 -0.8566 2.3935
# 5 30.7205 -3.4252 20.1811 -0.8566 22.3033 8.5282
# 6 7.1706 6.2384 4.6886 2.3935 8.5282 31.7596
#
#
#
# Elastic Compliance Matrix: (Units=1/GPa)
#
#
# Indices 1 2 3 4 5 6 
#
# 1 0.071355 -0.001089 0.002018 0.015964 -0.103655 0.010436
# 2 -0.001089 0.014188 -0.005798 -0.003627 0.010392 -0.004202
# 3 0.002018 -0.005798 0.013940 0.010474 -0.016776 0.002341
# 4 0.015964 -0.003627 0.010474 0.060090 -0.029295 -0.001100
# 5 -0.103655 0.010392 -0.016776 -0.029295 0.215420 -0.031800
# 6 0.010436 -0.004202 0.002341 -0.001100 -0.031800 0.038232
#
#
# Mechanical properties :
#
#
# Convention : Reuss Voigt Hill
#
# Bulk Modulus (GPa) = 11.14258 41.68367 26.41312
# Shear Modulus (GPa) = 11.04048 28.64537 19.84292
#
# Velocity S-wave (km/s) = 2.29990 3.70460 3.08331
# Velocity P-wave (km/s) = 3.52010 6.18624 5.03292
#
# Compressibility (1/GPa) = 0.08974584
#
# Stress axis : x y z
#
# Youngs Moduli (GPa) = 14.01436 70.48287 71.73487
#
# Poissons Ratio (x) = 0.07675 -0.14474
# Poissons Ratio (y) = 0.01526 0.41589
# Poissons Ratio (z) = -0.02828 0.40863
#
# Static dielectric constant tensor:
#      x y z
#    x 1.747340 0.001970 -0.005050 
#    y 0.001970 1.746210 -0.028460 
#    z -0.005050 -0.028460 1.777350 
# 
# From -- ./inp_files/271488.got.cif
#   From: 2010.05.17/outbox.cif.g08.bks.cpg/sg2_136_cif.got.tgz:271488.got - 2010.06.03 11:33:40.
