data_PCOD9006231
_publ_section_title
;
Structure prediction by ZEFSAII (Michael W. Deem and Ramdas Pophale) SiO2 
 PCOD9006231
Probable space group: P -1
;
_chemical_formula_sum "Si O2"
_cell_formula_units_Z 14
_cell_length_a 23.284521
_cell_length_b 5.433295
_cell_length_c 5.182427
_cell_angle_alpha 60.987524
_cell_angle_beta 90.339147
_cell_angle_gamma 104.350787
_cell_volume 550.395676
_symmetry_space_group_name_H-M "P -1"
_symmetry_group_IT_number 2
_symmetry_cell_setting 'triclinic'
loop_
_space_group_symop_operation_xyz
x,y,z
-x,-y,-z
loop_
_atom_site_type_symbol
_atom_site_label
_atom_site_fract_x
_atom_site_fract_y
_atom_site_fract_z
Si Si1 0.780948 0.802290 0.432140
Si Si2 0.929412 0.694779 0.316322
Si Si3 0.360857 0.229224 0.077246
Si Si4 0.330646 0.623592 0.519709
Si Si5 0.821949 0.506335 0.076491
Si Si6 0.951684 0.304216 0.909019
Si Si7 0.430295 0.423165 0.488912
O O1 0.709804 0.642803 0.512281
O O2 0.798183 0.641260 0.260282
O O3 0.795430 0.154180 0.230603
O O4 0.809494 0.689423 0.739579
O O5 0.892215 0.570819 0.122987
O O6 0.912148 0.456557 0.660319
O O7 0.001895 0.772138 0.261745
O O8 0.917920 0.007197 0.200786
O O9 0.330668 0.488564 0.873252
O O10 0.393576 0.201993 0.819642
O O11 0.409935 0.319764 0.255051
O O12 0.314971 0.922079 0.311902
O O13 0.400264 0.686059 0.408881
O O14 0.000000 0.500000 0.000000
O O15 0.500000 0.500000 0.500000
#
# Coordination Sequence:
#
# PCOD9006231 Si02
#       7
#     2   2   2   2   2   2   2
#     4  12  28  46  74 102 140 188 235 295 350 413
#     4  10  23  39  61  97 127 177 222 281 338 410
#     4  10  24  39  67  92 132 170 214 276 328 416
#     4  10  26  42  69  94 134 172 227 275 343 408
#     4  12  28  47  74 105 142 185 240 292 350 413
#     4  10  21  38  65  90 133 170 223 273 346 406
#     4  10  24  42  66  98 131 172 217 276 337 407
#
# _framework density 25.436247000000002
#
# number of rings (size 3 to 8) (size 9 to 14) (size 15 to 20)
#    0.857    0.571    0.000    3.429   10.000    1.143 
#    0.000    0.000    0.000    0.000    0.000    0.000 
#    0.000    0.000    0.000    0.000    0.000    0.000 
#
# Total GULP energy -78189.451206 kJ/mol
# GULP energy per Si atom -5584.960800 kJ/mol
# Density = 2.537835 g / cm^3
# Si number density = 25.436247 Si / 1000 Ang^3
#
#
#
# Elastic Constant Matrix: (Units=GPa)
#
#
# Indices 1 2 3 4 5 6 
#
# 1 88.6818 3.9085 24.2129 11.3055 5.2943 10.3540
# 2 3.9085 119.7380 87.3499 -10.5076 16.3214 6.7158
# 3 24.2129 87.3499 225.0166 -9.4791 35.7494 7.2541
# 4 11.3055 -10.5076 -9.4791 60.9281 2.0901 5.7294
# 5 5.2943 16.3214 35.7494 2.0901 30.9768 12.1552
# 6 10.3540 6.7158 7.2541 5.7294 12.1552 40.9440
#
#
#
# Elastic Compliance Matrix: (Units=1/GPa)
#
#
# Indices 1 2 3 4 5 6 
#
# 1 0.012279 0.000719 -0.001724 -0.002182 0.000774 -0.002842
# 2 0.000719 0.011888 -0.004462 0.001372 -0.000824 -0.001289
# 3 -0.001724 -0.004462 0.007388 0.000765 -0.006604 0.001712
# 4 -0.002182 0.001372 0.000765 0.017395 -0.001728 -0.001730
# 5 0.000774 -0.000824 -0.006604 -0.001728 0.045039 -0.012020
# 6 -0.002842 -0.001289 0.001712 -0.001730 -0.012020 0.028861
#
#
# Mechanical properties :
#
#
# Convention : Reuss Voigt Hill
#
# Bulk Modulus (GPa) = 48.49228 73.81987 61.15608
# Shear Modulus (GPa) = 35.54740 47.76747 41.65744
#
# Velocity S-wave (km/s) = 3.74238 4.33821 4.05126
# Velocity P-wave (km/s) = 6.14651 7.36057 6.78076
#
# Compressibility (1/GPa) = 0.02062184
#
# Stress axis : x y z
#
# Youngs Moduli (GPa) = 81.43992 84.11716 135.35484
#
# Poissons Ratio (x) = -0.06049 0.23331
# Poissons Ratio (y) = -0.05856 0.60395
# Poissons Ratio (z) = 0.14038 0.37533
#
# Static dielectric constant tensor:
#      x y z
#    x 2.221540 -0.125820 -0.046680 
#    y -0.125820 2.022650 -0.036030 
#    z -0.046680 -0.036030 2.049840 
# 
# From -- ./inp_files/125482.got.cif
#   From: 2010.05.17/outbox.cif.g08.bks.cpg/sg2_63_cif.got.tgz:125482.got - 2010.06.03 11:33:40.
