data_PCOD9006947
_publ_section_title
;
Structure prediction by ZEFSAII (Michael W. Deem and Ramdas Pophale) SiO2 
 PCOD9006947
Probable space group: P -1
;
_chemical_formula_sum "Si O2"
_cell_formula_units_Z 16
_cell_length_a 15.875080
_cell_length_b 8.289505
_cell_length_c 5.383346
_cell_angle_alpha 84.950443
_cell_angle_beta 64.018410
_cell_angle_gamma 91.655479
_cell_volume 632.558509
_symmetry_space_group_name_H-M "P -1"
_symmetry_group_IT_number 2
_symmetry_cell_setting 'triclinic'
loop_
_space_group_symop_operation_xyz
x,y,z
-x,-y,-z
loop_
_atom_site_type_symbol
_atom_site_label
_atom_site_fract_x
_atom_site_fract_y
_atom_site_fract_z
Si Si1 0.920312 0.630219 0.609452
Si Si2 0.723612 0.809414 0.436688
Si Si3 0.113094 0.504469 0.832122
Si Si4 0.582755 0.052064 0.690618
Si Si5 0.834819 0.922843 0.783061
Si Si6 0.230203 0.762000 0.345446
Si Si7 0.492697 0.350474 0.713388
Si Si8 0.650183 0.510477 0.823193
O O1 0.876899 0.616284 0.394281
O O2 0.928187 0.821902 0.643022
O O3 0.000000 0.500000 0.500000
O O4 0.859133 0.558366 0.928673
O O5 0.773629 0.864276 0.626577
O O6 0.691919 0.618490 0.525465
O O7 0.626777 0.900202 0.528037
O O8 0.786220 0.869263 0.112919
O O9 0.164444 0.674009 0.655174
O O10 0.000000 0.500000 0.000000
O O11 0.677824 0.139245 0.676171
O O12 0.534674 0.189330 0.575842
O O13 0.500000 0.000000 0.000000
O O14 0.832173 0.117948 0.742325
O O15 0.276507 0.614771 0.165168
O O16 0.500000 0.500000 0.500000
O O17 0.562181 0.397485 0.848473
O O18 0.388344 0.357587 0.957845
#
# Coordination Sequence:
#
# PCOD9006947 Si02
#       8
#     2   2   2   2   2   2   2   2
#     4  10  21  42  71  98 130 170 213 269 334 396
#     4  11  24  41  65  90 131 179 214 266 323 385
#     4  10  22  44  70  98 130 169 214 267 328 398
#     4  10  21  42  60  92 134 174 226 272 326 381
#     4  11  24  41  63  99 130 166 218 267 324 394
#     4  10  23  40  64  95 131 174 218 272 329 386
#     4  10  22  36  59  85 124 166 221 276 321 377
#     4  10  21  39  57  88 123 170 220 268 326 386
#
# _framework density 25.294101999999999
#
# number of rings (size 3 to 8) (size 9 to 14) (size 15 to 20)
#    0.000    1.750    1.250    2.250    3.500    2.000 
#    2.250    8.125    0.000    0.000    0.000    0.000 
#    0.000    0.000    0.000    0.000    0.000    0.000 
#
# Total GULP energy -89188.321248 kJ/mol
# GULP energy per Si atom -5574.270078 kJ/mol
# Density = 2.523653 g / cm^3
# Si number density = 25.294102 Si / 1000 Ang^3
#
#
#
# Elastic Constant Matrix: (Units=GPa)
#
#
# Indices 1 2 3 4 5 6 
#
# 1 66.1374 14.7210 14.2804 12.6547 -9.8047 -6.7556
# 2 14.7210 162.6076 31.9701 4.2246 -26.9074 -59.0815
# 3 14.2804 31.9701 145.5769 -8.6024 1.2166 -14.8633
# 4 12.6547 4.2246 -8.6024 41.3764 -6.5658 -11.2753
# 5 -9.8047 -26.9074 1.2166 -6.5658 45.1844 8.8470
# 6 -6.7556 -59.0815 -14.8633 -11.2753 8.8470 43.6810
#
#
#
# Elastic Compliance Matrix: (Units=1/GPa)
#
#
# Indices 1 2 3 4 5 6 
#
# 1 0.017071 -0.001147 -0.001924 -0.005507 0.002568 -0.001507
# 2 -0.001147 0.013813 -0.000815 0.004585 0.005065 0.018387
# 3 -0.001924 -0.000815 0.007618 0.002649 -0.001135 0.002106
# 4 -0.005507 0.004585 0.002649 0.030088 0.003219 0.013366
# 5 0.002568 0.005065 -0.001135 0.003219 0.025717 0.002484
# 6 -0.001507 0.018387 0.002106 0.013366 0.002484 0.051193
#
#
# Mechanical properties :
#
#
# Convention : Reuss Voigt Hill
#
# Bulk Modulus (GPa) = 32.54011 55.14054 43.84033
# Shear Modulus (GPa) = 30.57808 46.93837 38.75823
#
# Velocity S-wave (km/s) = 3.48070 4.31246 3.91871
# Velocity P-wave (km/s) = 5.38946 6.82961 6.15182
#
# Compressibility (1/GPa) = 0.03073131
#
# Stress axis : x y z
#
# Youngs Moduli (GPa) = 58.57843 72.39320 131.26877
#
# Poissons Ratio (x) = 0.08303 0.25250
# Poissons Ratio (y) = 0.06718 0.10701
# Poissons Ratio (z) = 0.11268 0.05901
#
# Static dielectric constant tensor:
#      x y z
#    x 2.004590 -0.048880 -0.012330 
#    y -0.048880 2.154950 0.044330 
#    z -0.012330 0.044330 2.049620 
# 
# From -- ./inp_files/116886.got.cif
#   From: 2010.05.17/outbox.cif.g08.bks.cpg/sg2_59_cif.got.tgz:116886.got - 2010.06.03 11:33:40.
