data_PCOD9006279
_publ_section_title
;
Structure prediction by ZEFSAII (Michael W. Deem and Ramdas Pophale) SiO2 
 PCOD9006279
Probable space group: P -1
;
_chemical_formula_sum "Si O2"
_cell_formula_units_Z 16
_cell_length_a 20.956648
_cell_length_b 12.365095
_cell_length_c 17.590916
_cell_angle_alpha 138.018674
_cell_angle_beta 159.569505
_cell_angle_gamma 30.545894
_cell_volume 754.784437
_symmetry_space_group_name_H-M "P -1"
_symmetry_group_IT_number 2
_symmetry_cell_setting 'triclinic'
loop_
_space_group_symop_operation_xyz
x,y,z
-x,-y,-z
loop_
_atom_site_type_symbol
_atom_site_label
_atom_site_fract_x
_atom_site_fract_y
_atom_site_fract_z
Si Si1 0.389454 0.647449 0.290993
Si Si2 0.683817 0.653450 0.912630
Si Si3 0.771029 0.248295 0.147771
Si Si4 0.241907 0.182835 0.682078
Si Si5 0.906282 0.134702 0.063474
Si Si6 0.044263 0.410645 0.312883
Si Si7 0.291938 0.361400 0.242948
Si Si8 0.471159 0.134956 0.757723
O O1 0.425116 0.434074 0.210828
O O2 0.614936 0.576020 0.556216
O O3 0.333134 0.755880 0.201848
O O4 0.127302 0.862075 0.156443
O O5 0.677328 0.604056 0.791737
O O6 0.503154 0.922439 0.856756
O O7 0.965939 0.498426 0.184611
O O8 0.826893 0.212155 0.101379
O O9 0.010574 0.195907 0.423531
O O10 0.500000 0.500000 0.000000
O O11 0.716135 0.095327 0.027101
O O12 0.166018 0.361254 0.752908
O O13 0.288258 0.241966 0.683580
O O14 0.017098 0.235990 0.207789
O O15 0.314744 0.291748 0.590933
O O16 0.450859 0.097262 0.290449
O O17 0.000000 0.500000 0.000000
#
# Coordination Sequence:
#
# PCOD9006279 Si02
#       8
#     2   2   2   2   2   2   2   2
#     4  10  21  41  64  88 120 165 208 249 315 364
#     4  10  24  38  65  88 119 166 205 251 318 367
#     4  12  23  37  64  98 121 164 206 254 314 364
#     4  11  22  42  63  88 131 162 205 256 307 374
#     4  10  21  38  65  93 121 157 211 262 298 366
#     4  11  19  41  64  89 118 163 207 254 303 362
#     4  11  24  40  57  87 126 161 197 259 310 367
#     4  11  23  39  64  91 123 163 212 251 304 372
#
# _framework density 21.198105000000002
#
# number of rings (size 3 to 8) (size 9 to 14) (size 15 to 20)
#    0.000    1.250    3.750    2.625    3.500    1.000 
#    0.000    1.250    0.000    3.750    0.000    0.000 
#    0.000    0.000    0.000    0.000    0.000    0.000 
#
# Total GULP energy -89313.666831 kJ/mol
# GULP energy per Si atom -5582.104177 kJ/mol
# Density = 2.114986 g / cm^3
# Si number density = 21.198105 Si / 1000 Ang^3
#
#
#
# Elastic Constant Matrix: (Units=GPa)
#
#
# Indices 1 2 3 4 5 6 
#
# 1 31.4784 16.2150 23.8795 -5.8750 -12.5057 0.8394
# 2 16.2150 53.9821 -0.1959 0.7453 -15.4880 4.2486
# 3 23.8795 -0.1959 96.5988 2.1126 -21.3139 15.7946
# 4 -5.8750 0.7453 2.1126 33.7329 2.4942 -4.8669
# 5 -12.5057 -15.4880 -21.3139 2.4942 30.8904 2.4452
# 6 0.8394 4.2486 15.7946 -4.8669 2.4452 27.8928
#
#
#
# Elastic Compliance Matrix: (Units=1/GPa)
#
#
# Indices 1 2 3 4 5 6 
#
# 1 0.055047 -0.017533 -0.015754 0.012657 0.000646 0.012087
# 2 -0.017533 0.029610 0.010209 -0.007359 0.016375 -0.012483
# 3 -0.015754 0.010209 0.020051 -0.007450 0.014365 -0.014995
# 4 0.012657 -0.007359 -0.007450 0.034711 -0.007432 0.011667
# 5 0.000646 0.016375 0.014365 -0.007432 0.052667 -0.016562
# 6 0.012087 -0.012483 -0.014995 0.011667 -0.016562 0.049368
#
#
# Mechanical properties :
#
#
# Convention : Reuss Voigt Hill
#
# Bulk Modulus (GPa) = 17.07835 29.09518 23.08676
# Shear Modulus (GPa) = 16.27996 27.98061 22.13028
#
# Velocity S-wave (km/s) = 2.77427 3.63706 3.23456
# Velocity P-wave (km/s) = 4.28207 5.60293 4.98643
#
# Compressibility (1/GPa) = 0.05855368
#
# Stress axis : x y z
#
# Youngs Moduli (GPa) = 18.16642 33.77207 49.87203
#
# Poissons Ratio (x) = 0.59211 0.78567
# Poissons Ratio (y) = 0.31851 -0.50915
# Poissons Ratio (z) = 0.28619 -0.34479
#
# Static dielectric constant tensor:
#      x y z
#    x 1.793390 -0.023340 -0.033120 
#    y -0.023340 1.711570 0.037310 
#    z -0.033120 0.037310 1.804020 
# 
# From -- ./inp_files/218856.got.cif
#   From: 2010.05.17/outbox.cif.g08.bks.cpg/sg2_110_cif.got.tgz:218856.got - 2010.06.03 11:33:40.
