data_PCOD9006739
_publ_section_title
;
Structure prediction by ZEFSAII (Michael W. Deem and Ramdas Pophale) SiO2 
 PCOD9006739
Probable space group: P -1
;
_chemical_formula_sum "Si O2"
_cell_formula_units_Z 16
_cell_length_a 17.200884
_cell_length_b 8.374203
_cell_length_c 7.810977
_cell_angle_alpha 127.851114
_cell_angle_beta 120.600341
_cell_angle_gamma 86.828005
_cell_volume 707.895856
_symmetry_space_group_name_H-M "P -1"
_symmetry_group_IT_number 2
_symmetry_cell_setting 'triclinic'
loop_
_space_group_symop_operation_xyz
x,y,z
-x,-y,-z
loop_
_atom_site_type_symbol
_atom_site_label
_atom_site_fract_x
_atom_site_fract_y
_atom_site_fract_z
Si Si1 0.326461 0.378627 0.050475
Si Si2 0.422990 0.789202 0.184277
Si Si3 0.443639 0.118222 0.907311
Si Si4 0.775735 0.300995 0.254846
Si Si5 0.861920 0.768888 0.476690
Si Si6 0.035616 0.699751 0.428422
Si Si7 0.731925 0.303028 0.607084
Si Si8 0.920691 0.240591 0.885753
O O1 0.384743 0.580937 0.125993
O O2 0.297813 0.493328 0.252500
O O3 0.395449 0.245081 0.057538
O O4 0.225627 0.233290 0.748817
O O5 0.479599 0.741537 0.054276
O O6 0.500000 0.000000 0.500000
O O7 0.325854 0.825776 0.037884
O O8 0.354306 0.923681 0.591049
O O9 0.500000 0.000000 0.000000
O O10 0.816314 0.546308 0.386382
O O11 0.863525 0.213375 0.295944
O O12 0.752151 0.301421 0.428758
O O13 0.952449 0.759675 0.463571
O O14 0.894912 0.997492 0.764238
O O15 0.048830 0.763060 0.283125
O O16 0.001137 0.435152 0.205652
O O17 0.827270 0.310902 0.821226
#
# Coordination Sequence:
#
# PCOD9006739 Si02
#       8
#     2   2   2   2   2   2   2   2
#     4  11  24  41  70  95 128 172 219 263 322 392
#     4  11  23  44  69  95 127 177 217 263 326 381
#     4  12  24  44  67  95 131 168 216 276 323 379
#     4  10  24  41  63  96 137 162 216 276 312 381
#     4  11  21  40  65  97 127 171 212 261 323 382
#     4  10  21  40  66  94 130 168 210 263 324 379
#     4  11  21  44  64  95 130 172 214 264 326 381
#     4  10  21  38  68  94 127 170 214 260 316 393
#
# _framework density 22.602194999999998
#
# number of rings (size 3 to 8) (size 9 to 14) (size 15 to 20)
#    0.000    1.250    5.000    1.125    0.000    1.000 
#    0.000    2.500    5.500    0.000    0.000    0.000 
#    0.000    0.000    0.000    0.000    0.000    0.000 
#
# Total GULP energy -89490.963576 kJ/mol
# GULP energy per Si atom -5593.185224 kJ/mol
# Density = 2.255075 g / cm^3
# Si number density = 22.602195 Si / 1000 Ang^3
#
#
#
# Elastic Constant Matrix: (Units=GPa)
#
#
# Indices 1 2 3 4 5 6 
#
# 1 132.8655 42.0080 33.8316 0.5374 11.4489 -24.7926
# 2 42.0080 54.7502 16.6022 -3.9392 2.3782 -22.2843
# 3 33.8316 16.6022 81.5891 3.6412 17.3123 -22.2283
# 4 0.5374 -3.9392 3.6412 26.0122 -11.3110 4.3081
# 5 11.4489 2.3782 17.3123 -11.3110 33.0728 0.2063
# 6 -24.7926 -22.2843 -22.2283 4.3081 0.2063 36.1505
#
#
#
# Elastic Compliance Matrix: (Units=1/GPa)
#
#
# Indices 1 2 3 4 5 6 
#
# 1 0.010905 -0.006879 -0.001494 -0.003054 -0.003560 0.002705
# 2 -0.006879 0.028878 0.000079 0.002898 0.001175 0.012780
# 3 -0.001494 0.000079 0.019554 -0.010581 -0.013420 0.012385
# 4 -0.003054 0.002898 -0.010581 0.053385 0.024729 -0.013317
# 5 -0.003560 0.001175 -0.013420 0.024729 0.046949 -0.013184
# 6 0.002705 0.012780 0.012385 -0.013317 -0.013184 0.046673
#
#
# Mechanical properties :
#
#
# Convention : Reuss Voigt Hill
#
# Bulk Modulus (GPa) = 23.39119 50.45424 36.92272
# Shear Modulus (GPa) = 21.08100 30.83129 25.95614
#
# Velocity S-wave (km/s) = 3.05732 3.69736 3.39247
# Velocity P-wave (km/s) = 4.77855 6.37169 5.63174
#
# Compressibility (1/GPa) = 0.04275113
#
# Stress axis : x y z
#
# Youngs Moduli (GPa) = 91.69815 34.62876 51.14040
#
# Poissons Ratio (x) = 0.23820 0.07639
# Poissons Ratio (y) = 0.63075 -0.00406
# Poissons Ratio (z) = 0.13698 -0.00275
#
# Static dielectric constant tensor:
#      x y z
#    x 1.877490 0.000790 0.021940 
#    y 0.000790 1.842080 -0.009340 
#    z 0.021940 -0.009340 1.875290 
# 
# From -- ./inp_files/207232.got.cif
#   From: 2010.05.17/outbox.cif.g08.bks.cpg/sg2_104_cif.got.tgz:207232.got - 2010.06.03 11:33:40.
