data_PCOD9006126
_publ_section_title
;
Structure prediction by ZEFSAII (Michael W. Deem and Ramdas Pophale) SiO2 
 PCOD9006126
Probable space group: P -1
;
_chemical_formula_sum "Si O2"
_cell_formula_units_Z 14
_cell_length_a 12.021903
_cell_length_b 18.337877
_cell_length_c 5.673487
_cell_angle_alpha 58.633245
_cell_angle_beta 126.220398
_cell_angle_gamma 148.808421
_cell_volume 522.247929
_symmetry_space_group_name_H-M "P -1"
_symmetry_group_IT_number 2
_symmetry_cell_setting 'triclinic'
loop_
_space_group_symop_operation_xyz
x,y,z
-x,-y,-z
loop_
_atom_site_type_symbol
_atom_site_label
_atom_site_fract_x
_atom_site_fract_y
_atom_site_fract_z
Si Si1 0.478555 0.365092 0.647870
Si Si2 0.122430 0.468704 0.498907
Si Si3 0.483292 0.749673 0.720889
Si Si4 0.066214 0.075687 0.209777
Si Si5 0.842353 0.653236 0.863497
Si Si6 0.762538 0.208697 0.228059
Si Si7 0.332174 0.000526 0.224708
O O1 0.679987 0.457531 0.559182
O O2 0.599634 0.486190 0.788159
O O3 0.248075 0.295335 0.385414
O O4 0.459714 0.268190 0.929533
O O5 0.232398 0.601879 0.558157
O O6 0.889895 0.355295 0.245891
O O7 0.095714 0.370817 0.788444
O O8 0.662197 0.795223 0.688156
O O9 0.547696 0.878929 0.632229
O O10 0.000000 0.000000 0.500000
O O11 0.000000 0.000000 0.000000
O O12 0.918647 0.088531 0.991530
O O13 0.060336 0.741949 0.819989
O O14 0.494615 0.092650 0.041462
O O15 0.713498 0.113012 0.525422
#
# Coordination Sequence:
#
# PCOD9006126 Si02
#       7
#     2   2   2   2   2   2   2
#     4   9  18  34  62  92 133 162 210 282 335 393
#     4  10  21  38  64  98 126 170 223 277 344 399
#     4  10  22  40  66  99 127 167 224 287 343 392
#     4  10  23  44  69 103 139 179 229 290 352 408
#     4   9  18  36  59  93 128 167 216 269 333 398
#     4  10  22  45  63  91 136 181 224 266 342 418
#     4  10  23  45  65  93 136 181 221 277 340 420
#
# _framework density 26.807189999999999
#
# number of rings (size 3 to 8) (size 9 to 14) (size 15 to 20)
#    0.000    2.286    0.000    1.286    4.000    4.000 
#   10.286    7.857    0.000    0.000    0.000    0.000 
#    0.000    0.000    0.000    0.000    0.000    0.000 
#
# Total GULP energy -78149.792757 kJ/mol
# GULP energy per Si atom -5582.128054 kJ/mol
# Density = 2.674618 g / cm^3
# Si number density = 26.807190 Si / 1000 Ang^3
#
#
#
# Elastic Constant Matrix: (Units=GPa)
#
#
# Indices 1 2 3 4 5 6 
#
# 1 87.9164 31.6325 15.5606 -18.5170 6.7022 25.1115
# 2 31.6325 167.3084 27.9787 4.2774 -8.3471 17.6520
# 3 15.5606 27.9787 62.0170 -18.5309 -17.0704 5.7704
# 4 -18.5170 4.2774 -18.5309 40.6741 8.2194 -6.4483
# 5 6.7022 -8.3471 -17.0704 8.2194 31.7440 -11.2549
# 6 25.1115 17.6520 5.7704 -6.4483 -11.2549 63.0783
#
#
#
# Elastic Compliance Matrix: (Units=1/GPa)
#
#
# Indices 1 2 3 4 5 6 
#
# 1 0.017325 -0.002767 -0.002999 0.007833 -0.010479 -0.006918
# 2 -0.002767 0.007311 -0.003308 -0.003958 0.001475 -0.000783
# 3 -0.002999 -0.003308 0.023602 0.007874 0.011410 0.002801
# 4 0.007833 -0.003958 0.007874 0.033546 -0.007365 -0.000616
# 5 -0.010479 0.001475 0.011410 -0.007365 0.045734 0.010123
# 6 -0.006918 -0.000783 0.002801 -0.000616 0.010123 0.020313
#
#
# Mechanical properties :
#
#
# Convention : Reuss Voigt Hill
#
# Bulk Modulus (GPa) = 33.23295 51.95394 42.59345
# Shear Modulus (GPa) = 28.40766 43.23726 35.82246
#
# Velocity S-wave (km/s) = 3.25884 4.02045 3.65951
# Velocity P-wave (km/s) = 5.15597 6.40115 5.81200
#
# Compressibility (1/GPa) = 0.03009061
#
# Stress axis : x y z
#
# Youngs Moduli (GPa) = 57.71852 136.78553 42.36938
#
# Poissons Ratio (x) = 0.37854 0.12706
# Poissons Ratio (y) = 0.15973 0.14014
# Poissons Ratio (z) = 0.17309 0.45242
#
# Static dielectric constant tensor:
#      x y z
#    x 2.288190 -0.006120 0.070980 
#    y -0.006120 2.183130 0.158370 
#    z 0.070980 0.158370 2.257250 
# 
# From -- ./inp_files/83097.got.cif
#   From: 2010.05.17/outbox.cif.g08.bks.cpg/sg2_42_cif.got.tgz:83097.got - 2010.06.03 11:33:40.
