data_PCOD9006896
_publ_section_title
;
Structure prediction by ZEFSAII (Michael W. Deem and Ramdas Pophale) SiO2 
 PCOD9006896
Probable space group: P -1
;
_chemical_formula_sum "Si O2"
_cell_formula_units_Z 14
_cell_length_a 11.680880
_cell_length_b 8.257625
_cell_length_c 20.336710
_cell_angle_alpha 105.908935
_cell_angle_beta 18.507116
_cell_angle_gamma 108.413388
_cell_volume 588.669439
_symmetry_space_group_name_H-M "P -1"
_symmetry_group_IT_number 2
_symmetry_cell_setting 'triclinic'
loop_
_space_group_symop_operation_xyz
x,y,z
-x,-y,-z
loop_
_atom_site_type_symbol
_atom_site_label
_atom_site_fract_x
_atom_site_fract_y
_atom_site_fract_z
Si Si1 0.696853 0.111208 0.195859
Si Si2 0.451070 0.423770 0.375934
Si Si3 0.208576 0.825356 0.359788
Si Si4 0.065272 0.691742 0.567971
Si Si5 0.306438 0.038683 0.542332
Si Si6 0.006188 0.379617 0.734931
Si Si7 0.558438 0.598880 0.066986
O O1 0.762252 0.317426 0.175374
O O2 0.366070 0.021412 0.315510
O O3 0.564304 0.081880 0.341269
O O4 0.000000 0.000000 0.000000
O O5 0.414025 0.597601 0.378991
O O6 0.096725 0.272508 0.535061
O O7 0.341176 0.461492 0.514255
O O8 0.076639 0.740063 0.491508
O O9 0.565087 0.760035 0.127982
O O10 0.066361 0.859202 0.629734
O O11 0.719649 0.553275 0.762634
O O12 0.500000 0.000000 0.500000
O O13 0.093193 0.196182 0.687685
O O14 0.628920 0.354522 0.894002
O O15 0.918484 0.521196 0.849143
#
# Coordination Sequence:
#
# PCOD9006896 Si02
#       7
#     2   2   2   2   2   2   2
#     4  10  21  39  53  78 106 143 183 215 255 324
#     4   9  17  35  57  78 103 139 174 219 269 309
#     4   9  17  33  56  79 108 131 171 224 271 305
#     4   9  18  33  55  78 107 133 175 218 264 312
#     4  10  21  40  50  74 112 149 173 211 268 314
#     4   8  17  33  54  74 112 132 172 220 257 313
#     4   9  16  33  55  86  99 130 180 220 267 306
#
# _framework density 23.782449
#
# number of rings (size 3 to 8) (size 9 to 14) (size 15 to 20)
#    0.000    3.143    0.000    2.143    0.000    1.714 
#   18.000    5.000    0.000    0.000    0.000    0.000 
#    0.000    0.000    0.000    0.000    0.000    0.000 
#
# Total GULP energy -77984.476941 kJ/mol
# GULP energy per Si atom -5570.319781 kJ/mol
# Density = 2.372832 g / cm^3
# Si number density = 23.782449 Si / 1000 Ang^3
#
#
#
# Elastic Constant Matrix: (Units=GPa)
#
#
# Indices 1 2 3 4 5 6 
#
# 1 95.3426 17.0755 20.3006 11.5540 11.1675 5.9278
# 2 17.0755 73.9120 1.1530 23.1279 14.1687 -2.0929
# 3 20.3006 1.1530 58.7827 26.4826 1.6417 3.4441
# 4 11.5540 23.1279 26.4826 32.4858 6.7123 -0.9360
# 5 11.1675 14.1687 1.6417 6.7123 28.7793 11.5623
# 6 5.9278 -2.0929 3.4441 -0.9360 11.5623 44.8815
#
#
#
# Elastic Compliance Matrix: (Units=1/GPa)
#
#
# Indices 1 2 3 4 5 6 
#
# 1 0.012243 -0.002961 -0.005306 0.002787 -0.003483 -0.000393
# 2 -0.002961 0.022132 0.010608 -0.022091 -0.005867 0.001660
# 3 -0.005306 0.010608 0.034293 -0.034594 0.004256 -0.003254
# 4 0.002787 -0.022091 -0.034594 0.075466 -0.007775 0.004833
# 5 -0.003483 -0.005867 0.004256 -0.007775 0.045376 -0.011992
# 6 -0.000393 0.001660 -0.003254 0.004833 -0.011992 0.025850
#
#
# Mechanical properties :
#
#
# Convention : Reuss Voigt Hill
#
# Bulk Modulus (GPa) = 13.63328 33.89951 23.76640
# Shear Modulus (GPa) = 21.26496 33.86319 27.56407
#
# Velocity S-wave (km/s) = 2.99347 3.77752 3.40812
# Velocity P-wave (km/s) = 4.20628 5.77158 5.04995
#
# Compressibility (1/GPa) = 0.07334991
#
# Stress axis : x y z
#
# Youngs Moduli (GPa) = 81.67880 45.18247 29.16048
#
# Poissons Ratio (x) = 0.13380 0.15471
# Poissons Ratio (y) = 0.24188 -0.30932
# Poissons Ratio (z) = 0.43335 -0.47928
#
# Static dielectric constant tensor:
#      x y z
#    x 1.995830 0.033960 -0.130110 
#    y 0.033960 1.961830 0.063260 
#    z -0.130110 0.063260 2.086180 
# 
# From -- ./inp_files/224528.got.cif
#   From: 2010.05.17/outbox.cif.g08.bks.cpg/sg2_113_cif.got.tgz:224528.got - 2010.06.03 11:33:40.
