data_PCOD9006682
_publ_section_title
;
Structure prediction by ZEFSAII (Michael W. Deem and Ramdas Pophale) SiO2 
 PCOD9006682
Probable space group: P -1
;
_chemical_formula_sum "Si O2"
_cell_formula_units_Z 14
_cell_length_a 6.974376
_cell_length_b 9.470112
_cell_length_c 12.139713
_cell_angle_alpha 120.173604
_cell_angle_beta 125.804476
_cell_angle_gamma 51.711024
_cell_volume 497.881065
_symmetry_space_group_name_H-M "P -1"
_symmetry_group_IT_number 2
_symmetry_cell_setting 'triclinic'
loop_
_space_group_symop_operation_xyz
x,y,z
-x,-y,-z
loop_
_atom_site_type_symbol
_atom_site_label
_atom_site_fract_x
_atom_site_fract_y
_atom_site_fract_z
Si Si1 0.784463 0.690328 0.451000
Si Si2 0.536149 0.192145 0.996732
Si Si3 0.073337 0.603122 0.186574
Si Si4 0.307924 0.201064 0.209742
Si Si5 0.624484 0.292473 0.835962
Si Si6 0.639017 0.287588 0.507516
Si Si7 0.997818 0.122153 0.267700
O O1 0.666691 0.676564 0.288873
O O2 0.529157 0.743281 0.463266
O O3 0.917158 0.824053 0.566877
O O4 0.692880 0.191547 0.159176
O O5 0.839830 0.092213 0.787287
O O6 0.642599 0.977044 0.914445
O O7 0.780814 0.712756 0.081308
O O8 0.629909 0.283798 0.965610
O O9 0.154589 0.399267 0.178428
O O10 0.286838 0.579682 0.152943
O O11 0.110002 0.720933 0.345651
O O12 0.584893 0.177505 0.348238
O O13 0.120932 0.206122 0.250959
O O14 0.500000 0.500000 0.500000
O O15 0.000000 0.500000 0.500000
#
# Coordination Sequence:
#
# PCOD9006682 Si02
#       7
#     2   2   2   2   2   2   2
#     4  10  21  38  67  99 124 168 224 274 330 391
#     4  11  24  43  70  94 137 187 211 266 350 393
#     4  10  22  41  64  99 138 168 229 278 319 398
#     4   9  19  40  65  94 132 179 220 274 329 394
#     4  10  22  43  68  98 130 172 227 276 324 394
#     4   8  17  35  60  89 132 159 213 282 313 379
#     4  10  22  44  64  95 139 172 217 277 329 399
#
# _framework density 28.119167000000001
#
# number of rings (size 3 to 8) (size 9 to 14) (size 15 to 20)
#    0.000    2.286    0.000    2.143    6.000    2.857 
#   10.286    2.857    3.143    0.000    0.000    0.000 
#    0.000    0.000    0.000    0.000    0.000    0.000 
#
# Total GULP energy -78516.737442 kJ/mol
# GULP energy per Si atom -5608.338389 kJ/mol
# Density = 2.805517 g / cm^3
# Si number density = 28.119167 Si / 1000 Ang^3
#
#
#
# Elastic Constant Matrix: (Units=GPa)
#
#
# Indices 1 2 3 4 5 6 
#
# 1 130.7902 44.0004 46.7768 -15.2950 34.4225 -5.6186
# 2 44.0004 129.0282 33.1071 -5.4512 14.0475 -9.5964
# 3 46.7768 33.1071 165.2223 -29.1795 31.7051 -12.3424
# 4 -15.2950 -5.4512 -29.1795 50.9157 -1.4050 4.8643
# 5 34.4225 14.0475 31.7051 -1.4050 53.8636 -16.0995
# 6 -5.6186 -9.5964 -12.3424 4.8643 -16.0995 63.6627
#
#
#
# Elastic Compliance Matrix: (Units=1/GPa)
#
#
# Indices 1 2 3 4 5 6 
#
# 1 0.010690 -0.002742 -0.001054 0.002279 -0.005832 -0.001323
# 2 -0.002742 0.008985 -0.001121 -0.000593 0.000362 0.001032
# 3 -0.001054 -0.001121 0.007986 0.004034 -0.003610 0.000065
# 4 0.002279 -0.000593 0.004034 0.022641 -0.003608 -0.001749
# 5 -0.005832 0.000362 -0.003610 -0.003608 0.025924 0.005672
# 6 -0.001323 0.001032 0.000065 -0.001749 0.005672 0.017327
#
#
# Mechanical properties :
#
#
# Convention : Reuss Voigt Hill
#
# Bulk Modulus (GPa) = 56.09901 74.75658 65.42779
# Shear Modulus (GPa) = 45.73336 53.76551 49.74944
#
# Velocity S-wave (km/s) = 4.03726 4.37745 4.21079
# Velocity P-wave (km/s) = 6.45959 7.22446 6.85271
#
# Compressibility (1/GPa) = 0.01782563
#
# Stress axis : x y z
#
# Youngs Moduli (GPa) = 93.54570 111.29259 125.22634
#
# Poissons Ratio (x) = 0.30518 0.13202
# Poissons Ratio (y) = 0.25651 0.14041
# Poissons Ratio (z) = 0.09862 0.12478
#
# Static dielectric constant tensor:
#      x y z
#    x 2.234680 0.019240 -0.035760 
#    y 0.019240 2.129490 0.042020 
#    z -0.035760 0.042020 2.273350 
# 
# From -- ./inp_files/496908.got.cif
#   From: 2010.05.17/outbox.cif.g08.bks.cpg/sg2_249_cif.got.tgz:496908.got - 2010.06.03 11:33:40.
