data_PCOD9006309
_publ_section_title
;
Structure prediction by ZEFSAII (Michael W. Deem and Ramdas Pophale) SiO2 
 PCOD9006309
Probable space group: P -1
;
_chemical_formula_sum "Si O2"
_cell_formula_units_Z 14
_cell_length_a 14.645768
_cell_length_b 6.166961
_cell_length_c 27.479980
_cell_angle_alpha 48.613073
_cell_angle_beta 162.719058
_cell_angle_gamma 130.706117
_cell_volume 550.729094
_symmetry_space_group_name_H-M "P -1"
_symmetry_group_IT_number 2
_symmetry_cell_setting 'triclinic'
loop_
_space_group_symop_operation_xyz
x,y,z
-x,-y,-z
loop_
_atom_site_type_symbol
_atom_site_label
_atom_site_fract_x
_atom_site_fract_y
_atom_site_fract_z
Si Si1 0.799612 0.711884 0.927519
Si Si2 0.138793 0.531330 0.270568
Si Si3 0.740826 0.907471 0.522208
Si Si4 0.093789 0.180230 0.571836
Si Si5 0.264976 0.246367 0.896421
Si Si6 0.375946 0.408881 0.248062
Si Si7 0.538807 0.375448 0.922609
O O1 0.682300 0.758515 0.807326
O O2 0.518158 0.595220 0.835744
O O3 0.041554 0.466351 0.088550
O O4 0.000000 0.000000 0.000000
O O5 0.468574 0.668084 0.399651
O O6 0.149469 0.239716 0.350874
O O7 0.043751 0.757305 0.229780
O O8 0.858427 0.490612 0.096037
O O9 0.595335 0.207383 0.417527
O O10 0.989490 0.978420 0.595139
O O11 0.449233 0.284231 0.724739
O O12 0.000000 0.500000 0.500000
O O13 0.000000 0.000000 0.500000
O O14 0.411513 0.946714 0.020882
O O15 0.500000 0.500000 0.000000
O O16 0.259167 0.333577 0.824192
#
# Coordination Sequence:
#
# PCOD9006309 Si02
#       7
#     2   2   2   2   2   2   2
#     4  11  24  40  68  98 128 178 223 288 345 411
#     4  10  21  40  65  94 129 172 216 277 339 410
#     4  10  22  44  63  94 133 172 225 274 344 410
#     4  10  24  44  70  98 137 187 229 284 341 411
#     4   9  20  39  61  91 125 163 208 270 333 397
#     4  10  24  43  64  94 137 172 230 284 343 408
#     4  10  21  38  65  94 128 162 222 272 342 405
#
# _framework density 25.420846000000001
#
# number of rings (size 3 to 8) (size 9 to 14) (size 15 to 20)
#    0.000    2.000    0.000    1.714    6.000    8.000 
#    5.143    2.143    0.000    0.000    0.000    0.000 
#    0.000    0.000    0.000    0.000    0.000    0.000 
#
# Total GULP energy -78155.084774 kJ/mol
# GULP energy per Si atom -5582.506055 kJ/mol
# Density = 2.536299 g / cm^3
# Si number density = 25.420846 Si / 1000 Ang^3
#
#
#
# Elastic Constant Matrix: (Units=GPa)
#
#
# Indices 1 2 3 4 5 6 
#
# 1 112.1615 50.2610 9.5416 -4.0660 -5.5207 20.0563
# 2 50.2610 106.9080 5.0580 2.9295 0.5720 8.1886
# 3 9.5416 5.0580 49.9189 -2.8826 4.5085 -7.2887
# 4 -4.0660 2.9295 -2.8826 57.0743 5.2309 2.5852
# 5 -5.5207 0.5720 4.5085 5.2309 20.1110 8.8073
# 6 20.0563 8.1886 -7.2887 2.5852 8.8073 35.6384
#
#
#
# Elastic Compliance Matrix: (Units=1/GPa)
#
#
# Indices 1 2 3 4 5 6 
#
# 1 0.014074 -0.005730 -0.004321 0.000688 0.009102 -0.009787
# 2 -0.005730 0.011988 0.000196 -0.000861 -0.002226 0.001123
# 3 -0.004321 0.000196 0.023354 0.001434 -0.011092 0.009800
# 4 0.000688 -0.000861 0.001434 0.018129 -0.004814 -0.000021
# 5 0.009102 -0.002226 -0.011092 -0.004814 0.066031 -0.022849
# 6 -0.009787 0.001123 0.009800 -0.000021 -0.022849 0.040962
#
#
# Mechanical properties :
#
#
# Convention : Reuss Voigt Hill
#
# Bulk Modulus (GPa) = 33.66351 44.30108 38.98229
# Shear Modulus (GPa) = 24.49175 36.17326 30.33251
#
# Velocity S-wave (km/s) = 3.10732 3.77633 3.45804
# Velocity P-wave (km/s) = 5.11323 6.03979 5.59572
#
# Compressibility (1/GPa) = 0.02970576
#
# Stress axis : x y z
#
# Youngs Moduli (GPa) = 71.05262 83.41673 42.81899
#
# Poissons Ratio (x) = 0.47799 0.18502
# Poissons Ratio (y) = 0.40714 -0.00839
# Poissons Ratio (z) = 0.30701 -0.01634
#
# Static dielectric constant tensor:
#      x y z
#    x 2.089540 -0.077650 0.021070 
#    y -0.077650 2.045070 -0.022500 
#    z 0.021070 -0.022500 2.112590 
# 
# From -- ./inp_files/70736.got.cif
#   From: 2010.05.17/outbox.cif.g08.bks.cpg/sg2_36_cif.got.tgz:70736.got - 2010.06.03 11:33:40.
