data_PCOD9006981
_publ_section_title
;
Structure prediction by ZEFSAII (Michael W. Deem and Ramdas Pophale) SiO2 
 PCOD9006981
Probable space group: P -1
;
_chemical_formula_sum "Si O2"
_cell_formula_units_Z 16
_cell_length_a 7.561551
_cell_length_b 16.887580
_cell_length_c 12.101863
_cell_angle_alpha 140.758379
_cell_angle_beta 101.469373
_cell_angle_gamma 52.760578
_cell_volume 657.130665
_symmetry_space_group_name_H-M "P -1"
_symmetry_group_IT_number 2
_symmetry_cell_setting 'triclinic'
loop_
_space_group_symop_operation_xyz
x,y,z
-x,-y,-z
loop_
_atom_site_type_symbol
_atom_site_label
_atom_site_fract_x
_atom_site_fract_y
_atom_site_fract_z
Si Si1 0.114823 0.956122 0.605892
Si Si2 0.223967 0.337669 0.935436
Si Si3 0.716017 0.957074 0.635647
Si Si4 0.515940 0.225250 0.346783
Si Si5 0.950256 0.601574 0.358977
Si Si6 0.819803 0.967834 0.920457
Si Si7 0.147626 0.558250 0.548899
Si Si8 0.630418 0.305364 0.841975
O O1 0.229550 0.907203 0.688906
O O2 0.332975 0.803879 0.379123
O O3 0.905340 0.949294 0.579776
O O4 0.928618 0.164435 0.772142
O O5 0.418033 0.120614 0.731754
O O6 0.444612 0.335166 0.942717
O O7 0.000000 0.500000 0.000000
O O8 0.065670 0.422996 0.122489
O O9 0.845657 0.755784 0.426812
O O10 0.743146 0.983116 0.798354
O O11 0.297563 0.289438 0.474617
O O12 0.416477 0.409639 0.489324
O O13 0.566498 0.118651 0.128919
O O14 0.178732 0.536683 0.397437
O O15 0.978820 0.767604 0.770120
O O16 0.000000 0.000000 0.000000
O O17 0.000000 0.500000 0.500000
O O18 0.500000 0.500000 0.000000
#
# Coordination Sequence:
#
# PCOD9006981 Si02
#       8
#     2   2   2   2   2   2   2   2
#     4  10  21  39  58  87 119 154 203 258 313 362
#     4  11  23  39  61  87 117 155 208 255 308 372
#     4  10  22  41  60  86 127 158 199 260 306 370
#     4  11  22  38  62  91 125 159 208 256 302 379
#     4  10  22  39  60  87 120 165 199 250 315 362
#     4  11  22  40  63  95 129 169 211 252 316 379
#     4   9  22  40  61  92 131 168 204 256 314 374
#     4  10  22  39  60  82 117 158 200 258 313 371
#
# _framework density 24.348279000000002
#
# number of rings (size 3 to 8) (size 9 to 14) (size 15 to 20)
#    0.000    1.750    1.250    2.250    0.000    9.500 
#    2.250    0.000    0.000    0.000    0.000    0.000 
#    0.000    0.000    0.000    0.000    0.000    0.000 
#
# Total GULP energy -89233.627209 kJ/mol
# GULP energy per Si atom -5577.101701 kJ/mol
# Density = 2.429286 g / cm^3
# Si number density = 24.348279 Si / 1000 Ang^3
#
#
#
# Elastic Constant Matrix: (Units=GPa)
#
#
# Indices 1 2 3 4 5 6 
#
# 1 52.7126 5.7203 21.9543 5.2041 -0.9802 1.7292
# 2 5.7203 150.8884 40.0424 37.7297 10.4952 -4.3487
# 3 21.9543 40.0424 126.2784 8.5318 -2.1168 11.4536
# 4 5.2041 37.7297 8.5318 47.8103 17.6070 3.1495
# 5 -0.9802 10.4952 -2.1168 17.6070 24.1028 1.7408
# 6 1.7292 -4.3487 11.4536 3.1495 1.7408 28.5588
#
#
#
# Elastic Compliance Matrix: (Units=1/GPa)
#
#
# Indices 1 2 3 4 5 6 
#
# 1 0.020750 0.000830 -0.003662 -0.003202 0.002461 0.000542
# 2 0.000830 0.009241 -0.002852 -0.007443 0.000961 0.003263
# 3 -0.003662 -0.002852 0.009854 0.000465 0.001932 -0.004333
# 4 -0.003202 -0.007443 0.000465 0.035622 -0.022605 -0.003676
# 5 0.002461 0.000961 0.001932 -0.022605 0.057984 -0.001819
# 6 0.000542 0.003263 -0.004333 -0.003676 -0.001819 0.037734
#
#
# Mechanical properties :
#
#
# Convention : Reuss Voigt Hill
#
# Bulk Modulus (GPa) = 35.11481 51.70149 43.40815
# Shear Modulus (GPa) = 26.03554 37.57186 31.80370
#
# Velocity S-wave (km/s) = 3.27356 3.93249 3.61806
# Velocity P-wave (km/s) = 5.36110 6.47299 5.94311
#
# Compressibility (1/GPa) = 0.02847801
#
# Stress axis : x y z
#
# Youngs Moduli (GPa) = 48.19238 108.21353 101.48129
#
# Poissons Ratio (x) = -0.08987 0.37167
# Poissons Ratio (y) = -0.04002 0.28939
# Poissons Ratio (z) = 0.17650 0.30859
#
# Static dielectric constant tensor:
#      x y z
#    x 1.832820 -0.049500 -0.510630 
#    y -0.049500 2.107920 0.054710 
#    z -0.510630 0.054710 0.876480 
# 
# From -- ./inp_files/81266.got.cif
#   From: 2010.05.17/outbox.cif.g08.bks.cpg/sg2_41_cif.got.tgz:81266.got - 2010.06.03 11:33:40.
