data_PCOD9006795
_publ_section_title
;
Structure prediction by ZEFSAII (Michael W. Deem and Ramdas Pophale) SiO2 
 PCOD9006795
Probable space group: P -1
;
_chemical_formula_sum "Si O2"
_cell_formula_units_Z 14
_cell_length_a 15.115947
_cell_length_b 7.889594
_cell_length_c 9.603034
_cell_angle_alpha 88.384114
_cell_angle_beta 146.358387
_cell_angle_gamma 97.653224
_cell_volume 621.640924
_symmetry_space_group_name_H-M "P -1"
_symmetry_group_IT_number 2
_symmetry_cell_setting 'triclinic'
loop_
_space_group_symop_operation_xyz
x,y,z
-x,-y,-z
loop_
_atom_site_type_symbol
_atom_site_label
_atom_site_fract_x
_atom_site_fract_y
_atom_site_fract_z
Si Si1 0.083132 0.804734 0.980071
Si Si2 0.750656 0.836266 0.688054
Si Si3 0.484464 0.391598 0.786962
Si Si4 0.368997 0.823680 0.823227
Si Si5 0.152956 0.938767 0.769115
Si Si6 0.293432 0.660911 0.442720
Si Si7 0.350369 0.287102 0.156074
O O1 0.143610 0.651811 0.144017
O O2 0.209766 0.972007 0.201934
O O3 0.101455 0.818647 0.838764
O O4 0.904922 0.824539 0.794763
O O5 0.580743 0.780655 0.385399
O O6 0.736429 0.715174 0.809468
O O7 0.330384 0.485897 0.565134
O O8 0.629695 0.532602 0.905888
O O9 0.536151 0.326959 0.003072
O O10 0.236680 0.839867 0.765668
O O11 0.292082 0.784848 0.571419
O O12 0.500000 0.000000 0.000000
O O13 0.000000 0.000000 0.500000
O O14 0.269522 0.117992 0.967635
O O15 0.460434 0.723663 0.573700
#
# Coordination Sequence:
#
# PCOD9006795 Si02
#       7
#     2   2   2   2   2   2   2
#     4  10  24  41  64 100 127 175 216 271 317 388
#     4  10  21  38  69  92 134 169 219 261 329 376
#     4  10  23  40  67  96 132 167 218 269 324 385
#     4  12  23  41  70  95 126 175 218 266 326 384
#     4  11  26  43  66  96 134 168 223 267 324 382
#     4  10  23  40  64  96 133 162 221 263 325 379
#     4   9  22  41  64  97 131 164 218 274 316 388
#
# _framework density 22.521039999999999
#
# number of rings (size 3 to 8) (size 9 to 14) (size 15 to 20)
#    0.857    0.857    1.429    1.714   10.000    1.714 
#    0.000    0.714    0.000    0.000    0.000    0.000 
#    0.000    0.000    0.000    0.000    0.000    0.000 
#
# Total GULP energy -78146.003009 kJ/mol
# GULP energy per Si atom -5581.857358 kJ/mol
# Density = 2.246978 g / cm^3
# Si number density = 22.521040 Si / 1000 Ang^3
#
#
#
# Elastic Constant Matrix: (Units=GPa)
#
#
# Indices 1 2 3 4 5 6 
#
# 1 122.3607 25.3212 8.9248 -16.1416 -16.5024 7.6817
# 2 25.3212 81.0696 27.3055 -13.4880 -1.6277 16.0243
# 3 8.9248 27.3055 60.6718 -24.9556 -13.2011 7.1536
# 4 -16.1416 -13.4880 -24.9556 45.5342 2.6058 -1.5875
# 5 -16.5024 -1.6277 -13.2011 2.6058 28.0495 -7.0301
# 6 7.6817 16.0243 7.1536 -1.5875 -7.0301 28.6025
#
#
#
# Elastic Compliance Matrix: (Units=1/GPa)
#
#
# Indices 1 2 3 4 5 6 
#
# 1 0.010095 -0.003508 0.003161 0.003887 0.006960 0.000390
# 2 -0.003508 0.017667 -0.008069 -0.000336 -0.006979 -0.008671
# 3 0.003161 -0.008069 0.027978 0.013317 0.013506 0.000733
# 4 0.003887 -0.000336 0.013317 0.030187 0.005436 -0.001175
# 5 0.006960 -0.006979 0.013506 0.005436 0.047883 0.010733
# 6 0.000390 -0.008671 0.000733 -0.001175 0.010733 0.042105
#
#
# Mechanical properties :
#
#
# Convention : Reuss Voigt Hill
#
# Bulk Modulus (GPa) = 25.70182 43.02279 34.36230
# Shear Modulus (GPa) = 24.30543 33.94061 29.12302
#
# Velocity S-wave (km/s) = 3.28873 3.88630 3.59994
# Velocity P-wave (km/s) = 5.08509 6.26759 5.70705
#
# Compressibility (1/GPa) = 0.03890775
#
# Stress axis : x y z
#
# Youngs Moduli (GPa) = 99.05880 56.60393 35.74190
#
# Poissons Ratio (x) = 0.19859 -0.11299
# Poissons Ratio (y) = 0.34755 0.28840
# Poissons Ratio (z) = -0.31316 0.45673
#
# Static dielectric constant tensor:
#      x y z
#    x 1.842500 -0.043560 -0.017270 
#    y -0.043560 1.938060 0.001620 
#    z -0.017270 0.001620 1.823060 
# 
# From -- ./inp_files/298431.got.cif
#   From: 2010.05.17/outbox.cif.g08.bks.cpg/sg2_150_cif.got.tgz:298431.got - 2010.06.03 11:33:40.
