data_PCOD9006387
_publ_section_title
;
Structure prediction by ZEFSAII (Michael W. Deem and Ramdas Pophale) SiO2 
 PCOD9006387
Probable space group: P -1
;
_chemical_formula_sum "Si O2"
_cell_formula_units_Z 14
_cell_length_a 12.139191
_cell_length_b 11.021817
_cell_length_c 10.993711
_cell_angle_alpha 56.608630
_cell_angle_beta 129.719672
_cell_angle_gamma 83.436009
_cell_volume 649.993813
_symmetry_space_group_name_H-M "P -1"
_symmetry_group_IT_number 2
_symmetry_cell_setting 'triclinic'
loop_
_space_group_symop_operation_xyz
x,y,z
-x,-y,-z
loop_
_atom_site_type_symbol
_atom_site_label
_atom_site_fract_x
_atom_site_fract_y
_atom_site_fract_z
Si Si1 0.116114 0.670164 0.567914
Si Si2 0.512752 0.796027 0.873287
Si Si3 0.980118 0.949028 0.824959
Si Si4 0.023706 0.141381 0.384526
Si Si5 0.642693 0.959790 0.015136
Si Si6 0.434091 0.880790 0.502166
Si Si7 0.407250 0.725262 0.333608
O O1 0.089084 0.683694 0.688274
O O2 0.891154 0.773474 0.312417
O O3 0.122631 0.827606 0.427831
O O4 0.327550 0.428359 0.821343
O O5 0.600204 0.892281 0.904916
O O6 0.504882 0.759978 0.746663
O O7 0.272672 0.981901 0.643365
O O8 0.062014 0.802556 0.843547
O O9 0.814616 0.962234 0.759253
O O10 0.161364 0.869468 0.084413
O O11 0.000000 0.000000 0.500000
O O12 0.576454 0.173406 0.822451
O O13 0.500000 0.000000 0.000000
O O14 0.498799 0.742120 0.505707
O O15 0.500000 0.000000 0.500000
O O16 0.500000 0.500000 0.500000
#
# Coordination Sequence:
#
# PCOD9006387 Si02
#       7
#     2   2   2   2   2   2   2
#     4  10  21  38  65  98 133 174 219 276 344 400
#     4  11  22  39  67  99 131 174 222 273 347 395
#     4   9  22  41  64  92 133 174 222 274 330 402
#     4   9  19  36  58  93 134 167 215 279 328 397
#     4  11  22  43  67  97 141 169 221 292 335 391
#     4  11  23  44  66  92 135 175 222 281 327 402
#     4  11  25  45  68  97 133 184 226 266 341 412
#
# _framework density 21.538667
#
# number of rings (size 3 to 8) (size 9 to 14) (size 15 to 20)
#    0.000    1.714    2.857    0.857    2.000    6.286 
#    2.571    0.714    0.000    0.000    0.000    0.000 
#    0.000    0.000    0.000    0.000    0.000    0.000 
#
# Total GULP energy -78002.270709 kJ/mol
# GULP energy per Si atom -5571.590765 kJ/mol
# Density = 2.148964 g / cm^3
# Si number density = 21.538667 Si / 1000 Ang^3
#
#
#
# Elastic Constant Matrix: (Units=GPa)
#
#
# Indices 1 2 3 4 5 6 
#
# 1 81.3187 31.0561 21.4770 1.3493 15.2686 22.6781
# 2 31.0561 122.1726 44.4325 16.4412 2.1424 14.4896
# 3 21.4770 44.4325 72.1088 -5.5037 5.1887 15.3391
# 4 1.3493 16.4412 -5.5037 39.9794 7.0156 3.2687
# 5 15.2686 2.1424 5.1887 7.0156 15.5967 6.8993
# 6 22.6781 14.4896 15.3391 3.2687 6.8993 36.0243
#
#
#
# Elastic Compliance Matrix: (Units=1/GPa)
#
#
# Indices 1 2 3 4 5 6 
#
# 1 0.019141 -0.004389 0.000199 0.004790 -0.017019 -0.007544
# 2 -0.004389 0.013123 -0.007993 -0.007874 0.008726 -0.000068
# 3 0.000199 -0.007993 0.020957 0.007873 -0.007335 -0.005143
# 4 0.004790 -0.007874 0.007873 0.032870 -0.019969 -0.002358
# 5 -0.017019 0.008726 -0.007335 -0.019969 0.093557 -0.005779
# 6 -0.007544 -0.000068 -0.005143 -0.002358 -0.005779 0.036046
#
#
# Mechanical properties :
#
#
# Convention : Reuss Voigt Hill
#
# Bulk Modulus (GPa) = 34.65861 52.17014 43.41438
# Shear Modulus (GPa) = 20.02572 30.22903 25.12738
#
# Velocity S-wave (km/s) = 3.05250 3.75037 3.41928
# Velocity P-wave (km/s) = 5.34322 6.55956 5.98238
#
# Compressibility (1/GPa) = 0.02885286
#
# Stress axis : x y z
#
# Youngs Moduli (GPa) = 52.24388 76.20428 47.71731
#
# Poissons Ratio (x) = 0.33448 -0.00947
# Poissons Ratio (y) = 0.22931 0.38141
# Poissons Ratio (z) = -0.01037 0.60911
#
# Static dielectric constant tensor:
#      x y z
#    x 2.289730 0.029640 0.593390 
#    y 0.029640 1.879660 0.146750 
#    z 0.593390 0.146750 2.583970 
# 
# From -- ./inp_files/257115.got.cif
#   From: 2010.05.17/outbox.cif.g08.bks.cpg/sg2_129_cif.got.tgz:257115.got - 2010.06.03 11:33:40.
