data_PCOD9006461
_publ_section_title
;
Structure prediction by ZEFSAII (Michael W. Deem and Ramdas Pophale) SiO2 
 PCOD9006461
Probable space group: P -1
;
_chemical_formula_sum "Si O2"
_cell_formula_units_Z 12
_cell_length_a 13.013250
_cell_length_b 8.429787
_cell_length_c 15.315657
_cell_angle_alpha 74.097997
_cell_angle_beta 161.464033
_cell_angle_gamma 112.479255
_cell_volume 470.581757
_symmetry_space_group_name_H-M "P -1"
_symmetry_group_IT_number 2
_symmetry_cell_setting 'triclinic'
loop_
_space_group_symop_operation_xyz
x,y,z
-x,-y,-z
loop_
_atom_site_type_symbol
_atom_site_label
_atom_site_fract_x
_atom_site_fract_y
_atom_site_fract_z
Si Si1 0.224011 0.790316 0.206596
Si Si2 0.466950 0.777935 0.593567
Si Si3 0.022988 0.093417 0.596358
Si Si4 0.665056 0.402696 0.997587
Si Si5 0.670777 0.343270 0.304446
Si Si6 0.289792 0.279016 0.526002
O O1 0.249888 0.738187 0.335325
O O2 0.417937 0.700742 0.313912
O O3 0.417681 0.008652 0.326700
O O4 0.822233 0.746550 0.865109
O O5 0.317306 0.677429 0.578599
O O6 0.405393 0.258934 0.880472
O O7 0.710222 0.164045 0.332997
O O8 0.000000 0.000000 0.500000
O O9 0.948449 0.936103 0.629334
O O10 0.642859 0.592339 0.975106
O O11 0.473939 0.344232 0.758307
O O12 0.023176 0.374231 0.282200
O O13 0.000000 0.500000 0.500000
#
# Coordination Sequence:
#
# PCOD9006461 Si02
#       6
#     2   2   2   2   2   2
#     4  10  21  38  66  90 126 161 218 259 300 367
#     4  10  21  40  61  97 120 166 210 261 310 367
#     4   9  19  39  64  92 121 165 213 261 305 371
#     4  10  23  37  61  92 131 161 206 255 322 371
#     4  10  21  43  65  95 132 167 204 264 324 379
#     4  11  20  41  61  93 122 169 211 257 303 370
#
# _framework density 25.500351999999999
#
# number of rings (size 3 to 8) (size 9 to 14) (size 15 to 20)
#    0.000    2.000    1.667    1.500    0.000    1.333 
#    0.000   29.167    0.000    0.000    0.000    0.000 
#    0.000    0.000    0.000    0.000    0.000    0.000 
#
# Total GULP energy -67179.748886 kJ/mol
# GULP energy per Si atom -5598.312407 kJ/mol
# Density = 2.544231 g / cm^3
# Si number density = 25.500352 Si / 1000 Ang^3
#
#
#
# Elastic Constant Matrix: (Units=GPa)
#
#
# Indices 1 2 3 4 5 6 
#
# 1 113.3609 49.7849 43.5625 -18.6315 39.7481 8.9486
# 2 49.7849 139.1319 48.9862 -47.5989 18.8099 -0.7346
# 3 43.5625 48.9862 169.7320 -49.2527 21.9257 -14.5767
# 4 -18.6315 -47.5989 -49.2527 44.3730 -12.1440 14.2110
# 5 39.7481 18.8099 21.9257 -12.1440 43.6177 -13.2280
# 6 8.9486 -0.7346 -14.5767 14.2110 -13.2280 50.9434
#
#
#
# Elastic Compliance Matrix: (Units=1/GPa)
#
#
# Indices 1 2 3 4 5 6 
#
# 1 0.017125 -0.003662 -0.002318 -0.001162 -0.015431 -0.007407
# 2 -0.003662 0.013095 0.001170 0.014827 0.000358 -0.002876
# 3 -0.002318 0.001170 0.009195 0.010427 -0.000072 0.000128
# 4 -0.001162 0.014827 0.010427 0.053370 0.000867 -0.011261
# 5 -0.015431 0.000358 -0.000072 0.000867 0.041092 0.013123
# 6 -0.007407 -0.002876 0.000128 -0.011261 0.013123 0.027475
#
#
# Mechanical properties :
#
#
# Convention : Reuss Voigt Hill
#
# Bulk Modulus (GPa) = 33.56408 78.54355 56.05381
# Shear Modulus (GPa) = 27.63912 46.44625 37.04268
#
# Velocity S-wave (km/s) = 3.29579 4.27241 3.81548
# Velocity P-wave (km/s) = 5.26059 7.43006 6.43738
#
# Compressibility (1/GPa) = 0.02979375
#
# Stress axis : x y z
#
# Youngs Moduli (GPa) = 58.39520 76.36678 108.75500
#
# Poissons Ratio (x) = 0.27964 0.25211
# Poissons Ratio (y) = 0.21383 -0.12721
# Poissons Ratio (z) = 0.13537 -0.08933
#
# Static dielectric constant tensor:
#      x y z
#    x 1.957470 0.030390 0.009580 
#    y 0.030390 2.106080 0.078590 
#    z 0.009580 0.078590 2.007770 
# 
# From -- ./inp_files/24241.got.cif
#   From: 2010.05.17/outbox.cif.g08.bks.cpg/sg2_13_cif.got.tgz:24241.got - 2010.06.03 11:33:40.
