data_PCOD9006870
_publ_section_title
;
Structure prediction by ZEFSAII (Michael W. Deem and Ramdas Pophale) SiO2 
 PCOD9006870
Probable space group: P -1
;
_chemical_formula_sum "Si O2"
_cell_formula_units_Z 14
_cell_length_a 9.206623
_cell_length_b 8.508756
_cell_length_c 9.303632
_cell_angle_alpha 92.705519
_cell_angle_beta 110.406376
_cell_angle_gamma 122.131454
_cell_volume 553.042837
_symmetry_space_group_name_H-M "P -1"
_symmetry_group_IT_number 2
_symmetry_cell_setting 'triclinic'
loop_
_space_group_symop_operation_xyz
x,y,z
-x,-y,-z
loop_
_atom_site_type_symbol
_atom_site_label
_atom_site_fract_x
_atom_site_fract_y
_atom_site_fract_z
Si Si1 0.293191 0.325967 0.862028
Si Si2 0.164937 0.392570 0.546410
Si Si3 0.362913 0.001428 0.314604
Si Si4 0.391793 0.681612 0.385455
Si Si5 0.174250 0.931680 0.947295
Si Si6 0.760467 0.217078 0.298366
Si Si7 0.142267 0.435814 0.053128
O O1 0.257897 0.321446 0.680672
O O2 0.231996 0.120540 0.890476
O O3 0.500000 0.500000 0.000000
O O4 0.160152 0.371369 0.901510
O O5 0.286573 0.502327 0.450857
O O6 0.184776 0.569207 0.648019
O O7 0.945080 0.233221 0.422086
O O8 0.409726 0.157434 0.459671
O O9 0.564851 0.075133 0.310157
O O10 0.292004 0.796824 0.351207
O O11 0.244682 0.987632 0.137637
O O12 0.344466 0.598364 0.204443
O O13 0.262922 0.842574 0.878992
O O14 0.955341 0.752542 0.885920
O O15 0.000000 0.500000 0.000000
#
# Coordination Sequence:
#
# PCOD9006870 Si02
#       7
#     2   2   2   2   2   2   2
#     4  12  29  46  68 104 150 184 225 287 358 418
#     4  10  22  43  67 101 138 185 230 287 340 418
#     4  10  22  37  70 107 137 173 234 296 339 402
#     4  10  21  41  66 102 133 174 237 291 334 394
#     4  12  24  44  68 103 143 183 229 284 358 415
#     4  10  21  38  72 101 136 178 241 286 339 404
#     4  12  25  46  77 100 135 187 243 281 340 418
#
# _framework density 25.314495999999998
#
# number of rings (size 3 to 8) (size 9 to 14) (size 15 to 20)
#    0.000    1.143    2.857    3.429    6.000    0.571 
#    0.000    4.286    0.000    0.000    0.000    0.000 
#    0.000    0.000    0.000    0.000    0.000    0.000 
#
# Total GULP energy -78277.273219 kJ/mol
# GULP energy per Si atom -5591.233801 kJ/mol
# Density = 2.525688 g / cm^3
# Si number density = 25.314496 Si / 1000 Ang^3
#
#
#
# Elastic Constant Matrix: (Units=GPa)
#
#
# Indices 1 2 3 4 5 6 
#
# 1 39.5230 -5.5353 -13.3955 2.1175 0.1796 3.2833
# 2 -5.5353 97.2066 44.6226 -12.3437 13.5975 5.2729
# 3 -13.3955 44.6226 157.1826 0.6215 5.7256 -7.0735
# 4 2.1175 -12.3437 0.6215 53.2208 -1.6765 -4.6232
# 5 0.1796 13.5975 5.7256 -1.6765 37.9581 6.3124
# 6 3.2833 5.2729 -7.0735 -4.6232 6.3124 23.2495
#
#
#
# Elastic Compliance Matrix: (Units=1/GPa)
#
#
# Indices 1 2 3 4 5 6 
#
# 1 0.026402 0.000680 0.001908 -0.001224 -0.000127 -0.003511
# 2 0.000680 0.012970 -0.003625 0.002682 -0.003544 -0.002645
# 3 0.001908 -0.003625 0.007698 -0.000771 -0.000379 0.002844
# 4 -0.001224 0.002682 -0.000771 0.019748 -0.000532 0.003401
# 5 -0.000127 -0.003544 -0.000379 -0.000532 0.028852 -0.007233
# 6 -0.003511 -0.002645 0.002844 0.003401 -0.007233 0.047613
#
#
# Mechanical properties :
#
#
# Convention : Reuss Voigt Hill
#
# Bulk Modulus (GPa) = 22.22332 38.36621 30.29476
# Shear Modulus (GPa) = 31.18109 40.76704 35.97407
#
# Velocity S-wave (km/s) = 3.51343 4.01736 3.77382
# Velocity P-wave (km/s) = 5.02563 6.05868 5.56617
#
# Compressibility (1/GPa) = 0.04499778
#
# Stress axis : x y z
#
# Youngs Moduli (GPa) = 37.87643 77.10252 129.89567
#
# Poissons Ratio (x) = -0.05244 -0.24789
# Poissons Ratio (y) = -0.02576 0.47081
# Poissons Ratio (z) = -0.07228 0.27946
#
# Static dielectric constant tensor:
#      x y z
#    x 2.049950 0.002810 -0.006290 
#    y 0.002810 1.994690 -0.003290 
#    z -0.006290 -0.003290 2.008810 
# 
# From -- ./inp_files/238743.got.cif
#   From: 2010.05.17/outbox.cif.g08.bks.cpg/sg2_120_cif.got.tgz:238743.got - 2010.06.03 11:33:40.
