data_PCOD9006129
_publ_section_title
;
Structure prediction by ZEFSAII (Michael W. Deem and Ramdas Pophale) SiO2 
 PCOD9006129
Probable space group: P -1
;
_chemical_formula_sum "Si O2"
_cell_formula_units_Z 16
_cell_length_a 14.271925
_cell_length_b 7.603027
_cell_length_c 15.423739
_cell_angle_alpha 119.081438
_cell_angle_beta 140.775428
_cell_angle_gamma 38.695248
_cell_volume 631.191654
_symmetry_space_group_name_H-M "P -1"
_symmetry_group_IT_number 2
_symmetry_cell_setting 'triclinic'
loop_
_space_group_symop_operation_xyz
x,y,z
-x,-y,-z
loop_
_atom_site_type_symbol
_atom_site_label
_atom_site_fract_x
_atom_site_fract_y
_atom_site_fract_z
Si Si1 0.844335 0.473051 0.353047
Si Si2 0.412452 0.928493 0.038813
Si Si3 0.600004 0.609549 0.565731
Si Si4 0.397898 0.395884 0.083907
Si Si5 0.175392 0.233470 0.200211
Si Si6 0.384283 0.477117 0.638275
Si Si7 0.936151 0.941132 0.063355
Si Si8 0.861386 0.899967 0.684276
O O1 0.611501 0.746698 0.206408
O O2 0.787809 0.409772 0.384464
O O3 0.000000 0.500000 0.500000
O O4 0.979921 0.239066 0.316040
O O5 0.355770 0.211809 0.040060
O O6 0.487128 0.741215 0.960311
O O7 0.216741 0.999353 0.957932
O O8 0.500000 0.500000 0.500000
O O9 0.758160 0.602195 0.727892
O O10 0.691421 0.478025 0.503599
O O11 0.370850 0.954719 0.474745
O O12 0.545168 0.365232 0.252318
O O13 0.204447 0.744580 0.010096
O O14 0.071170 0.312698 0.239807
O O15 0.399979 0.878783 0.281069
O O16 0.037213 0.265415 0.034438
O O17 0.139857 0.872242 0.222729
#
# Coordination Sequence:
#
# PCOD9006129 Si02
#       8
#     2   2   2   2   2   2   2   2
#     4  12  22  38  67  98 129 176 227 272 332 396
#     4  11  22  39  64  98 139 175 215 275 340 390
#     4  11  25  45  66  93 135 178 224 274 338 407
#     4  10  21  38  64  98 127 177 218 269 332 402
#     4  10  21  42  66  87 126 179 217 261 339 398
#     4  10  21  40  68  89 127 175 221 261 342 393
#     4  11  21  41  69  93 133 176 225 271 336 393
#     4  11  23  40  66  97 128 172 225 273 334 392
#
# _framework density 25.348873999999999
#
# number of rings (size 3 to 8) (size 9 to 14) (size 15 to 20)
#    0.000    1.250    3.750    4.500    1.750    0.000 
#    2.250    5.625    0.000    0.000    0.000    0.000 
#    0.000    0.000    0.000    0.000    0.000    0.000 
#
# Total GULP energy -89547.290424 kJ/mol
# GULP energy per Si atom -5596.705651 kJ/mol
# Density = 2.529118 g / cm^3
# Si number density = 25.348874 Si / 1000 Ang^3
#
#
#
# Elastic Constant Matrix: (Units=GPa)
#
#
# Indices 1 2 3 4 5 6 
#
# 1 160.9384 35.4234 29.3168 22.5529 4.3883 -11.8338
# 2 35.4234 62.8869 41.6584 24.2733 -0.2452 -3.6379
# 3 29.3168 41.6584 130.1225 23.5814 26.6531 -2.8686
# 4 22.5529 24.2733 23.5814 33.5394 -0.8104 3.8851
# 5 4.3883 -0.2452 26.6531 -0.8104 36.2977 11.8406
# 6 -11.8338 -3.6379 -2.8686 3.8851 11.8406 42.9862
#
#
#
# Elastic Compliance Matrix: (Units=1/GPa)
#
#
# Indices 1 2 3 4 5 6 
#
# 1 0.007568 -0.003008 0.000431 -0.003594 -0.002246 0.002801
# 2 -0.003008 0.027004 -0.006610 -0.012854 0.004837 0.000846
# 3 0.000431 -0.006610 0.013043 -0.005404 -0.011091 0.003973
# 4 -0.003594 -0.012854 -0.005404 0.046568 0.008267 -0.008924
# 5 -0.002246 0.004837 -0.011091 0.008267 0.040363 -0.012814
# 6 0.002801 0.000846 0.003973 -0.008924 -0.012814 0.028707
#
#
# Mechanical properties :
#
#
# Convention : Reuss Voigt Hill
#
# Bulk Modulus (GPa) = 34.19931 62.97166 48.58548
# Shear Modulus (GPa) = 26.12676 39.06792 32.59734
#
# Velocity S-wave (km/s) = 3.21391 3.93008 3.58990
# Velocity P-wave (km/s) = 5.22428 6.74463 6.03254
#
# Compressibility (1/GPa) = 0.02924036
#
# Stress axis : x y z
#
# Youngs Moduli (GPa) = 132.13689 37.03141 76.66966
#
# Poissons Ratio (x) = 0.11139 -0.03304
# Poissons Ratio (y) = 0.39747 0.50680
# Poissons Ratio (z) = -0.05694 0.24478
#
# Static dielectric constant tensor:
#      x y z
#    x 2.028950 0.016990 -0.067390 
#    y 0.016990 2.047200 -0.066650 
#    z -0.067390 -0.066650 2.037910 
# 
# From -- ./inp_files/528960.got.cif
#   From: 2010.05.17/outbox.cif.g08.bks.cpg/sg2_265_cif.got.tgz:528960.got - 2010.06.03 11:33:40.
