data_PCOD9006384
_publ_section_title
;
Structure prediction by ZEFSAII (Michael W. Deem and Ramdas Pophale) SiO2 
 PCOD9006384
Probable space group: P -1
;
_chemical_formula_sum "Si O2"
_cell_formula_units_Z 16
_cell_length_a 6.761033
_cell_length_b 18.297725
_cell_length_c 11.560545
_cell_angle_alpha 153.639272
_cell_angle_beta 113.351257
_cell_angle_gamma 71.344378
_cell_volume 580.826707
_symmetry_space_group_name_H-M "P -1"
_symmetry_group_IT_number 2
_symmetry_cell_setting 'triclinic'
loop_
_space_group_symop_operation_xyz
x,y,z
-x,-y,-z
loop_
_atom_site_type_symbol
_atom_site_label
_atom_site_fract_x
_atom_site_fract_y
_atom_site_fract_z
Si Si1 0.238488 0.724850 0.466013
Si Si2 0.558710 0.149620 0.524831
Si Si3 0.337326 0.362771 0.210949
Si Si4 0.182629 0.018162 0.472398
Si Si5 0.691402 0.806377 0.802299
Si Si6 0.012757 0.623027 0.486414
Si Si7 0.624361 0.638941 0.044506
Si Si8 0.144445 0.926736 0.083976
O O1 0.260617 0.824745 0.494325
O O2 0.448906 0.804926 0.699629
O O3 0.036356 0.689409 0.454809
O O4 0.291503 0.539186 0.179639
O O5 0.618661 0.028667 0.468912
O O6 0.335067 0.067511 0.300162
O O7 0.534643 0.319472 0.830297
O O8 0.500000 0.500000 0.500000
O O9 0.312850 0.220387 0.098664
O O10 0.109201 0.446413 0.261951
O O11 0.432805 0.338620 0.072082
O O12 0.150031 0.904430 0.191615
O O13 0.203609 0.200817 0.681839
O O14 0.000000 0.000000 0.500000
O O15 0.787563 0.649130 0.534569
O O16 0.890042 0.946567 0.022585
O O17 0.171433 0.754156 0.782559
#
# Coordination Sequence:
#
# PCOD9006384 Si02
#       8
#     2   2   2   2   2   2   2   2
#     4  11  23  45  67 102 137 180 210 274 344 394
#     4  11  25  43  68  92 140 181 220 270 329 405
#     4  11  19  34  67  97 129 169 220 280 332 377
#     4  11  24  44  67  95 129 179 226 278 325 395
#     4  10  21  38  65  98 133 168 216 276 329 393
#     4   9  22  38  60 100 130 170 219 277 323 394
#     4  10  22  42  68  97 129 172 227 266 334 393
#     4   9  22  40  65  95 123 173 228 275 325 380
#
# _framework density 27.546942999999999
#
# number of rings (size 3 to 8) (size 9 to 14) (size 15 to 20)
#    0.750    1.000    2.500    3.000    3.500    2.000 
#    9.000    0.625    0.000    0.000    0.000    0.000 
#    0.000    0.000    0.000    0.000    0.000    0.000 
#
# Total GULP energy -89468.406007 kJ/mol
# GULP energy per Si atom -5591.775375 kJ/mol
# Density = 2.748425 g / cm^3
# Si number density = 27.546943 Si / 1000 Ang^3
#
#
#
# Elastic Constant Matrix: (Units=GPa)
#
#
# Indices 1 2 3 4 5 6 
#
# 1 111.0044 43.4938 8.2464 -15.8254 -5.7911 10.8917
# 2 43.4938 128.2980 26.1894 -2.7786 -4.4284 27.8253
# 3 8.2464 26.1894 91.4322 -2.9286 -19.0905 2.6592
# 4 -15.8254 -2.7786 -2.9286 43.9122 8.2860 -6.1750
# 5 -5.7911 -4.4284 -19.0905 8.2860 38.6124 -12.3416
# 6 10.8917 27.8253 2.6592 -6.1750 -12.3416 59.3094
#
#
#
# Elastic Compliance Matrix: (Units=1/GPa)
#
#
# Indices 1 2 3 4 5 6 
#
# 1 0.010982 -0.003741 0.000332 0.003650 0.000677 0.000245
# 2 -0.003741 0.010608 -0.003041 -0.001145 -0.002108 -0.004711
# 3 0.000332 -0.003041 0.013160 -0.000197 0.006954 0.002202
# 4 0.003650 -0.001145 -0.000197 0.025081 -0.004573 0.001535
# 5 0.000677 -0.002108 0.006954 -0.004573 0.032354 0.006809
# 6 0.000245 -0.004711 0.002202 0.001535 0.006809 0.020504
#
#
# Mechanical properties :
#
#
# Convention : Reuss Voigt Hill
#
# Bulk Modulus (GPa) = 45.76797 54.06598 49.91698
# Shear Modulus (GPa) = 37.63072 45.22049 41.42561
#
# Velocity S-wave (km/s) = 3.70003 4.05604 3.88212
# Velocity P-wave (km/s) = 5.90798 6.45017 6.18502
#
# Compressibility (1/GPa) = 0.02184934
#
# Stress axis : x y z
#
# Youngs Moduli (GPa) = 91.06219 94.27251 75.99047
#
# Poissons Ratio (x) = 0.35270 -0.02526
# Poissons Ratio (y) = 0.34069 0.23107
# Poissons Ratio (z) = -0.03027 0.28666
#
# Static dielectric constant tensor:
#      x y z
#    x 2.198660 -0.075790 -0.055040 
#    y -0.075790 2.138930 0.009020 
#    z -0.055040 0.009020 2.232120 
# 
# From -- ./inp_files/402543.got.cif
#   From: 2010.05.17/outbox.cif.g08.bks.cpg/sg2_202_cif.got.tgz:402543.got - 2010.06.03 11:33:40.
