data_PCOD9006025
_publ_section_title
;
Structure prediction by ZEFSAII (Michael W. Deem and Ramdas Pophale) SiO2 
 PCOD9006025
Probable space group: P -1
;
_chemical_formula_sum "Si O2"
_cell_formula_units_Z 15
_cell_length_a 7.578384
_cell_length_b 11.757953
_cell_length_c 6.724329
_cell_angle_alpha 79.399339
_cell_angle_beta 77.729112
_cell_angle_gamma 83.607545
_cell_volume 573.868392
_symmetry_space_group_name_H-M "P -1"
_symmetry_group_IT_number 2
_symmetry_cell_setting 'triclinic'
loop_
_space_group_symop_operation_xyz
x,y,z
-x,-y,-z
loop_
_atom_site_type_symbol
_atom_site_label
_atom_site_fract_x
_atom_site_fract_y
_atom_site_fract_z
Si Si1 0.191737 0.027836 0.546652
Si Si2 0.000000 0.000000 0.000000
Si Si3 0.449010 0.368026 0.827432
Si Si4 0.333983 0.784133 0.580033
Si Si5 0.065901 0.268632 0.360719
Si Si6 0.050317 0.377200 0.918884
Si Si7 0.630658 0.597530 0.686527
Si Si8 0.758439 0.224228 0.924163
O O1 0.160348 0.021854 0.790982
O O2 0.199937 0.158916 0.429824
O O3 0.336085 0.921496 0.488917
O O4 0.000000 0.000000 0.500000
O O5 0.873883 0.106047 0.893139
O O6 0.249040 0.379799 0.780988
O O7 0.564796 0.472467 0.700554
O O8 0.578219 0.250159 0.830026
O O9 0.410750 0.385293 0.070711
O O10 0.504894 0.691115 0.559674
O O11 0.145228 0.744102 0.544928
O O12 0.296227 0.779165 0.829582
O O13 0.158127 0.379919 0.384097
O O14 0.074187 0.277706 0.116515
O O15 0.888937 0.331180 0.845081
O O16 0.000000 0.500000 0.000000
#
# Coordination Sequence:
#
# PCOD9006025 Si02
#       8
#     2   1   2   2   2   2   2   2
#     4   9  18  33  53  79 108 141 186 230 275 332
#     4  10  20  36  58  80 112 150 184 230 282 332
#     4   9  16  26  43  72 105 137 179 225 271 326
#     4   8  15  27  43  69 102 132 169 217 267 319
#     4   9  16  26  44  72 101 132 174 217 263 321
#     4  10  17  28  51  80 109 143 183 226 274 329
#     4   9  15  24  43  71 102 134 172 222 272 321
#     4   9  17  30  48  72 103 141 180 222 273 325
#
# _framework density 26.138394999999999
#
# number of rings (size 3 to 8) (size 9 to 14) (size 15 to 20)
#    0.000    2.933    0.000    4.800    0.000    0.533 
#    0.000    0.667    0.000    9.600    0.000    5.600 
#    0.000    0.000    0.000    0.000    0.000    0.000 
#
# Total GULP energy -83570.814486 kJ/mol
# GULP energy per Si atom -5571.387632 kJ/mol
# Density = 2.607890 g / cm^3
# Si number density = 26.138395 Si / 1000 Ang^3
#
#
#
# Elastic Constant Matrix: (Units=GPa)
#
#
# Indices 1 2 3 4 5 6 
#
# 1 106.4364 35.9730 21.0129 -12.1696 3.6216 -18.8955
# 2 35.9730 87.4299 29.2781 -14.5915 -6.8022 -41.9371
# 3 21.0129 29.2781 69.3095 -6.5693 17.7432 4.1688
# 4 -12.1696 -14.5915 -6.5693 36.7594 -5.6789 -4.5051
# 5 3.6216 -6.8022 17.7432 -5.6789 42.5584 0.2300
# 6 -18.8955 -41.9371 4.1688 -4.5051 0.2300 44.4037
#
#
#
# Elastic Compliance Matrix: (Units=1/GPa)
#
#
# Indices 1 2 3 4 5 6 
#
# 1 0.011565 -0.000138 -0.003667 0.003954 0.001020 0.005531
# 2 -0.000138 0.058427 -0.032311 0.028914 0.026350 0.060954
# 3 -0.003667 -0.032311 0.035437 -0.015547 -0.021502 -0.036869
# 4 0.003954 0.028914 -0.015547 0.044022 0.016453 0.034831
# 5 0.001020 0.026350 -0.021502 0.016453 0.038626 0.028808
# 6 0.005531 0.060954 -0.036869 0.034831 0.028808 0.089288
#
#
# Mechanical properties :
#
#
# Convention : Reuss Voigt Hill
#
# Bulk Modulus (GPa) = 30.12203 48.41153 39.26678
# Shear Modulus (GPa) = 13.86333 36.53841 25.20087
#
# Velocity S-wave (km/s) = 2.30550 3.74288 3.10842
# Velocity P-wave (km/s) = 4.31696 6.10249 5.28567
#
# Compressibility (1/GPa) = 0.03319829
#
# Stress axis : x y z
#
# Youngs Moduli (GPa) = 86.46579 17.11528 28.21897
#
# Poissons Ratio (x) = 0.00236 0.10348
# Poissons Ratio (y) = 0.01192 0.91177
# Poissons Ratio (z) = 0.31709 0.55301
#
# Static dielectric constant tensor:
#      x y z
#    x 1.775910 0.057090 0.193360 
#    y 0.057090 2.073300 0.012840 
#    z 0.193360 0.012840 2.085490 
# 
# From -- ./inp_files/168464.got.cif
#   From: 2010.05.17/outbox.cif.g08.bks.cpg/sg2_85_cif.got.tgz:168464.got - 2010.06.03 11:33:40.
