data_PCOD9006906
_publ_section_title
;
Structure prediction by ZEFSAII (Michael W. Deem and Ramdas Pophale) SiO2 
 PCOD9006906
Probable space group: P -1
;
_chemical_formula_sum "Si O2"
_cell_formula_units_Z 16
_cell_length_a 15.158019
_cell_length_b 12.281546
_cell_length_c 12.020005
_cell_angle_alpha 34.088709
_cell_angle_beta 120.982028
_cell_angle_gamma 138.745195
_cell_volume 791.024931
_symmetry_space_group_name_H-M "P -1"
_symmetry_group_IT_number 2
_symmetry_cell_setting 'triclinic'
loop_
_space_group_symop_operation_xyz
x,y,z
-x,-y,-z
loop_
_atom_site_type_symbol
_atom_site_label
_atom_site_fract_x
_atom_site_fract_y
_atom_site_fract_z
Si Si1 0.540571 0.076428 0.591133
Si Si2 0.174389 0.091742 0.454958
Si Si3 0.994302 0.488992 0.781731
Si Si4 0.024569 0.799728 0.183933
Si Si5 0.586496 0.714856 0.695733
Si Si6 0.348698 0.182225 0.092128
Si Si7 0.920839 0.030655 0.261274
Si Si8 0.839549 0.563857 0.467172
O O1 0.430830 0.100237 0.533653
O O2 0.696171 0.348555 0.491319
O O3 0.500000 0.000000 0.500000
O O4 0.550761 0.873697 0.817598
O O5 0.321614 0.298361 0.314026
O O6 0.175565 0.100845 0.580978
O O7 0.106692 0.796083 0.627923
O O8 0.067421 0.118837 0.318303
O O9 0.046953 0.409829 0.785396
O O10 0.865146 0.454258 0.680956
O O11 0.946528 0.280328 0.023219
O O12 0.962473 0.661669 0.379186
O O13 0.188546 0.965905 0.137069
O O14 0.000000 0.000000 0.000000
O O15 0.656891 0.806307 0.786707
O O16 0.429834 0.453722 0.850414
O O17 0.859635 0.809463 0.314271
#
# Coordination Sequence:
#
# PCOD9006906 Si02
#       8
#     2   2   2   2   2   2   2   2
#     4  10  22  37  57  83 125 167 196 239 301 368
#     4  10  23  42  64  91 120 160 210 251 303 357
#     4  11  22  36  64  89 125 156 200 254 307 361
#     4  12  22  35  62  94 126 157 195 253 312 368
#     4  10  22  38  58  83 121 162 200 244 296 365
#     4  10  21  39  55  88 125 156 196 242 304 366
#     4  10  22  42  64  92 120 157 205 263 302 353
#     4  11  22  38  60  94 126 158 202 253 306 361
#
# _framework density 20.226924
#
# number of rings (size 3 to 8) (size 9 to 14) (size 15 to 20)
#    0.000    1.500    2.500    3.000    3.500    1.000 
#    0.000    0.625    0.000    1.500    0.000    0.000 
#    0.000    0.000    0.000    0.000    0.000    0.000 
#
# Total GULP energy -89219.277118 kJ/mol
# GULP energy per Si atom -5576.204820 kJ/mol
# Density = 2.018089 g / cm^3
# Si number density = 20.226924 Si / 1000 Ang^3
#
#
#
# Elastic Constant Matrix: (Units=GPa)
#
#
# Indices 1 2 3 4 5 6 
#
# 1 79.5089 8.2210 15.7056 11.7268 -8.9291 1.1448
# 2 8.2210 69.3003 10.9298 -2.5592 -7.6600 -2.6810
# 3 15.7056 10.9298 87.9716 20.3354 12.5225 7.0206
# 4 11.7268 -2.5592 20.3354 18.2220 -0.0557 5.0910
# 5 -8.9291 -7.6600 12.5225 -0.0557 34.4792 3.8550
# 6 1.1448 -2.6810 7.0206 5.0910 3.8550 23.1835
#
#
#
# Elastic Compliance Matrix: (Units=1/GPa)
#
#
# Indices 1 2 3 4 5 6 
#
# 1 0.014615 -0.001453 -0.001014 -0.008661 0.003738 0.000698
# 2 -0.001453 0.016107 -0.004261 0.007759 0.004679 0.000743
# 3 -0.001014 -0.004261 0.017741 -0.019708 -0.007661 -0.000213
# 4 -0.008661 0.007759 -0.019708 0.087261 0.008260 -0.013243
# 5 0.003738 0.004679 -0.007661 0.008260 0.034348 -0.004849
# 6 0.000698 0.000743 -0.000213 -0.013243 -0.004849 0.046965
#
#
# Mechanical properties :
#
#
# Convention : Reuss Voigt Hill
#
# Bulk Modulus (GPa) = 28.56645 34.05485 31.31065
# Shear Modulus (GPa) = 20.64731 28.63854 24.64293
#
# Velocity S-wave (km/s) = 3.19844 3.76688 3.49424
# Velocity P-wave (km/s) = 5.27197 5.98265 5.63852
#
# Compressibility (1/GPa) = 0.03500610
#
# Stress axis : x y z
#
# Youngs Moduli (GPa) = 68.42240 62.08569 56.36702
#
# Poissons Ratio (x) = 0.09024 0.05718
# Poissons Ratio (y) = 0.09945 0.24015
# Poissons Ratio (z) = 0.06941 0.26452
#
# Static dielectric constant tensor:
#      x y z
#    x 1.712340 -0.026270 0.044520 
#    y -0.026270 1.741990 -0.002300 
#    z 0.044520 -0.002300 1.785470 
# 
# From -- ./inp_files/433785.got.cif
#   From: 2010.05.17/outbox.cif.g08.bks.cpg/sg2_217_cif.got.tgz:433785.got - 2010.06.03 11:33:40.
