data_PCOD9006011
_publ_section_title
;
Structure prediction by ZEFSAII (Michael W. Deem and Ramdas Pophale) SiO2 
 PCOD9006011
Probable space group: P -1
;
_chemical_formula_sum "Si O2"
_cell_formula_units_Z 16
_cell_length_a 9.570597
_cell_length_b 8.293464
_cell_length_c 9.128437
_cell_angle_alpha 65.729827
_cell_angle_beta 79.374367
_cell_angle_gamma 83.750682
_cell_volume 648.748951
_symmetry_space_group_name_H-M "P -1"
_symmetry_group_IT_number 2
_symmetry_cell_setting 'triclinic'
loop_
_space_group_symop_operation_xyz
x,y,z
-x,-y,-z
loop_
_atom_site_type_symbol
_atom_site_label
_atom_site_fract_x
_atom_site_fract_y
_atom_site_fract_z
Si Si1 0.145644 0.212186 0.353374
Si Si2 0.213320 0.553698 0.026946
Si Si3 0.168548 0.806347 0.448005
Si Si4 0.473263 0.687607 0.102180
Si Si5 0.241637 0.207235 0.658015
Si Si6 0.926261 0.179960 0.836593
Si Si7 0.676379 0.454444 0.310455
Si Si8 0.313214 0.050512 0.990142
O O1 0.176124 0.373865 0.181783
O O2 0.243385 0.207175 0.483315
O O3 0.979367 0.230782 0.426545
O O4 0.170640 0.017378 0.354470
O O5 0.370067 0.611901 0.029185
O O6 0.103329 0.702414 0.058692
O O7 0.224683 0.554015 0.850245
O O8 0.156498 0.722593 0.320461
O O9 0.302149 0.729905 0.541975
O O10 0.521557 0.531467 0.261790
O O11 0.392571 0.871051 0.096912
O O12 0.624750 0.778867 0.006981
O O13 0.266396 0.401232 0.643112
O O14 0.081579 0.161197 0.748512
O O15 0.334550 0.081361 0.798467
O O16 0.851058 0.994339 0.943331
#
# Coordination Sequence:
#
# PCOD9006011 Si02
#       8
#     2   2   2   2   2   2   2   2
#     4  10  23  41  61  91 128 158 195 253 310 362
#     4  11  23  40  63  89 124 164 207 245 297 359
#     4  10  23  41  61  91 128 158 195 253 310 362
#     4   9  21  40  60  85 123 161 206 256 291 347
#     4  10  21  38  64  92 125 158 196 248 310 366
#     4  10  21  38  64  92 125 158 196 248 310 366
#     4  11  23  40  63  89 124 164 207 245 297 359
#     4   9  19  38  64  92 117 159 206 250 302 357
#
# _framework density 24.662852000000001
#
# number of rings (size 3 to 8) (size 9 to 14) (size 15 to 20)
#    0.000    2.000    0.000    2.250    7.000    4.000 
#    0.000   11.875    0.000    0.000    0.000    0.000 
#    0.000    0.000    0.000    0.000    0.000    0.000 
#
# Total GULP energy -89330.256299 kJ/mol
# GULP energy per Si atom -5583.141019 kJ/mol
# Density = 2.460672 g / cm^3
# Si number density = 24.662852 Si / 1000 Ang^3
#
#
#
# Elastic Constant Matrix: (Units=GPa)
#
#
# Indices 1 2 3 4 5 6 
#
# 1 41.1355 4.4570 -3.8698 -16.2298 10.6701 2.7954
# 2 4.4570 59.3262 17.7963 0.7666 1.2416 1.3605
# 3 -3.8698 17.7963 85.5396 -2.6340 28.9201 -14.8469
# 4 -16.2298 0.7666 -2.6340 44.8181 0.3549 2.0676
# 5 10.6701 1.2416 28.9201 0.3549 39.7245 -9.2806
# 6 2.7954 1.3605 -14.8469 2.0676 -9.2806 34.8024
#
#
#
# Elastic Compliance Matrix: (Units=1/GPa)
#
#
# Indices 1 2 3 4 5 6 
#
# 1 0.035438 -0.004701 0.007676 0.013700 -0.016135 -0.004505
# 2 -0.004701 0.019014 -0.006131 -0.002354 0.004788 -0.001565
# 3 0.007676 -0.006131 0.019122 0.003964 -0.014998 0.003545
# 4 0.013700 -0.002354 0.003964 0.027742 -0.007428 -0.002946
# 5 -0.016135 0.004788 -0.014998 -0.007428 0.041815 0.006303
# 6 -0.004505 -0.001565 0.003545 -0.002946 0.006303 0.032525
#
#
# Mechanical properties :
#
#
# Convention : Reuss Voigt Hill
#
# Bulk Modulus (GPa) = 14.86717 24.75201 19.80959
# Shear Modulus (GPa) = 24.46318 35.04352 29.75335
#
# Velocity S-wave (km/s) = 3.15287 3.77358 3.47710
# Velocity P-wave (km/s) = 4.39265 5.38929 4.91629
#
# Compressibility (1/GPa) = 0.06726231
#
# Stress axis : x y z
#
# Youngs Moduli (GPa) = 28.21817 52.59154 52.29697
#
# Poissons Ratio (x) = 0.24724 -0.40146
# Poissons Ratio (y) = 0.13266 0.32065
# Poissons Ratio (z) = -0.21662 0.32245
#
# Static dielectric constant tensor:
#      x y z
#    x 2.095790 -0.004000 0.021760 
#    y -0.004000 1.940800 0.006320 
#    z 0.021760 0.006320 1.976020 
# 
# From -- ./inp_files/199795.got.cif
#   From: 2010.05.17/outbox.cif.g08.bks.cpg/sg2_100_cif.got.tgz:199795.got - 2010.06.03 11:33:40.
