data_PCOD9006097
_publ_section_title
;
Structure prediction by ZEFSAII (Michael W. Deem and Ramdas Pophale) SiO2 
 PCOD9006097
Probable space group: P -1
;
_chemical_formula_sum "Si O2"
_cell_formula_units_Z 14
_cell_length_a 11.395352
_cell_length_b 10.370844
_cell_length_c 8.121662
_cell_angle_alpha 66.398584
_cell_angle_beta 111.932160
_cell_angle_gamma 64.524197
_cell_volume 596.736097
_symmetry_space_group_name_H-M "P -1"
_symmetry_group_IT_number 2
_symmetry_cell_setting 'triclinic'
loop_
_space_group_symop_operation_xyz
x,y,z
-x,-y,-z
loop_
_atom_site_type_symbol
_atom_site_label
_atom_site_fract_x
_atom_site_fract_y
_atom_site_fract_z
Si Si1 0.876465 0.612743 0.534681
Si Si2 0.836273 0.457114 0.105035
Si Si3 0.281911 0.777827 0.343791
Si Si4 0.508506 0.160938 0.413863
Si Si5 0.690598 0.046953 0.222170
Si Si6 0.917515 0.104648 0.159047
Si Si7 0.354082 0.433677 0.697796
O O1 0.760773 0.561567 0.499474
O O2 0.000000 0.500000 0.500000
O O3 0.006903 0.552876 0.779542
O O4 0.753939 0.840796 0.328896
O O5 0.904524 0.263838 0.158129
O O6 0.752778 0.484967 0.226911
O O7 0.682609 0.637612 0.824452
O O8 0.398342 0.828830 0.393870
O O9 0.383420 0.568927 0.581362
O O10 0.209990 0.800898 0.113874
O O11 0.108437 0.929130 0.283499
O O12 0.623603 0.110292 0.340297
O O13 0.500000 0.000000 0.500000
O O14 0.846725 0.034482 0.273671
O O15 0.527962 0.217443 0.939643
#
# Coordination Sequence:
#
# PCOD9006097 Si02
#       7
#     2   2   2   2   2   2   2
#     4  10  21  38  64  96 129 167 215 264 312 378
#     4  10  22  41  66  93 128 174 215 261 320 383
#     4  11  25  43  65  97 133 168 213 270 317 378
#     4  11  26  45  66  96 131 167 214 268 323 382
#     4  11  23  42  69  94 128 172 214 263 322 384
#     4  11  24  42  67  97 130 171 217 262 321 381
#     4  10  22  40  65  97 129 167 217 264 319 380
#
# _framework density 23.460958000000002
#
# number of rings (size 3 to 8) (size 9 to 14) (size 15 to 20)
#    0.000    1.429    0.000    4.714    0.000   14.286 
#    0.000    2.143    0.000    0.000    0.000    0.000 
#    0.000    0.000    0.000    0.000    0.000    0.000 
#
# Total GULP energy -78475.041893 kJ/mol
# GULP energy per Si atom -5605.360135 kJ/mol
# Density = 2.340756 g / cm^3
# Si number density = 23.460958 Si / 1000 Ang^3
#
#
#
# Elastic Constant Matrix: (Units=GPa)
#
#
# Indices 1 2 3 4 5 6 
#
# 1 68.8906 15.9565 20.8771 22.0869 19.1952 -6.4669
# 2 15.9565 118.0533 40.9592 9.6620 21.1953 -1.1022
# 3 20.8771 40.9592 112.1174 7.0946 17.8600 -4.6096
# 4 22.0869 9.6620 7.0946 43.6345 3.2524 14.8207
# 5 19.1952 21.1953 17.8600 3.2524 32.3024 6.3201
# 6 -6.4669 -1.1022 -4.6096 14.8207 6.3201 40.7910
#
#
#
# Elastic Compliance Matrix: (Units=1/GPa)
#
#
# Indices 1 2 3 4 5 6 
#
# 1 0.025207 0.001249 -0.001110 -0.015779 -0.015966 0.012111
# 2 0.001249 0.010676 -0.002863 -0.002793 -0.006305 0.002154
# 3 -0.001110 -0.002863 0.010911 -0.000945 -0.003772 0.001907
# 4 -0.015779 -0.002793 -0.000945 0.036888 0.011513 -0.017870
# 5 -0.015966 -0.006305 -0.003772 0.011513 0.048406 -0.014811
# 6 0.012111 0.002154 0.001907 -0.017870 -0.014811 0.035497
#
#
# Mechanical properties :
#
#
# Convention : Reuss Voigt Hill
#
# Bulk Modulus (GPa) = 24.18655 50.51632 37.35143
# Shear Modulus (GPa) = 26.76437 38.09682 32.43060
#
# Velocity S-wave (km/s) = 3.38124 4.03406 3.72199
# Velocity P-wave (km/s) = 5.05721 6.57853 5.86739
#
# Compressibility (1/GPa) = 0.04134530
#
# Stress axis : x y z
#
# Youngs Moduli (GPa) = 39.67105 93.66894 91.64994
#
# Poissons Ratio (x) = -0.11700 0.10177
# Poissons Ratio (y) = -0.04955 0.26241
# Poissons Ratio (z) = 0.04405 0.26819
#
# Static dielectric constant tensor:
#      x y z
#    x 1.879930 -0.026040 0.001960 
#    y -0.026040 1.861590 0.038550 
#    z 0.001960 0.038550 1.870950 
# 
# From -- ./inp_files/224077.got.cif
#   From: 2010.05.17/outbox.cif.g08.bks.cpg/sg2_113_cif.got.tgz:224077.got - 2010.06.03 11:33:40.
