data_PCOD9006372
_publ_section_title
;
Structure prediction by ZEFSAII (Michael W. Deem and Ramdas Pophale) SiO2 
 PCOD9006372
Probable space group: P -1
;
_chemical_formula_sum "Si O2"
_cell_formula_units_Z 16
_cell_length_a 13.931349
_cell_length_b 13.958035
_cell_length_c 15.215759
_cell_angle_alpha 144.596584
_cell_angle_beta 151.879782
_cell_angle_gamma 54.783852
_cell_volume 689.661733
_symmetry_space_group_name_H-M "P -1"
_symmetry_group_IT_number 2
_symmetry_cell_setting 'triclinic'
loop_
_space_group_symop_operation_xyz
x,y,z
-x,-y,-z
loop_
_atom_site_type_symbol
_atom_site_label
_atom_site_fract_x
_atom_site_fract_y
_atom_site_fract_z
Si Si1 0.751253 0.016759 0.197424
Si Si2 0.372347 0.693366 0.386840
Si Si3 0.936579 0.338628 0.450938
Si Si4 0.372738 0.941495 0.258538
Si Si5 0.121735 0.663265 0.343023
Si Si6 0.556149 0.379039 0.888620
Si Si7 0.483325 0.579119 0.640835
Si Si8 0.139942 0.339135 0.421560
O O1 0.908525 0.167716 0.513830
O O2 0.829143 0.130122 0.252826
O O3 0.500000 0.000000 0.000000
O O4 0.702679 0.800627 0.996114
O O5 0.299134 0.734871 0.454949
O O6 0.520274 0.584610 0.425660
O O7 0.508715 0.884589 0.583278
O O8 0.120341 0.527455 0.021098
O O9 0.793718 0.450636 0.405693
O O10 0.022930 0.325426 0.413148
O O11 0.165516 0.481725 0.803903
O O12 0.446714 0.785977 0.178172
O O13 0.500000 0.000000 0.500000
O O14 0.084065 0.828443 0.939647
O O15 0.252645 0.596804 0.467856
O O16 0.365733 0.317988 0.610781
O O17 0.500000 0.500000 0.000000
O O18 0.500000 0.500000 0.500000
#
# Coordination Sequence:
#
# PCOD9006372 Si02
#       8
#     2   2   2   2   2   2   2   2
#     4  10  21  38  65  98 126 162 211 270 311 381
#     4  10  22  42  62  85 130 176 200 264 323 377
#     4   9  19  38  65  94 131 156 205 277 317 382
#     4  11  25  40  63  95 131 165 215 266 321 382
#     4   9  21  41  61  89 127 164 216 256 315 377
#     4   9  20  44  62  97 121 161 220 262 318 389
#     4   9  20  40  61  90 126 161 210 250 318 384
#     4   9  20  39  66  91 121 173 210 254 338 375
#
# _framework density 23.199778999999999
#
# number of rings (size 3 to 8) (size 9 to 14) (size 15 to 20)
#    0.000    2.500    0.000    0.750    8.750    2.000 
#   15.750    0.000    0.000    0.000    0.000    0.000 
#    0.000    0.000    0.000    0.000    0.000    0.000 
#
# Total GULP energy -89255.874040 kJ/mol
# GULP energy per Si atom -5578.492127 kJ/mol
# Density = 2.314698 g / cm^3
# Si number density = 23.199779 Si / 1000 Ang^3
#
#
#
# Elastic Constant Matrix: (Units=GPa)
#
#
# Indices 1 2 3 4 5 6 
#
# 1 58.9358 24.7663 6.8036 15.7792 -15.7325 8.2994
# 2 24.7663 148.1659 54.9488 13.2651 -1.2687 1.2058
# 3 6.8036 54.9488 104.2987 0.0924 -15.2294 3.3354
# 4 15.7792 13.2651 0.0924 53.7964 -7.4903 -1.8663
# 5 -15.7325 -1.2687 -15.2294 -7.4903 24.3966 1.4088
# 6 8.2994 1.2058 3.3354 -1.8663 1.4088 35.0204
#
#
#
# Elastic Compliance Matrix: (Units=1/GPa)
#
#
# Indices 1 2 3 4 5 6 
#
# 1 0.025500 -0.005128 0.003867 -0.003995 0.017779 -0.007163
# 2 -0.005128 0.009923 -0.005996 -0.001879 -0.007205 0.001635
# 3 0.003867 -0.005996 0.014298 0.001881 0.011826 -0.002447
# 4 -0.003995 -0.001879 0.001881 0.020954 0.004833 0.001754
# 5 0.017779 -0.007205 0.011826 0.004833 0.061367 -0.007303
# 6 -0.007163 0.001635 -0.002447 0.001754 -0.007303 0.030816
#
#
# Mechanical properties :
#
#
# Convention : Reuss Voigt Hill
#
# Bulk Modulus (GPa) = 28.40370 53.82643 41.11507
# Shear Modulus (GPa) = 26.43953 37.63479 32.03716
#
# Velocity S-wave (km/s) = 3.37953 4.03203 3.72011
# Velocity P-wave (km/s) = 5.24385 6.70283 6.01772
#
# Compressibility (1/GPa) = 0.03520668
#
# Stress axis : x y z
#
# Youngs Moduli (GPa) = 39.21499 100.77194 69.93946
#
# Poissons Ratio (x) = 0.51680 -0.27046
# Poissons Ratio (y) = 0.20111 0.41937
# Poissons Ratio (z) = -0.15164 0.60425
#
# Static dielectric constant tensor:
#      x y z
#    x 1.938630 0.006270 -0.059650 
#    y 0.006270 1.918180 -0.016300 
#    z -0.059650 -0.016300 2.000520 
# 
# From -- ./inp_files/532744.got.cif
#   From: 2010.05.17/outbox.cif.g08.bks.cpg/sg2_267_cif.got.tgz:532744.got - 2010.06.03 11:33:40.
