data_PCOD9006337
_publ_section_title
;
Structure prediction by ZEFSAII (Michael W. Deem and Ramdas Pophale) SiO2 
 PCOD9006337
Probable space group: P -1
;
_chemical_formula_sum "Si O2"
_cell_formula_units_Z 15
_cell_length_a 16.094371
_cell_length_b 17.244137
_cell_length_c 9.315048
_cell_angle_alpha 73.083219
_cell_angle_beta 126.042811
_cell_angle_gamma 153.330702
_cell_volume 715.401030
_symmetry_space_group_name_H-M "P -1"
_symmetry_group_IT_number 2
_symmetry_cell_setting 'triclinic'
loop_
_space_group_symop_operation_xyz
x,y,z
-x,-y,-z
loop_
_atom_site_type_symbol
_atom_site_label
_atom_site_fract_x
_atom_site_fract_y
_atom_site_fract_z
Si Si1 0.787390 0.397086 0.239442
Si Si2 0.968599 0.802139 0.040636
Si Si3 0.500000 0.500000 0.500000
Si Si4 0.186117 0.780666 0.229397
Si Si5 0.685560 0.085076 0.034446
Si Si6 0.604253 0.766666 0.918067
Si Si7 0.216487 0.386912 0.511949
Si Si8 0.826038 0.768301 0.214699
O O1 0.660650 0.386444 0.186919
O O2 0.000000 0.500000 0.500000
O O3 0.967582 0.554504 0.196995
O O4 0.506106 0.135712 0.070127
O O5 0.057485 0.774000 0.144037
O O6 0.987458 0.855571 0.189991
O O7 0.191371 0.014175 0.053341
O O8 0.657381 0.590756 0.768430
O O9 0.307601 0.424444 0.428554
O O10 0.234944 0.815277 0.089660
O O11 0.500000 0.000000 0.500000
O O12 0.974568 0.275100 0.306320
O O13 0.500000 0.000000 0.000000
O O14 0.475651 0.619737 0.735598
O O15 0.803454 0.848756 0.162325
O O16 0.086125 0.216375 0.563672
O O17 0.500000 0.500000 0.000000
#
# Coordination Sequence:
#
# PCOD9006337 Si02
#       8
#     2   2   1   2   2   2   2   2
#     4  12  24  47  73 100 134 182 235 284 346 425
#     4  12  23  44  68  99 140 181 237 283 349 418
#     4  12  22  40  66  94 146 168 220 294 344 384
#     4  12  25  45  76 100 134 191 233 284 352 418
#     4  12  27  48  69 105 144 175 232 300 349 409
#     4  11  22  42  71  96 133 186 235 275 344 424
#     4  11  24  43  66 101 140 180 226 295 342 408
#     4  10  21  38  65  95 131 183 224 270 341 416
#
# _framework density 20.96726
#
# number of rings (size 3 to 8) (size 9 to 14) (size 15 to 20)
#    0.000    0.533    6.667    2.800    1.867    0.533 
#    4.800    1.333    0.000    0.000    0.000    0.000 
#    0.000    0.000    0.000    0.000    0.000    0.000 
#
# Total GULP energy -83558.542471 kJ/mol
# GULP energy per Si atom -5570.569498 kJ/mol
# Density = 2.091954 g / cm^3
# Si number density = 20.967260 Si / 1000 Ang^3
#
#
#
# Elastic Constant Matrix: (Units=GPa)
#
#
# Indices 1 2 3 4 5 6 
#
# 1 133.9831 8.5150 -0.1239 -22.2120 4.5704 15.7883
# 2 8.5150 102.5922 -0.1315 -26.3285 -10.1192 12.4311
# 3 -0.1239 -0.1315 60.4601 -23.2483 10.5838 -6.1831
# 4 -22.2120 -26.3285 -23.2483 29.4431 -1.1327 1.1350
# 5 4.5704 -10.1192 10.5838 -1.1327 36.2480 -1.5437
# 6 15.7883 12.4311 -6.1831 1.1350 -1.5437 29.9934
#
#
#
# Elastic Compliance Matrix: (Units=1/GPa)
#
#
# Indices 1 2 3 4 5 6 
#
# 1 0.010894 0.004117 0.006160 0.016962 -0.001787 -0.006905
# 2 0.004117 0.017299 0.008761 0.025901 0.002204 -0.008398
# 3 0.006160 0.008761 0.031944 0.037531 -0.006572 -0.002047
# 4 0.016962 0.025901 0.037531 0.100036 -0.003417 -0.015888
# 5 -0.001787 0.002204 -0.006572 -0.003417 0.030256 0.000359
# 6 -0.006905 -0.008398 -0.002047 -0.015888 0.000359 0.040654
#
#
# Mechanical properties :
#
#
# Convention : Reuss Voigt Hill
#
# Bulk Modulus (GPa) = 10.18191 34.83941 22.51066
# Shear Modulus (GPa) = 22.14896 38.38862 30.26879
#
# Velocity S-wave (km/s) = 3.25369 4.28352 3.80362
# Velocity P-wave (km/s) = 4.35683 6.41225 5.48174
#
# Compressibility (1/GPa) = 0.09821337
#
# Stress axis : x y z
#
# Youngs Moduli (GPa) = 91.79167 57.80744 31.30469
#
# Poissons Ratio (x) = -0.23799 -0.19284
# Poissons Ratio (y) = -0.37791 -0.27426
# Poissons Ratio (z) = -0.56544 -0.50645
#
# Static dielectric constant tensor:
#      x y z
#    x 1.623790 -0.002470 0.121040 
#    y -0.002470 1.787730 -0.044940 
#    z 0.121040 -0.044940 1.725830 
# 
# From -- ./inp_files/315009.got.cif
#   From: 2010.05.17/outbox.cif.g08.bks.cpg/sg2_158_cif.got.tgz:315009.got - 2010.06.03 11:33:40.
