data_PCOD9006658
_publ_section_title
;
Structure prediction by ZEFSAII (Michael W. Deem and Ramdas Pophale) SiO2 
 PCOD9006658
Probable space group: P -1
;
_chemical_formula_sum "Si O2"
_cell_formula_units_Z 16
_cell_length_a 9.662301
_cell_length_b 15.721172
_cell_length_c 8.627245
_cell_angle_alpha 73.119806
_cell_angle_beta 96.771192
_cell_angle_gamma 144.079911
_cell_volume 719.464181
_symmetry_space_group_name_H-M "P -1"
_symmetry_group_IT_number 2
_symmetry_cell_setting 'triclinic'
loop_
_space_group_symop_operation_xyz
x,y,z
-x,-y,-z
loop_
_atom_site_type_symbol
_atom_site_label
_atom_site_fract_x
_atom_site_fract_y
_atom_site_fract_z
Si Si1 0.722852 0.330189 0.557251
Si Si2 0.408066 0.033396 0.789944
Si Si3 0.884667 0.737473 0.406545
Si Si4 0.605101 0.953175 0.850596
Si Si5 0.059586 0.167207 0.284940
Si Si6 0.479829 0.715536 0.771773
Si Si7 0.273483 0.444918 0.038157
Si Si8 0.609442 0.437224 0.667265
O O1 0.668992 0.205055 0.680755
O O2 0.606495 0.285625 0.397846
O O3 0.605021 0.335760 0.661870
O O4 0.000000 0.500000 0.500000
O O5 0.418674 0.935546 0.795547
O O6 0.219164 0.997386 0.691988
O O7 0.372439 0.029396 0.969908
O O8 0.894057 0.782739 0.557788
O O9 0.791838 0.588488 0.501613
O O10 0.658982 0.663161 0.327016
O O11 0.135902 0.889851 0.276282
O O12 0.509723 0.808914 0.852771
O O13 0.259595 0.198592 0.251537
O O14 0.077364 0.265378 0.126786
O O15 0.289051 0.536730 0.878010
O O16 0.301814 0.503502 0.178906
O O17 0.500000 0.500000 0.000000
#
# Coordination Sequence:
#
# PCOD9006658 Si02
#       8
#     2   2   2   2   2   2   2   2
#     4  12  26  44  69  95 135 174 222 272 332 396
#     4  11  27  46  64  99 136 175 222 272 336 393
#     4  10  21  38  67  96 130 174 214 272 323 383
#     4  11  26  44  66  96 135 177 220 272 335 395
#     4  10  22  42  68 100 136 169 219 279 320 395
#     4  11  24  42  69 101 128 178 224 270 330 395
#     4   9  21  39  64 100 134 169 215 271 330 380
#     4  10  21  39  64  98 131 168 224 265 322 392
#
# _framework density 22.238772000000001
#
# number of rings (size 3 to 8) (size 9 to 14) (size 15 to 20)
#    0.000    1.500    1.250    2.250    7.000    7.500 
#    0.000    1.875    0.000    0.000    0.000    0.000 
#    0.000    0.000    0.000    0.000    0.000    0.000 
#
# Total GULP energy -89338.604542 kJ/mol
# GULP energy per Si atom -5583.662784 kJ/mol
# Density = 2.218816 g / cm^3
# Si number density = 22.238772 Si / 1000 Ang^3
#
#
#
# Elastic Constant Matrix: (Units=GPa)
#
#
# Indices 1 2 3 4 5 6 
#
# 1 85.2057 27.6995 23.1886 1.0123 -2.9937 -17.3412
# 2 27.6995 57.3235 6.2966 -3.6527 -5.7584 -9.6475
# 3 23.1886 6.2966 67.4198 -18.2715 -3.6266 -8.5860
# 4 1.0123 -3.6527 -18.2715 34.6620 0.8330 -3.7035
# 5 -2.9937 -5.7584 -3.6266 0.8330 16.0729 -3.5216
# 6 -17.3412 -9.6475 -8.5860 -3.7035 -3.5216 41.5364
#
#
#
# Elastic Compliance Matrix: (Units=1/GPa)
#
#
# Indices 1 2 3 4 5 6 
#
# 1 0.016263 -0.006819 -0.005450 -0.003671 0.000376 0.003784
# 2 -0.006819 0.022163 0.002242 0.003932 0.007800 0.003776
# 3 -0.005450 0.002242 0.020331 0.011413 0.004629 0.003858
# 4 -0.003671 0.003932 0.011413 0.035877 0.002571 0.005157
# 5 0.000376 0.007800 0.004629 0.002571 0.067946 0.008915
# 6 0.003784 0.003776 0.003858 0.005157 0.008915 0.028545
#
#
# Mechanical properties :
#
#
# Convention : Reuss Voigt Hill
#
# Bulk Modulus (GPa) = 25.83763 36.03541 30.93652
# Shear Modulus (GPa) = 22.31334 28.63854 25.47594
#
# Velocity S-wave (km/s) = 3.17101 3.59245 3.38829
# Velocity P-wave (km/s) = 5.00506 5.78331 5.40820
#
# Compressibility (1/GPa) = 0.03870325
#
# Stress axis : x y z
#
# Youngs Moduli (GPa) = 61.48846 45.11947 49.18606
#
# Poissons Ratio (x) = 0.30769 0.26804
# Poissons Ratio (y) = 0.41931 -0.11026
# Poissons Ratio (z) = 0.33508 -0.10114
#
# Static dielectric constant tensor:
#      x y z
#    x 1.849160 -0.015510 0.029100 
#    y -0.015510 1.874260 -0.045670 
#    z 0.029100 -0.045670 1.644080 
# 
# From -- ./inp_files/206460.got.cif
#   From: 2010.05.17/outbox.cif.g08.bks.cpg/sg2_104_cif.got.tgz:206460.got - 2010.06.03 11:33:40.
