data_PCOD9006073
_publ_section_title
;
Structure prediction by ZEFSAII (Michael W. Deem and Ramdas Pophale) SiO2 
 PCOD9006073
Probable space group: P -1
;
_chemical_formula_sum "Si O2"
_cell_formula_units_Z 12
_cell_length_a 11.781888
_cell_length_b 8.757276
_cell_length_c 18.216879
_cell_angle_alpha 144.170739
_cell_angle_beta 153.730706
_cell_angle_gamma 36.655269
_cell_volume 465.988672
_symmetry_space_group_name_H-M "P -1"
_symmetry_group_IT_number 2
_symmetry_cell_setting 'triclinic'
loop_
_space_group_symop_operation_xyz
x,y,z
-x,-y,-z
loop_
_atom_site_type_symbol
_atom_site_label
_atom_site_fract_x
_atom_site_fract_y
_atom_site_fract_z
Si Si1 0.089162 0.527714 0.747851
Si Si2 0.263814 0.081692 0.204282
Si Si3 0.659355 0.459468 0.655494
Si Si4 0.521907 0.719445 0.991261
Si Si5 0.462662 0.660343 0.775408
Si Si6 0.878315 0.869215 0.501666
O O1 0.272364 0.441146 0.891455
O O2 0.050307 0.248428 0.585226
O O3 0.816648 0.734328 0.697684
O O4 0.240250 0.675891 0.837250
O O5 0.274295 0.256358 0.205524
O O6 0.560161 0.886762 0.320168
O O7 0.000000 0.000000 0.000000
O O8 0.500000 0.500000 0.500000
O O9 0.565435 0.474190 0.691443
O O10 0.864352 0.165114 0.641626
O O11 0.522763 0.033211 0.113527
O O12 0.608697 0.594625 0.912439
O O13 0.152732 0.677177 0.620725
#
# Coordination Sequence:
#
# PCOD9006073 Si02
#       6
#     2   2   2   2   2   2
#     4  11  22  44  67  93 128 170 218 256 315 389
#     4  11  22  37  63  96 125 165 215 259 311 378
#     4  10  21  38  64  95 127 168 211 258 315 380
#     4  10  23  43  70  91 127 175 207 266 324 371
#     4  11  23  44  65  97 131 161 216 268 319 374
#     4  11  23  39  66  94 125 169 209 262 318 374
#
# _framework density 25.751697
#
# number of rings (size 3 to 8) (size 9 to 14) (size 15 to 20)
#    0.000    1.333    0.000    8.000    0.000    6.000 
#    0.000   14.167    0.000    0.000    0.000    0.000 
#    0.000    0.000    0.000    0.000    0.000    0.000 
#
# Total GULP energy -66811.199844 kJ/mol
# GULP energy per Si atom -5567.599987 kJ/mol
# Density = 2.569309 g / cm^3
# Si number density = 25.751697 Si / 1000 Ang^3
#
#
#
# Elastic Constant Matrix: (Units=GPa)
#
#
# Indices 1 2 3 4 5 6 
#
# 1 134.8140 36.0393 53.6814 11.8398 -38.7426 -13.1309
# 2 36.0393 50.1692 16.3640 9.8204 -11.7667 -25.3663
# 3 53.6814 16.3640 115.4488 1.3082 -25.4544 7.2798
# 4 11.8398 9.8204 1.3082 36.3563 2.7917 -2.2617
# 5 -38.7426 -11.7667 -25.4544 2.7917 54.5588 15.5323
# 6 -13.1309 -25.3663 7.2798 -2.2617 15.5323 43.0540
#
#
#
# Elastic Compliance Matrix: (Units=1/GPa)
#
#
# Indices 1 2 3 4 5 6 
#
# 1 0.012483 -0.007031 -0.003154 -0.002713 0.006686 -0.002356
# 2 -0.007031 0.037763 -0.004535 -0.005970 -0.005028 0.022372
# 3 -0.003154 -0.004535 0.012209 0.001016 0.004495 -0.007267
# 4 -0.002713 -0.005970 0.001016 0.030164 -0.003843 -0.001545
# 5 0.006686 -0.005028 0.004495 -0.003843 0.027664 -0.011865
# 6 -0.002356 0.022372 -0.007267 -0.001545 -0.011865 0.041117
#
#
# Mechanical properties :
#
#
# Convention : Reuss Voigt Hill
#
# Bulk Modulus (GPa) = 30.28905 56.95571 43.62238
# Shear Modulus (GPa) = 24.77130 39.75031 32.26081
#
# Velocity S-wave (km/s) = 3.10486 3.93313 3.54328
# Velocity P-wave (km/s) = 4.96398 6.54151 5.80656
#
# Compressibility (1/GPa) = 0.03301523
#
# Stress axis : x y z
#
# Youngs Moduli (GPa) = 80.10633 26.48068 81.90587
#
# Poissons Ratio (x) = 0.18618 0.25837
# Poissons Ratio (y) = 0.56322 0.37144
# Poissons Ratio (z) = 0.25269 0.12009
#
# Static dielectric constant tensor:
#      x y z
#    x 2.115690 0.100100 0.149810 
#    y 0.100100 2.199030 0.185010 
#    z 0.149810 0.185010 2.422860 
# 
# From -- ./inp_files/566301.got.cif
#   From: 2010.05.17/outbox.cif.g08.bks.cpg/sg2_284_cif.got.tgz:566301.got - 2010.06.03 11:33:40.
