data_PCOD9006885
_publ_section_title
;
Structure prediction by ZEFSAII (Michael W. Deem and Ramdas Pophale) SiO2 
 PCOD9006885
Probable space group: P -1
;
_chemical_formula_sum "Si O2"
_cell_formula_units_Z 13
_cell_length_a 4.997177
_cell_length_b 8.715547
_cell_length_c 23.697237
_cell_angle_alpha 147.767965
_cell_angle_beta 67.039526
_cell_angle_gamma 121.749621
_cell_volume 464.632797
_symmetry_space_group_name_H-M "P -1"
_symmetry_group_IT_number 2
_symmetry_cell_setting 'triclinic'
loop_
_space_group_symop_operation_xyz
x,y,z
-x,-y,-z
loop_
_atom_site_type_symbol
_atom_site_label
_atom_site_fract_x
_atom_site_fract_y
_atom_site_fract_z
Si Si1 0.860324 0.522380 0.350118
Si Si2 0.490697 0.203401 0.663854
Si Si3 0.595277 0.562146 0.945269
Si Si4 0.605454 0.808882 0.625646
Si Si5 0.571478 0.182041 0.163138
Si Si6 0.500000 0.000000 0.500000
Si Si7 0.027256 0.835496 0.192763
O O1 0.700346 0.276289 0.334895
O O2 0.839597 0.337121 0.236347
O O3 0.236763 0.717286 0.386316
O O4 0.658551 0.730283 0.425885
O O5 0.444435 0.520731 0.775002
O O6 0.254373 0.936450 0.560034
O O7 0.623038 0.081789 0.666583
O O8 0.876619 0.447517 0.882270
O O9 0.313822 0.338419 0.860049
O O10 0.500000 0.500000 0.000000
O O11 0.638127 0.917933 0.042133
O O12 0.500000 0.500000 0.500000
O O13 0.892437 0.938721 0.688484
O O14 0.259965 0.017138 0.177838
#
# Coordination Sequence:
#
# PCOD9006885 Si02
#       7
#     2   2   2   2   2   1   2
#     4   9  23  44  67 100 144 179 249 290 374 433
#     4  10  24  43  66 106 139 191 245 295 370 431
#     4  10  21  42  74 110 144 192 248 307 370 438
#     4  11  26  48  72 105 148 198 239 305 374 437
#     4  10  21  38  74  98 141 191 240 305 364 439
#     4   8  22  40  66  96 138 184 234 302 346 438
#     4  10  24  42  71 111 147 190 252 299 370 447
#
# _framework density 27.979081999999998
#
# number of rings (size 3 to 8) (size 9 to 14) (size 15 to 20)
#    0.923    1.231    0.000    1.846   12.923    3.077 
#    5.538    1.538    0.000    0.000    0.000    0.000 
#    0.000    0.000    0.000    0.000    0.000    0.000 
#
# Total GULP energy -72726.277635 kJ/mol
# GULP energy per Si atom -5594.329049 kJ/mol
# Density = 2.791540 g / cm^3
# Si number density = 27.979082 Si / 1000 Ang^3
#
#
#
# Elastic Constant Matrix: (Units=GPa)
#
#
# Indices 1 2 3 4 5 6 
#
# 1 159.7686 59.2840 83.0004 4.7233 9.8954 -37.2460
# 2 59.2840 112.3522 42.7055 -2.2410 7.1411 -28.1993
# 3 83.0004 42.7055 230.3293 8.7466 -2.4428 -14.0208
# 4 4.7233 -2.2410 8.7466 45.5134 -5.0093 -6.7990
# 5 9.8954 7.1411 -2.4428 -5.0093 42.4158 0.4122
# 6 -37.2460 -28.1993 -14.0208 -6.7990 0.4122 40.3376
#
#
#
# Elastic Compliance Matrix: (Units=1/GPa)
#
#
# Indices 1 2 3 4 5 6 
#
# 1 0.010455 -0.002531 -0.002906 0.000137 -0.002232 0.006921
# 2 -0.002531 0.012339 -0.001081 0.001857 -0.001391 0.006240
# 3 -0.002906 -0.001081 0.005534 -0.000948 0.001083 -0.001686
# 4 0.000137 0.001857 -0.000948 0.023229 0.002296 0.004987
# 5 -0.002232 -0.001391 0.001083 0.002296 0.024689 -0.002522
# 6 0.006921 0.006240 -0.001686 0.004987 -0.002522 0.035824
#
#
# Mechanical properties :
#
#
# Convention : Reuss Voigt Hill
#
# Bulk Modulus (GPa) = 65.39251 96.93664 81.16458
# Shear Modulus (GPa) = 38.40178 46.81737 42.60958
#
# Velocity S-wave (km/s) = 3.70877 4.09504 3.90668
# Velocity P-wave (km/s) = 6.46240 7.55516 7.03004
#
# Compressibility (1/GPa) = 0.01529227
#
# Stress axis : x y z
#
# Youngs Moduli (GPa) = 95.64516 81.04659 180.69820
#
# Poissons Ratio (x) = 0.20510 0.52511
# Poissons Ratio (y) = 0.24205 0.19536
# Poissons Ratio (z) = 0.27794 0.08762
#
# Static dielectric constant tensor:
#      x y z
#    x 2.282510 0.140420 -0.064530 
#    y 0.140420 2.341620 -0.007210 
#    z -0.064530 -0.007210 2.149130 
# 
# From -- ./inp_files/487279.got.cif
#   From: 2010.05.17/outbox.cif.g08.bks.cpg/sg2_244_cif.got.tgz:487279.got - 2010.06.03 11:33:40.
