data_PCOD9006865
_publ_section_title
;
Structure prediction by ZEFSAII (Michael W. Deem and Ramdas Pophale) SiO2 
 PCOD9006865
Probable space group: P -1
;
_chemical_formula_sum "Si O2"
_cell_formula_units_Z 12
_cell_length_a 4.954200
_cell_length_b 13.434917
_cell_length_c 16.896521
_cell_angle_alpha 31.957059
_cell_angle_beta 83.080280
_cell_angle_gamma 102.564231
_cell_volume 468.890483
_symmetry_space_group_name_H-M "P -1"
_symmetry_group_IT_number 2
_symmetry_cell_setting 'triclinic'
loop_
_space_group_symop_operation_xyz
x,y,z
-x,-y,-z
loop_
_atom_site_type_symbol
_atom_site_label
_atom_site_fract_x
_atom_site_fract_y
_atom_site_fract_z
Si Si1 0.652639 0.645018 0.521123
Si Si2 0.375470 0.429274 0.182046
Si Si3 0.686197 0.259988 0.395204
Si Si4 0.417590 0.059679 0.186263
Si Si5 0.894306 0.238708 0.190265
Si Si6 0.394425 0.714500 0.323066
O O1 0.405512 0.647858 0.588262
O O2 0.601955 0.711330 0.390697
O O3 0.544853 0.380468 0.693994
O O4 0.058818 0.849288 0.383163
O O5 0.608375 0.369089 0.252278
O O6 0.062818 0.339000 0.314232
O O7 0.210415 0.295573 0.194332
O O8 0.560072 0.707316 0.979111
O O9 0.419359 0.977509 0.602090
O O10 0.736871 0.131877 0.181075
O O11 0.438219 0.954912 0.173378
O O12 0.000000 0.500000 0.000000
O O13 0.000000 0.500000 0.500000
#
# Coordination Sequence:
#
# PCOD9006865 Si02
#       6
#     2   2   2   2   2   2
#     4  10  21  38  71  92 123 173 223 269 319 387
#     4  11  27  41  65  98 142 173 210 267 336 382
#     4  12  24  44  64  98 138 170 211 273 335 382
#     4  10  21  42  66  95 129 174 226 267 310 390
#     4  10  22  43  68  95 127 177 226 261 309 389
#     4   9  19  38  67  95 121 161 232 270 315 374
#
# _framework density 25.592327999999998
#
# number of rings (size 3 to 8) (size 9 to 14) (size 15 to 20)
#    0.000    1.667    1.667    2.000    4.667    1.333 
#    0.000    8.333    0.000    0.000    0.000    0.000 
#    0.000    0.000    0.000    0.000    0.000    0.000 
#
# Total GULP energy -67065.961454 kJ/mol
# GULP energy per Si atom -5588.830121 kJ/mol
# Density = 2.553408 g / cm^3
# Si number density = 25.592328 Si / 1000 Ang^3
#
#
#
# Elastic Constant Matrix: (Units=GPa)
#
#
# Indices 1 2 3 4 5 6 
#
# 1 72.9555 21.3937 24.5598 1.1489 -10.1499 -12.1741
# 2 21.3937 123.5832 62.1838 -37.6918 -4.9590 -31.7024
# 3 24.5598 62.1838 120.1877 -10.1684 1.3117 -10.0153
# 4 1.1489 -37.6918 -10.1684 44.0347 -7.0780 2.2948
# 5 -10.1499 -4.9590 1.3117 -7.0780 49.7020 3.0655
# 6 -12.1741 -31.7024 -10.0153 2.2948 3.0655 48.7385
#
#
#
# Elastic Compliance Matrix: (Units=1/GPa)
#
#
# Indices 1 2 3 4 5 6 
#
# 1 0.015757 -0.001201 -0.002563 -0.001719 0.002764 0.002535
# 2 -0.001201 0.019384 -0.007746 0.014871 0.003406 0.009802
# 3 -0.002563 -0.007746 0.012307 -0.003895 -0.002000 -0.002840
# 4 -0.001719 0.014871 -0.003895 0.035190 0.005851 0.006419
# 5 0.002764 0.003406 -0.002000 0.005851 0.021858 0.000845
# 6 0.002535 0.009802 -0.002840 0.006419 0.000845 0.026588
#
#
# Mechanical properties :
#
#
# Convention : Reuss Voigt Hill
#
# Bulk Modulus (GPa) = 40.93588 59.22234 50.07911
# Shear Modulus (GPa) = 30.81743 42.40097 36.60920
#
# Velocity S-wave (km/s) = 3.47388 4.07478 3.78627
# Velocity P-wave (km/s) = 5.66750 6.73270 6.22293
#
# Compressibility (1/GPa) = 0.02442845
#
# Stress axis : x y z
#
# Youngs Moduli (GPa) = 63.46560 51.58906 81.25325
#
# Poissons Ratio (x) = 0.06197 0.20822
# Poissons Ratio (y) = 0.07624 0.62937
# Poissons Ratio (z) = 0.16264 0.39960
#
# Static dielectric constant tensor:
#      x y z
#    x 2.154280 -0.069830 -0.000140 
#    y -0.069830 2.148160 0.006460 
#    z -0.000140 0.006460 1.986380 
# 
# From -- ./inp_files/43478.got.cif
#   From: 2010.05.17/outbox.cif.g08.bks.cpg/sg2_22_cif.got.tgz:43478.got - 2010.06.03 11:33:40.
