data_PCOD9006291
_publ_section_title
;
Structure prediction by ZEFSAII (Michael W. Deem and Ramdas Pophale) SiO2 
 PCOD9006291
Probable space group: P -1
;
_chemical_formula_sum "Si O2"
_cell_formula_units_Z 11
_cell_length_a 8.979506
_cell_length_b 13.898224
_cell_length_c 10.370384
_cell_angle_alpha 46.318453
_cell_angle_beta 150.134790
_cell_angle_gamma 132.064504
_cell_volume 456.915982
_symmetry_space_group_name_H-M "P -1"
_symmetry_group_IT_number 2
_symmetry_cell_setting 'triclinic'
loop_
_space_group_symop_operation_xyz
x,y,z
-x,-y,-z
loop_
_atom_site_type_symbol
_atom_site_label
_atom_site_fract_x
_atom_site_fract_y
_atom_site_fract_z
Si Si1 0.212077 0.572470 0.207007
Si Si2 0.837436 0.472409 0.266947
Si Si3 0.140314 0.865326 0.891981
Si Si4 0.000000 0.000000 0.000000
Si Si5 0.628866 0.957590 0.339513
Si Si6 0.646232 0.159788 0.386970
O O1 0.500000 0.500000 0.500000
O O2 0.028654 0.555906 0.218774
O O3 0.284123 0.735407 0.088904
O O4 0.000000 0.500000 0.000000
O O5 0.799630 0.315129 0.348797
O O6 0.000000 0.500000 0.500000
O O7 0.500000 0.500000 0.000000
O O8 0.248867 0.986397 0.759538
O O9 0.778553 0.837234 0.620032
O O10 0.263811 0.921964 0.073045
O O11 0.788368 0.094891 0.675178
O O12 0.719955 0.866728 0.877719
O O13 0.728762 0.078899 0.399602
#
# Coordination Sequence:
#
# PCOD9006291 Si02
#       6
#     2   2   2   1   2   2
#     4  12  26  46  73 101 139 192 239 285 343 430
#     4  12  28  47  71 104 148 190 232 295 355 423
#     4  10  22  39  63 100 128 165 229 280 343 398
#     4  10  24  38  64  92 118 168 226 280 326 416
#     4  10  21  38  65  93 129 168 215 296 341 393
#     4  11  23  44  66  95 133 180 232 280 361 415
#
# _framework density 24.074448
#
# number of rings (size 3 to 8) (size 9 to 14) (size 15 to 20)
#    0.000    1.091    0.000    5.455    0.000   13.091 
#    0.000    0.000    0.000    0.000    0.000    0.000 
#    0.000    0.000    0.000    0.000    0.000    0.000 
#
# Total GULP energy -61301.864138 kJ/mol
# GULP energy per Si atom -5572.896740 kJ/mol
# Density = 2.401965 g / cm^3
# Si number density = 24.074448 Si / 1000 Ang^3
#
#
#
# Elastic Constant Matrix: (Units=GPa)
#
#
# Indices 1 2 3 4 5 6 
#
# 1 101.2254 -13.6815 51.9039 10.2902 -5.6292 -6.5682
# 2 -13.6815 85.6881 43.0920 -2.8665 -5.7825 -15.2776
# 3 51.9039 43.0920 264.8753 29.3154 1.0132 -16.8294
# 4 10.2902 -2.8665 29.3154 44.0744 -11.2116 1.8867
# 5 -5.6292 -5.7825 1.0132 -11.2116 48.4930 7.4324
# 6 -6.5682 -15.2776 -16.8294 1.8867 7.4324 30.2236
#
#
#
# Elastic Compliance Matrix: (Units=1/GPa)
#
#
# Indices 1 2 3 4 5 6 
#
# 1 0.012146 0.003912 -0.002794 -0.000484 0.001402 0.002747
# 2 0.003912 0.015168 -0.003113 0.002371 0.001932 0.006161
# 3 -0.002794 -0.003113 0.005333 -0.003637 -0.001874 0.001477
# 4 -0.000484 0.002371 -0.003637 0.027429 0.007326 -0.004446
# 5 0.001402 0.001932 -0.001874 0.007326 0.023673 -0.006041
# 6 0.002747 0.006161 0.001477 -0.004446 -0.006041 0.039384
#
#
# Mechanical properties :
#
#
# Convention : Reuss Voigt Hill
#
# Bulk Modulus (GPa) = 34.89340 68.26862 51.58101
# Shear Modulus (GPa) = 36.58336 49.25649 42.91992
#
# Velocity S-wave (km/s) = 3.90242 4.52819 4.22690
# Velocity P-wave (km/s) = 5.90175 7.46714 6.73011
#
# Compressibility (1/GPa) = 0.02865871
#
# Stress axis : x y z
#
# Youngs Moduli (GPa) = 82.33391 65.92612 187.51981
#
# Poissons Ratio (x) = -0.25793 0.52389
# Poissons Ratio (y) = -0.32212 0.58370
# Poissons Ratio (z) = 0.23002 0.20521
#
# Static dielectric constant tensor:
#      x y z
#    x 1.946560 0.336230 -0.621840 
#    y 0.336230 1.697550 0.851610 
#    z -0.621840 0.851610 -0.457400 
# 
# From -- ./inp_files/432520.got.cif
#   From: 2010.05.17/outbox.cif.g08.bks.cpg/sg2_217_cif.got.tgz:432520.got - 2010.06.03 11:33:40.
