data_PCOD9006980
_publ_section_title
;
Structure prediction by ZEFSAII (Michael W. Deem and Ramdas Pophale) SiO2 
 PCOD9006980
Probable space group: P -1
;
_chemical_formula_sum "Si O2"
_cell_formula_units_Z 16
_cell_length_a 17.263846
_cell_length_b 7.348405
_cell_length_c 5.457899
_cell_angle_alpha 113.904488
_cell_angle_beta 102.818548
_cell_angle_gamma 88.363177
_cell_volume 615.767177
_symmetry_space_group_name_H-M "P -1"
_symmetry_group_IT_number 2
_symmetry_cell_setting 'triclinic'
loop_
_space_group_symop_operation_xyz
x,y,z
-x,-y,-z
loop_
_atom_site_type_symbol
_atom_site_label
_atom_site_fract_x
_atom_site_fract_y
_atom_site_fract_z
Si Si1 0.103104 0.826874 0.423594
Si Si2 0.516655 0.230851 0.706672
Si Si3 0.339194 0.558565 0.297819
Si Si4 0.921189 0.756454 0.123601
Si Si5 0.655189 0.183363 0.160363
Si Si6 0.093052 0.453927 0.507292
Si Si7 0.757123 0.077334 0.778473
Si Si8 0.349885 0.206592 0.762007
O O1 0.132169 0.654992 0.525664
O O2 0.157824 0.882324 0.259932
O O3 0.016709 0.750503 0.216198
O O4 0.095178 0.020602 0.689736
O O5 0.567254 0.369174 0.625665
O O6 0.579575 0.219125 0.962816
O O7 0.430771 0.303207 0.751060
O O8 0.500000 0.000000 0.500000
O O9 0.289717 0.729100 0.231191
O O10 0.319327 0.601962 0.587704
O O11 0.323438 0.352740 0.035359
O O12 0.883163 0.618657 0.244847
O O13 0.899559 0.700851 0.798463
O O14 0.731630 0.083971 0.044282
O O15 0.626159 0.003203 0.221379
O O16 0.000000 0.500000 0.500000
O O17 0.716409 0.874377 0.522158
#
# Coordination Sequence:
#
# PCOD9006980 Si02
#       8
#     2   2   2   2   2   2   2   2
#     4  10  22  42  69  93 133 175 214 276 332 389
#     4  11  19  38  64  82 120 155 202 264 313 365
#     4  10  23  39  59  91 116 161 208 257 316 378
#     4  10  23  43  69 106 130 173 232 278 333 402
#     4  10  21  39  58  86 121 157 206 254 316 372
#     4  10  21  42  67 103 135 168 220 283 331 397
#     4  10  23  44  58  86 129 169 199 259 320 386
#     4  11  22  39  61  88 121 156 209 258 310 384
#
# _framework density 25.983848999999999
#
# number of rings (size 3 to 8) (size 9 to 14) (size 15 to 20)
#    0.000    1.750    3.750    2.250    0.000    9.000 
#   20.250    0.000    0.000    0.000    0.000    0.000 
#    0.000    0.000    0.000    0.000    0.000    0.000 
#
# Total GULP energy -89459.270213 kJ/mol
# GULP energy per Si atom -5591.204388 kJ/mol
# Density = 2.592471 g / cm^3
# Si number density = 25.983849 Si / 1000 Ang^3
#
#
#
# Elastic Constant Matrix: (Units=GPa)
#
#
# Indices 1 2 3 4 5 6 
#
# 1 110.1468 35.1993 37.3351 -3.2200 -9.8856 28.2990
# 2 35.1993 77.7945 40.0616 11.6869 -3.3939 11.6348
# 3 37.3351 40.0616 170.0957 32.6690 -33.7213 6.5937
# 4 -3.2200 11.6869 32.6690 43.6890 0.4208 -12.1212
# 5 -9.8856 -3.3939 -33.7213 0.4208 32.4528 -7.0200
# 6 28.2990 11.6348 6.5937 -12.1212 -7.0200 27.5033
#
#
#
# Elastic Compliance Matrix: (Units=1/GPa)
#
#
# Indices 1 2 3 4 5 6 
#
# 1 0.014045 -0.003472 -0.001903 -0.000159 -0.000830 -0.012808
# 2 -0.003472 0.017309 -0.002979 -0.004236 -0.003544 -0.005808
# 3 -0.001903 -0.002979 0.010340 -0.007132 0.009977 0.000142
# 4 -0.000159 -0.004236 -0.007132 0.034274 -0.004537 0.017613
# 5 -0.000830 -0.003544 0.009977 -0.004537 0.042523 0.008816
# 6 -0.012808 -0.005808 0.000142 0.017613 0.008816 0.061973
#
#
# Mechanical properties :
#
#
# Convention : Reuss Voigt Hill
#
# Bulk Modulus (GPa) = 40.01805 64.80320 52.41063
# Shear Modulus (GPa) = 24.33086 37.09175 30.71130
#
# Velocity S-wave (km/s) = 3.06336 3.78232 3.44166
# Velocity P-wave (km/s) = 5.28647 6.63841 6.00064
#
# Compressibility (1/GPa) = 0.02498872
#
# Stress axis : x y z
#
# Youngs Moduli (GPa) = 71.20137 57.77203 96.70774
#
# Poissons Ratio (x) = 0.20057 0.18400
# Poissons Ratio (y) = 0.24719 0.28805
# Poissons Ratio (z) = 0.13547 0.17208
#
# Static dielectric constant tensor:
#      x y z
#    x 2.055620 0.033130 -0.055960 
#    y 0.033130 2.097950 -0.115250 
#    z -0.055960 -0.115250 2.205650 
# 
# From -- ./inp_files/107803.got.cif
#   From: 2010.05.17/outbox.cif.g08.bks.cpg/sg2_54_cif.got.tgz:107803.got - 2010.06.03 11:33:40.
