data_PCOD9006761
_publ_section_title
;
Structure prediction by ZEFSAII (Michael W. Deem and Ramdas Pophale) SiO2 
 PCOD9006761
Probable space group: P -1
;
_chemical_formula_sum "Si O2"
_cell_formula_units_Z 16
_cell_length_a 12.833419
_cell_length_b 8.933714
_cell_length_c 8.711084
_cell_angle_alpha 82.414261
_cell_angle_beta 44.410738
_cell_angle_gamma 101.664198
_cell_volume 626.325380
_symmetry_space_group_name_H-M "P -1"
_symmetry_group_IT_number 2
_symmetry_cell_setting 'triclinic'
loop_
_space_group_symop_operation_xyz
x,y,z
-x,-y,-z
loop_
_atom_site_type_symbol
_atom_site_label
_atom_site_fract_x
_atom_site_fract_y
_atom_site_fract_z
Si Si1 0.026645 0.011741 0.210767
Si Si2 0.742603 0.348197 0.319672
Si Si3 0.665645 0.006648 0.985711
Si Si4 0.146032 0.684943 0.470744
Si Si5 0.539105 0.221509 0.275959
Si Si6 0.699601 0.828780 0.716083
Si Si7 0.961629 0.722582 0.090438
Si Si8 0.786092 0.546422 0.789384
O O1 0.885102 0.972834 0.491342
O O2 0.974645 0.829005 0.213792
O O3 0.212423 0.064973 0.061543
O O4 0.022909 0.145716 0.076387
O O5 0.754237 0.271172 0.481923
O O6 0.575645 0.260999 0.411060
O O7 0.804819 0.546039 0.255522
O O8 0.881942 0.322508 0.075707
O O9 0.779144 0.177777 0.756586
O O10 0.586581 0.881948 0.941256
O O11 0.575527 0.066863 0.200617
O O12 0.159451 0.522972 0.408960
O O13 0.953581 0.640164 0.697086
O O14 0.366090 0.187713 0.386075
O O15 0.662116 0.391949 0.039084
O O16 0.705487 0.665418 0.801348
#
# Coordination Sequence:
#
# PCOD9006761 Si02
#       8
#     2   2   2   2   2   2   2   2
#     4  11  22  41  63  99 122 156 212 271 298 366
#     4  11  21  39  65  93 126 166 205 250 315 373
#     4  11  23  42  65  92 124 165 212 262 310 360
#     4  10  21  38  68  98 120 158 213 265 306 356
#     4  11  25  42  59  91 135 170 201 250 317 383
#     4  12  24  39  65  91 128 166 212 253 315 372
#     4  10  22  37  66  93 125 157 209 261 314 352
#     4  10  21  39  64  94 126 160 209 265 305 362
#
# _framework density 25.545829000000001
#
# number of rings (size 3 to 8) (size 9 to 14) (size 15 to 20)
#    0.000    1.250    2.500    4.125    5.250    0.000 
#    0.000    5.000    5.500    0.000    0.000    0.000 
#    0.000    0.000    0.000    0.000    0.000    0.000 
#
# Total GULP energy -89638.585054 kJ/mol
# GULP energy per Si atom -5602.411566 kJ/mol
# Density = 2.548769 g / cm^3
# Si number density = 25.545829 Si / 1000 Ang^3
#
#
#
# Elastic Constant Matrix: (Units=GPa)
#
#
# Indices 1 2 3 4 5 6 
#
# 1 153.8255 23.6305 0.7285 -1.0576 9.6171 8.7340
# 2 23.6305 111.0096 3.5748 5.0742 5.1091 -5.0344
# 3 0.7285 3.5748 36.2833 -7.9753 -0.0133 -1.1309
# 4 -1.0576 5.0742 -7.9753 42.4645 5.3363 12.0452
# 5 9.6171 5.1091 -0.0133 5.3363 26.3416 3.8954
# 6 8.7340 -5.0344 -1.1309 12.0452 3.8954 44.4802
#
#
#
# Elastic Compliance Matrix: (Units=1/GPa)
#
#
# Indices 1 2 3 4 5 6 
#
# 1 0.006974 -0.001515 0.000208 0.001143 -0.002240 -0.001649
# 2 -0.001515 0.009600 -0.001255 -0.001820 -0.001229 0.001953
# 3 0.000208 -0.001255 0.028965 0.005987 -0.000885 -0.000990
# 4 0.001143 -0.001820 0.005987 0.027577 -0.004561 -0.007346
# 5 -0.002240 -0.001229 -0.000885 -0.004561 0.040240 -0.002011
# 6 -0.001649 0.001953 -0.000990 -0.007346 -0.002011 0.025167
#
#
# Mechanical properties :
#
#
# Convention : Reuss Voigt Hill
#
# Bulk Modulus (GPa) = 24.74324 39.66510 32.20417
# Shear Modulus (GPa) = 31.82323 40.86956 36.34639
#
# Velocity S-wave (km/s) = 3.53332 4.00415 3.77608
# Velocity P-wave (km/s) = 5.13348 6.07770 5.62544
#
# Compressibility (1/GPa) = 0.04041508
#
# Stress axis : x y z
#
# Youngs Moduli (GPa) = 143.38590 104.17199 34.52421
#
# Poissons Ratio (x) = 0.15785 -0.00719
# Poissons Ratio (y) = 0.21726 0.04333
# Poissons Ratio (z) = -0.02987 0.13073
#
# Static dielectric constant tensor:
#      x y z
#    x 2.033330 0.053120 -0.006010 
#    y 0.053120 1.996530 0.033750 
#    z -0.006010 0.033750 1.966690 
# 
# From -- ./inp_files/243346.got.cif
#   From: 2010.05.17/outbox.cif.g08.bks.cpg/sg2_122_cif.got.tgz:243346.got - 2010.06.03 11:33:40.
