data_PCOD9006648
_publ_section_title
;
Structure prediction by ZEFSAII (Michael W. Deem and Ramdas Pophale) SiO2 
 PCOD9006648
Probable space group: P -1
;
_chemical_formula_sum "Si O2"
_cell_formula_units_Z 16
_cell_length_a 22.765293
_cell_length_b 7.977887
_cell_length_c 9.797312
_cell_angle_alpha 131.854337
_cell_angle_beta 130.387956
_cell_angle_gamma 87.531214
_cell_volume 734.370163
_symmetry_space_group_name_H-M "P -1"
_symmetry_group_IT_number 2
_symmetry_cell_setting 'triclinic'
loop_
_space_group_symop_operation_xyz
x,y,z
-x,-y,-z
loop_
_atom_site_type_symbol
_atom_site_label
_atom_site_fract_x
_atom_site_fract_y
_atom_site_fract_z
Si Si1 0.109228 0.899299 0.072038
Si Si2 0.390297 0.809912 0.648049
Si Si3 0.521605 0.555520 0.903420
Si Si4 0.805361 0.148821 0.284275
Si Si5 0.009427 0.275106 0.706415
Si Si6 0.716405 0.767374 0.678752
Si Si7 0.049735 0.214038 0.028120
Si Si8 0.588910 0.524779 0.722193
O O1 0.929114 0.432642 0.143410
O O2 0.061607 0.928557 0.149664
O O3 0.230957 0.134693 0.336897
O O4 0.059408 0.963014 0.913392
O O5 0.295004 0.505095 0.421929
O O6 0.401267 0.690742 0.460311
O O7 0.500000 0.000000 0.000000
O O8 0.388980 0.071814 0.770653
O O9 0.403859 0.387054 0.582374
O O10 0.560232 0.445108 0.795027
O O11 0.500000 0.500000 0.000000
O O12 0.893045 0.148943 0.468322
O O13 0.857360 0.494123 0.579199
O O14 0.783454 0.053024 0.039856
O O15 0.697056 0.877996 0.051603
O O16 0.000000 0.000000 0.500000
O O17 0.059757 0.355170 0.975351
O O18 0.500000 0.500000 0.500000
#
# Coordination Sequence:
#
# PCOD9006648 Si02
#       8
#     2   2   2   2   2   2   2   2
#     4  10  22  40  65  93 130 166 219 266 335 403
#     4   9  19  38  65  88 124 174 219 263 323 399
#     4  11  24  40  63  97 135 172 220 283 335 387
#     4  10  21  38  67  95 125 175 225 264 336 405
#     4  11  24  44  66  93 137 172 218 282 330 400
#     4  10  21  40  61  95 123 168 225 254 328 411
#     4  10  23  40  65  97 129 170 218 277 339 396
#     4  11  20  40  68  94 129 176 227 272 327 412
#
# _framework density 21.787379000000001
#
# number of rings (size 3 to 8) (size 9 to 14) (size 15 to 20)
#    0.000    1.750    3.750    2.250    1.750    8.000 
#    4.500    0.000    0.000    0.000    0.000    0.000 
#    0.000    0.000    0.000    0.000    0.000    0.000 
#
# Total GULP energy -89186.366120 kJ/mol
# GULP energy per Si atom -5574.147882 kJ/mol
# Density = 2.173779 g / cm^3
# Si number density = 21.787379 Si / 1000 Ang^3
#
#
#
# Elastic Constant Matrix: (Units=GPa)
#
#
# Indices 1 2 3 4 5 6 
#
# 1 95.3794 31.4137 27.3788 23.9748 -5.3339 21.7992
# 2 31.4137 98.4819 42.7068 16.7587 -10.4551 4.5446
# 3 27.3788 42.7068 90.5852 14.8239 -14.6277 13.5428
# 4 23.9748 16.7587 14.8239 28.5944 4.8966 0.5007
# 5 -5.3339 -10.4551 -14.6277 4.8966 35.7319 3.5658
# 6 21.7992 4.5446 13.5428 0.5007 3.5658 36.0041
#
#
#
# Elastic Compliance Matrix: (Units=1/GPa)
#
#
# Indices 1 2 3 4 5 6 
#
# 1 0.017423 -0.002355 0.000634 -0.014259 0.005204 -0.010807
# 2 -0.002355 0.013935 -0.005104 -0.003919 0.002030 0.001440
# 3 0.000634 -0.005104 0.016547 -0.007205 0.007017 -0.006558
# 4 -0.014259 -0.003919 -0.007205 0.055318 -0.015059 0.012560
# 5 0.005204 0.002030 0.007017 -0.015059 0.035223 -0.009325
# 6 -0.010807 0.001440 -0.006558 0.012560 -0.009325 0.037352
#
#
# Mechanical properties :
#
#
# Convention : Reuss Voigt Hill
#
# Bulk Modulus (GPa) = 29.19377 54.16057 41.67717
# Shear Modulus (GPa) = 24.89217 32.26256 28.57737
#
# Velocity S-wave (km/s) = 3.38376 3.85228 3.62560
# Velocity P-wave (km/s) = 5.35677 6.68576 6.05782
#
# Compressibility (1/GPa) = 0.03425388
#
# Stress axis : x y z
#
# Youngs Moduli (GPa) = 57.39435 71.76391 60.43517
#
# Poissons Ratio (x) = 0.16899 -0.03829
# Poissons Ratio (y) = 0.13515 0.30846
# Poissons Ratio (z) = -0.03636 0.36628
#
# Static dielectric constant tensor:
#      x y z
#    x -8.450840 -10.457850 11.548310 
#    y -10.457850 -8.757030 11.747860 
#    z 11.548310 11.747860 -11.205080 
# 
# From -- ./inp_files/352433.got.cif
#   From: 2010.05.17/outbox.cif.g08.bks.cpg/sg2_177_cif.got.tgz:352433.got - 2010.06.03 11:33:40.
