data_PCOD9006851
_publ_section_title
;
Structure prediction by ZEFSAII (Michael W. Deem and Ramdas Pophale) SiO2 
 PCOD9006851
Probable space group: P -1
;
_chemical_formula_sum "Si O2"
_cell_formula_units_Z 16
_cell_length_a 9.297742
_cell_length_b 5.547384
_cell_length_c 16.723250
_cell_angle_alpha 71.720164
_cell_angle_beta 63.870778
_cell_angle_gamma 73.289191
_cell_volume 723.943276
_symmetry_space_group_name_H-M "P -1"
_symmetry_group_IT_number 2
_symmetry_cell_setting 'triclinic'
loop_
_space_group_symop_operation_xyz
x,y,z
-x,-y,-z
loop_
_atom_site_type_symbol
_atom_site_label
_atom_site_fract_x
_atom_site_fract_y
_atom_site_fract_z
Si Si1 0.731678 0.030308 0.318693
Si Si2 0.295434 0.402093 0.204527
Si Si3 0.098664 0.206940 0.996633
Si Si4 0.657623 0.012803 0.905805
Si Si5 0.430325 0.453296 0.335710
Si Si6 0.686668 0.517020 0.472758
Si Si7 0.072076 0.653366 0.699569
Si Si8 0.305025 0.231870 0.793498
O O1 0.707978 0.787957 0.401523
O O2 0.712128 0.013111 0.229915
O O3 0.578667 0.246407 0.355946
O O4 0.910564 0.082594 0.288651
O O5 0.333612 0.685702 0.143477
O O6 0.367703 0.347847 0.280933
O O7 0.102990 0.412008 0.258934
O O8 0.350896 0.176919 0.148736
O O9 0.247336 0.221167 0.898068
O O10 0.000000 0.500000 0.000000
O O11 0.180574 0.103860 0.070603
O O12 0.000000 0.000000 0.000000
O O13 0.500000 0.000000 0.000000
O O14 0.300346 0.510173 0.432378
O O15 0.518548 0.694316 0.268681
O O16 0.500000 0.500000 0.500000
O O17 0.827113 0.333830 0.408387
O O18 0.176689 0.447046 0.755347
#
# Coordination Sequence:
#
# PCOD9006851 Si02
#       8
#     2   2   2   2   2   2   2   2
#     4  10  21  38  70  96 135 177 235 293 351 412
#     4  12  29  47  71 104 148 192 232 289 366 425
#     4  12  27  44  74 108 137 180 240 304 353 421
#     4  12  28  52  74 102 150 193 238 293 366 435
#     4  11  24  40  68  98 134 183 238 286 339 434
#     4  11  20  40  66 104 132 179 238 294 350 406
#     4  10  23  41  66  99 143 181 223 291 356 419
#     4  10  22  40  68  97 132 173 239 286 350 413
#
# _framework density 22.101178000000001
#
# number of rings (size 3 to 8) (size 9 to 14) (size 15 to 20)
#    0.000    1.000    3.750    3.750   12.250    0.500 
#    0.000    0.625    0.000    0.000    0.000    0.000 
#    0.000    0.000    0.000    0.000    0.000    0.000 
#
# Total GULP energy -89303.760216 kJ/mol
# GULP energy per Si atom -5581.485013 kJ/mol
# Density = 2.205087 g / cm^3
# Si number density = 22.101178 Si / 1000 Ang^3
#
#
#
# Elastic Constant Matrix: (Units=GPa)
#
#
# Indices 1 2 3 4 5 6 
#
# 1 112.3225 37.1122 41.3275 1.7021 3.7137 26.6656
# 2 37.1122 97.6851 40.1957 11.8521 2.9610 22.9960
# 3 41.3275 40.1957 151.8361 26.2911 3.1420 18.1115
# 4 1.7021 11.8521 26.2911 38.3471 6.7012 3.7100
# 5 3.7137 2.9610 3.1420 6.7012 39.2691 0.4660
# 6 26.6656 22.9960 18.1115 3.7100 0.4660 32.7894
#
#
#
# Elastic Compliance Matrix: (Units=1/GPa)
#
#
# Indices 1 2 3 4 5 6 
#
# 1 0.012243 -0.002255 -0.002287 0.002641 -0.001168 -0.007395
# 2 -0.002255 0.013647 -0.001844 -0.002190 -0.000218 -0.006468
# 3 -0.002287 -0.001844 0.008733 -0.005312 0.000576 -0.001078
# 4 0.002641 -0.002190 -0.005312 0.031261 -0.004981 -0.001143
# 5 -0.001168 -0.000218 0.000576 -0.004981 0.026384 0.000973
# 6 -0.007395 -0.006468 -0.001078 -0.001143 0.000973 0.041759
#
#
# Mechanical properties :
#
#
# Convention : Reuss Voigt Hill
#
# Bulk Modulus (GPa) = 45.75979 66.56828 56.16403
# Shear Modulus (GPa) = 32.45020 38.29500 35.37260
#
# Velocity S-wave (km/s) = 3.83594 4.16710 4.00495
# Velocity P-wave (km/s) = 6.35365 7.30330 6.84496
#
# Compressibility (1/GPa) = 0.02185325
#
# Stress axis : x y z
#
# Youngs Moduli (GPa) = 81.67715 73.27443 114.50655
#
# Poissons Ratio (x) = 0.16522 0.26183
# Poissons Ratio (y) = 0.18417 0.21114
# Poissons Ratio (z) = 0.18676 0.13511
#
# Static dielectric constant tensor:
#      x y z
#    x 1.841910 0.017450 0.013230 
#    y 0.017450 2.021290 0.088170 
#    z 0.013230 0.088170 1.846470 
# 
# From -- ./inp_files/97898.got.cif
#   From: 2010.05.17/outbox.cif.g08.bks.cpg/sg2_49_cif.got.tgz:97898.got - 2010.06.03 11:33:40.
