data_PCOD9006140
_publ_section_title
;
Structure prediction by ZEFSAII (Michael W. Deem and Ramdas Pophale) SiO2 
 PCOD9006140
Probable space group: P -1
;
_chemical_formula_sum "Si O2"
_cell_formula_units_Z 14
_cell_length_a 9.461672
_cell_length_b 17.888030
_cell_length_c 23.533396
_cell_angle_alpha 19.871628
_cell_angle_beta 153.097176
_cell_angle_gamma 149.734006
_cell_volume 604.447685
_symmetry_space_group_name_H-M "P -1"
_symmetry_group_IT_number 2
_symmetry_cell_setting 'triclinic'
loop_
_space_group_symop_operation_xyz
x,y,z
-x,-y,-z
loop_
_atom_site_type_symbol
_atom_site_label
_atom_site_fract_x
_atom_site_fract_y
_atom_site_fract_z
Si Si1 0.206460 0.373288 0.358945
Si Si2 0.568926 0.015681 0.911006
Si Si3 0.264885 0.213274 0.753964
Si Si4 0.463396 0.738560 0.841327
Si Si5 0.638664 0.468424 0.870355
Si Si6 0.594132 0.219088 0.524949
Si Si7 0.904448 0.597391 0.191037
O O1 0.408940 0.615158 0.245641
O O2 0.464600 0.220065 0.542901
O O3 0.912471 0.283435 0.277331
O O4 0.052933 0.418448 0.332794
O O5 0.742510 0.949654 0.078325
O O6 0.461147 0.789741 0.999927
O O7 0.279392 0.108434 0.771643
O O8 0.796058 0.215705 0.817550
O O9 0.956009 0.323737 0.570100
O O10 0.574898 0.960611 0.686712
O O11 0.500000 0.500000 0.000000
O O12 0.680270 0.738445 0.973943
O O13 0.610183 0.639604 0.686934
O O14 0.352960 0.513525 0.777110
O O15 0.000000 0.500000 0.000000
#
# Coordination Sequence:
#
# PCOD9006140 Si02
#       7
#     2   2   2   2   2   2   2
#     4  10  21  38  64  98 134 169 225 279 322 397
#     4  10  21  42  69  95 136 178 228 273 340 395
#     4  10  21  39  71 103 122 175 236 286 316 389
#     4  10  22  41  66  95 130 176 229 278 328 394
#     4  12  27  44  66 101 144 180 219 279 346 402
#     4  12  23  41  68 101 130 178 234 277 333 396
#     4  10  22  43  65  95 135 182 220 273 344 395
#
# _framework density 23.161639999999998
#
# number of rings (size 3 to 8) (size 9 to 14) (size 15 to 20)
#    0.000    1.429    2.857    2.143    2.000    1.143 
#    0.000   12.143    0.000    0.000    0.000    0.000 
#    0.000    0.000    0.000    0.000    0.000    0.000 
#
# Total GULP energy -77964.641032 kJ/mol
# GULP energy per Si atom -5568.902931 kJ/mol
# Density = 2.310892 g / cm^3
# Si number density = 23.161640 Si / 1000 Ang^3
#
#
#
# Elastic Constant Matrix: (Units=GPa)
#
#
# Indices 1 2 3 4 5 6 
#
# 1 128.8866 46.3488 19.2549 2.7125 21.5871 25.4150
# 2 46.3488 100.6771 17.8489 -4.1213 11.0364 12.6772
# 3 19.2549 17.8489 45.1876 -6.8513 12.9681 -11.9074
# 4 2.7125 -4.1213 -6.8513 29.6863 7.3154 5.3169
# 5 21.5871 11.0364 12.9681 7.3154 27.4734 -2.0887
# 6 25.4150 12.6772 -11.9074 5.3169 -2.0887 26.5660
#
#
#
# Elastic Compliance Matrix: (Units=1/GPa)
#
#
# Indices 1 2 3 4 5 6 
#
# 1 0.014354 -0.002214 -0.006779 0.002053 -0.009016 -0.016834
# 2 -0.002214 0.013115 -0.004995 0.002748 -0.002444 -0.007121
# 3 -0.006779 -0.004995 0.037112 0.006833 -0.010230 0.023331
# 4 0.002053 0.002748 0.006833 0.041618 -0.017780 -0.009940
# 5 -0.009016 -0.002444 -0.010230 -0.017780 0.055023 0.013091
# 6 -0.016834 -0.007121 0.023331 -0.009940 0.013091 0.070621
#
#
# Mechanical properties :
#
#
# Convention : Reuss Voigt Hill
#
# Bulk Modulus (GPa) = 27.31998 49.07294 38.19646
# Shear Modulus (GPa) = 18.38094 29.49839 23.93967
#
# Velocity S-wave (km/s) = 2.82014 3.57261 3.21844
# Velocity P-wave (km/s) = 4.73552 6.18476 5.50801
#
# Compressibility (1/GPa) = 0.03660325
#
# Stress axis : x y z
#
# Youngs Moduli (GPa) = 69.66668 76.24981 26.94580
#
# Poissons Ratio (x) = 0.16884 0.18266
# Poissons Ratio (y) = 0.15426 0.13460
# Poissons Ratio (z) = 0.47227 0.38090
#
# Static dielectric constant tensor:
#      x y z
#    x 1.974860 -0.022670 0.042080 
#    y -0.022670 1.913930 -0.001730 
#    z 0.042080 -0.001730 1.824110 
# 
# From -- ./inp_files/460980.got.cif
#   From: 2010.05.17/outbox.cif.g08.bks.cpg/sg2_231_cif.got.tgz:460980.got - 2010.06.03 11:33:40.
