data_PCOD9006928
_publ_section_title
;
Structure prediction by ZEFSAII (Michael W. Deem and Ramdas Pophale) SiO2 
 PCOD9006928
Probable space group: P -1
;
_chemical_formula_sum "Si O2"
_cell_formula_units_Z 16
_cell_length_a 13.709677
_cell_length_b 16.953826
_cell_length_c 10.979526
_cell_angle_alpha 118.948745
_cell_angle_beta 108.034732
_cell_angle_gamma 22.497101
_cell_volume 778.987729
_symmetry_space_group_name_H-M "P -1"
_symmetry_group_IT_number 2
_symmetry_cell_setting 'triclinic'
loop_
_space_group_symop_operation_xyz
x,y,z
-x,-y,-z
loop_
_atom_site_type_symbol
_atom_site_label
_atom_site_fract_x
_atom_site_fract_y
_atom_site_fract_z
Si Si1 0.169611 0.670255 0.012732
Si Si2 0.943012 0.230734 0.232847
Si Si3 0.028785 0.072009 0.501198
Si Si4 0.737282 0.462767 0.568792
Si Si5 0.320051 0.950888 0.728364
Si Si6 0.672630 0.775732 0.555187
Si Si7 0.190545 0.865216 0.150638
Si Si8 0.333758 0.019214 0.385898
O O1 0.118630 0.820111 0.114540
O O2 0.490995 0.392418 0.964954
O O3 0.941701 0.807562 0.110013
O O4 0.130183 0.679630 0.862733
O O5 0.981754 0.091838 0.153698
O O6 0.234984 0.033345 0.250448
O O7 0.718187 0.447482 0.408001
O O8 0.757112 0.355732 0.575574
O O9 0.198613 0.995106 0.600617
O O10 0.167234 0.937735 0.324207
O O11 0.000000 0.000000 0.500000
O O12 0.510682 0.722723 0.704131
O O13 0.046524 0.255698 0.532370
O O14 0.508584 0.873228 0.681988
O O15 0.608550 0.931818 0.615972
O O16 0.000000 0.500000 0.500000
O O17 0.575025 0.801958 0.414586
#
# Coordination Sequence:
#
# PCOD9006928 Si02
#       8
#     2   2   2   2   2   2   2   2
#     4  11  23  36  56  83 121 156 196 232 289 351
#     4   9  19  40  57  79 114 158 194 232 286 351
#     4  11  21  39  59  87 121 150 194 246 287 337
#     4   9  20  37  60  83 114 153 192 236 289 339
#     4  12  22  36  58  94 117 149 195 245 293 338
#     4  11  19  36  63  90 115 143 191 252 294 339
#     4  10  21  39  57  81 114 165 196 231 287 345
#     4   9  20  35  61  87 109 150 194 237 297 344
#
# _framework density 20.539476000000001
#
# number of rings (size 3 to 8) (size 9 to 14) (size 15 to 20)
#    0.750    1.000    3.750    1.125    0.000    2.500 
#    2.250    0.625    0.000    1.500    0.000    0.000 
#    0.000    0.000    0.000    0.000    0.000    0.000 
#
# Total GULP energy -89204.016374 kJ/mol
# GULP energy per Si atom -5575.251023 kJ/mol
# Density = 2.049273 g / cm^3
# Si number density = 20.539476 Si / 1000 Ang^3
#
#
#
# Elastic Constant Matrix: (Units=GPa)
#
#
# Indices 1 2 3 4 5 6 
#
# 1 92.8055 8.9151 8.3402 9.8686 -24.1461 15.4670
# 2 8.9151 64.6576 6.6902 0.7543 -14.0059 0.5481
# 3 8.3402 6.6902 17.6985 6.1725 -9.2467 1.8871
# 4 9.8686 0.7543 6.1725 24.4716 -8.9830 3.6441
# 5 -24.1461 -14.0059 -9.2467 -8.9830 30.7468 0.1307
# 6 15.4670 0.5481 1.8871 3.6441 0.1307 31.4559
#
#
#
# Elastic Compliance Matrix: (Units=1/GPa)
#
#
# Indices 1 2 3 4 5 6 
#
# 1 0.015151 0.000589 -0.000095 -0.000593 0.011996 -0.007435
# 2 0.000589 0.017532 -0.003623 0.003312 0.008331 -0.000796
# 3 -0.000095 -0.003623 0.070641 -0.011277 0.016237 -0.002889
# 4 -0.000593 0.003312 -0.011277 0.048958 0.011976 -0.004811
# 5 0.011996 0.008331 0.016237 0.011976 0.054158 -0.008630
# 6 -0.007435 -0.000796 -0.002889 -0.004811 -0.008630 0.036227
#
#
# Mechanical properties :
#
#
# Convention : Reuss Voigt Hill
#
# Bulk Modulus (GPa) = 10.30225 24.78362 17.54293
# Shear Modulus (GPa) = 17.77594 27.41592 22.59593
#
# Velocity S-wave (km/s) = 2.94505 3.65744 3.32041
# Velocity P-wave (km/s) = 4.07322 5.47068 4.82284
#
# Compressibility (1/GPa) = 0.09706622
#
# Stress axis : x y z
#
# Youngs Moduli (GPa) = 66.00408 57.03717 14.15616
#
# Poissons Ratio (x) = -0.03362 0.00135
# Poissons Ratio (y) = -0.03890 0.05129
# Poissons Ratio (z) = 0.00628 0.20664
#
# Static dielectric constant tensor:
#      x y z
#    x 1.778790 0.010880 0.014410 
#    y 0.010880 1.796510 -0.006520 
#    z 0.014410 -0.006520 1.727650 
# 
# From -- ./inp_files/456753.got.cif
#   From: 2010.05.17/outbox.cif.g08.bks.cpg/sg2_229_cif.got.tgz:456753.got - 2010.06.03 11:33:40.
