data_PCOD9006909
_publ_section_title
;
Structure prediction by ZEFSAII (Michael W. Deem and Ramdas Pophale) SiO2 
 PCOD9006909
Probable space group: P -1
;
_chemical_formula_sum "Si O2"
_cell_formula_units_Z 16
_cell_length_a 12.648701
_cell_length_b 8.828470
_cell_length_c 8.502430
_cell_angle_alpha 89.753197
_cell_angle_beta 124.135715
_cell_angle_gamma 86.022952
_cell_volume 782.906651
_symmetry_space_group_name_H-M "P -1"
_symmetry_group_IT_number 2
_symmetry_cell_setting 'triclinic'
loop_
_space_group_symop_operation_xyz
x,y,z
-x,-y,-z
loop_
_atom_site_type_symbol
_atom_site_label
_atom_site_fract_x
_atom_site_fract_y
_atom_site_fract_z
Si Si1 0.090001 0.939062 0.932381
Si Si2 0.343300 0.587029 0.599735
Si Si3 0.842398 0.770774 0.188261
Si Si4 0.609473 0.750552 0.495332
Si Si5 0.382764 0.385554 0.146986
Si Si6 0.133890 0.211450 0.417701
Si Si7 0.070459 0.546736 0.402415
Si Si8 0.331960 0.721333 0.238749
O O1 0.988190 0.873525 0.730039
O O2 0.158409 0.073082 0.905772
O O3 0.201967 0.816216 0.082797
O O4 0.000000 0.000000 0.000000
O O5 0.370699 0.407791 0.585234
O O6 0.470200 0.635235 0.789117
O O7 0.204398 0.610417 0.560538
O O8 0.329581 0.668963 0.418827
O O9 0.849655 0.794507 0.381030
O O10 0.971075 0.669835 0.239347
O O11 0.720306 0.680158 0.049895
O O12 0.619563 0.701526 0.686507
O O13 0.729499 0.842887 0.547960
O O14 0.462379 0.808446 0.334158
O O15 0.348210 0.563631 0.155031
O O16 0.102283 0.388668 0.338091
O O17 0.000000 0.500000 0.500000
#
# Coordination Sequence:
#
# PCOD9006909 Si02
#       8
#     2   2   2   2   2   2   2   2
#     4  12  24  37  54  79 108 145 183 219 265 320
#     4   8  15  31  56  84 109 134 175 226 266 305
#     4  11  22  36  53  82 113 142 176 218 267 321
#     4   8  16  34  59  81 104 137 180 224 265 308
#     4   9  17  34  60  84 105 136 179 224 265 313
#     4  10  21  39  56  76 109 144 177 223 269 314
#     4   9  18  34  56  80 107 142 177 214 265 318
#     4   9  18  35  58  82 107 138 178 224 266 313
#
# _framework density 20.436662999999999
#
# number of rings (size 3 to 8) (size 9 to 14) (size 15 to 20)
#    0.000    2.500    0.000    4.125    0.000    0.000 
#    0.000   25.000    0.000    0.000    0.000    0.000 
#    0.000    0.000    0.000    0.000    0.000    0.000 
#
# Total GULP energy -89263.157834 kJ/mol
# GULP energy per Si atom -5578.947365 kJ/mol
# Density = 2.039015 g / cm^3
# Si number density = 20.436663 Si / 1000 Ang^3
#
#
#
# Elastic Constant Matrix: (Units=GPa)
#
#
# Indices 1 2 3 4 5 6 
#
# 1 94.4365 15.3586 45.3304 0.3218 44.9560 6.6507
# 2 15.3586 45.2049 36.6580 -7.1692 16.1232 5.1872
# 3 45.3304 36.6580 121.0767 -2.0162 40.9061 -19.7667
# 4 0.3218 -7.1692 -2.0162 10.1991 5.3491 -12.9186
# 5 44.9560 16.1232 40.9061 5.3491 39.4779 3.6119
# 6 6.6507 5.1872 -19.7667 -12.9186 3.6119 -0.2230
#
#
#
# Elastic Compliance Matrix: (Units=1/GPa)
#
#
# Indices 1 2 3 4 5 6 
#
# 1 0.025292 0.006260 -0.002141 0.010546 -0.029966 -0.006591
# 2 0.006260 0.037766 -0.008499 0.026763 -0.016884 -0.005337
# 3 -0.002141 -0.008499 0.009478 -0.018888 -0.000269 -0.011839
# 4 0.010546 0.026763 -0.018888 0.044813 -0.004365 -0.055478
# 5 -0.029966 -0.016884 -0.000269 -0.004365 0.064306 0.031846
# 6 -0.006591 -0.005337 -0.011839 -0.055478 0.031846 -0.025968
#
#
# Mechanical properties :
#
#
# Convention : Reuss Voigt Hill
#
# Bulk Modulus (GPa) = 15.68026 50.60136 33.14081
# Shear Modulus (GPa) = 26.92430 20.78222 23.85326
#
# Velocity S-wave (km/s) = 3.63361 3.19236 3.42011
# Velocity P-wave (km/s) = 5.02926 6.19694 5.64338
#
# Compressibility (1/GPa) = 0.06377445
#
# Stress axis : x y z
#
# Youngs Moduli (GPa) = 39.53835 26.47886 105.51079
#
# Poissons Ratio (x) = -0.16575 0.22589
# Poissons Ratio (y) = -0.24750 0.89678
# Poissons Ratio (z) = 0.08465 0.22505
#
# Static dielectric constant tensor:
#      x y z
#    x 1.767040 -0.013840 0.028650 
#    y -0.013840 1.766750 0.003340 
#    z 0.028650 0.003340 1.725910 
# 
# From -- ./inp_files/158697.got.cif
#   From: 2010.05.17/outbox.cif.g08.bks.cpg/sg2_80_cif.got.tgz:158697.got - 2010.06.03 11:33:40.
