data_PCOD9006549
_publ_section_title
;
Structure prediction by ZEFSAII (Michael W. Deem and Ramdas Pophale) SiO2 
 PCOD9006549
Probable space group: P -1
;
_chemical_formula_sum "Si O2"
_cell_formula_units_Z 16
_cell_length_a 14.976966
_cell_length_b 15.174614
_cell_length_c 12.414131
_cell_angle_alpha 41.079942
_cell_angle_beta 60.218581
_cell_angle_gamma 28.672324
_cell_volume 758.554809
_symmetry_space_group_name_H-M "P -1"
_symmetry_group_IT_number 2
_symmetry_cell_setting 'triclinic'
loop_
_space_group_symop_operation_xyz
x,y,z
-x,-y,-z
loop_
_atom_site_type_symbol
_atom_site_label
_atom_site_fract_x
_atom_site_fract_y
_atom_site_fract_z
Si Si1 0.400333 0.497924 0.487259
Si Si2 0.824076 0.371547 0.019310
Si Si3 0.949562 0.988908 0.429062
Si Si4 0.069581 0.253654 0.429893
Si Si5 0.165530 0.371865 0.107599
Si Si6 0.603450 0.239249 0.137227
Si Si7 0.163308 0.900543 0.068593
Si Si8 0.445609 0.144534 0.791477
O O1 0.500000 0.500000 0.500000
O O2 0.345502 0.607711 0.297253
O O3 0.515037 0.221974 0.682158
O O4 0.166362 0.741398 0.456052
O O5 0.884440 0.419157 0.021079
O O6 0.586603 0.653670 0.848919
O O7 0.796275 0.265454 0.201119
O O8 0.009371 0.143415 0.028065
O O9 0.894099 0.896879 0.549880
O O10 0.000000 0.000000 0.500000
O O11 0.146647 0.304825 0.288128
O O12 0.816475 0.558035 0.335874
O O13 0.209365 0.028307 0.648814
O O14 0.408405 0.086823 0.176183
O O15 0.000000 0.500000 0.000000
O O16 0.500000 0.500000 0.000000
O O17 0.714237 0.139637 0.047402
O O18 0.000000 0.000000 0.000000
O O19 0.500000 0.000000 0.000000
#
# Coordination Sequence:
#
# PCOD9006549 Si02
#       8
#     2   2   2   2   2   2   2   2
#     4  10  25  38  66 106 131 179 240 294 357 413
#     4  11  26  44  69 108 136 190 242 284 358 422
#     4  10  21  38  66  97 138 168 236 300 346 410
#     4  11  25  46  68 104 136 190 237 287 360 418
#     4  12  27  46  73 100 150 192 233 293 353 433
#     4  12  24  44  76 103 141 186 235 299 355 417
#     4  11  23  45  71 104 149 180 235 306 357 418
#     4  11  25  44  67  99 148 187 231 290 364 419
#
# _framework density 21.092742999999999
#
# number of rings (size 3 to 8) (size 9 to 14) (size 15 to 20)
#    0.000    1.000    3.750    2.250   10.500    2.500 
#    0.000    1.250    0.000    0.000    0.000    0.000 
#    0.000    0.000    0.000    0.000    0.000    0.000 
#
# Total GULP energy -89350.849551 kJ/mol
# GULP energy per Si atom -5584.428097 kJ/mol
# Density = 2.104473 g / cm^3
# Si number density = 21.092743 Si / 1000 Ang^3
#
#
#
# Elastic Constant Matrix: (Units=GPa)
#
#
# Indices 1 2 3 4 5 6 
#
# 1 85.6511 20.7017 24.2060 -9.4881 1.9901 9.5843
# 2 20.7017 121.6876 37.4285 -1.7617 1.1152 2.5874
# 3 24.2060 37.4285 115.4685 -0.4323 13.9654 -3.8957
# 4 -9.4881 -1.7617 -0.4323 33.8406 -3.4458 -0.3172
# 5 1.9901 1.1152 13.9654 -3.4458 31.8990 0.2985
# 6 9.5843 2.5874 -3.8957 -0.3172 0.2985 32.6534
#
#
#
# Elastic Compliance Matrix: (Units=1/GPa)
#
#
# Indices 1 2 3 4 5 6 
#
# 1 0.013615 -0.001371 -0.002633 0.003754 0.000796 -0.004172
# 2 -0.001371 0.009348 -0.002892 0.000166 0.001049 -0.000692
# 3 -0.002633 -0.002892 0.010781 -0.001198 -0.004606 0.002319
# 4 0.003754 0.000166 -0.001198 0.030957 0.003638 -0.000991
# 5 0.000796 0.001049 -0.004606 0.003638 0.033683 -0.001139
# 6 -0.004172 -0.000692 0.002319 -0.000991 -0.001139 0.032182
#
#
# Mechanical properties :
#
#
# Convention : Reuss Voigt Hill
#
# Bulk Modulus (GPa) = 50.12059 54.16438 52.14249
# Shear Modulus (GPa) = 33.11095 35.70999 34.41047
#
# Velocity S-wave (km/s) = 3.96634 4.11907 4.04343
# Velocity P-wave (km/s) = 6.69249 6.95394 6.82446
#
# Compressibility (1/GPa) = 0.01995188
#
# Stress axis : x y z
#
# Youngs Moduli (GPa) = 73.44891 106.97389 92.75907
#
# Poissons Ratio (x) = 0.14662 0.24422
# Poissons Ratio (y) = 0.10067 0.26830
# Poissons Ratio (z) = 0.19338 0.30941
#
# Static dielectric constant tensor:
#      x y z
#    x 1.867890 -0.024760 0.015090 
#    y -0.024760 1.739500 -0.013810 
#    z 0.015090 -0.013810 1.768560 
# 
# From -- ./inp_files/455473.got.cif
#   From: 2010.05.17/outbox.cif.g08.bks.cpg/sg2_228_cif.got.tgz:455473.got - 2010.06.03 11:33:40.
