data_PCOD9006294
_publ_section_title
;
Structure prediction by ZEFSAII (Michael W. Deem and Ramdas Pophale) SiO2 
 PCOD9006294
Probable space group: P -1
;
_chemical_formula_sum "Si O2"
_cell_formula_units_Z 16
_cell_length_a 9.662820
_cell_length_b 14.786712
_cell_length_c 8.031634
_cell_angle_alpha 105.090704
_cell_angle_beta 126.502458
_cell_angle_gamma 49.945459
_cell_volume 691.950689
_symmetry_space_group_name_H-M "P -1"
_symmetry_group_IT_number 2
_symmetry_cell_setting 'triclinic'
loop_
_space_group_symop_operation_xyz
x,y,z
-x,-y,-z
loop_
_atom_site_type_symbol
_atom_site_label
_atom_site_fract_x
_atom_site_fract_y
_atom_site_fract_z
Si Si1 0.424072 0.075914 0.711993
Si Si2 0.143937 0.906253 0.703471
Si Si3 0.932248 0.598370 0.858150
Si Si4 0.841387 0.947157 0.766913
Si Si5 0.636067 0.564075 0.464840
Si Si6 0.829825 0.299217 0.917587
Si Si7 0.740415 0.323601 0.491540
Si Si8 0.389130 0.159348 0.053065
O O1 0.623128 0.062019 0.755920
O O2 0.268589 0.081477 0.467742
O O3 0.287873 0.173676 0.805558
O O4 0.553930 0.950422 0.847443
O O5 0.190479 0.782163 0.632069
O O6 0.376564 0.877312 0.849745
O O7 0.000000 0.000000 0.500000
O O8 0.997808 0.966184 0.792698
O O9 0.745823 0.725844 0.872587
O O10 0.181466 0.417910 0.383603
O O11 0.122558 0.608912 0.955973
O O12 0.000000 0.500000 0.000000
O O13 0.002667 0.826662 0.931677
O O14 0.428880 0.641595 0.226933
O O15 0.741049 0.425503 0.460602
O O16 0.508100 0.608041 0.575866
O O17 0.873653 0.277209 0.739171
#
# Coordination Sequence:
#
# PCOD9006294 Si02
#       8
#     2   2   2   2   2   2   2   2
#     4  10  24  43  64  92 134 169 218 275 330 398
#     4  12  25  40  66  96 128 174 221 267 328 402
#     4  12  20  37  73 100 123 171 227 269 322 390
#     4  11  24  42  61  96 134 176 207 278 346 377
#     4   9  19  38  65  98 124 164 231 267 313 398
#     4  10  21  38  65  93 130 173 206 275 334 375
#     4   9  19  39  63  90 127 164 217 267 313 389
#     4  11  23  42  67  96 125 170 231 265 318 415
#
# _framework density 23.123035000000002
#
# number of rings (size 3 to 8) (size 9 to 14) (size 15 to 20)
#    0.750    0.750    5.000    0.000    3.500    0.500 
#    2.250    0.625    0.000    1.500    0.000    0.000 
#    0.000    0.000    0.000    0.000    0.000    0.000 
#
# Total GULP energy -89385.169288 kJ/mol
# GULP energy per Si atom -5586.573081 kJ/mol
# Density = 2.307041 g / cm^3
# Si number density = 23.123035 Si / 1000 Ang^3
#
#
#
# Elastic Constant Matrix: (Units=GPa)
#
#
# Indices 1 2 3 4 5 6 
#
# 1 73.4936 0.9751 9.4783 1.1821 13.5825 -3.0640
# 2 0.9751 69.5640 3.8279 6.2908 -4.8729 -2.0700
# 3 9.4783 3.8279 103.1693 -6.8958 18.5364 2.7664
# 4 1.1821 6.2908 -6.8958 33.8639 8.2838 4.4793
# 5 13.5825 -4.8729 18.5364 8.2838 30.7761 5.0607
# 6 -3.0640 -2.0700 2.7664 4.4793 5.0607 18.6726
#
#
#
# Elastic Compliance Matrix: (Units=1/GPa)
#
#
# Indices 1 2 3 4 5 6 
#
# 1 0.015220 -0.000712 -0.000030 0.000926 -0.007769 0.004307
# 2 -0.000712 0.015265 -0.001691 -0.004521 0.004697 0.001637
# 3 -0.000030 -0.001691 0.011617 0.004847 -0.008426 -0.000793
# 4 0.000926 -0.004521 0.004847 0.035194 -0.012510 -0.006119
# 5 -0.007769 0.004697 -0.008426 -0.012510 0.046610 -0.009137
# 6 0.004307 0.001637 -0.000793 -0.006119 -0.009137 0.058504
#
#
# Mechanical properties :
#
#
# Convention : Reuss Voigt Hill
#
# Bulk Modulus (GPa) = 26.85395 30.53215 28.69305
# Shear Modulus (GPa) = 25.03902 32.12556 28.58229
#
# Velocity S-wave (km/s) = 3.29425 3.73142 3.51963
# Velocity P-wave (km/s) = 5.10962 5.63893 5.38079
#
# Compressibility (1/GPa) = 0.03723847
#
# Stress axis : x y z
#
# Youngs Moduli (GPa) = 65.70115 65.50994 86.07776
#
# Poissons Ratio (x) = 0.04661 0.00255
# Poissons Ratio (y) = 0.04675 0.14556
# Poissons Ratio (z) = 0.00194 0.11078
#
# Static dielectric constant tensor:
#      x y z
#    x 1.926720 -0.005960 0.054520 
#    y -0.005960 1.793580 0.001190 
#    z 0.054520 0.001190 1.897890 
# 
# From -- ./inp_files/317338.got.cif
#   From: 2010.05.17/outbox.cif.g08.bks.cpg/sg2_159_cif.got.tgz:317338.got - 2010.06.03 11:33:40.
