data_PCOD9006804
_publ_section_title
;
Structure prediction by ZEFSAII (Michael W. Deem and Ramdas Pophale) SiO2 
 PCOD9006804
Probable space group: P -1
;
_chemical_formula_sum "Si O2"
_cell_formula_units_Z 16
_cell_length_a 8.912318
_cell_length_b 9.685736
_cell_length_c 18.027978
_cell_angle_alpha 54.346396
_cell_angle_beta 31.666986
_cell_angle_gamma 68.121446
_cell_volume 635.434969
_symmetry_space_group_name_H-M "P -1"
_symmetry_group_IT_number 2
_symmetry_cell_setting 'triclinic'
loop_
_space_group_symop_operation_xyz
x,y,z
-x,-y,-z
loop_
_atom_site_type_symbol
_atom_site_label
_atom_site_fract_x
_atom_site_fract_y
_atom_site_fract_z
Si Si1 0.758664 0.639941 0.801918
Si Si2 0.372545 0.199751 0.349061
Si Si3 0.081681 0.007056 0.284922
Si Si4 0.436602 0.468079 0.351924
Si Si5 0.953855 0.801863 0.053106
Si Si6 0.211343 0.711665 0.261018
Si Si7 0.930334 0.320647 0.822788
Si Si8 0.189572 0.009463 0.756947
O O1 0.671596 0.704122 0.738139
O O2 0.012719 0.534609 0.719688
O O3 0.858856 0.805298 0.762224
O O4 0.500000 0.500000 0.000000
O O5 0.559991 0.332232 0.293231
O O6 0.500184 0.030336 0.341037
O O7 0.062144 0.125050 0.545475
O O8 0.880502 0.000018 0.297805
O O9 0.319591 0.908790 0.187155
O O10 0.677263 0.629283 0.239785
O O11 0.153844 0.366184 0.552961
O O12 0.316045 0.571443 0.306754
O O13 0.191114 0.747878 0.023116
O O14 0.979438 0.837422 0.943667
O O15 0.000000 0.000000 0.000000
O O16 0.300097 0.720334 0.135785
O O17 0.136998 0.191676 0.753786
#
# Coordination Sequence:
#
# PCOD9006804 Si02
#       8
#     2   2   2   2   2   2   2   2
#     4  12  26  43  66 100 136 170 219 277 330 389
#     4  11  23  44  67  95 132 177 220 271 327 389
#     4  10  24  42  68  94 131 174 221 270 330 389
#     4  10  21  38  69  96 129 171 225 273 321 392
#     4  10  23  41  61  96 136 173 215 269 335 392
#     4   9  20  43  66  96 126 175 224 269 326 387
#     4  10  22  44  62  98 133 167 222 270 328 396
#     4  10  23  43  67  92 131 173 221 264 331 393
#
# _framework density 25.179604000000001
#
# number of rings (size 3 to 8) (size 9 to 14) (size 15 to 20)
#    0.000    1.750    1.250    1.500    3.500    5.000 
#    4.500    4.375    0.000    0.000    0.000    0.000 
#    0.000    0.000    0.000    0.000    0.000    0.000 
#
# Total GULP energy -89082.025898 kJ/mol
# GULP energy per Si atom -5567.626619 kJ/mol
# Density = 2.512229 g / cm^3
# Si number density = 25.179604 Si / 1000 Ang^3
#
#
#
# Elastic Constant Matrix: (Units=GPa)
#
#
# Indices 1 2 3 4 5 6 
#
# 1 129.1653 44.9231 39.5562 -1.2252 52.8797 -0.3235
# 2 44.9231 171.1990 32.1502 -23.3920 4.7511 12.2426
# 3 39.5562 32.1502 85.5044 -13.4481 28.4166 19.0650
# 4 -1.2252 -23.3920 -13.4481 33.6338 -1.2045 -6.3488
# 5 52.8797 4.7511 28.4166 -1.2045 39.6030 -5.6363
# 6 -0.3235 12.2426 19.0650 -6.3488 -5.6363 41.2334
#
#
#
# Elastic Compliance Matrix: (Units=1/GPa)
#
#
# Indices 1 2 3 4 5 6 
#
# 1 0.021107 -0.005417 0.002595 -0.003818 -0.030099 -0.004128
# 2 -0.005417 0.008155 -0.002798 0.004799 0.008513 0.000732
# 3 0.002595 -0.002798 0.021195 0.003825 -0.019796 -0.011066
# 4 -0.003818 0.004799 0.003825 0.035069 0.003216 0.002616
# 5 -0.030099 0.008513 -0.019796 0.003216 0.081283 0.017996
# 6 -0.004128 0.000732 -0.011066 0.002616 0.017996 0.031981
#
#
# Mechanical properties :
#
#
# Convention : Reuss Voigt Hill
#
# Bulk Modulus (GPa) = 25.49859 68.79198 47.14528
# Shear Modulus (GPa) = 22.41125 40.84331 31.62728
#
# Velocity S-wave (km/s) = 2.98662 4.03187 3.54795
# Velocity P-wave (km/s) = 4.69487 7.00389 5.96223
#
# Compressibility (1/GPa) = 0.03921786
#
# Stress axis : x y z
#
# Youngs Moduli (GPa) = 47.37714 122.62196 47.18150
#
# Poissons Ratio (x) = 0.66426 -0.12246
# Poissons Ratio (y) = 0.25665 0.13201
# Poissons Ratio (z) = -0.12296 0.34308
#
# Static dielectric constant tensor:
#      x y z
#    x 2.035400 0.048080 -0.076960 
#    y 0.048080 2.161100 0.057480 
#    z -0.076960 0.057480 2.094290 
# 
# From -- ./inp_files/556951.got.cif
#   From: 2010.05.17/outbox.cif.g08.bks.cpg/sg2_279_cif.got.tgz:556951.got - 2010.06.03 11:33:40.
