data_PCOD9006367
_publ_section_title
;
Structure prediction by ZEFSAII (Michael W. Deem and Ramdas Pophale) SiO2 
 PCOD9006367
Probable space group: P -1
;
_chemical_formula_sum "Si O2"
_cell_formula_units_Z 16
_cell_length_a 9.375476
_cell_length_b 9.035344
_cell_length_c 15.007437
_cell_angle_alpha 102.378858
_cell_angle_beta 108.410753
_cell_angle_gamma 130.591308
_cell_volume 744.365051
_symmetry_space_group_name_H-M "P -1"
_symmetry_group_IT_number 2
_symmetry_cell_setting 'triclinic'
loop_
_space_group_symop_operation_xyz
x,y,z
-x,-y,-z
loop_
_atom_site_type_symbol
_atom_site_label
_atom_site_fract_x
_atom_site_fract_y
_atom_site_fract_z
Si Si1 0.641590 0.052064 0.949719
Si Si2 0.391561 0.981846 0.345581
Si Si3 0.127617 0.291254 0.148275
Si Si4 0.875804 0.333983 0.584875
Si Si5 0.003900 0.761145 0.683679
Si Si6 0.592110 0.762785 0.768100
Si Si7 0.537627 0.216551 0.812069
Si Si8 0.134003 0.258901 0.533443
O O1 0.514187 0.821359 0.836255
O O2 0.671685 0.221574 0.913864
O O3 0.500000 0.000000 0.000000
O O4 0.884185 0.166844 0.045714
O O5 0.622738 0.193907 0.478780
O O6 0.343068 0.083616 0.284252
O O7 0.176307 0.771340 0.340999
O O8 0.458977 0.890206 0.287107
O O9 0.185182 0.158772 0.142804
O O10 0.329965 0.530816 0.161075
O O11 0.121900 0.326143 0.257157
O O12 0.037203 0.608183 0.651863
O O13 0.977973 0.280252 0.538148
O O14 0.856451 0.720757 0.569019
O O15 0.269755 0.036440 0.769357
O O16 0.385795 0.486025 0.660317
O O17 0.000000 0.000000 0.500000
#
# Coordination Sequence:
#
# PCOD9006367 Si02
#       8
#     2   2   2   2   2   2   2   2
#     4  11  24  48  77 100 133 187 242 290 348 411
#     4  10  21  38  65  97 134 186 231 282 340 414
#     4  12  26  45  71 104 142 180 233 296 349 409
#     4  11  21  39  65  98 138 186 238 276 336 420
#     4  12  23  42  72 100 143 187 228 282 347 419
#     4  11  26  44  69 101 146 181 228 292 356 406
#     4  11  22  43  70 103 130 180 237 283 344 415
#     4  12  26  41  66 104 149 183 228 286 352 422
#
# _framework density 21.49483
#
# number of rings (size 3 to 8) (size 9 to 14) (size 15 to 20)
#    0.000    0.750    5.000    3.375    1.750    0.500 
#    0.000    0.625    0.000    0.000    0.000    0.000 
#    0.000    0.000    0.000    0.000    0.000    0.000 
#
# Total GULP energy -89467.908692 kJ/mol
# GULP energy per Si atom -5591.744293 kJ/mol
# Density = 2.144591 g / cm^3
# Si number density = 21.494830 Si / 1000 Ang^3
#
#
#
# Elastic Constant Matrix: (Units=GPa)
#
#
# Indices 1 2 3 4 5 6 
#
# 1 68.3498 29.0322 21.5505 -13.6182 6.4223 -7.3851
# 2 29.0322 97.1054 42.1545 -12.9742 -2.6908 1.8519
# 3 21.5505 42.1545 88.5691 -27.5315 8.7706 0.0060
# 4 -13.6182 -12.9742 -27.5315 28.1481 5.3427 -0.7525
# 5 6.4223 -2.6908 8.7706 5.3427 36.7830 -0.9926
# 6 -7.3851 1.8519 0.0060 -0.7525 -0.9926 30.3596
#
#
#
# Elastic Compliance Matrix: (Units=1/GPa)
#
#
# Indices 1 2 3 4 5 6 
#
# 1 0.019405 -0.005337 0.001219 0.009258 -0.005276 0.005103
# 2 -0.005337 0.014717 -0.007312 -0.003814 0.004248 -0.002150
# 3 0.001219 -0.007312 0.021557 0.019993 -0.008766 0.000947
# 4 0.009258 -0.003814 0.019993 0.060819 -0.015403 0.003485
# 5 -0.005276 0.004248 -0.008766 -0.015403 0.032723 -0.000853
# 6 0.005103 -0.002150 0.000947 0.003485 -0.000853 0.034369
#
#
# Mechanical properties :
#
#
# Convention : Reuss Voigt Hill
#
# Bulk Modulus (GPa) = 30.47129 48.83318 39.65223
# Shear Modulus (GPa) = 22.99992 29.81062 26.40527
#
# Velocity S-wave (km/s) = 3.27467 3.72812 3.50872
# Velocity P-wave (km/s) = 5.33899 6.42648 5.90781
#
# Compressibility (1/GPa) = 0.03281778
#
# Stress axis : x y z
#
# Youngs Moduli (GPa) = 51.53283 67.94780 46.38792
#
# Poissons Ratio (x) = 0.36265 -0.05652
# Poissons Ratio (y) = 0.27504 0.33920
# Poissons Ratio (z) = -0.06279 0.49685
#
# Static dielectric constant tensor:
#      x y z
#    x 1.769880 0.007960 0.005850 
#    y 0.007960 1.758330 0.020680 
#    z 0.005850 0.020680 1.837720 
# 
# From -- ./inp_files/186365.got.cif
#   From: 2010.05.17/outbox.cif.g08.bks.cpg/sg2_94_cif.got.tgz:186365.got - 2010.06.03 11:33:40.
