data_PCOD9006742
_publ_section_title
;
Structure prediction by ZEFSAII (Michael W. Deem and Ramdas Pophale) SiO2 
 PCOD9006742
Probable space group: P -1
;
_chemical_formula_sum "Si O2"
_cell_formula_units_Z 14
_cell_length_a 25.901617
_cell_length_b 15.133897
_cell_length_c 26.189496
_cell_angle_alpha 22.282576
_cell_angle_beta 11.172906
_cell_angle_gamma 20.164778
_cell_volume 684.244332
_symmetry_space_group_name_H-M "P -1"
_symmetry_group_IT_number 2
_symmetry_cell_setting 'triclinic'
loop_
_space_group_symop_operation_xyz
x,y,z
-x,-y,-z
loop_
_atom_site_type_symbol
_atom_site_label
_atom_site_fract_x
_atom_site_fract_y
_atom_site_fract_z
Si Si1 0.336132 0.974703 0.500925
Si Si2 0.692307 0.191247 0.975612
Si Si3 0.602241 0.361616 0.573261
Si Si4 0.291283 0.048973 0.750677
Si Si5 0.122463 0.238574 0.055902
Si Si6 0.346038 0.697146 0.797764
Si Si7 0.338675 0.829262 0.265677
O O1 0.518729 0.023828 0.343870
O O2 0.983681 0.120202 0.766065
O O3 0.427217 0.670520 0.573316
O O4 0.471043 0.068024 0.273301
O O5 0.834955 0.020165 0.877674
O O6 0.500000 0.500000 0.000000
O O7 0.609113 0.289816 0.664412
O O8 0.907481 0.287544 0.286922
O O9 0.430716 0.220957 0.786151
O O10 0.272710 0.815732 0.861865
O O11 0.468896 0.170959 0.479933
O O12 0.949399 0.248804 0.976889
O O13 0.000000 0.500000 0.000000
O O14 0.552829 0.401951 0.755706
O O15 0.000000 0.000000 0.500000
O O16 0.500000 0.000000 0.000000
#
# Coordination Sequence:
#
# PCOD9006742 Si02
#       7
#     2   2   2   2   2   2   2
#     4  12  22  42  73  96 129 174 230 274 330 412
#     4  12  27  45  66  99 141 176 212 286 349 400
#     4  12  24  42  73 100 128 179 237 276 329 407
#     4  10  21  38  68  95 119 164 222 276 311 383
#     4  12  23  44  72 102 133 173 232 283 331 411
#     4  10  21  40  64  92 129 164 212 274 329 379
#     4  12  26  44  65  96 142 178 220 283 343 396
#
# _framework density 20.460528
#
# number of rings (size 3 to 8) (size 9 to 14) (size 15 to 20)
#    0.000    0.571    4.286    4.286    2.000    0.000 
#    7.714    0.000    0.000    0.000    0.000    0.000 
#    0.000    0.000    0.000    0.000    0.000    0.000 
#
# Total GULP energy -78136.584629 kJ/mol
# GULP energy per Si atom -5581.184616 kJ/mol
# Density = 2.041396 g / cm^3
# Si number density = 20.460528 Si / 1000 Ang^3
#
#
#
# Elastic Constant Matrix: (Units=GPa)
#
#
# Indices 1 2 3 4 5 6 
#
# 1 57.1290 3.2429 -0.2657 13.1235 -8.0466 9.1674
# 2 3.2429 238.6578 74.6779 -32.8327 -15.6245 5.3237
# 3 -0.2657 74.6779 152.9624 -9.7546 -7.8173 -11.0533
# 4 13.1235 -32.8327 -9.7546 51.9396 0.9932 -3.0028
# 5 -8.0466 -15.6245 -7.8173 0.9932 46.3571 -0.0176
# 6 9.1674 5.3237 -11.0533 -3.0028 -0.0176 21.5498
#
#
#
# Elastic Compliance Matrix: (Units=1/GPa)
#
#
# Indices 1 2 3 4 5 6 
#
# 1 0.021125 -0.000505 -0.000678 -0.006435 0.003516 -0.010103
# 2 -0.000505 0.005556 -0.002606 0.003006 0.001280 -0.002075
# 3 -0.000678 -0.002606 0.008228 0.000362 0.000386 0.005203
# 4 -0.006435 0.003006 0.000362 0.023170 -0.000537 0.005409
# 5 0.003516 0.001280 0.000386 -0.000537 0.022689 -0.001671
# 6 -0.010103 -0.002075 0.005203 0.005409 -0.001671 0.054636
#
#
# Mechanical properties :
#
#
# Convention : Reuss Voigt Hill
#
# Bulk Modulus (GPa) = 36.58849 67.11771 51.85310
# Shear Modulus (GPa) = 32.87506 48.70893 40.79200
#
# Velocity S-wave (km/s) = 4.01278 4.88446 4.46992
# Velocity P-wave (km/s) = 6.27624 8.04272 7.21376
#
# Compressibility (1/GPa) = 0.02733100
#
# Stress axis : x y z
#
# Youngs Moduli (GPa) = 47.33835 179.98276 121.54288
#
# Poissons Ratio (x) = 0.09084 0.08236
# Poissons Ratio (y) = 0.02389 0.31677
# Poissons Ratio (z) = 0.03208 0.46908
#
# Static dielectric constant tensor:
#      x y z
#    x 1.871200 -0.002420 0.087970 
#    y -0.002420 1.755080 -0.029910 
#    z 0.087970 -0.029910 1.787430 
# 
# From -- ./inp_files/364937.got.cif
#   From: 2010.05.17/outbox.cif.g08.bks.cpg/sg2_183_cif.got.tgz:364937.got - 2010.06.03 11:33:40.
