data_PCOD9006031
_publ_section_title
;
Structure prediction by ZEFSAII (Michael W. Deem and Ramdas Pophale) SiO2 
 PCOD9006031
Probable space group: P -1
;
_chemical_formula_sum "Si O2"
_cell_formula_units_Z 16
_cell_length_a 13.600708
_cell_length_b 14.304767
_cell_length_c 6.901138
_cell_angle_alpha 126.359323
_cell_angle_beta 107.580396
_cell_angle_gamma 41.367476
_cell_volume 688.355381
_symmetry_space_group_name_H-M "P -1"
_symmetry_group_IT_number 2
_symmetry_cell_setting 'triclinic'
loop_
_space_group_symop_operation_xyz
x,y,z
-x,-y,-z
loop_
_atom_site_type_symbol
_atom_site_label
_atom_site_fract_x
_atom_site_fract_y
_atom_site_fract_z
Si Si1 0.345562 0.592088 0.912480
Si Si2 0.246622 0.854456 0.880481
Si Si3 0.157434 0.342308 0.785231
Si Si4 0.822995 0.942672 0.530961
Si Si5 0.385915 0.921442 0.773751
Si Si6 0.979669 0.149722 0.826749
Si Si7 0.828086 0.485658 0.332746
Si Si8 0.290234 0.250021 0.137218
O O1 0.320352 0.676916 0.795678
O O2 0.195439 0.749771 0.150452
O O3 0.500000 0.500000 0.000000
O O4 0.319981 0.476548 0.719578
O O5 0.192189 0.967474 0.179041
O O6 0.364024 0.836958 0.809684
O O7 0.100226 0.967448 0.787901
O O8 0.160687 0.203864 0.573526
O O9 0.175566 0.413549 0.708035
O O10 0.292785 0.255094 0.913963
O O11 0.000000 0.500000 0.000000
O O12 0.957007 0.867637 0.366534
O O13 0.671759 0.072554 0.462150
O O14 0.275922 0.124593 0.013216
O O15 0.553909 0.835842 0.777508
O O16 0.960963 0.281996 0.109550
O O17 0.835883 0.554478 0.615996
#
# Coordination Sequence:
#
# PCOD9006031 Si02
#       8
#     2   2   2   2   2   2   2   2
#     4  10  24  42  62  90 121 158 213 255 291 362
#     4  11  22  41  68  83 125 165 199 251 308 352
#     4  11  21  36  59  94 126 153 198 245 296 371
#     4  10  21  38  64  93 120 160 198 245 309 361
#     4   9  22  40  59  94 120 159 207 245 295 377
#     4   9  22  41  59  94 123 155 209 247 295 371
#     4  10  23  39  62  86 128 159 199 251 308 347
#     4  10  22  39  61  88 129 158 198 251 306 359
#
# _framework density 23.243808999999999
#
# number of rings (size 3 to 8) (size 9 to 14) (size 15 to 20)
#    0.750    1.250    1.250    1.125    5.250    1.000 
#    0.000    6.875    0.000    0.000    0.000    0.000 
#    0.000    0.000    0.000    0.000    0.000    0.000 
#
# Total GULP energy -89375.461182 kJ/mol
# GULP energy per Si atom -5585.966324 kJ/mol
# Density = 2.319090 g / cm^3
# Si number density = 23.243809 Si / 1000 Ang^3
#
#
#
# Elastic Constant Matrix: (Units=GPa)
#
#
# Indices 1 2 3 4 5 6 
#
# 1 118.0293 59.5935 18.1479 -21.8656 6.1952 20.1926
# 2 59.5935 88.7949 6.9287 -13.3874 3.9772 8.4250
# 3 18.1479 6.9287 76.6421 1.9174 14.4998 13.8659
# 4 -21.8656 -13.3874 1.9174 25.6534 5.0490 3.8189
# 5 6.1952 3.9772 14.4998 5.0490 21.8521 -2.6170
# 6 20.1926 8.4250 13.8659 3.8189 -2.6170 31.9268
#
#
#
# Elastic Compliance Matrix: (Units=1/GPa)
#
#
# Indices 1 2 3 4 5 6 
#
# 1 0.017579 -0.008278 -0.000266 0.013882 -0.007840 -0.011121
# 2 -0.008278 0.017173 0.000681 0.002197 -0.001738 0.000003
# 3 -0.000266 0.000681 0.017042 0.002733 -0.013043 -0.008809
# 4 0.013882 0.002197 0.002733 0.058997 -0.022105 -0.019415
# 5 -0.007840 -0.001738 -0.013043 -0.022105 0.064338 0.018999
# 6 -0.011121 0.000003 -0.008809 -0.019415 0.018999 0.046060
#
#
# Mechanical properties :
#
#
# Convention : Reuss Voigt Hill
#
# Bulk Modulus (GPa) = 27.72552 50.31182 39.01867
# Shear Modulus (GPa) = 20.08542 29.13956 24.61249
#
# Velocity S-wave (km/s) = 2.94278 3.54453 3.25758
# Velocity P-wave (km/s) = 4.84774 6.20031 5.56527
#
# Compressibility (1/GPa) = 0.03606785
#
# Stress axis : x y z
#
# Youngs Moduli (GPa) = 56.88760 58.23080 58.67849
#
# Poissons Ratio (x) = 0.48201 0.01562
# Poissons Ratio (y) = 0.47089 -0.03995
# Poissons Ratio (z) = 0.01514 -0.03965
#
# Static dielectric constant tensor:
#      x y z
#    x 1.881290 -0.055800 0.033750 
#    y -0.055800 1.974270 0.018990 
#    z 0.033750 0.018990 1.934170 
# 
# From -- ./inp_files/98615.got.cif
#   From: 2010.05.17/outbox.cif.g08.bks.cpg/sg2_50_cif.got.tgz:98615.got - 2010.06.03 11:33:40.
