data_PCOD9006227
_publ_section_title
;
Structure prediction by ZEFSAII (Michael W. Deem and Ramdas Pophale) SiO2 
 PCOD9006227
Probable space group: P -1
;
_chemical_formula_sum "Si O2"
_cell_formula_units_Z 12
_cell_length_a 11.974911
_cell_length_b 10.856127
_cell_length_c 7.932237
_cell_angle_alpha 115.638346
_cell_angle_beta 114.002519
_cell_angle_gamma 119.060922
_cell_volume 505.584666
_symmetry_space_group_name_H-M "P -1"
_symmetry_group_IT_number 2
_symmetry_cell_setting 'triclinic'
loop_
_space_group_symop_operation_xyz
x,y,z
-x,-y,-z
loop_
_atom_site_type_symbol
_atom_site_label
_atom_site_fract_x
_atom_site_fract_y
_atom_site_fract_z
Si Si1 0.999792 0.701629 0.196704
Si Si2 0.780955 0.840532 0.841530
Si Si3 0.980708 0.410121 0.203998
Si Si4 0.645024 0.233378 0.123934
Si Si5 0.601560 0.479410 0.773931
Si Si6 0.697634 0.854057 0.160195
O O1 0.058804 0.622619 0.294526
O O2 0.754483 0.499926 0.936915
O O3 0.115174 0.934734 0.481849
O O4 0.053295 0.721728 0.048654
O O5 0.691489 0.618364 0.732980
O O6 0.630965 0.759315 0.555495
O O7 0.770382 0.928845 0.051963
O O8 0.000000 0.000000 0.000000
O O9 0.770685 0.258366 0.079272
O O10 0.166477 0.534357 0.513567
O O11 0.492852 0.217111 0.963844
O O12 0.500000 0.000000 0.000000
O O13 0.629842 0.636321 0.002637
#
# Coordination Sequence:
#
# PCOD9006227 Si02
#       6
#     2   2   2   2   2   2
#     4  11  21  44  61  98 133 159 211 263 327 369
#     4   9  20  39  62  91 120 170 210 247 311 380
#     4  10  25  40  67  90 127 173 207 266 310 370
#     4  11  22  45  64  90 123 172 222 251 305 386
#     4   9  21  40  63  88 131 158 204 269 304 376
#     4  10  21  38  65  90 127 165 207 261 313 377
#
# _framework density 23.734895999999999
#
# number of rings (size 3 to 8) (size 9 to 14) (size 15 to 20)
#    1.000    1.000    1.667    1.500    0.000    3.333 
#    3.000    1.667    0.000    0.000    0.000    0.000 
#    0.000    0.000    0.000    0.000    0.000    0.000 
#
# Total GULP energy -67077.901760 kJ/mol
# GULP energy per Si atom -5589.825147 kJ/mol
# Density = 2.368087 g / cm^3
# Si number density = 23.734896 Si / 1000 Ang^3
#
#
#
# Elastic Constant Matrix: (Units=GPa)
#
#
# Indices 1 2 3 4 5 6 
#
# 1 116.5941 25.1061 65.3092 2.4166 8.2324 38.2079
# 2 25.1061 40.3708 20.9842 17.1061 -3.3055 23.9398
# 3 65.3092 20.9842 128.8394 -8.3177 0.8656 37.9234
# 4 2.4166 17.1061 -8.3177 16.7098 2.2332 10.2209
# 5 8.2324 -3.3055 0.8656 2.2332 54.3533 -0.6818
# 6 38.2079 23.9398 37.9234 10.2209 -0.6818 40.9126
#
#
#
# Elastic Compliance Matrix: (Units=1/GPa)
#
#
# Indices 1 2 3 4 5 6 
#
# 1 0.014774 -0.005527 -0.003157 0.008323 -0.002988 -0.009766
# 2 -0.005527 0.069886 -0.011416 -0.073446 0.008203 -0.006665
# 3 -0.003157 -0.011416 0.017109 0.029200 -0.001858 -0.013557
# 4 0.008323 -0.073446 0.029200 0.171573 -0.013680 -0.034954
# 5 -0.002988 0.008203 -0.001858 -0.013680 0.019985 0.003464
# 6 -0.009766 -0.006665 -0.013557 -0.034954 0.003464 0.058820
#
#
# Mechanical properties :
#
#
# Convention : Reuss Voigt Hill
#
# Bulk Modulus (GPa) = 16.24152 56.51147 36.37650
# Shear Modulus (GPa) = 12.11040 34.02212 23.06626
#
# Velocity S-wave (km/s) = 2.26129 3.79016 3.12080
# Velocity P-wave (km/s) = 3.69806 6.55858 5.32403
#
# Compressibility (1/GPa) = 0.06157059
#
# Stress axis : x y z
#
# Youngs Moduli (GPa) = 67.68669 14.30902 58.44821
#
# Poissons Ratio (x) = 0.07908 0.18451
# Poissons Ratio (y) = 0.37410 0.66722
# Poissons Ratio (z) = 0.21367 0.16335
#
# Static dielectric constant tensor:
#      x y z
#    x 1.855360 -0.010640 -0.013550 
#    y -0.010640 1.959120 -0.016870 
#    z -0.013550 -0.016870 1.887510 
# 
# From -- ./inp_files/236312.got.cif
#   From: 2010.05.17/outbox.cif.g08.bks.cpg/sg2_119_cif.got.tgz:236312.got - 2010.06.03 11:33:40.
