data_PCOD9006155
_publ_section_title
;
Structure prediction by ZEFSAII (Michael W. Deem and Ramdas Pophale) SiO2 
 PCOD9006155
Probable space group: P -1
;
_chemical_formula_sum "Si O2"
_cell_formula_units_Z 14
_cell_length_a 10.405393
_cell_length_b 21.189973
_cell_length_c 5.492362
_cell_angle_alpha 70.629990
_cell_angle_beta 84.538992
_cell_angle_gamma 139.858435
_cell_volume 603.432445
_symmetry_space_group_name_H-M "P -1"
_symmetry_group_IT_number 2
_symmetry_cell_setting 'triclinic'
loop_
_space_group_symop_operation_xyz
x,y,z
-x,-y,-z
loop_
_atom_site_type_symbol
_atom_site_label
_atom_site_fract_x
_atom_site_fract_y
_atom_site_fract_z
Si Si1 0.058602 0.704427 0.156844
Si Si2 0.236531 0.310347 0.220974
Si Si3 0.128974 0.010465 0.660328
Si Si4 0.684329 0.045375 0.231018
Si Si5 0.702157 0.795407 0.392114
Si Si6 0.513995 0.419639 0.517753
Si Si7 0.216572 0.785963 0.517283
O O1 0.783881 0.564035 0.327395
O O2 0.127977 0.705183 0.405617
O O3 0.210226 0.750114 0.832023
O O4 0.123569 0.812695 0.052419
O O5 0.210108 0.220141 0.404012
O O6 0.399340 0.401917 0.313746
O O7 0.991065 0.246904 0.356937
O O8 0.363779 0.366563 0.861071
O O9 0.212179 0.973228 0.625813
O O10 0.340716 0.151049 0.553285
O O11 0.000000 0.000000 0.500000
O O12 0.930624 0.906606 0.033945
O O13 0.500000 0.000000 0.500000
O O14 0.508921 0.069212 0.781197
O O15 0.502373 0.666432 0.440233
#
# Coordination Sequence:
#
# PCOD9006155 Si02
#       7
#     2   2   2   2   2   2   2
#     4  11  23  40  63  97 141 171 221 273 346 391
#     4  10  21  38  64  99 134 169 220 275 339 387
#     4  11  22  44  68  97 134 177 231 276 331 391
#     4  10  25  42  66 100 138 178 220 277 340 403
#     4   9  23  38  66  98 132 172 224 280 328 392
#     4  10  22  38  64 101 136 171 218 285 333 393
#     4  11  23  40  60  94 138 178 213 269 333 408
#
# _framework density 23.200610000000001
#
# number of rings (size 3 to 8) (size 9 to 14) (size 15 to 20)
#    0.857    0.857    0.000    3.857    8.000    3.429 
#    7.714    0.000    0.000    4.286    0.000    0.000 
#    0.000    0.000    0.000    0.000    0.000    0.000 
#
# Total GULP energy -78017.189758 kJ/mol
# GULP energy per Si atom -5572.656411 kJ/mol
# Density = 2.314780 g / cm^3
# Si number density = 23.200610 Si / 1000 Ang^3
#
#
#
# Elastic Constant Matrix: (Units=GPa)
#
#
# Indices 1 2 3 4 5 6 
#
# 1 67.1973 25.6937 23.7031 -1.7161 -0.9457 -17.5816
# 2 25.6937 178.3909 52.6837 -13.8835 2.8275 7.6912
# 3 23.7031 52.6837 136.2173 8.5550 8.6231 4.3605
# 4 -1.7161 -13.8835 8.5550 55.7151 2.5425 4.0683
# 5 -0.9457 2.8275 8.6231 2.5425 19.4994 -5.2208
# 6 -17.5816 7.6912 4.3605 4.0683 -5.2208 41.1817
#
#
#
# Elastic Compliance Matrix: (Units=1/GPa)
#
#
# Indices 1 2 3 4 5 6 
#
# 1 0.019548 -0.002457 -0.003075 -0.000503 0.005370 0.009861
# 2 -0.002457 0.006917 -0.002240 0.002221 -0.001080 -0.002460
# 3 -0.003075 -0.002240 0.009192 -0.001706 -0.004266 -0.002240
# 4 -0.000503 0.002221 -0.001706 0.019072 -0.002798 -0.002688
# 5 0.005370 -0.001080 -0.004266 -0.002798 0.056741 0.010416
# 6 0.009861 -0.002460 -0.002240 -0.002688 0.010416 0.030775
#
#
# Mechanical properties :
#
#
# Convention : Reuss Voigt Hill
#
# Bulk Modulus (GPa) = 49.72008 65.10738 57.41373
# Shear Modulus (GPa) = 30.39617 41.92756 36.16186
#
# Velocity S-wave (km/s) = 3.62352 4.25570 3.95227
# Velocity P-wave (km/s) = 6.24368 7.22992 6.75482
#
# Compressibility (1/GPa) = 0.02011260
#
# Stress axis : x y z
#
# Youngs Moduli (GPa) = 51.15498 144.56939 108.79334
#
# Poissons Ratio (x) = 0.35516 0.33459
# Poissons Ratio (y) = 0.12567 0.24372
# Poissons Ratio (z) = 0.15733 0.32386
#
# Static dielectric constant tensor:
#      x y z
#    x 1.626630 0.050580 0.012150 
#    y 0.050580 2.053180 0.005520 
#    z 0.012150 0.005520 1.895430 
# 
# From -- ./inp_files/83998.got.cif
#   From: 2010.05.17/outbox.cif.g08.bks.cpg/sg2_42_cif.got.tgz:83998.got - 2010.06.03 11:33:40.
