data_PCOD9006773
_publ_section_title
;
Structure prediction by ZEFSAII (Michael W. Deem and Ramdas Pophale) SiO2 
 PCOD9006773
Probable space group: P -1
;
_chemical_formula_sum "Si O2"
_cell_formula_units_Z 12
_cell_length_a 9.262869
_cell_length_b 8.180276
_cell_length_c 9.427926
_cell_angle_alpha 105.821328
_cell_angle_beta 98.998124
_cell_angle_gamma 49.850432
_cell_volume 525.177924
_symmetry_space_group_name_H-M "P -1"
_symmetry_group_IT_number 2
_symmetry_cell_setting 'triclinic'
loop_
_space_group_symop_operation_xyz
x,y,z
-x,-y,-z
loop_
_atom_site_type_symbol
_atom_site_label
_atom_site_fract_x
_atom_site_fract_y
_atom_site_fract_z
Si Si1 0.387526 0.910524 0.856821
Si Si2 0.300205 0.709783 0.576953
Si Si3 0.100383 0.046315 0.373307
Si Si4 0.549071 0.030445 0.670095
Si Si5 0.393522 0.400947 0.932344
Si Si6 0.019850 0.831558 0.075250
O O1 0.345218 0.756338 0.747049
O O2 0.485948 0.937630 0.751701
O O3 0.176719 0.119841 0.917350
O O4 0.517630 0.792979 0.984698
O O5 0.500000 0.500000 0.500000
O O6 0.111883 0.734436 0.574212
O O7 0.214360 0.912814 0.501912
O O8 0.230514 0.082416 0.318538
O O9 0.083664 0.884127 0.240729
O O10 0.439407 0.283294 0.760309
O O11 0.500000 0.000000 0.500000
O O12 0.500000 0.500000 0.000000
O O13 0.178065 0.592530 0.981327
O O14 0.000000 0.000000 0.000000
#
# Coordination Sequence:
#
# PCOD9006773 Si02
#       6
#     2   2   2   2   2   2
#     4  11  24  43  70 101 143 177 229 300 344 402
#     4  10  21  38  68  99 129 182 235 275 336 415
#     4  10  21  40  64  94 139 174 226 281 339 403
#     4  12  25  45  67 105 152 183 219 294 358 407
#     4  12  24  44  76 100 131 189 241 278 344 421
#     4  11  22  42  72 102 129 179 245 290 333 410
#
# _framework density 22.849398000000001
#
# number of rings (size 3 to 8) (size 9 to 14) (size 15 to 20)
#    0.000    1.000    5.000    1.500    0.000    0.667 
#    0.000    2.500    0.000    0.000    0.000    0.000 
#    0.000    0.000    0.000    0.000    0.000    0.000 
#
# Total GULP energy -67093.250490 kJ/mol
# GULP energy per Si atom -5591.104207 kJ/mol
# Density = 2.279739 g / cm^3
# Si number density = 22.849398 Si / 1000 Ang^3
#
#
#
# Elastic Constant Matrix: (Units=GPa)
#
#
# Indices 1 2 3 4 5 6 
#
# 1 180.8562 59.5230 31.4521 10.5947 -40.7334 -36.5009
# 2 59.5230 96.0039 47.0870 16.4440 -10.3966 -40.9653
# 3 31.4521 47.0870 145.6166 9.0667 0.2824 -15.5747
# 4 10.5947 16.4440 9.0667 40.0836 -4.1432 -18.4089
# 5 -40.7334 -10.3966 0.2824 -4.1432 41.7761 9.8988
# 6 -36.5009 -40.9653 -15.5747 -18.4089 9.8988 50.6701
#
#
#
# Elastic Compliance Matrix: (Units=1/GPa)
#
#
# Indices 1 2 3 4 5 6 
#
# 1 0.008866 -0.003664 -0.000575 0.001058 0.007320 0.002202
# 2 -0.003664 0.019977 -0.004311 -0.000812 -0.001541 0.012193
# 3 -0.000575 -0.004311 0.008291 -0.000714 -0.001445 -0.001328
# 4 0.001058 -0.000812 -0.000714 0.030161 0.001317 0.010587
# 5 0.007320 -0.001541 -0.001445 0.001317 0.031319 -0.002057
# 6 0.002202 0.012193 -0.001328 0.010587 -0.002057 0.035019
#
#
# Mechanical properties :
#
#
# Convention : Reuss Voigt Hill
#
# Bulk Modulus (GPa) = 49.91292 77.62232 63.76762
# Shear Modulus (GPa) = 31.76406 45.46692 38.61549
#
# Velocity S-wave (km/s) = 3.73251 4.46562 4.11542
# Velocity P-wave (km/s) = 6.36139 7.78678 7.10990
#
# Compressibility (1/GPa) = 0.02003489
#
# Stress axis : x y z
#
# Youngs Moduli (GPa) = 112.78709 50.05754 120.61717
#
# Poissons Ratio (x) = 0.18341 0.06933
# Poissons Ratio (y) = 0.41325 0.51996
# Poissons Ratio (z) = 0.06483 0.21579
#
# Static dielectric constant tensor:
#      x y z
#    x 1.939680 0.073620 0.001730 
#    y 0.073620 1.970850 0.009460 
#    z 0.001730 0.009460 1.894430 
# 
# From -- ./inp_files/156426.got.cif
#   From: 2010.05.17/outbox.cif.g08.bks.cpg/sg2_79_cif.got.tgz:156426.got - 2010.06.03 11:33:40.
