data_PCOD9006776
_publ_section_title
;
Structure prediction by ZEFSAII (Michael W. Deem and Ramdas Pophale) SiO2 
 PCOD9006776
Probable space group: P -1
;
_chemical_formula_sum "Si O2"
_cell_formula_units_Z 14
_cell_length_a 23.555700
_cell_length_b 15.214296
_cell_length_c 4.967998
_cell_angle_alpha 60.140772
_cell_angle_beta 64.775114
_cell_angle_gamma 19.650416
_cell_volume 513.652492
_symmetry_space_group_name_H-M "P -1"
_symmetry_group_IT_number 2
_symmetry_cell_setting 'triclinic'
loop_
_space_group_symop_operation_xyz
x,y,z
-x,-y,-z
loop_
_atom_site_type_symbol
_atom_site_label
_atom_site_fract_x
_atom_site_fract_y
_atom_site_fract_z
Si Si1 0.160481 0.399145 0.759843
Si Si2 0.632307 0.732339 0.482507
Si Si3 0.896713 0.898655 0.193963
Si Si4 0.087040 0.800384 0.894764
Si Si5 0.867346 0.756262 0.181580
Si Si6 0.632590 0.534438 0.521047
Si Si7 0.393683 0.568851 0.745940
O O1 0.264417 0.334219 0.782090
O O2 0.240112 0.172084 0.851035
O O3 0.074562 0.580326 0.399455
O O4 0.993138 0.618309 0.925342
O O5 0.552492 0.762133 0.421795
O O6 0.500000 0.000000 0.500000
O O7 0.756888 0.485277 0.813025
O O8 0.786747 0.974152 0.162925
O O9 0.792965 0.099288 0.349163
O O10 0.958836 0.903936 0.903528
O O11 0.177457 0.714812 0.583700
O O12 0.000000 0.000000 0.000000
O O13 0.000000 0.500000 0.500000
O O14 0.573599 0.569522 0.317514
O O15 0.601624 0.496819 0.873832
O O16 0.500000 0.500000 0.500000
#
# Coordination Sequence:
#
# PCOD9006776 Si02
#       7
#     2   2   2   2   2   2   2
#     4   9  20  39  62  94 136 180 237 294 359 426
#     4  11  25  44  71 107 149 194 242 300 375 443
#     4  10  21  38  68  99 132 184 240 299 368 424
#     4  11  22  45  76 108 145 190 249 313 368 435
#     4   9  18  36  59  94 128 177 236 294 351 425
#     4  12  25  51  72 109 147 191 248 308 369 442
#     4  12  28  48  71 104 147 194 246 302 373 445
#
# _framework density 27.255780000000001
#
# number of rings (size 3 to 8) (size 9 to 14) (size 15 to 20)
#    0.000    1.429    2.857    1.286    2.000    4.000 
#    7.714    0.000    0.000    0.000    0.000    0.000 
#    0.000    0.000    0.000    0.000    0.000    0.000 
#
# Total GULP energy -78152.460940 kJ/mol
# GULP energy per Si atom -5582.318639 kJ/mol
# Density = 2.719374 g / cm^3
# Si number density = 27.255780 Si / 1000 Ang^3
#
#
#
# Elastic Constant Matrix: (Units=GPa)
#
#
# Indices 1 2 3 4 5 6 
#
# 1 143.2292 52.6321 52.2004 2.5717 -33.0910 39.4795
# 2 52.6321 130.8513 46.3103 5.5889 -13.8221 33.1092
# 3 52.2004 46.3103 172.3471 21.1752 -26.6405 6.5208
# 4 2.5717 5.5889 21.1752 40.4016 -1.5195 -13.5200
# 5 -33.0910 -13.8221 -26.6405 -1.5195 56.4492 12.1528
# 6 39.4795 33.1092 6.5208 -13.5200 12.1528 42.9337
#
#
#
# Elastic Compliance Matrix: (Units=1/GPa)
#
#
# Indices 1 2 3 4 5 6 
#
# 1 0.016488 0.001267 -0.001448 -0.007360 0.013865 -0.022161
# 2 0.001267 0.011863 -0.001568 -0.005134 0.005630 -0.013286
# 3 -0.001448 -0.001568 0.007479 -0.003656 0.002283 -0.000393
# 4 -0.007360 -0.005134 -0.003656 0.036109 -0.011929 0.026030
# 5 0.013865 0.005630 0.002283 -0.011929 0.034652 -0.031003
# 6 -0.022161 -0.013286 -0.000393 0.026030 -0.031003 0.070947
#
#
# Mechanical properties :
#
#
# Convention : Reuss Voigt Hill
#
# Bulk Modulus (GPa) = 30.92924 83.19036 57.05980
# Shear Modulus (GPa) = 26.06695 47.64253 36.85474
#
# Velocity S-wave (km/s) = 3.09590 4.18542 3.68119
# Velocity P-wave (km/s) = 4.91445 7.34475 6.24889
#
# Compressibility (1/GPa) = 0.03233186
#
# Stress axis : x y z
#
# Youngs Moduli (GPa) = 60.65067 84.29469 133.70474
#
# Poissons Ratio (x) = -0.10680 0.19366
# Poissons Ratio (y) = -0.07684 0.20961
# Poissons Ratio (z) = 0.08785 0.13215
#
# Static dielectric constant tensor:
#      x y z
#    x 2.376510 -0.086480 -0.164490 
#    y -0.086480 2.235920 -0.024770 
#    z -0.164490 -0.024770 2.914400 
# 
# From -- ./inp_files/124122.got.cif
#   From: 2010.05.17/outbox.cif.g08.bks.cpg/sg2_63_cif.got.tgz:124122.got - 2010.06.03 11:33:40.
