data_PCOD9006300
_publ_section_title
;
Structure prediction by ZEFSAII (Michael W. Deem and Ramdas Pophale) SiO2 
 PCOD9006300
Probable space group: P -1
;
_chemical_formula_sum "Si O2"
_cell_formula_units_Z 16
_cell_length_a 10.257062
_cell_length_b 9.773247
_cell_length_c 7.643473
_cell_angle_alpha 80.812652
_cell_angle_beta 53.841560
_cell_angle_gamma 73.972412
_cell_volume 594.583677
_symmetry_space_group_name_H-M "P -1"
_symmetry_group_IT_number 2
_symmetry_cell_setting 'triclinic'
loop_
_space_group_symop_operation_xyz
x,y,z
-x,-y,-z
loop_
_atom_site_type_symbol
_atom_site_label
_atom_site_fract_x
_atom_site_fract_y
_atom_site_fract_z
Si Si1 0.903563 0.659891 0.580212
Si Si2 0.124792 0.381567 0.027592
Si Si3 0.519579 0.797658 0.810524
Si Si4 0.100493 0.079245 0.659045
Si Si5 0.368962 0.705553 0.429385
Si Si6 0.639131 0.863560 0.325016
Si Si7 0.636499 0.426687 0.175725
Si Si8 0.229867 0.927260 0.234964
O O1 0.947582 0.689698 0.739395
O O2 0.701720 0.709392 0.733504
O O3 0.948000 0.751542 0.366053
O O4 0.000000 0.500000 0.500000
O O5 0.225579 0.268171 0.837061
O O6 0.240333 0.479020 0.997822
O O7 0.000000 0.500000 0.000000
O O8 0.550559 0.862613 0.585388
O O9 0.410059 0.681909 0.899769
O O10 0.399566 0.918740 0.995296
O O11 0.225016 0.044140 0.731475
O O12 0.926537 0.034799 0.780101
O O13 0.193540 0.031193 0.409256
O O14 0.487160 0.819687 0.339748
O O15 0.472540 0.549196 0.324322
O O16 0.303511 0.668657 0.678118
O O17 0.250449 0.777403 0.352940
#
# Coordination Sequence:
#
# PCOD9006300 Si02
#       8
#     2   2   2   2   2   2   2   2
#     4  11  25  41  65  98 129 166 213 268 327 382
#     4  11  22  35  59  92 127 169 200 254 335 375
#     4  10  21  38  65  94 121 170 216 258 324 380
#     4  10  25  45  61  94 136 168 218 273 316 385
#     4   9  19  37  62  89 123 167 209 257 322 379
#     4   9  20  41  60  89 127 161 216 263 317 382
#     4   9  20  35  58  93 129 155 207 266 308 392
#     4  11  24  41  68  93 126 180 219 264 321 380
#
# _framework density 26.909586000000001
#
# number of rings (size 3 to 8) (size 9 to 14) (size 15 to 20)
#    0.000    2.000    0.000    3.750    7.000    3.500 
#    0.000    2.500    0.000    7.500    0.000    0.000 
#    0.000    0.000    0.000    0.000    0.000    0.000 
#
# Total GULP energy -89163.166553 kJ/mol
# GULP energy per Si atom -5572.697910 kJ/mol
# Density = 2.684834 g / cm^3
# Si number density = 26.909586 Si / 1000 Ang^3
#
#
#
# Elastic Constant Matrix: (Units=GPa)
#
#
# Indices 1 2 3 4 5 6 
#
# 1 133.8851 19.1671 26.2876 -0.4965 -0.9336 12.3940
# 2 19.1671 41.9407 8.7439 0.5130 -4.1821 19.3143
# 3 26.2876 8.7439 121.1593 13.7261 -7.4386 8.1184
# 4 -0.4965 0.5130 13.7261 38.9609 -16.1080 8.4034
# 5 -0.9336 -4.1821 -7.4386 -16.1080 23.0500 -3.1654
# 6 12.3940 19.3143 8.1184 8.4034 -3.1654 43.6906
#
#
#
# Elastic Compliance Matrix: (Units=1/GPa)
#
#
# Indices 1 2 3 4 5 6 
#
# 1 0.008314 -0.003110 -0.001630 0.000766 -0.000335 -0.000852
# 2 -0.003110 0.032599 -0.000954 0.006120 0.007840 -0.013961
# 3 -0.001630 -0.000954 0.009056 -0.002894 0.000634 -0.000196
# 4 0.000766 0.006120 -0.002894 0.039344 0.026600 -0.008025
# 5 -0.000335 0.007840 0.000634 0.026600 0.063032 -0.004038
# 6 -0.000852 -0.013961 -0.000196 -0.008025 -0.004038 0.030589
#
#
# Mechanical properties :
#
#
# Convention : Reuss Voigt Hill
#
# Bulk Modulus (GPa) = 25.91929 45.04249 35.48089
# Shear Modulus (GPa) = 24.13333 37.32607 30.72970
#
# Velocity S-wave (km/s) = 2.99796 3.72841 3.38296
# Velocity P-wave (km/s) = 4.65152 5.94218 5.33601
#
# Compressibility (1/GPa) = 0.03858130
#
# Stress axis : x y z
#
# Youngs Moduli (GPa) = 120.28347 30.67537 110.42407
#
# Poissons Ratio (x) = 0.09540 0.17995
# Poissons Ratio (y) = 0.37406 0.10539
# Poissons Ratio (z) = 0.19602 0.02928
#
# Static dielectric constant tensor:
#      x y z
#    x 2.156070 0.055680 -0.011840 
#    y 0.055680 2.028730 -0.110790 
#    z -0.011840 -0.110790 2.153680 
# 
# From -- ./inp_files/243830.got.cif
#   From: 2010.05.17/outbox.cif.g08.bks.cpg/sg2_122_cif.got.tgz:243830.got - 2010.06.03 11:33:40.
