data_PCOD9006285
_publ_section_title
;
Structure prediction by ZEFSAII (Michael W. Deem and Ramdas Pophale) SiO2 
 PCOD9006285
Probable space group: P -1
;
_chemical_formula_sum "Si O2"
_cell_formula_units_Z 16
_cell_length_a 15.437730
_cell_length_b 7.735287
_cell_length_c 14.269532
_cell_angle_alpha 107.045316
_cell_angle_beta 37.453423
_cell_angle_gamma 132.706751
_cell_volume 636.479801
_symmetry_space_group_name_H-M "P -1"
_symmetry_group_IT_number 2
_symmetry_cell_setting 'triclinic'
loop_
_space_group_symop_operation_xyz
x,y,z
-x,-y,-z
loop_
_atom_site_type_symbol
_atom_site_label
_atom_site_fract_x
_atom_site_fract_y
_atom_site_fract_z
Si Si1 0.283918 0.912894 0.048699
Si Si2 0.306086 0.915668 0.242158
Si Si3 0.462169 0.258769 0.609889
Si Si4 0.077077 0.296251 0.366024
Si Si5 0.974858 0.363818 0.139988
Si Si6 0.429273 0.554997 0.249287
Si Si7 0.155157 0.230504 0.091859
Si Si8 0.797182 0.635352 0.213621
O O1 0.444270 0.893188 0.916964
O O2 0.415603 0.172304 0.908526
O O3 0.272482 0.961338 0.174065
O O4 0.054819 0.632061 0.153530
O O5 0.185694 0.598507 0.296037
O O6 0.177624 0.911161 0.426586
O O7 0.581898 0.380160 0.626343
O O8 0.628764 0.414188 0.404412
O O9 0.324344 0.314360 0.726431
O O10 0.279382 0.922534 0.710736
O O11 0.197991 0.336354 0.360191
O O12 0.115704 0.201925 0.231683
O O13 0.033774 0.284892 0.161232
O O14 0.127347 0.447581 0.935347
O O15 0.583004 0.526848 0.114083
O O16 0.022147 0.938786 0.110790
#
# Coordination Sequence:
#
# PCOD9006285 Si02
#       8
#     2   2   2   2   2   2   2   2
#     4  10  22  38  68  87 124 173 202 258 321 369
#     4   9  20  42  59  92 125 161 219 250 303 389
#     4  10  21  39  61  91 129 162 209 262 309 367
#     4  10  21  38  65  93 126 163 206 264 311 372
#     4  11  20  41  67  91 119 175 211 251 306 380
#     4  11  22  40  60  94 136 160 199 268 321 365
#     4  11  20  40  66  93 124 169 210 255 316 372
#     4  10  21  39  64  90 124 168 215 258 300 372
#
# _framework density 25.138269000000001
#
# number of rings (size 3 to 8) (size 9 to 14) (size 15 to 20)
#    0.000    1.750    3.750    1.125    0.000    4.500 
#    2.250    1.875    0.000    0.000    0.000    0.000 
#    0.000    0.000    0.000    0.000    0.000    0.000 
#
# Total GULP energy -89639.188189 kJ/mol
# GULP energy per Si atom -5602.449262 kJ/mol
# Density = 2.508105 g / cm^3
# Si number density = 25.138269 Si / 1000 Ang^3
#
#
#
# Elastic Constant Matrix: (Units=GPa)
#
#
# Indices 1 2 3 4 5 6 
#
# 1 116.7271 25.9683 19.4609 1.3377 9.8933 14.5216
# 2 25.9683 50.5759 6.1867 -6.1758 5.2058 12.0885
# 3 19.4609 6.1867 113.0292 -3.6671 13.5468 19.8696
# 4 1.3377 -6.1758 -3.6671 13.0008 -5.7548 4.1496
# 5 9.8933 5.2058 13.5468 -5.7548 33.1873 2.1461
# 6 14.5216 12.0885 19.8696 4.1496 2.1461 48.3995
#
#
#
# Elastic Compliance Matrix: (Units=1/GPa)
#
#
# Indices 1 2 3 4 5 6 
#
# 1 0.010308 -0.005290 -0.001205 -0.004794 -0.002534 -0.000754
# 2 -0.005290 0.025790 0.001146 0.015304 0.000147 -0.006643
# 3 -0.001205 0.001146 0.010234 0.003551 -0.003105 -0.004293
# 4 -0.004794 0.015304 0.003551 0.096462 0.015133 -0.012783
# 5 -0.002534 0.000147 -0.003105 0.015133 0.034810 -0.000843
# 6 -0.000754 -0.006643 -0.004293 -0.012783 -0.000843 0.025442
#
#
# Mechanical properties :
#
#
# Convention : Reuss Voigt Hill
#
# Bulk Modulus (GPa) = 28.06274 42.61823 35.34048
# Shear Modulus (GPa) = 22.16102 34.16528 28.16315
#
# Velocity S-wave (km/s) = 2.97234 3.69059 3.35076
# Velocity P-wave (km/s) = 4.79242 5.92882 5.39065
#
# Compressibility (1/GPa) = 0.03563444
#
# Stress axis : x y z
#
# Youngs Moduli (GPa) = 97.01082 38.77534 97.71430
#
# Poissons Ratio (x) = 0.20512 0.11771
# Poissons Ratio (y) = 0.51317 -0.11197
# Poissons Ratio (z) = 0.11686 -0.04443
#
# Static dielectric constant tensor:
#      x y z
#    x 2.033200 -0.099810 -0.029590 
#    y -0.099810 1.999290 -0.004580 
#    z -0.029590 -0.004580 1.928490 
# 
# From -- ./inp_files/529897.got.cif
#   From: 2010.05.17/outbox.cif.g08.bks.cpg/sg2_265_cif.got.tgz:529897.got - 2010.06.03 11:33:40.
