data_PCOD9006200
_publ_section_title
;
Structure prediction by ZEFSAII (Michael W. Deem and Ramdas Pophale) SiO2 
 PCOD9006200
Probable space group: P -1
;
_chemical_formula_sum "Si O2"
_cell_formula_units_Z 16
_cell_length_a 11.589334
_cell_length_b 11.119240
_cell_length_c 20.653603
_cell_angle_alpha 148.679867
_cell_angle_beta 41.328092
_cell_angle_gamma 117.155896
_cell_volume 769.428862
_symmetry_space_group_name_H-M "P -1"
_symmetry_group_IT_number 2
_symmetry_cell_setting 'triclinic'
loop_
_space_group_symop_operation_xyz
x,y,z
-x,-y,-z
loop_
_atom_site_type_symbol
_atom_site_label
_atom_site_fract_x
_atom_site_fract_y
_atom_site_fract_z
Si Si1 0.231180 0.529221 0.986169
Si Si2 0.630960 0.604927 0.271279
Si Si3 0.829328 0.127002 0.411912
Si Si4 0.424347 0.906964 0.927324
Si Si5 0.922284 0.604002 0.255699
Si Si6 0.147099 0.460515 0.481219
Si Si7 0.719407 0.257517 0.658425
Si Si8 0.926903 0.548128 0.742382
O O1 0.130510 0.467364 0.060763
O O2 0.254370 0.401235 0.846104
O O3 0.470895 0.428692 0.851475
O O4 0.050562 0.850335 0.201202
O O5 0.389061 0.854128 0.490510
O O6 0.623579 0.327528 0.144996
O O7 0.754666 0.598640 0.278701
O O8 0.847022 0.266644 0.404515
O O9 0.778225 0.301478 0.580723
O O10 0.622515 0.781842 0.740935
O O11 0.500000 0.000000 0.000000
O O12 0.236527 0.159591 0.085560
O O13 0.974856 0.449271 0.230250
O O14 0.823674 0.928536 0.463443
O O15 0.000000 0.500000 0.500000
O O16 0.088584 0.412900 0.553801
O O17 0.819148 0.374466 0.717214
#
# Coordination Sequence:
#
# PCOD9006200 Si02
#       8
#     2   2   2   2   2   2   2   2
#     4  10  21  38  65  87 115 161 207 247 295 350
#     4  10  22  41  62  89 122 157 202 251 294 357
#     4   9  19  37  61  93 114 149 201 256 297 348
#     4  11  22  39  66  96 117 148 205 257 300 352
#     4  11  26  41  56  86 128 167 200 238 299 360
#     4  11  20  35  63  91 119 148 193 250 310 349
#     4  10  22  39  61  87 121 156 204 251 293 351
#     4  12  24  39  61  91 125 158 197 251 300 360
#
# _framework density 20.794646
#
# number of rings (size 3 to 8) (size 9 to 14) (size 15 to 20)
#    0.000    1.500    2.500    3.000    1.750    7.500 
#    0.000    2.500    0.000    0.000    0.000    0.000 
#    0.000    0.000    0.000    0.000    0.000    0.000 
#
# Total GULP energy -89220.288064 kJ/mol
# GULP energy per Si atom -5576.268004 kJ/mol
# Density = 2.074732 g / cm^3
# Si number density = 20.794646 Si / 1000 Ang^3
#
#
#
# Elastic Constant Matrix: (Units=GPa)
#
#
# Indices 1 2 3 4 5 6 
#
# 1 89.7341 24.1154 21.3089 -22.4613 2.9972 -19.8869
# 2 24.1154 60.2708 34.7365 -17.3355 -0.2439 -9.6338
# 3 21.3089 34.7365 120.8401 -21.6170 -15.2065 0.0281
# 4 -22.4613 -17.3355 -21.6170 38.5498 3.9130 -0.3545
# 5 2.9972 -0.2439 -15.2065 3.9130 22.8880 -1.3172
# 6 -19.8869 -9.6338 0.0281 -0.3545 -1.3172 27.9374
#
#
#
# Elastic Compliance Matrix: (Units=1/GPa)
#
#
# Indices 1 2 3 4 5 6 
#
# 1 0.016734 -0.001555 -0.001446 0.008751 -0.004015 0.011299
# 2 -0.001555 0.023660 -0.005811 0.006965 -0.004196 0.006948
# 3 -0.001446 -0.005811 0.011513 0.002241 0.007240 -0.002675
# 4 0.008751 0.006965 0.002241 0.036041 -0.005236 0.008839
# 5 -0.004015 -0.004196 0.007240 -0.005236 0.049760 -0.002032
# 6 0.011299 0.006948 -0.002675 0.008839 -0.002032 0.046252
#
#
# Mechanical properties :
#
#
# Convention : Reuss Voigt Hill
#
# Bulk Modulus (GPa) = 29.16878 47.90740 38.53809
# Shear Modulus (GPa) = 23.47285 30.58733 27.03009
#
# Velocity S-wave (km/s) = 3.36340 3.83942 3.60927
# Velocity P-wave (km/s) = 5.39822 6.53783 5.99516
#
# Compressibility (1/GPa) = 0.03428323
#
# Stress axis : x y z
#
# Youngs Moduli (GPa) = 59.75837 42.26567 86.85617
#
# Poissons Ratio (x) = 0.06573 0.12560
# Poissons Ratio (y) = 0.09294 0.50469
# Poissons Ratio (z) = 0.08642 0.24559
#
# Static dielectric constant tensor:
#      x y z
#    x 1.763430 0.056530 0.006240 
#    y 0.056530 1.838960 0.040080 
#    z 0.006240 0.040080 1.765250 
# 
# From -- ./inp_files/438473.got.cif
#   From: 2010.05.17/outbox.cif.g08.bks.cpg/sg2_220_cif.got.tgz:438473.got - 2010.06.03 11:33:40.
