data_PCOD9006290
_publ_section_title
;
Structure prediction by ZEFSAII (Michael W. Deem and Ramdas Pophale) SiO2 
 PCOD9006290
Probable space group: P -1
;
_chemical_formula_sum "Si O2"
_cell_formula_units_Z 14
_cell_length_a 9.519958
_cell_length_b 12.330500
_cell_length_c 18.428433
_cell_angle_alpha 152.081755
_cell_angle_beta 146.836828
_cell_angle_gamma 43.964450
_cell_volume 552.377466
_symmetry_space_group_name_H-M "P -1"
_symmetry_group_IT_number 2
_symmetry_cell_setting 'triclinic'
loop_
_space_group_symop_operation_xyz
x,y,z
-x,-y,-z
loop_
_atom_site_type_symbol
_atom_site_label
_atom_site_fract_x
_atom_site_fract_y
_atom_site_fract_z
Si Si1 0.057761 0.418188 0.680860
Si Si2 0.191206 0.694734 0.289646
Si Si3 0.993931 0.755213 0.968390
Si Si4 0.290238 0.013614 0.774559
Si Si5 0.678144 0.613971 0.371813
Si Si6 0.194723 0.869732 0.799759
Si Si7 0.433702 0.101954 0.733771
O O1 0.952921 0.642113 0.804436
O O2 0.255938 0.453432 0.721232
O O3 0.215178 0.278717 0.726221
O O4 0.825994 0.246020 0.449376
O O5 0.395284 0.687571 0.308649
O O6 0.110379 0.441859 0.136672
O O7 0.330431 0.857987 0.508895
O O8 0.940919 0.817954 0.231314
O O9 0.300463 0.810303 0.136584
O O10 0.854918 0.982519 0.062742
O O11 0.346053 0.003557 0.878106
O O12 0.468128 0.083502 0.824135
O O13 0.711832 0.384469 0.297804
O O14 0.899064 0.810121 0.606674
#
# Coordination Sequence:
#
# PCOD9006290 Si02
#       7
#     2   2   2   2   2   2   2
#     4  10  21  38  65  93 129 164 208 256 319 368
#     4  11  22  40  68  96 127 164 210 260 317 368
#     4  12  23  38  67 100 123 164 214 259 314 374
#     4  10  21  41  66  94 129 165 206 262 316 374
#     4  10  23  45  63  89 134 171 205 262 311 376
#     4  10  24  42  65  94 126 171 215 250 318 377
#     4  11  21  41  64 100 128 162 203 272 309 376
#
# _framework density 25.344985999999999
#
# number of rings (size 3 to 8) (size 9 to 14) (size 15 to 20)
#    0.000    1.429    4.286    1.286    2.000    4.571 
#    0.000    2.143    0.000    0.000    0.000    0.000 
#    0.000    0.000    0.000    0.000    0.000    0.000 
#
# Total GULP energy -78448.427026 kJ/mol
# GULP energy per Si atom -5603.459073 kJ/mol
# Density = 2.528730 g / cm^3
# Si number density = 25.344986 Si / 1000 Ang^3
#
#
#
# Elastic Constant Matrix: (Units=GPa)
#
#
# Indices 1 2 3 4 5 6 
#
# 1 170.9684 26.1332 32.7041 3.1072 -17.7354 2.7088
# 2 26.1332 35.8092 8.1882 -0.3225 -14.8907 9.3487
# 3 32.7041 8.1882 57.5410 5.6807 -2.1473 -13.8096
# 4 3.1072 -0.3225 5.6807 20.3757 0.8958 -7.4521
# 5 -17.7354 -14.8907 -2.1473 0.8958 51.3416 1.2789
# 6 2.7088 9.3487 -13.8096 -7.4521 1.2789 48.5695
#
#
#
# Elastic Compliance Matrix: (Units=1/GPa)
#
#
# Indices 1 2 3 4 5 6 
#
# 1 0.007286 -0.003695 -0.003724 -0.000506 0.001320 -0.000866
# 2 -0.003695 0.038203 -0.005017 -0.001161 0.009838 -0.009011
# 3 -0.003724 -0.005017 0.022127 -0.003016 -0.001939 0.007053
# 4 -0.000506 -0.001161 -0.003016 0.052813 -0.001747 0.007543
# 5 0.001320 0.009838 -0.001939 -0.001747 0.022821 -0.003388
# 6 -0.000866 -0.009011 0.007053 0.007543 -0.003388 0.025624
#
#
# Mechanical properties :
#
#
# Convention : Reuss Voigt Hill
#
# Bulk Modulus (GPa) = 23.39503 44.26330 33.82916
# Shear Modulus (GPa) = 24.03909 37.21023 30.62466
#
# Velocity S-wave (km/s) = 3.08307 3.83580 3.47985
# Velocity P-wave (km/s) = 4.68236 6.09262 5.43344
#
# Compressibility (1/GPa) = 0.04274413
#
# Stress axis : x y z
#
# Youngs Moduli (GPa) = 137.24836 26.17601 45.19265
#
# Poissons Ratio (x) = 0.09673 0.16830
# Poissons Ratio (y) = 0.50718 0.22673
# Poissons Ratio (z) = 0.51111 0.13132
#
# Static dielectric constant tensor:
#      x y z
#    x 1.977060 0.032380 0.009500 
#    y 0.032380 1.971390 -0.062020 
#    z 0.009500 -0.062020 2.055660 
# 
# From -- ./inp_files/181965.got.cif
#   From: 2010.05.17/outbox.cif.g08.bks.cpg/sg2_91_cif.got.tgz:181965.got - 2010.06.03 11:33:40.
