data_PCOD9006298
_publ_section_title
;
Structure prediction by ZEFSAII (Michael W. Deem and Ramdas Pophale) SiO2 
 PCOD9006298
Probable space group: P -1
;
_chemical_formula_sum "Si O2"
_cell_formula_units_Z 14
_cell_length_a 5.506923
_cell_length_b 8.151907
_cell_length_c 16.843158
_cell_angle_alpha 122.294684
_cell_angle_beta 102.292555
_cell_angle_gamma 56.203068
_cell_volume 527.312373
_symmetry_space_group_name_H-M "P -1"
_symmetry_group_IT_number 2
_symmetry_cell_setting 'triclinic'
loop_
_space_group_symop_operation_xyz
x,y,z
-x,-y,-z
loop_
_atom_site_type_symbol
_atom_site_label
_atom_site_fract_x
_atom_site_fract_y
_atom_site_fract_z
Si Si1 0.993173 0.336851 0.149866
Si Si2 0.820024 0.450873 0.538541
Si Si3 0.110239 0.969509 0.389654
Si Si4 0.590584 0.115373 0.291106
Si Si5 0.150529 0.639084 0.026523
Si Si6 0.221259 0.969972 0.211698
Si Si7 0.534327 0.532163 0.749022
O O1 0.992607 0.249034 0.039318
O O2 0.659898 0.482937 0.199079
O O3 0.124412 0.133882 0.170057
O O4 0.199659 0.442430 0.195443
O O5 0.500000 0.500000 0.500000
O O6 0.724002 0.648353 0.648186
O O7 0.000000 0.500000 0.500000
O O8 0.043663 0.176234 0.496949
O O9 0.335590 0.702421 0.353675
O O10 0.786896 0.026562 0.360087
O O11 0.187527 0.009445 0.315423
O O12 0.558918 0.906689 0.210694
O O13 0.670450 0.239539 0.260537
O O14 0.500000 0.500000 0.000000
O O15 0.000000 0.500000 0.000000
O O16 0.119612 0.799178 0.138339
#
# Coordination Sequence:
#
# PCOD9006298 Si02
#       7
#     2   2   2   2   2   2   2
#     4  11  24  46  61  99 130 169 218 267 320 386
#     4  10  21  38  65  93 132 168 216 266 316 382
#     4  11  22  40  67  95 130 177 214 264 328 376
#     4  10  23  43  63  99 131 171 221 264 324 382
#     4  12  27  43  65  98 130 166 218 270 320 390
#     4  11  23  41  71  87 133 175 214 265 328 384
#     4  11  25  40  69  95 135 168 220 267 314 388
#
# _framework density 26.549728999999999
#
# number of rings (size 3 to 8) (size 9 to 14) (size 15 to 20)
#    0.000    1.143    2.857    3.000    6.000    0.571 
#    0.000    3.571    0.000    6.000    0.000    0.000 
#    0.000    0.000    0.000    0.000    0.000    0.000 
#
# Total GULP energy -78031.877553 kJ/mol
# GULP energy per Si atom -5573.705540 kJ/mol
# Density = 2.648930 g / cm^3
# Si number density = 26.549729 Si / 1000 Ang^3
#
#
#
# Elastic Constant Matrix: (Units=GPa)
#
#
# Indices 1 2 3 4 5 6 
#
# 1 121.0582 25.8209 -1.6263 0.9473 10.4568 24.7393
# 2 25.8209 99.5707 10.2443 2.5229 8.3693 12.8000
# 3 -1.6263 10.2443 40.8905 -8.2599 4.4728 10.5068
# 4 0.9473 2.5229 -8.2599 45.3773 8.0252 1.9455
# 5 10.4568 8.3693 4.4728 8.0252 42.2006 6.0422
# 6 24.7393 12.8000 10.5068 1.9455 6.0422 36.1442
#
#
#
# Elastic Compliance Matrix: (Units=1/GPa)
#
#
# Indices 1 2 3 4 5 6 
#
# 1 0.010296 -0.001972 0.003108 0.001060 -0.001685 -0.007028
# 2 -0.001972 0.011132 -0.002481 -0.000769 -0.001074 -0.001651
# 3 0.003108 -0.002481 0.029304 0.006388 -0.003228 -0.009571
# 4 0.001060 -0.000769 0.006388 0.024224 -0.004996 -0.002779
# 5 -0.001685 -0.001074 -0.003228 -0.004996 0.025845 -0.001580
# 6 -0.007028 -0.001651 -0.009571 -0.002779 -0.001580 0.036258
#
#
# Mechanical properties :
#
#
# Convention : Reuss Voigt Hill
#
# Bulk Modulus (GPa) = 20.81529 36.71081 28.76305
# Shear Modulus (GPa) = 32.10040 39.88312 35.99176
#
# Velocity S-wave (km/s) = 3.48094 3.88003 3.68589
# Velocity P-wave (km/s) = 4.90031 5.82495 5.38252
#
# Compressibility (1/GPa) = 0.04804160
#
# Stress axis : x y z
#
# Youngs Moduli (GPa) = 97.12302 89.83482 34.12555
#
# Poissons Ratio (x) = 0.17711 -0.10605
# Poissons Ratio (y) = 0.19148 0.08466
# Poissons Ratio (z) = -0.30182 0.22287
#
# Static dielectric constant tensor:
#      x y z
#    x 2.921850 -0.013140 -0.092520 
#    y -0.013140 2.207110 0.135120 
#    z -0.092520 0.135120 2.138490 
# 
# From -- ./inp_files/35567.got.cif
#   From: 2010.05.17/outbox.cif.g08.bks.cpg/sg2_18_cif.got.tgz:35567.got - 2010.06.03 11:33:40.
