data_PCOD9006202
_publ_section_title
;
Structure prediction by ZEFSAII (Michael W. Deem and Ramdas Pophale) SiO2 
 PCOD9006202
Probable space group: P -1
;
_chemical_formula_sum "Si O2"
_cell_formula_units_Z 8
_cell_length_a 12.099535
_cell_length_b 8.929527
_cell_length_c 5.674440
_cell_angle_alpha 121.493617
_cell_angle_beta 50.059147
_cell_angle_gamma 141.606676
_cell_volume 291.693396
_symmetry_space_group_name_H-M "P -1"
_symmetry_group_IT_number 2
_symmetry_cell_setting 'triclinic'
loop_
_space_group_symop_operation_xyz
x,y,z
-x,-y,-z
loop_
_atom_site_type_symbol
_atom_site_label
_atom_site_fract_x
_atom_site_fract_y
_atom_site_fract_z
Si Si1 0.616726 0.087783 0.163084
Si Si2 0.543027 0.658484 0.852810
Si Si3 0.858354 0.652219 0.294935
Si Si4 0.911744 0.623171 0.719081
O O1 0.500000 0.000000 0.500000
O O2 0.771206 0.377805 0.198673
O O3 0.500000 0.000000 0.000000
O O4 0.681459 0.940716 0.941214
O O5 0.676058 0.637768 0.497304
O O6 0.324152 0.564227 0.062126
O O7 0.500000 0.500000 0.000000
O O8 0.987746 0.774559 0.980801
O O9 0.000000 0.500000 0.500000
O O10 0.939133 0.737030 0.521651
#
# Coordination Sequence:
#
# PCOD9006202 Si02
#       4
#     2   2   2   2
#     4  12  21  35  62  91 117 147 199 253 288 333
#     4  10  21  38  65  88 116 152 205 242 291 341
#     4  11  22  40  62  87 116 155 202 241 286 348
#     4  11  22  37  60  87 121 158 190 237 302 352
#
# _framework density 27.426058999999999
#
# number of rings (size 3 to 8) (size 9 to 14) (size 15 to 20)
#    0.000    1.000    7.500    1.500    0.000    0.000 
#    0.000    0.000    0.000   31.500    0.000    0.000 
#    0.000    0.000    0.000    0.000    0.000    0.000 
#
# Total GULP energy -44593.496898 kJ/mol
# GULP energy per Si atom -5574.187112 kJ/mol
# Density = 2.736364 g / cm^3
# Si number density = 27.426059 Si / 1000 Ang^3
#
#
#
# Elastic Constant Matrix: (Units=GPa)
#
#
# Indices 1 2 3 4 5 6 
#
# 1 205.4741 31.5542 87.3626 -1.5783 6.0627 14.2905
# 2 31.5542 81.9251 28.0534 10.6410 -6.9956 -1.9106
# 3 87.3626 28.0534 259.2367 1.5066 5.1417 7.3106
# 4 -1.5783 10.6410 1.5066 34.7971 -14.0387 -10.4482
# 5 6.0627 -6.9956 5.1417 -14.0387 87.7139 4.8265
# 6 14.2905 -1.9106 7.3106 -10.4482 4.8265 48.1569
#
#
#
# Elastic Compliance Matrix: (Units=1/GPa)
#
#
# Indices 1 2 3 4 5 6 
#
# 1 0.006020 -0.001812 -0.001786 0.000329 -0.000322 -0.001483
# 2 -0.001812 0.013774 -0.000878 -0.003909 0.000633 0.000306
# 3 -0.001786 -0.000878 0.004566 -0.000166 -0.000229 -0.000211
# 4 0.000329 -0.003909 -0.000166 0.033858 0.004729 0.006644
# 5 -0.000322 0.000633 -0.000229 0.004729 0.012246 -0.000046
# 6 -0.001483 0.000306 -0.000211 0.006644 -0.000046 0.022696
#
#
# Mechanical properties :
#
#
# Convention : Reuss Voigt Hill
#
# Bulk Modulus (GPa) = 64.90735 93.39736 79.15236
# Shear Modulus (GPa) = 46.62081 60.77796 53.69939
#
# Velocity S-wave (km/s) = 4.12742 4.71262 4.42970
# Velocity P-wave (km/s) = 6.81409 7.98372 7.42198
#
# Compressibility (1/GPa) = 0.01540658
#
# Stress axis : x y z
#
# Youngs Moduli (GPa) = 166.12195 72.60185 219.01129
#
# Poissons Ratio (x) = 0.13153 0.39122
# Poissons Ratio (y) = 0.30096 0.19239
# Poissons Ratio (z) = 0.29674 0.06378
#
# Static dielectric constant tensor:
#      x y z
#    x 1.414030 -0.235740 0.154360 
#    y -0.235740 2.015180 0.130080 
#    z 0.154360 0.130080 2.091280 
# 
# From -- ./inp_files/17793.got.cif
#   From: 2010.05.17/outbox.cif.g08.bks.cpg/sg2_9_cif.got.tgz:17793.got - 2010.06.03 11:33:40.
