data_PCOD9006449
_publ_section_title
;
Structure prediction by ZEFSAII (Michael W. Deem and Ramdas Pophale) SiO2 
 PCOD9006449
Probable space group: P -1
;
_chemical_formula_sum "Si O2"
_cell_formula_units_Z 16
_cell_length_a 15.544600
_cell_length_b 17.907265
_cell_length_c 16.665686
_cell_angle_alpha 25.177707
_cell_angle_beta 153.873016
_cell_angle_gamma 155.320570
_cell_volume 745.935285
_symmetry_space_group_name_H-M "P -1"
_symmetry_group_IT_number 2
_symmetry_cell_setting 'triclinic'
loop_
_space_group_symop_operation_xyz
x,y,z
-x,-y,-z
loop_
_atom_site_type_symbol
_atom_site_label
_atom_site_fract_x
_atom_site_fract_y
_atom_site_fract_z
Si Si1 0.862937 0.577348 0.193145
Si Si2 0.271506 0.793052 0.441884
Si Si3 0.938447 0.339836 0.173453
Si Si4 0.976617 0.970082 0.701745
Si Si5 0.058730 0.615764 0.156065
Si Si6 0.688260 0.740703 0.423051
Si Si7 0.770787 0.934755 0.729844
Si Si8 0.423011 0.071862 0.707256
O O1 0.746010 0.386285 0.340916
O O2 0.109708 0.711242 0.310122
O O3 0.899144 0.510181 0.201510
O O4 0.759504 0.724555 0.951657
O O5 0.534263 0.908909 0.525203
O O6 0.187796 0.921275 0.299173
O O7 0.036020 0.454261 0.228269
O O8 0.081588 0.234817 0.370734
O O9 0.675060 0.169844 0.128941
O O10 0.000000 0.500000 0.000000
O O11 0.945829 0.018634 0.720698
O O12 0.756844 0.930019 0.505147
O O13 0.211009 0.144325 0.688454
O O14 0.979491 0.761046 0.908343
O O15 0.316748 0.772300 0.248230
O O16 0.500000 0.500000 0.500000
O O17 0.600487 0.851547 0.299277
#
# Coordination Sequence:
#
# PCOD9006449 Si02
#       8
#     2   2   2   2   2   2   2   2
#     4  10  22  39  61  94 125 157 208 254 308 379
#     4  10  21  38  66  89 122 165 200 250 322 372
#     4  11  23  38  61  88 118 161 213 253 302 368
#     4  10  23  40  59  90 126 156 209 262 301 369
#     4  11  23  41  63  89 126 163 204 260 307 364
#     4  11  22  38  59  84 120 163 203 253 308 355
#     4  10  21  39  63  90 124 161 202 257 311 371
#     4  11  23  40  61  86 123 163 206 251 307 364
#
# _framework density 21.449583000000001
#
# number of rings (size 3 to 8) (size 9 to 14) (size 15 to 20)
#    0.000    1.500    1.250    4.500    5.250    1.000 
#    0.000    0.000   11.000    0.000    0.000    0.000 
#    0.000    0.000    0.000    0.000    0.000    0.000 
#
# Total GULP energy -89291.009792 kJ/mol
# GULP energy per Si atom -5580.688112 kJ/mol
# Density = 2.140076 g / cm^3
# Si number density = 21.449583 Si / 1000 Ang^3
#
#
#
# Elastic Constant Matrix: (Units=GPa)
#
#
# Indices 1 2 3 4 5 6 
#
# 1 108.7549 19.8724 38.2355 -7.9232 -41.0113 -27.8772
# 2 19.8724 80.2968 11.3702 -0.1114 -32.1575 -8.7153
# 3 38.2355 11.3702 107.1223 -0.4585 -100.6914 -40.2829
# 4 -7.9232 -0.1114 -0.4585 24.0207 -0.8414 6.4399
# 5 -41.0113 -32.1575 -100.6914 -0.8414 258.9205 82.4473
# 6 -27.8772 -8.7153 -40.2829 6.4399 82.4473 41.7899
#
#
#
# Elastic Compliance Matrix: (Units=1/GPa)
#
#
# Indices 1 2 3 4 5 6 
#
# 1 0.012324 -0.002625 -0.002866 0.001234 -0.002657 0.009963
# 2 -0.002625 0.013697 0.000655 0.000275 0.002694 -0.003620
# 3 -0.002866 0.000655 0.016476 -0.002353 0.003819 0.006936
# 4 0.001234 0.000275 -0.002353 0.047760 0.006066 -0.020716
# 5 -0.002657 0.002694 0.003819 0.006066 0.012889 -0.023892
# 6 0.009963 -0.003620 0.006936 -0.020716 -0.023892 0.086835
#
#
# Mechanical properties :
#
#
# Convention : Reuss Voigt Hill
#
# Bulk Modulus (GPa) = 30.46479 48.34780 39.40629
# Shear Modulus (GPa) = 23.74226 80.05928 51.90077
#
# Velocity S-wave (km/s) = 3.33060 6.11600 4.92434
# Velocity P-wave (km/s) = 5.38742 8.51252 7.12346
#
# Compressibility (1/GPa) = 0.03282478
#
# Stress axis : x y z
#
# Youngs Moduli (GPa) = 81.14257 73.00881 60.69476
#
# Poissons Ratio (x) = 0.19166 0.17394
# Poissons Ratio (y) = 0.21302 -0.03976
# Poissons Ratio (z) = 0.23254 -0.04782
#
# Static dielectric constant tensor:
#      x y z
#    x 1.713580 0.044180 -0.049900 
#    y 0.044180 1.795900 -0.009290 
#    z -0.049900 -0.009290 1.770740 
# 
# From -- ./inp_files/534203.got.cif
#   From: 2010.05.17/outbox.cif.g08.bks.cpg/sg2_268_cif.got.tgz:534203.got - 2010.06.03 11:33:40.
