data_PCOD9006557
_publ_section_title
;
Structure prediction by ZEFSAII (Michael W. Deem and Ramdas Pophale) SiO2 
 PCOD9006557
Probable space group: P -1
;
_chemical_formula_sum "Si O2"
_cell_formula_units_Z 16
_cell_length_a 5.308782
_cell_length_b 22.887785
_cell_length_c 12.078069
_cell_angle_alpha 30.330155
_cell_angle_beta 74.118075
_cell_angle_gamma 70.999290
_cell_volume 700.629810
_symmetry_space_group_name_H-M "P -1"
_symmetry_group_IT_number 2
_symmetry_cell_setting 'triclinic'
loop_
_space_group_symop_operation_xyz
x,y,z
-x,-y,-z
loop_
_atom_site_type_symbol
_atom_site_label
_atom_site_fract_x
_atom_site_fract_y
_atom_site_fract_z
Si Si1 0.616858 0.388126 0.435830
Si Si2 0.356293 0.860691 0.446507
Si Si3 0.645275 0.210858 0.926928
Si Si4 0.536032 0.341250 0.950539
Si Si5 0.114179 0.059181 0.995552
Si Si6 0.681772 0.957621 0.653223
Si Si7 0.988454 0.772761 0.774648
Si Si8 0.220045 0.291717 0.486797
O O1 0.601005 0.296668 0.687073
O O2 0.566470 0.519835 0.272202
O O3 0.392328 0.371900 0.401022
O O4 0.914693 0.353320 0.406648
O O5 0.086018 0.809878 0.582840
O O6 0.605367 0.760029 0.554619
O O7 0.319803 0.956595 0.196548
O O8 0.372357 0.932598 0.438140
O O9 0.671335 0.286577 0.909596
O O10 0.407062 0.144322 0.094323
O O11 0.890272 0.107224 0.035854
O O12 0.760366 0.314760 0.061031
O O13 0.280336 0.280286 0.105220
O O14 0.209090 0.176687 0.751980
O O15 0.000000 0.000000 0.000000
O O16 0.942804 0.885719 0.679051
O O17 0.500000 0.000000 0.500000
#
# Coordination Sequence:
#
# PCOD9006557 Si02
#       8
#     2   2   2   2   2   2   2   2
#     4  11  24  45  66  92 127 168 221 283 326 371
#     4  12  22  40  65  94 135 178 208 264 330 394
#     4  10  21  38  66  98 128 170 217 262 330 398
#     4  11  24  45  66  92 127 168 221 283 326 371
#     4  11  22  39  65 101 138 173 210 262 325 401
#     4  11  22  39  65 101 138 173 210 262 325 401
#     4  11  25  42  65  97 128 168 220 264 322 398
#     4  11  25  42  65  97 128 168 220 264 322 398
#
# _framework density 22.836596
#
# number of rings (size 3 to 8) (size 9 to 14) (size 15 to 20)
#    0.000    1.000    0.000    7.875    0.000    6.000 
#    0.000   10.000    0.000    0.000    0.000    0.000 
#    0.000    0.000    0.000    0.000    0.000    0.000 
#
# Total GULP energy -89487.686135 kJ/mol
# GULP energy per Si atom -5592.980383 kJ/mol
# Density = 2.278462 g / cm^3
# Si number density = 22.836596 Si / 1000 Ang^3
#
#
#
# Elastic Constant Matrix: (Units=GPa)
#
#
# Indices 1 2 3 4 5 6 
#
# 1 87.4720 36.7327 10.7890 0.1065 -0.9175 3.2850
# 2 36.7327 134.1401 21.1400 -11.7640 -13.6471 -12.3044
# 3 10.7890 21.1400 49.0125 -19.3564 2.3792 -2.1703
# 4 0.1065 -11.7640 -19.3564 30.0563 -2.2314 -2.0456
# 5 -0.9175 -13.6471 2.3792 -2.2314 27.3642 -0.8290
# 6 3.2850 -12.3044 -2.1703 -2.0456 -0.8290 44.7762
#
#
#
# Elastic Compliance Matrix: (Units=1/GPa)
#
#
# Indices 1 2 3 4 5 6 
#
# 1 0.013519 -0.003984 -0.002725 -0.003651 -0.001668 -0.002416
# 2 -0.003984 0.010028 -0.002375 0.003027 0.005417 0.003171
# 3 -0.002725 -0.002375 0.029279 0.017883 -0.002311 0.001741
# 4 -0.003651 0.003027 0.017883 0.046547 0.003754 0.004163
# 5 -0.001668 0.005417 -0.002311 0.003754 0.039770 0.002407
# 6 -0.002416 0.003171 0.001741 0.004163 0.002407 0.023701
#
#
# Mechanical properties :
#
#
# Convention : Reuss Voigt Hill
#
# Bulk Modulus (GPa) = 28.85429 45.32755 37.09092
# Shear Modulus (GPa) = 25.96527 33.90353 29.93440
#
# Velocity S-wave (km/s) = 3.37561 3.85725 3.62444
# Velocity P-wave (km/s) = 5.27783 6.30314 5.81313
#
# Compressibility (1/GPa) = 0.03465689
#
# Stress axis : x y z
#
# Youngs Moduli (GPa) = 73.96936 99.72412 34.15428
#
# Poissons Ratio (x) = 0.39730 0.09308
# Poissons Ratio (y) = 0.29469 0.08112
# Poissons Ratio (z) = 0.20159 0.23685
#
# Static dielectric constant tensor:
#      x y z
#    x 1.932030 0.004070 -0.056860 
#    y 0.004070 1.852200 0.010650 
#    z -0.056860 0.010650 1.880250 
# 
# From -- ./inp_files/370972.got.cif
#   From: 2010.05.17/outbox.cif.g08.bks.cpg/sg2_186_cif.got.tgz:370972.got - 2010.06.03 11:33:40.
