data_PCOD9006068
_publ_section_title
;
Structure prediction by ZEFSAII (Michael W. Deem and Ramdas Pophale) SiO2 
 PCOD9006068
Probable space group: P -1
;
_chemical_formula_sum "Si O2"
_cell_formula_units_Z 16
_cell_length_a 5.957866
_cell_length_b 14.447237
_cell_length_c 9.269357
_cell_angle_alpha 101.823062
_cell_angle_beta 82.306063
_cell_angle_gamma 70.733568
_cell_volume 719.452626
_symmetry_space_group_name_H-M "P -1"
_symmetry_group_IT_number 2
_symmetry_cell_setting 'triclinic'
loop_
_space_group_symop_operation_xyz
x,y,z
-x,-y,-z
loop_
_atom_site_type_symbol
_atom_site_label
_atom_site_fract_x
_atom_site_fract_y
_atom_site_fract_z
Si Si1 0.878756 0.182457 0.854757
Si Si2 0.048652 0.679625 0.849431
Si Si3 0.774262 0.555238 0.932230
Si Si4 0.007082 0.171466 0.357626
Si Si5 0.309868 0.110369 0.599806
Si Si6 0.409781 0.746752 0.379231
Si Si7 0.486005 0.462471 0.776972
Si Si8 0.247811 0.985427 0.068703
O O1 0.769612 0.241879 0.736931
O O2 0.704136 0.125985 0.908111
O O3 0.135614 0.102890 0.743208
O O4 0.918696 0.250333 0.001448
O O5 0.277714 0.571815 0.794818
O O6 0.814696 0.651100 0.893973
O O7 0.015703 0.738461 0.721490
O O8 0.730857 0.485162 0.788699
O O9 0.561851 0.577026 0.073712
O O10 0.000000 0.500000 0.000000
O O11 0.165721 0.159584 0.482767
O O12 0.738850 0.193282 0.450821
O O13 0.136148 0.068320 0.228018
O O14 0.419925 0.193927 0.663420
O O15 0.500000 0.000000 0.500000
O O16 0.516843 0.625930 0.357783
O O17 0.500000 0.000000 0.000000
O O18 0.000000 0.000000 0.000000
#
# Coordination Sequence:
#
# PCOD9006068 Si02
#       8
#     2   2   2   2   2   2   2   2
#     4  11  24  43  69 104 133 184 237 296 356 433
#     4  11  23  41  66 100 139 175 240 293 362 411
#     4   9  18  35  61  92 130 173 234 287 342 414
#     4  11  27  44  65 105 138 181 235 301 357 434
#     4  11  25  45  73  95 137 186 238 288 363 440
#     4  11  24  43  67  97 140 184 241 285 357 436
#     4  10  21  38  64  94 132 187 230 289 352 429
#     4  12  28  47  75 108 148 184 239 304 374 432
#
# _framework density 22.239129999999999
#
# number of rings (size 3 to 8) (size 9 to 14) (size 15 to 20)
#    0.000    1.250    1.250    4.500    5.250    8.500 
#    0.000    1.250    0.000    0.000    0.000    0.000 
#    0.000    0.000    0.000    0.000    0.000    0.000 
#
# Total GULP energy -89218.873622 kJ/mol
# GULP energy per Si atom -5576.179601 kJ/mol
# Density = 2.218851 g / cm^3
# Si number density = 22.239130 Si / 1000 Ang^3
#
#
#
# Elastic Constant Matrix: (Units=GPa)
#
#
# Indices 1 2 3 4 5 6 
#
# 1 106.0024 46.0649 49.3881 6.0012 -1.7240 27.1890
# 2 46.0649 108.5673 40.0950 7.2969 -2.0534 16.8467
# 3 49.3881 40.0950 89.9561 5.1189 -3.6855 4.6210
# 4 6.0012 7.2969 5.1189 53.2476 -1.4699 -0.7421
# 5 -1.7240 -2.0534 -3.6855 -1.4699 31.0932 -7.5269
# 6 27.1890 16.8467 4.6210 -0.7421 -7.5269 39.8393
#
#
#
# Elastic Compliance Matrix: (Units=1/GPa)
#
#
# Indices 1 2 3 4 5 6 
#
# 1 0.016641 -0.002768 -0.007447 -0.000988 -0.002568 -0.009826
# 2 -0.002768 0.012306 -0.003773 -0.001069 -0.000566 -0.003004
# 3 -0.007447 -0.003773 0.016730 -0.000108 0.002580 0.005223
# 4 -0.000988 -0.001069 -0.000108 0.019105 0.001181 0.001718
# 5 -0.002568 -0.000566 0.002580 0.001181 0.034328 0.008200
# 6 -0.009826 -0.003004 0.005223 0.001718 0.008200 0.034053
#
#
# Mechanical properties :
#
#
# Convention : Reuss Voigt Hill
#
# Bulk Modulus (GPa) = 56.49335 63.95797 60.22566
# Shear Modulus (GPa) = 29.93306 36.10121 33.01713
#
# Velocity S-wave (km/s) = 3.67272 4.03341 3.85728
# Velocity P-wave (km/s) = 6.59113 7.10724 6.85404
#
# Compressibility (1/GPa) = 0.01770120
#
# Stress axis : x y z
#
# Youngs Moduli (GPa) = 60.09408 81.26009 59.77147
#
# Poissons Ratio (x) = 0.22492 0.44510
# Poissons Ratio (y) = 0.16633 0.22555
# Poissons Ratio (z) = 0.44750 0.30663
#
# Static dielectric constant tensor:
#      x y z
#    x 1.957840 -0.037300 -0.005620 
#    y -0.037300 1.868370 0.039590 
#    z -0.005620 0.039590 1.862300 
# 
# From -- ./inp_files/135504.got.cif
#   From: 2010.05.17/outbox.cif.g08.bks.cpg/sg2_68_cif.got.tgz:135504.got - 2010.06.03 11:33:40.
