data_PCOD9006026
_publ_section_title
;
Structure prediction by ZEFSAII (Michael W. Deem and Ramdas Pophale) SiO2 
 PCOD9006026
Probable space group: P -1
;
_chemical_formula_sum "Si O2"
_cell_formula_units_Z 16
_cell_length_a 4.996910
_cell_length_b 23.272099
_cell_length_c 5.187167
_cell_angle_alpha 101.926876
_cell_angle_beta 82.424702
_cell_angle_gamma 103.339964
_cell_volume 572.014471
_symmetry_space_group_name_H-M "P -1"
_symmetry_group_IT_number 2
_symmetry_cell_setting 'triclinic'
loop_
_space_group_symop_operation_xyz
x,y,z
-x,-y,-z
loop_
_atom_site_type_symbol
_atom_site_label
_atom_site_fract_x
_atom_site_fract_y
_atom_site_fract_z
Si Si1 0.483181 0.756306 0.773830
Si Si2 0.191578 0.512083 0.231763
Si Si3 0.030183 0.140539 0.606378
Si Si4 0.699679 0.961323 0.558841
Si Si5 0.329732 0.388776 0.145408
Si Si6 0.347922 0.882758 0.865228
Si Si7 0.913976 0.732756 0.101721
Si Si8 0.752682 0.364203 0.467278
O O1 0.479741 0.824114 0.767791
O O2 0.757342 0.747815 0.875874
O O3 0.374557 0.705327 0.525545
O O4 0.234487 0.740913 0.001679
O O5 0.365472 0.459925 0.163796
O O6 0.312008 0.583353 0.294901
O O7 0.000000 0.500000 0.500000
O O8 0.000000 0.500000 0.000000
O O9 0.871796 0.118885 0.341508
O O10 0.269770 0.104578 0.607307
O O11 0.816693 0.123091 0.853810
O O12 0.117192 0.213031 0.657099
O O13 0.585789 0.941771 0.841971
O O14 0.500000 0.000000 0.500000
O O15 0.000000 0.000000 0.500000
O O16 0.208970 0.337685 0.902017
O O17 0.600537 0.375806 0.232174
O O18 0.077086 0.374609 0.375581
#
# Coordination Sequence:
#
# PCOD9006026 Si02
#       8
#     2   2   2   2   2   2   2   2
#     4   9  20  38  68  99 137 180 232 289 350 414
#     4  10  21  38  64  92 134 182 230 286 346 414
#     4  11  27  49  77 109 147 192 240 299 360 426
#     4  12  28  52  78 112 148 193 240 293 356 434
#     4   9  18  37  61  95 132 179 230 286 347 413
#     4  11  27  49  77 109 147 192 240 299 360 426
#     4   9  20  38  68  99 137 180 232 289 350 414
#     4   9  18  37  61  95 132 179 230 286 347 413
#
# _framework density 27.971318
#
# number of rings (size 3 to 8) (size 9 to 14) (size 15 to 20)
#    0.000    2.000    1.250    0.375    7.000    2.000 
#    0.000   10.000    0.000    0.000    0.000    0.000 
#    0.000    0.000    0.000    0.000    0.000    0.000 
#
# Total GULP energy -89697.183758 kJ/mol
# GULP energy per Si atom -5606.073985 kJ/mol
# Density = 2.790765 g / cm^3
# Si number density = 27.971318 Si / 1000 Ang^3
#
#
#
# Elastic Constant Matrix: (Units=GPa)
#
#
# Indices 1 2 3 4 5 6 
#
# 1 131.9424 56.4241 28.9436 -11.2597 -4.3792 -25.0302
# 2 56.4241 189.5627 33.0546 0.7557 -15.0857 -4.5566
# 3 28.9436 33.0546 107.3357 0.5570 0.3018 -5.8725
# 4 -11.2597 0.7557 0.5570 57.9804 -11.0408 -14.7754
# 5 -4.3792 -15.0857 0.3018 -11.0408 39.5529 9.3288
# 6 -25.0302 -4.5566 -5.8725 -14.7754 9.3288 68.4749
#
#
#
# Elastic Compliance Matrix: (Units=1/GPa)
#
#
# Indices 1 2 3 4 5 6 
#
# 1 0.010099 -0.002620 -0.001712 0.003043 0.000032 0.004023
# 2 -0.002620 0.006450 -0.001341 -0.000406 0.002314 -0.001047
# 3 -0.001712 -0.001341 0.010206 -0.000554 -0.000975 0.000173
# 4 0.003043 -0.000406 -0.000554 0.019932 0.004640 0.004706
# 5 0.000032 0.002314 -0.000975 0.004640 0.028119 -0.002747
# 6 0.004023 -0.001047 0.000173 0.004706 -0.002747 0.017409
#
#
# Mechanical properties :
#
#
# Convention : Reuss Voigt Hill
#
# Bulk Modulus (GPa) = 64.90254 73.96503 69.43379
# Shear Modulus (GPa) = 45.99860 53.89621 49.94740
#
# Velocity S-wave (km/s) = 4.05963 4.39434 4.23030
# Velocity P-wave (km/s) = 6.72516 7.22825 6.98124
#
# Compressibility (1/GPa) = 0.01540772
#
# Stress axis : x y z
#
# Youngs Moduli (GPa) = 99.01872 155.04548 97.97769
#
# Poissons Ratio (x) = 0.40627 0.16775
# Poissons Ratio (y) = 0.25946 0.13142
# Poissons Ratio (z) = 0.16953 0.20796
#
# Static dielectric constant tensor:
#      x y z
#    x 2.136860 0.110070 -0.104390 
#    y 0.110070 2.418990 -0.030260 
#    z -0.104390 -0.030260 2.221730 
# 
# From -- ./inp_files/12450.got.cif
#   From: 2010.05.17/outbox.cif.g08.bks.cpg/sg2_7_cif.got.tgz:12450.got - 2010.06.03 11:33:40.
