data_PCOD9006996
_publ_section_title
;
Structure prediction by ZEFSAII (Michael W. Deem and Ramdas Pophale) SiO2 
 PCOD9006996
Probable space group: P -1
;
_chemical_formula_sum "Si O2"
_cell_formula_units_Z 16
_cell_length_a 14.987223
_cell_length_b 9.615395
_cell_length_c 11.126120
_cell_angle_alpha 104.476828
_cell_angle_beta 29.442138
_cell_angle_gamma 91.401423
_cell_volume 697.365913
_symmetry_space_group_name_H-M "P -1"
_symmetry_group_IT_number 2
_symmetry_cell_setting 'triclinic'
loop_
_space_group_symop_operation_xyz
x,y,z
-x,-y,-z
loop_
_atom_site_type_symbol
_atom_site_label
_atom_site_fract_x
_atom_site_fract_y
_atom_site_fract_z
Si Si1 0.531698 0.254436 0.637362
Si Si2 0.590991 0.777448 0.783055
Si Si3 0.161324 0.351591 0.941938
Si Si4 0.582704 0.917291 0.079380
Si Si5 0.052455 0.834825 0.968174
Si Si6 0.339417 0.590918 0.038791
Si Si7 0.048327 0.698730 0.177877
Si Si8 0.998694 0.650962 0.607920
O O1 0.551231 0.106153 0.662838
O O2 0.728731 0.263963 0.361285
O O3 0.389339 0.263971 0.694921
O O4 0.412102 0.405659 0.892884
O O5 0.821551 0.740006 0.487989
O O6 0.467501 0.903559 0.854455
O O7 0.533826 0.851494 0.998382
O O8 0.526888 0.634021 0.821595
O O9 0.125705 0.527786 0.984756
O O10 0.035495 0.369753 0.216957
O O11 0.093571 0.247592 0.912719
O O12 0.811402 0.808276 0.820707
O O13 0.060097 0.828735 0.101947
O O14 0.000000 0.000000 0.000000
O O15 0.185847 0.672311 0.127663
O O16 0.209850 0.650523 0.324185
O O17 0.000000 0.500000 0.500000
#
# Coordination Sequence:
#
# PCOD9006996 Si02
#       8
#     2   2   2   2   2   2   2   2
#     4  10  23  42  64  94 119 163 216 255 308 374
#     4  11  23  37  59  95 127 169 200 255 318 371
#     4  10  23  41  68  92 124 168 204 263 314 361
#     4  10  21  39  58  89 138 158 202 260 313 374
#     4  12  27  43  64  91 126 172 215 255 304 373
#     4  11  23  38  69  97 119 169 206 260 312 378
#     4  11  23  44  62  89 133 158 213 259 309 361
#     4  11  18  41  67  96 132 157 204 260 320 370
#
# _framework density 22.943480000000001
#
# number of rings (size 3 to 8) (size 9 to 14) (size 15 to 20)
#    0.000    1.250    5.000    1.875    1.750    6.500 
#    0.000    0.000    0.000    0.000    0.000    0.000 
#    0.000    0.000    0.000    0.000    0.000    0.000 
#
# Total GULP energy -89510.494522 kJ/mol
# GULP energy per Si atom -5594.405908 kJ/mol
# Density = 2.289126 g / cm^3
# Si number density = 22.943480 Si / 1000 Ang^3
#
#
#
# Elastic Constant Matrix: (Units=GPa)
#
#
# Indices 1 2 3 4 5 6 
#
# 1 39.1673 22.8323 -0.3670 3.1106 -5.5598 -14.0599
# 2 22.8323 65.1129 2.2609 -10.9585 -6.7204 -25.3551
# 3 -0.3670 2.2609 64.4178 -11.2177 -13.5907 -0.4135
# 4 3.1106 -10.9585 -11.2177 24.0255 -0.2072 -3.3688
# 5 -5.5598 -6.7204 -13.5907 -0.2072 18.9814 -2.0389
# 6 -14.0599 -25.3551 -0.4135 -3.3688 -2.0389 34.2079
#
#
#
# Elastic Compliance Matrix: (Units=1/GPa)
#
#
# Indices 1 2 3 4 5 6 
#
# 1 0.035841 -0.010543 0.000917 -0.008024 0.008044 0.006616
# 2 -0.010543 0.033808 0.006404 0.023291 0.016306 0.024068
# 3 0.000917 0.006404 0.021903 0.014309 0.019228 0.007943
# 4 -0.008024 0.023291 0.014309 0.063145 0.019139 0.021497
# 5 0.008044 0.016306 0.019228 0.019139 0.077163 0.022109
# 6 0.006616 0.024068 0.007943 0.021497 0.022109 0.053323
#
#
# Mechanical properties :
#
#
# Convention : Reuss Voigt Hill
#
# Bulk Modulus (GPa) = 11.75007 24.23893 17.99450
# Shear Modulus (GPa) = 15.62514 25.04108 20.33311
#
# Velocity S-wave (km/s) = 2.61248 3.30726 2.98018
# Velocity P-wave (km/s) = 3.77260 5.01712 4.43869
#
# Compressibility (1/GPa) = 0.08510588
#
# Stress axis : x y z
#
# Youngs Moduli (GPa) = 27.90135 29.57915 45.65484
#
# Poissons Ratio (x) = 0.31186 -0.04185
# Poissons Ratio (y) = 0.29417 -0.29237
# Poissons Ratio (z) = -0.02557 -0.18942
#
# Static dielectric constant tensor:
#      x y z
#    x 1.855160 -0.025360 -0.009470 
#    y -0.025360 1.844800 0.012050 
#    z -0.009470 0.012050 1.858990 
# 
# From -- ./inp_files/398777.got.cif
#   From: 2010.05.17/outbox.cif.g08.bks.cpg/sg2_200_cif.got.tgz:398777.got - 2010.06.03 11:33:40.
