data_PCOD9006726
_publ_section_title
;
Structure prediction by ZEFSAII (Michael W. Deem and Ramdas Pophale) SiO2 
 PCOD9006726
Probable space group: P -1
;
_chemical_formula_sum "Si O2"
_cell_formula_units_Z 16
_cell_length_a 23.952079
_cell_length_b 12.241961
_cell_length_c 11.195921
_cell_angle_alpha 134.295059
_cell_angle_beta 44.042918
_cell_angle_gamma 161.628173
_cell_volume 717.361129
_symmetry_space_group_name_H-M "P -1"
_symmetry_group_IT_number 2
_symmetry_cell_setting 'triclinic'
loop_
_space_group_symop_operation_xyz
x,y,z
-x,-y,-z
loop_
_atom_site_type_symbol
_atom_site_label
_atom_site_fract_x
_atom_site_fract_y
_atom_site_fract_z
Si Si1 0.936089 0.264865 0.619478
Si Si2 0.820939 0.777738 0.550737
Si Si3 0.818275 0.506053 0.185784
Si Si4 0.696010 0.230149 0.621485
Si Si5 0.890629 0.226758 0.065435
Si Si6 0.518419 0.916394 0.017613
Si Si7 0.398582 0.186711 0.357849
Si Si8 0.415029 0.077160 0.703271
O O1 0.037964 0.573760 0.769508
O O2 0.087541 0.417830 0.442018
O O3 0.848081 0.001735 0.651896
O O4 0.793516 0.085821 0.608238
O O5 0.797034 0.645293 0.361117
O O6 0.633129 0.443719 0.658556
O O7 0.000000 0.000000 0.500000
O O8 0.716734 0.283724 0.051593
O O9 0.701066 0.217486 0.247667
O O10 0.026586 0.801394 0.089971
O O11 0.624739 0.270708 0.807107
O O12 0.624013 0.979406 0.632525
O O13 0.629448 0.074003 0.472321
O O14 0.679065 0.915115 0.143159
O O15 0.000000 0.500000 0.000000
O O16 0.501024 0.719663 0.838567
O O17 0.500000 0.000000 0.000000
O O18 0.500000 0.500000 0.500000
#
# Coordination Sequence:
#
# PCOD9006726 Si02
#       8
#     2   2   2   2   2   2   2   2
#     4  11  23  40  63  91 130 169 213 259 316 377
#     4  12  24  37  60  98 131 166 214 261 315 372
#     4  11  21  41  67  91 132 169 212 259 317 388
#     4  10  21  42  66  94 125 168 215 253 321 385
#     4   9  19  39  62  90 119 168 211 255 315 383
#     4  10  22  39  68  93 124 168 213 254 320 375
#     4  11  23  42  68  93 125 164 212 268 319 379
#     4  10  21  38  68  91 126 170 210 259 324 376
#
# _framework density 22.303967
#
# number of rings (size 3 to 8) (size 9 to 14) (size 15 to 20)
#    0.000    1.500    2.500    3.750    3.500    0.000 
#    0.000   10.000    2.750    0.000    0.000    0.000 
#    0.000    0.000    0.000    0.000    0.000    0.000 
#
# Total GULP energy -89384.076617 kJ/mol
# GULP energy per Si atom -5586.504789 kJ/mol
# Density = 2.225320 g / cm^3
# Si number density = 22.303967 Si / 1000 Ang^3
#
#
#
# Elastic Constant Matrix: (Units=GPa)
#
#
# Indices 1 2 3 4 5 6 
#
# 1 86.9630 21.2976 16.2772 -2.9079 10.1233 18.6287
# 2 21.2976 73.4356 43.6857 -17.8193 -10.4650 16.9947
# 3 16.2772 43.6857 104.0106 -19.7749 -6.3444 22.1740
# 4 -2.9079 -17.8193 -19.7749 37.1395 10.0453 -10.4381
# 5 10.1233 -10.4650 -6.3444 10.0453 33.9391 -4.8817
# 6 18.6287 16.9947 22.1740 -10.4381 -4.8817 35.2293
#
#
#
# Elastic Compliance Matrix: (Units=1/GPa)
#
#
# Indices 1 2 3 4 5 6 
#
# 1 0.014631 -0.003876 0.000325 -0.000866 -0.006277 -0.007198
# 2 -0.003876 0.020863 -0.006635 0.004348 0.004790 -0.001887
# 3 0.000325 -0.006635 0.013943 0.003194 -0.001196 -0.004967
# 4 -0.000866 0.004348 0.003194 0.034105 -0.007112 0.005470
# 5 -0.006277 0.004790 -0.001196 -0.007112 0.035350 0.004553
# 6 -0.007198 -0.001887 -0.004967 0.005470 0.004553 0.038480
#
#
# Mechanical properties :
#
#
# Convention : Reuss Voigt Hill
#
# Bulk Modulus (GPa) = 34.40412 47.43671 40.92041
# Shear Modulus (GPa) = 26.67631 33.47149 30.07390
#
# Velocity S-wave (km/s) = 3.46212 3.87809 3.67599
# Velocity P-wave (km/s) = 5.60717 6.43173 6.03355
#
# Compressibility (1/GPa) = 0.02906629
#
# Stress axis : x y z
#
# Youngs Moduli (GPa) = 68.34712 47.93240 71.71813
#
# Poissons Ratio (x) = 0.18577 -0.02332
# Poissons Ratio (y) = 0.26488 0.47586
# Poissons Ratio (z) = -0.02222 0.31804
#
# Static dielectric constant tensor:
#      x y z
#    x 1.846830 0.003270 -0.025380 
#    y 0.003270 1.846230 -0.004270 
#    z -0.025380 -0.004270 1.876100 
# 
# From -- ./inp_files/226330.got.cif
#   From: 2010.05.17/outbox.cif.g08.bks.cpg/sg2_114_cif.got.tgz:226330.got - 2010.06.03 11:33:40.
