data_PCOD9006217
_publ_section_title
;
Structure prediction by ZEFSAII (Michael W. Deem and Ramdas Pophale) SiO2 
 PCOD9006217
Probable space group: P -1
;
_chemical_formula_sum "Si O2"
_cell_formula_units_Z 14
_cell_length_a 5.504420
_cell_length_b 16.625998
_cell_length_c 13.378943
_cell_angle_alpha 43.009523
_cell_angle_beta 115.893728
_cell_angle_gamma 131.083149
_cell_volume 627.233047
_symmetry_space_group_name_H-M "P -1"
_symmetry_group_IT_number 2
_symmetry_cell_setting 'triclinic'
loop_
_space_group_symop_operation_xyz
x,y,z
-x,-y,-z
loop_
_atom_site_type_symbol
_atom_site_label
_atom_site_fract_x
_atom_site_fract_y
_atom_site_fract_z
Si Si1 0.376870 0.980732 0.605824
Si Si2 0.716594 0.905156 0.234235
Si Si3 0.396456 0.067923 0.113110
Si Si4 0.178899 0.606807 0.129431
Si Si5 0.728810 0.806676 0.540067
Si Si6 0.878239 0.396181 0.665406
Si Si7 0.429756 0.480233 0.814497
O O1 0.479965 0.912850 0.767686
O O2 0.993176 0.876002 0.613070
O O3 0.500000 0.000000 0.500000
O O4 0.496667 0.136655 0.525093
O O5 0.845051 0.875452 0.388010
O O6 0.433350 0.751902 0.285803
O O7 0.550136 0.991475 0.152860
O O8 0.009076 0.982299 0.136791
O O9 0.571593 0.226770 0.962526
O O10 0.176171 0.542987 0.296744
O O11 0.293672 0.549670 0.114570
O O12 0.810916 0.565948 0.092688
O O13 0.570872 0.641527 0.664816
O O14 0.000000 0.500000 0.500000
O O15 0.171823 0.384120 0.767954
#
# Coordination Sequence:
#
# PCOD9006217 Si02
#       7
#     2   2   2   2   2   2   2
#     4  10  21  38  65  90 118 153 205 253 303 353
#     4  11  22  37  65  90 121 163 199 248 302 348
#     4  11  24  41  61  88 127 158 203 248 300 357
#     4  10  24  42  59  88 128 163 197 245 296 359
#     4  10  21  39  61  96 116 156 201 257 302 351
#     4  10  23  40  62  93 122 159 205 243 296 360
#     4  10  23  41  63  86 127 158 200 247 298 357
#
# _framework density 22.320252
#
# number of rings (size 3 to 8) (size 9 to 14) (size 15 to 20)
#    0.857    0.857    2.857    0.857    4.000    2.857 
#    0.000    1.429    0.000    0.000    0.000    0.000 
#    0.000    0.000    0.000    0.000    0.000    0.000 
#
# Total GULP energy -77987.961918 kJ/mol
# GULP energy per Si atom -5570.568708 kJ/mol
# Density = 2.226945 g / cm^3
# Si number density = 22.320252 Si / 1000 Ang^3
#
#
#
# Elastic Constant Matrix: (Units=GPa)
#
#
# Indices 1 2 3 4 5 6 
#
# 1 153.2369 21.3293 42.6517 -24.5149 -18.2953 1.3355
# 2 21.3293 55.5920 21.7449 -9.9274 0.3270 -0.4705
# 3 42.6517 21.7449 70.7004 -27.5307 -15.9131 2.1239
# 4 -24.5149 -9.9274 -27.5307 37.3541 0.7688 -4.0708
# 5 -18.2953 0.3270 -15.9131 0.7688 23.9259 -1.5197
# 6 1.3355 -0.4705 2.1239 -4.0708 -1.5197 14.9106
#
#
#
# Elastic Compliance Matrix: (Units=1/GPa)
#
#
# Indices 1 2 3 4 5 6 
#
# 1 0.008535 -0.001851 -0.002053 0.003597 0.005132 0.000975
# 2 -0.001851 0.021449 -0.007162 -0.000546 -0.006387 0.001063
# 3 -0.002053 -0.007162 0.028036 0.017329 0.016771 0.002405
# 4 0.003597 -0.000546 0.017329 0.042591 0.013563 0.010202
# 5 0.005132 -0.006387 0.016771 0.013563 0.056936 0.006456
# 6 0.000975 0.001063 0.002405 0.010202 0.006456 0.070113
#
#
# Mechanical properties :
#
#
# Convention : Reuss Voigt Hill
#
# Bulk Modulus (GPa) = 27.86546 50.10903 38.98724
# Shear Modulus (GPa) = 19.10185 28.15835 23.63010
#
# Velocity S-wave (km/s) = 2.92859 3.55570 3.25727
# Velocity P-wave (km/s) = 4.89357 6.27344 5.62597
#
# Compressibility (1/GPa) = 0.03588672
#
# Stress axis : x y z
#
# Youngs Moduli (GPa) = 117.17045 46.62200 35.66846
#
# Poissons Ratio (x) = 0.08631 0.07322
# Poissons Ratio (y) = 0.21690 0.25547
# Poissons Ratio (z) = 0.24054 0.33393
#
# Static dielectric constant tensor:
#      x y z
#    x 1.964060 0.044680 0.010910 
#    y 0.044680 1.836740 0.031370 
#    z 0.010910 0.031370 1.854510 
# 
# From -- ./inp_files/101679.got.cif
#   From: 2010.05.17/outbox.cif.g08.bks.cpg/sg2_51_cif.got.tgz:101679.got - 2010.06.03 11:33:40.
