data_PCOD9006606
_publ_section_title
;
Structure prediction by ZEFSAII (Michael W. Deem and Ramdas Pophale) SiO2 
 PCOD9006606
Probable space group: P -1
;
_chemical_formula_sum "Si O2"
_cell_formula_units_Z 16
_cell_length_a 5.503423
_cell_length_b 18.988770
_cell_length_c 17.647890
_cell_angle_alpha 30.025571
_cell_angle_beta 66.745219
_cell_angle_gamma 74.633610
_cell_volume 835.941398
_symmetry_space_group_name_H-M "P -1"
_symmetry_group_IT_number 2
_symmetry_cell_setting 'triclinic'
loop_
_space_group_symop_operation_xyz
x,y,z
-x,-y,-z
loop_
_atom_site_type_symbol
_atom_site_label
_atom_site_fract_x
_atom_site_fract_y
_atom_site_fract_z
Si Si1 0.655532 0.057860 0.851849
Si Si2 0.272140 0.146655 0.693490
Si Si3 0.668500 0.146486 0.135653
Si Si4 0.785355 0.854618 0.894150
Si Si5 0.311674 0.567061 0.901534
Si Si6 0.530359 0.709075 0.603715
Si Si7 0.442054 0.137940 0.337408
Si Si8 0.977539 0.129667 0.505685
O O1 0.467476 0.141932 0.745247
O O2 0.957739 0.135444 0.760600
O O3 0.705897 0.929757 0.909695
O O4 0.500000 0.000000 0.000000
O O5 0.367402 0.284129 0.501212
O O6 0.302144 0.003248 0.772000
O O7 0.486481 0.227986 0.030022
O O8 0.513428 0.124425 0.254405
O O9 0.966775 0.222167 0.047078
O O10 0.893319 0.980474 0.701223
O O11 0.423370 0.573676 0.795566
O O12 0.362822 0.729105 0.774180
O O13 0.500000 0.500000 0.000000
O O14 0.000000 0.500000 0.000000
O O15 0.279009 0.794941 0.546635
O O16 0.791042 0.786987 0.545511
O O17 0.134444 0.139194 0.397339
O O18 0.500000 0.000000 0.500000
#
# Coordination Sequence:
#
# PCOD9006606 Si02
#       8
#     2   2   2   2   2   2   2   2
#     4  10  18  27  43  66 100 141 166 197 266 343
#     4  10  17  31  46  69 100 128 174 219 262 304
#     4  10  18  29  43  70  96 125 165 224 251 288
#     4  10  17  29  42  63 107 124 161 211 274 292
#     4  11  25  42  52  74 112 149 179 232 286 307
#     4  11  18  34  53  65  91 144 180 207 258 322
#     4  11  22  35  57  82  99 140 200 228 251 319
#     4  11  18  30  47  74  99 125 176 231 253 288
#
# _framework density 19.140098999999999
#
# number of rings (size 3 to 8) (size 9 to 14) (size 15 to 20)
#    0.000    1.500    6.250    2.625    0.000    3.500 
#    0.000    0.000    0.000    0.000    0.000    0.000 
#    0.000    0.000    0.000   90.000    0.000    0.000 
#
# Total GULP energy -89124.104520 kJ/mol
# GULP energy per Si atom -5570.256533 kJ/mol
# Density = 1.909654 g / cm^3
# Si number density = 19.140099 Si / 1000 Ang^3
#
#
#
# Elastic Constant Matrix: (Units=GPa)
#
#
# Indices 1 2 3 4 5 6 
#
# 1 189.5013 28.9026 50.7593 23.2584 -2.7353 -13.3363
# 2 28.9026 36.7765 27.4624 19.1062 -7.8903 -0.9436
# 3 50.7593 27.4624 93.6160 27.7882 -6.5081 -3.4077
# 4 23.2584 19.1062 27.7882 36.8443 -1.3279 -5.7389
# 5 -2.7353 -7.8903 -6.5081 -1.3279 26.9418 8.5733
# 6 -13.3363 -0.9436 -3.4077 -5.7389 8.5733 21.1095
#
#
#
# Elastic Compliance Matrix: (Units=1/GPa)
#
#
# Indices 1 2 3 4 5 6 
#
# 1 0.006869 -0.004108 -0.002670 0.000482 -0.002703 0.004954
# 2 -0.004108 0.047458 -0.005323 -0.019451 0.015325 -0.012845
# 3 -0.002670 -0.005323 0.016159 -0.008043 0.002475 -0.002508
# 4 0.000482 -0.019451 -0.008043 0.044870 -0.009954 0.014378
# 5 -0.002703 0.015325 0.002475 -0.009954 0.048805 -0.023151
# 6 0.004954 -0.012845 -0.002508 0.014378 -0.023151 0.062834
#
#
# Mechanical properties :
#
#
# Convention : Reuss Voigt Hill
#
# Bulk Modulus (GPa) = 21.60560 59.34916 40.47738
# Shear Modulus (GPa) = 18.75278 31.16373 24.95825
#
# Velocity S-wave (km/s) = 3.13351 4.03946 3.61498
# Velocity P-wave (km/s) = 4.94009 7.26852 6.21434
#
# Compressibility (1/GPa) = 0.04628429
#
# Stress axis : x y z
#
# Youngs Moduli (GPa) = 145.57662 21.07122 61.88312
#
# Poissons Ratio (x) = 0.08656 0.16524
# Poissons Ratio (y) = 0.59801 0.32942
# Poissons Ratio (z) = 0.38872 0.11217
#
# Static dielectric constant tensor:
#      x y z
#    x 1.787860 -0.054560 -0.018140 
#    y -0.054560 1.773200 0.032880 
#    z -0.018140 0.032880 1.695130 
# 
# From -- ./inp_files/550866.got.cif
#   From: 2010.05.17/outbox.cif.g08.bks.cpg/sg2_276_cif.got.tgz:550866.got - 2010.06.03 11:33:40.
