data_PCOD9006848
_publ_section_title
;
Structure prediction by ZEFSAII (Michael W. Deem and Ramdas Pophale) SiO2 
 PCOD9006848
Probable space group: P -1
;
_chemical_formula_sum "Si O2"
_cell_formula_units_Z 16
_cell_length_a 7.626927
_cell_length_b 22.799053
_cell_length_c 15.038808
_cell_angle_alpha 23.299816
_cell_angle_beta 136.804379
_cell_angle_gamma 132.993034
_cell_volume 707.276649
_symmetry_space_group_name_H-M "P -1"
_symmetry_group_IT_number 2
_symmetry_cell_setting 'triclinic'
loop_
_space_group_symop_operation_xyz
x,y,z
-x,-y,-z
loop_
_atom_site_type_symbol
_atom_site_label
_atom_site_fract_x
_atom_site_fract_y
_atom_site_fract_z
Si Si1 0.188330 0.122551 0.948203
Si Si2 0.864397 0.361328 0.592379
Si Si3 0.094997 0.562981 0.803074
Si Si4 0.718957 0.178607 0.963746
Si Si5 0.127323 0.266998 0.132988
Si Si6 0.623680 0.140854 0.533465
Si Si7 0.328278 0.440008 0.234013
Si Si8 0.803711 0.856055 0.490431
O O1 0.288675 0.026028 0.203797
O O2 0.432421 0.168216 0.912887
O O3 0.046634 0.265120 0.732667
O O4 0.000000 0.000000 0.000000
O O5 0.738845 0.250472 0.774711
O O6 0.628021 0.427656 0.361443
O O7 0.000000 0.500000 0.500000
O O8 0.157294 0.730098 0.564661
O O9 0.797410 0.520415 0.773724
O O10 0.238008 0.541393 0.979928
O O11 0.194207 0.434553 0.955679
O O12 0.911269 0.265289 0.981969
O O13 0.831928 0.014378 0.235973
O O14 0.390323 0.185957 0.319945
O O15 0.033152 0.178217 0.312596
O O16 0.480014 0.151303 0.560836
O O17 0.194488 0.278486 0.388459
#
# Coordination Sequence:
#
# PCOD9006848 Si02
#       8
#     2   2   2   2   2   2   2   2
#     4  11  27  47  72 102 138 188 235 275 342 426
#     4  12  30  46  67 103 144 182 229 284 350 416
#     4  10  21  38  70  96 129 177 226 287 332 401
#     4  11  24  44  69  97 140 181 220 291 346 399
#     4   9  20  38  67  98 134 176 222 278 347 401
#     4   9  20  38  66 100 121 174 233 271 329 405
#     4  10  23  42  61  98 133 173 229 282 334 403
#     4   8  19  37  66  92 124 170 220 278 331 388
#
# _framework density 22.621981999999999
#
# number of rings (size 3 to 8) (size 9 to 14) (size 15 to 20)
#    0.750    1.250    0.000    2.250    7.000    2.500 
#    0.000    0.625    0.000    0.000    0.000    0.000 
#    0.000    0.000    0.000    0.000    0.000    0.000 
#
# Total GULP energy -89291.391286 kJ/mol
# GULP energy per Si atom -5580.711955 kJ/mol
# Density = 2.257049 g / cm^3
# Si number density = 22.621982 Si / 1000 Ang^3
#
#
#
# Elastic Constant Matrix: (Units=GPa)
#
#
# Indices 1 2 3 4 5 6 
#
# 1 75.3420 12.2561 29.1034 2.2299 3.9169 8.9528
# 2 12.2561 53.9905 -8.2213 3.8732 10.6447 3.2655
# 3 29.1034 -8.2213 70.6511 -8.2230 4.3699 3.3519
# 4 2.2299 3.8732 -8.2230 29.9335 8.7930 3.0670
# 5 3.9169 10.6447 4.3699 8.7930 41.7222 -2.2479
# 6 8.9528 3.2655 3.3519 3.0670 -2.2479 19.1199
#
#
#
# Elastic Compliance Matrix: (Units=1/GPa)
#
#
# Indices 1 2 3 4 5 6 
#
# 1 0.017865 -0.004873 -0.007987 -0.002498 0.000624 -0.005658
# 2 -0.004873 0.021724 0.005186 0.001078 -0.006029 -0.003219
# 3 -0.007987 0.005186 0.019165 0.006597 -0.004081 -0.002044
# 4 -0.002498 0.001078 0.006597 0.038766 -0.009305 -0.007483
# 5 0.000624 -0.006029 -0.004081 -0.009305 0.028173 0.006258
# 6 -0.005658 -0.003219 -0.002044 -0.007483 0.006258 0.057795
#
#
# Mechanical properties :
#
#
# Convention : Reuss Voigt Hill
#
# Bulk Modulus (GPa) = 23.03851 29.58444 26.31147
# Shear Modulus (GPa) = 23.44071 29.27815 26.35943
#
# Velocity S-wave (km/s) = 3.22249 3.60145 3.41722
# Velocity P-wave (km/s) = 4.90430 5.51362 5.21786
#
# Compressibility (1/GPa) = 0.04340559
#
# Stress axis : x y z
#
# Youngs Moduli (GPa) = 55.97643 46.03257 52.17893
#
# Poissons Ratio (x) = 0.22433 0.41675
# Poissons Ratio (y) = 0.27278 -0.27062
# Poissons Ratio (z) = 0.44708 -0.23874
#
# Static dielectric constant tensor:
#      x y z
#    x 1.866910 0.013650 0.015560 
#    y 0.013650 1.843430 0.032190 
#    z 0.015560 0.032190 1.891890 
# 
# From -- ./inp_files/563410.got.cif
#   From: 2010.05.17/outbox.cif.g08.bks.cpg/sg2_282_cif.got.tgz:563410.got - 2010.06.03 11:33:40.
