data_PCOD9006653
_publ_section_title
;
Structure prediction by ZEFSAII (Michael W. Deem and Ramdas Pophale) SiO2 
 PCOD9006653
Probable space group: P -1
;
_chemical_formula_sum "Si O2"
_cell_formula_units_Z 16
_cell_length_a 17.730784
_cell_length_b 11.371922
_cell_length_c 5.735608
_cell_angle_alpha 60.955695
_cell_angle_beta 127.897453
_cell_angle_gamma 132.264953
_cell_volume 670.156075
_symmetry_space_group_name_H-M "P -1"
_symmetry_group_IT_number 2
_symmetry_cell_setting 'triclinic'
loop_
_space_group_symop_operation_xyz
x,y,z
-x,-y,-z
loop_
_atom_site_type_symbol
_atom_site_label
_atom_site_fract_x
_atom_site_fract_y
_atom_site_fract_z
Si Si1 0.349949 0.104509 0.655604
Si Si2 0.726204 0.296065 0.640313
Si Si3 0.215770 0.364763 0.633010
Si Si4 0.844527 0.154067 0.759130
Si Si5 0.010896 0.160672 0.775920
Si Si6 0.811452 0.935832 0.279420
Si Si7 0.616734 0.268424 0.946158
Si Si8 0.371904 0.421107 0.246326
O O1 0.310880 0.095111 0.856944
O O2 0.479050 0.164108 0.795507
O O3 0.324250 0.237110 0.389622
O O4 0.260791 0.934321 0.535511
O O5 0.788128 0.486788 0.598311
O O6 0.815185 0.245875 0.800510
O O7 0.657565 0.227768 0.821070
O O8 0.656555 0.257037 0.296893
O O9 0.183967 0.220925 0.537071
O O10 0.130431 0.283168 0.767718
O O11 0.341340 0.423850 0.914591
O O12 0.967738 0.244065 0.788825
O O13 0.837610 0.002224 0.008041
O O14 0.911318 0.081731 0.470677
O O15 0.000000 0.000000 0.000000
O O16 0.658237 0.456566 0.818533
O O17 0.500000 0.500000 0.500000
#
# Coordination Sequence:
#
# PCOD9006653 Si02
#       8
#     2   2   2   2   2   2   2   2
#     4  10  21  38  67  95 131 177 226 283 336 390
#     4  11  27  44  64  98 141 180 224 275 339 411
#     4  11  21  42  69  96 133 181 219 278 340 404
#     4  11  25  42  63  96 137 170 225 285 334 403
#     4  11  23  42  70 102 128 166 234 283 338 397
#     4  11  22  40  68  99 127 172 227 286 337 393
#     4  10  24  43  66  97 137 182 229 274 336 411
#     4   9  18  38  64  99 129 166 221 278 329 390
#
# _framework density 23.875035
#
# number of rings (size 3 to 8) (size 9 to 14) (size 15 to 20)
#    0.000    1.500    2.500    1.875    5.250    2.500 
#    0.000    5.625    0.000    0.000    0.000    0.000 
#    0.000    0.000    0.000    0.000    0.000    0.000 
#
# Total GULP energy -89169.683487 kJ/mol
# GULP energy per Si atom -5573.105218 kJ/mol
# Density = 2.382069 g / cm^3
# Si number density = 23.875035 Si / 1000 Ang^3
#
#
#
# Elastic Constant Matrix: (Units=GPa)
#
#
# Indices 1 2 3 4 5 6 
#
# 1 160.9329 22.7754 33.8986 2.4226 -1.5929 -7.5474
# 2 22.7754 43.6993 11.0023 3.6015 6.3590 -1.9088
# 3 33.8986 11.0023 71.2316 -2.5871 1.7398 0.0430
# 4 2.4226 3.6015 -2.5871 24.5226 -2.3085 -1.8279
# 5 -1.5929 6.3590 1.7398 -2.3085 23.7824 -1.4760
# 6 -7.5474 -1.9088 0.0430 -1.8279 -1.4760 32.2133
#
#
#
# Elastic Compliance Matrix: (Units=1/GPa)
#
#
# Indices 1 2 3 4 5 6 
#
# 1 0.007417 -0.003235 -0.003083 -0.000307 0.001657 0.001609
# 2 -0.003235 0.026708 -0.002566 -0.004573 -0.007601 0.000220
# 3 -0.003083 -0.002566 0.015997 0.002261 -0.000520 -0.000791
# 4 -0.000307 -0.004573 0.002261 0.042389 0.005294 0.002302
# 5 0.001657 -0.007601 -0.000520 0.005294 0.044886 0.002296
# 6 0.001609 0.000220 -0.000791 0.002302 0.002296 0.031670
#
#
# Mechanical properties :
#
#
# Convention : Reuss Voigt Hill
#
# Bulk Modulus (GPa) = 30.90745 45.69071 38.29908
# Shear Modulus (GPa) = 25.30086 29.98282 27.64184
#
# Velocity S-wave (km/s) = 3.25887 3.54760 3.40630
# Velocity P-wave (km/s) = 5.20902 5.99664 5.61665
#
# Compressibility (1/GPa) = 0.03235466
#
# Stress axis : x y z
#
# Youngs Moduli (GPa) = 134.81696 37.44130 62.50985
#
# Poissons Ratio (x) = 0.12113 0.19270
# Poissons Ratio (y) = 0.43618 0.16042
# Poissons Ratio (z) = 0.41561 0.09608
#
# Static dielectric constant tensor:
#      x y z
#    x 1.982670 -0.032210 -0.053000 
#    y -0.032210 1.918940 0.004990 
#    z -0.053000 0.004990 1.988770 
# 
# From -- ./inp_files/69169.got.cif
#   From: 2010.05.17/outbox.cif.g08.bks.cpg/sg2_35_cif.got.tgz:69169.got - 2010.06.03 11:33:40.
