data_PCOD9006835
_publ_section_title
;
Structure prediction by ZEFSAII (Michael W. Deem and Ramdas Pophale) SiO2 
 PCOD9006835
Probable space group: P -1
;
_chemical_formula_sum "Si O2"
_cell_formula_units_Z 16
_cell_length_a 14.306507
_cell_length_b 16.190283
_cell_length_c 10.688134
_cell_angle_alpha 36.137332
_cell_angle_beta 120.761778
_cell_angle_gamma 146.013062
_cell_volume 716.044402
_symmetry_space_group_name_H-M "P -1"
_symmetry_group_IT_number 2
_symmetry_cell_setting 'triclinic'
loop_
_space_group_symop_operation_xyz
x,y,z
-x,-y,-z
loop_
_atom_site_type_symbol
_atom_site_label
_atom_site_fract_x
_atom_site_fract_y
_atom_site_fract_z
Si Si1 0.041035 0.802021 0.738943
Si Si2 0.580096 0.714189 0.870127
Si Si3 0.258925 0.298236 0.317137
Si Si4 0.977734 0.424504 0.776587
Si Si5 0.005826 0.245845 0.525016
Si Si6 0.415031 0.829723 0.529429
Si Si7 0.565949 0.986510 0.935726
Si Si8 0.347096 0.460971 0.439088
O O1 0.887353 0.738101 0.785137
O O2 0.978881 0.699265 0.681085
O O3 0.216815 0.097303 0.489067
O O4 0.069127 0.698559 0.971648
O O5 0.505952 0.773559 0.676372
O O6 0.500000 0.500000 0.000000
O O7 0.467262 0.575736 0.092239
O O8 0.802858 0.957022 0.749791
O O9 0.222490 0.269971 0.473044
O O10 0.992888 0.607249 0.581046
O O11 0.793402 0.200692 0.839261
O O12 0.184707 0.589770 0.672180
O O13 0.182080 0.333413 0.578352
O O14 0.475003 0.966867 0.273565
O O15 0.500000 0.000000 0.500000
O O16 0.500000 0.000000 0.000000
O O17 0.457994 0.724455 0.174206
O O18 0.500000 0.500000 0.500000
#
# Coordination Sequence:
#
# PCOD9006835 Si02
#       8
#     2   2   2   2   2   2   2   2
#     4  10  21  38  70 104 139 187 243 301 355 430
#     4  12  24  42  68 106 145 182 244 306 358 426
#     4  10  21  41  66 102 139 184 248 296 354 431
#     4  12  24  44  72 101 149 188 241 296 373 428
#     4  11  24  40  69 106 141 182 253 295 360 432
#     4  12  27  47  74 105 147 198 238 298 368 430
#     4  12  28  47  72 109 150 191 247 302 364 437
#     4  11  25  46  71  96 141 194 243 298 366 437
#
# _framework density 22.344982999999999
#
# number of rings (size 3 to 8) (size 9 to 14) (size 15 to 20)
#    0.000    0.750    5.000    2.250    3.500    2.000 
#    0.000    0.625    0.000    0.000    0.000    0.000 
#    0.000    0.000    0.000    0.000    0.000    0.000 
#
# Total GULP energy -89316.916132 kJ/mol
# GULP energy per Si atom -5582.307258 kJ/mol
# Density = 2.229412 g / cm^3
# Si number density = 22.344983 Si / 1000 Ang^3
#
#
#
# Elastic Constant Matrix: (Units=GPa)
#
#
# Indices 1 2 3 4 5 6 
#
# 1 94.0752 27.3830 40.9063 -9.7665 17.5994 18.9627
# 2 27.3830 74.4297 23.9893 -24.9047 3.7435 17.3531
# 3 40.9063 23.9893 90.6713 -21.1063 1.3871 19.4985
# 4 -9.7665 -24.9047 -21.1063 45.4427 -2.0374 -6.8542
# 5 17.5994 3.7435 1.3871 -2.0374 40.3508 -2.5199
# 6 18.9627 17.3531 19.4985 -6.8542 -2.5199 48.5636
#
#
#
# Elastic Compliance Matrix: (Units=1/GPa)
#
#
# Indices 1 2 3 4 5 6 
#
# 1 0.015936 -0.003554 -0.005937 -0.002066 -0.006721 -0.003209
# 2 -0.003554 0.018707 -0.000494 0.008676 0.000028 -0.003872
# 3 -0.005937 -0.000494 0.015691 0.005397 0.002185 -0.002930
# 4 -0.002066 0.008676 0.005397 0.028835 0.001346 -0.000321
# 5 -0.006721 0.000028 0.002185 0.001346 0.027915 0.003376
# 6 -0.003209 -0.003872 -0.002930 -0.000321 0.003376 0.024535
#
#
# Mechanical properties :
#
#
# Convention : Reuss Voigt Hill
#
# Bulk Modulus (GPa) = 32.93466 49.30372 41.11919
# Shear Modulus (GPa) = 30.91945 37.99792 34.45869
#
# Velocity S-wave (km/s) = 3.72389 4.12820 3.93125
# Velocity P-wave (km/s) = 5.76723 6.69592 6.24886
#
# Compressibility (1/GPa) = 0.03036315
#
# Stress axis : x y z
#
# Youngs Moduli (GPa) = 62.75205 53.45636 63.73066
#
# Poissons Ratio (x) = 0.19000 0.37837
# Poissons Ratio (y) = 0.22304 0.03148
# Poissons Ratio (z) = 0.37256 0.02640
#
# Static dielectric constant tensor:
#      x y z
#    x 1.880420 0.151270 -0.013260 
#    y 0.151270 1.858500 0.010120 
#    z -0.013260 0.010120 1.837360 
# 
# From -- ./inp_files/226490.got.cif
#   From: 2010.05.17/outbox.cif.g08.bks.cpg/sg2_114_cif.got.tgz:226490.got - 2010.06.03 11:33:40.
