data_PCOD9006420
_publ_section_title
;
Structure prediction by ZEFSAII (Michael W. Deem and Ramdas Pophale) SiO2 
 PCOD9006420
Probable space group: P -1
;
_chemical_formula_sum "Si O2"
_cell_formula_units_Z 13
_cell_length_a 5.657796
_cell_length_b 15.940402
_cell_length_c 5.400169
_cell_angle_alpha 102.591605
_cell_angle_beta 94.653115
_cell_angle_gamma 80.390412
_cell_volume 468.138135
_symmetry_space_group_name_H-M "P -1"
_symmetry_group_IT_number 2
_symmetry_cell_setting 'triclinic'
loop_
_space_group_symop_operation_xyz
x,y,z
-x,-y,-z
loop_
_atom_site_type_symbol
_atom_site_label
_atom_site_fract_x
_atom_site_fract_y
_atom_site_fract_z
Si Si1 0.399768 0.672754 0.001232
Si Si2 0.223174 0.482732 0.188635
Si Si3 0.097548 0.838092 0.222982
Si Si4 0.972287 0.369720 0.430869
Si Si5 0.000000 0.000000 0.000000
Si Si6 0.287028 0.214905 0.203180
Si Si7 0.371738 0.944375 0.647816
O O1 0.581753 0.583059 0.989085
O O2 0.172453 0.641501 0.836634
O O3 0.525036 0.725985 0.839678
O O4 0.296414 0.751815 0.223723
O O5 0.218387 0.579952 0.361264
O O6 0.166588 0.430065 0.399026
O O7 0.000000 0.500000 0.000000
O O8 0.142978 0.900197 0.497024
O O9 0.146874 0.904072 0.048064
O O10 0.865615 0.803173 0.066378
O O11 0.112504 0.273153 0.423611
O O12 0.766363 0.986883 0.131173
O O13 0.422924 0.130504 0.291911
O O14 0.500000 0.000000 0.500000
#
# Coordination Sequence:
#
# PCOD9006420 Si02
#       7
#     2   2   2   2   1   2   2
#     4  10  21  44  66  99 146 194 234 310 374 432
#     4  10  21  38  66 102 138 186 242 299 363 451
#     4  11  25  45  72 106 143 192 256 302 375 457
#     4   9  21  42  65  97 144 188 239 297 373 438
#     4  12  26  52  72 110 152 186 258 322 368 456
#     4  10  23  47  71 104 151 193 244 318 367 444
#     4  12  28  49  81 110 147 207 250 313 391 447
#
# _framework density 27.769580000000001
#
# number of rings (size 3 to 8) (size 9 to 14) (size 15 to 20)
#    0.000    1.538    1.538    1.846    4.308    1.846 
#    8.308    0.769    0.000    0.000    0.000    0.000 
#    0.000    0.000    0.000    0.000    0.000    0.000 
#
# Total GULP energy -72390.603367 kJ/mol
# GULP energy per Si atom -5568.507951 kJ/mol
# Density = 2.770638 g / cm^3
# Si number density = 27.769580 Si / 1000 Ang^3
#
#
#
# Elastic Constant Matrix: (Units=GPa)
#
#
# Indices 1 2 3 4 5 6 
#
# 1 89.4599 62.5014 12.1902 1.3688 -23.1410 -17.7409
# 2 62.5014 220.7763 33.4575 15.7680 0.6474 -43.2732
# 3 12.1902 33.4575 43.4262 -0.4880 11.0792 -0.1672
# 4 1.3688 15.7680 -0.4880 39.1956 -0.7838 -2.8544
# 5 -23.1410 0.6474 11.0792 -0.7838 47.2216 6.3366
# 6 -17.7409 -43.2732 -0.1672 -2.8544 6.3366 59.3395
#
#
#
# Elastic Compliance Matrix: (Units=1/GPa)
#
#
# Indices 1 2 3 4 5 6 
#
# 1 0.017258 -0.004171 -0.003988 0.001297 0.009314 0.001174
# 2 -0.004171 0.007324 -0.004025 -0.002584 -0.001800 0.004150
# 3 -0.003988 -0.004025 0.029387 0.001734 -0.008353 -0.003070
# 4 0.001297 -0.002584 0.001734 0.026522 0.000744 -0.000296
# 5 0.009314 -0.001800 -0.008353 0.000744 0.027939 -0.001499
# 6 0.001174 0.004150 -0.003070 -0.000296 -0.001499 0.020367
#
#
# Mechanical properties :
#
#
# Convention : Reuss Voigt Hill
#
# Bulk Modulus (GPa) = 33.78410 63.32895 48.55653
# Shear Modulus (GPa) = 30.66840 45.51889 38.09365
#
# Velocity S-wave (km/s) = 3.32684 4.05305 3.70777
# Velocity P-wave (km/s) = 5.19128 6.69011 5.98778
#
# Compressibility (1/GPa) = 0.02959972
#
# Stress axis : x y z
#
# Youngs Moduli (GPa) = 57.94323 136.54304 34.02824
#
# Poissons Ratio (x) = 0.56955 0.13571
# Poissons Ratio (y) = 0.24169 0.13698
# Poissons Ratio (z) = 0.23109 0.54965
#
# Static dielectric constant tensor:
#      x y z
#    x 2.221280 0.012000 -0.002800 
#    y 0.012000 2.074550 -0.046830 
#    z -0.002800 -0.046830 2.312940 
# 
# From -- ./inp_files/7106.got.cif
#   From: 2010.05.17/outbox.cif.g08.bks.cpg/sg2_4_cif.got.tgz:7106.got - 2010.06.03 11:33:40.
