data_PCOD9006571
_publ_section_title
;
Structure prediction by ZEFSAII (Michael W. Deem and Ramdas Pophale) SiO2 
 PCOD9006571
Probable space group: P -1
;
_chemical_formula_sum "Si O2"
_cell_formula_units_Z 14
_cell_length_a 8.487393
_cell_length_b 25.880531
_cell_length_c 17.380555
_cell_angle_alpha 21.938789
_cell_angle_beta 155.793457
_cell_angle_gamma 145.812137
_cell_volume 580.423744
_symmetry_space_group_name_H-M "P -1"
_symmetry_group_IT_number 2
_symmetry_cell_setting 'triclinic'
loop_
_space_group_symop_operation_xyz
x,y,z
-x,-y,-z
loop_
_atom_site_type_symbol
_atom_site_label
_atom_site_fract_x
_atom_site_fract_y
_atom_site_fract_z
Si Si1 0.631989 0.838810 0.296932
Si Si2 0.074763 0.679842 0.578107
Si Si3 0.144786 0.444478 0.723494
Si Si4 0.118617 0.844622 0.738135
Si Si5 0.017971 0.383441 0.906563
Si Si6 0.410006 0.714262 0.519812
Si Si7 0.449675 0.852527 0.718109
O O1 0.353054 0.785486 0.311883
O O2 0.751926 0.761198 0.377062
O O3 0.038589 0.822333 0.544646
O O4 0.500000 0.000000 0.000000
O O5 0.024371 0.516747 0.779444
O O6 0.102053 0.731448 0.429800
O O7 0.522622 0.681555 0.805178
O O8 0.867097 0.445788 0.671669
O O9 0.448560 0.549372 0.742500
O O10 0.000000 0.500000 0.500000
O O11 0.266267 0.281056 0.994166
O O12 0.436831 0.856038 0.799535
O O13 0.772562 0.775821 0.635944
O O14 0.000000 0.000000 0.500000
O O15 0.210212 0.736834 0.996885
O O16 0.500000 0.000000 0.500000
#
# Coordination Sequence:
#
# PCOD9006571 Si02
#       7
#     2   2   2   2   2   2   2
#     4  11  24  40  67 100 136 182 228 285 345 412
#     4   9  18  38  67  93 132 171 221 294 338 400
#     4  11  23  42  69  98 136 178 229 287 340 414
#     4  10  21  38  66  99 131 176 228 284 342 413
#     4   9  18  38  64  97 126 174 229 275 350 404
#     4   9  23  41  66 103 130 174 239 276 344 411
#     4  11  25  42  66  97 138 185 224 282 353 410
#
# _framework density 24.12031
#
# number of rings (size 3 to 8) (size 9 to 14) (size 15 to 20)
#    0.000    2.000    1.429    1.714    6.000    1.714 
#    0.000    6.429    0.000    0.000    0.000    0.000 
#    0.000    0.000    0.000    0.000    0.000    0.000 
#
# Total GULP energy -78107.513886 kJ/mol
# GULP energy per Si atom -5579.108135 kJ/mol
# Density = 2.406541 g / cm^3
# Si number density = 24.120310 Si / 1000 Ang^3
#
#
#
# Elastic Constant Matrix: (Units=GPa)
#
#
# Indices 1 2 3 4 5 6 
#
# 1 200.9330 45.8701 76.3273 -28.5714 -37.1299 -20.1366
# 2 45.8701 104.9846 34.0133 -13.7135 -0.3407 -2.7887
# 3 76.3273 34.0133 102.6064 -33.8430 -18.7775 -3.6664
# 4 -28.5714 -13.7135 -33.8430 51.4494 8.8171 0.4302
# 5 -37.1299 -0.3407 -18.7775 8.8171 52.1658 -12.1941
# 6 -20.1366 -2.7887 -3.6664 0.4302 -12.1941 35.8236
#
#
#
# Elastic Compliance Matrix: (Units=1/GPa)
#
#
# Indices 1 2 3 4 5 6 
#
# 1 0.009083 -0.002270 -0.004499 0.000341 0.006320 0.006616
# 2 -0.002270 0.011343 -0.002444 0.000669 -0.002919 -0.001645
# 3 -0.004499 -0.002444 0.016616 0.007557 0.001332 -0.000656
# 4 0.000341 0.000669 0.007557 0.024975 -0.001180 0.000316
# 5 0.006320 -0.002919 0.001332 -0.001180 0.027314 0.012773
# 6 0.006616 -0.001645 -0.000656 0.000316 0.012773 0.035782
#
#
# Mechanical properties :
#
#
# Convention : Reuss Voigt Hill
#
# Bulk Modulus (GPa) = 53.71513 80.10505 66.91009
# Shear Modulus (GPa) = 33.39035 44.70865 39.04950
#
# Velocity S-wave (km/s) = 3.72469 4.30998 4.02798
# Velocity P-wave (km/s) = 6.38872 7.61910 7.03087
#
# Compressibility (1/GPa) = 0.01861673
#
# Stress axis : x y z
#
# Youngs Moduli (GPa) = 110.09107 88.15941 60.18464
#
# Poissons Ratio (x) = 0.20015 0.27076
# Poissons Ratio (y) = 0.24995 0.14706
# Poissons Ratio (z) = 0.49528 0.21542
#
# Static dielectric constant tensor:
#      x y z
#    x 2.071640 0.011910 -0.004460 
#    y 0.011910 1.949630 0.082410 
#    z -0.004460 0.082410 1.927730 
# 
# From -- ./inp_files/243230.got.cif
#   From: 2010.05.17/outbox.cif.g08.bks.cpg/sg2_122_cif.got.tgz:243230.got - 2010.06.03 11:33:40.
