data_PCOD9006399
_publ_section_title
;
Structure prediction by ZEFSAII (Michael W. Deem and Ramdas Pophale) SiO2 
 PCOD9006399
Probable space group: P -1
;
_chemical_formula_sum "Si O2"
_cell_formula_units_Z 14
_cell_length_a 16.332091
_cell_length_b 21.717491
_cell_length_c 8.870823
_cell_angle_alpha 34.831704
_cell_angle_beta 29.047185
_cell_angle_gamma 23.062250
_cell_volume 596.186998
_symmetry_space_group_name_H-M "P -1"
_symmetry_group_IT_number 2
_symmetry_cell_setting 'triclinic'
loop_
_space_group_symop_operation_xyz
x,y,z
-x,-y,-z
loop_
_atom_site_type_symbol
_atom_site_label
_atom_site_fract_x
_atom_site_fract_y
_atom_site_fract_z
Si Si1 0.955600 0.027997 0.837801
Si Si2 0.067075 0.306284 0.237791
Si Si3 0.887446 0.163904 0.283908
Si Si4 0.222306 0.594049 0.807121
Si Si5 0.446679 0.311316 0.199465
Si Si6 0.631001 0.023855 0.636755
Si Si7 0.368780 0.380978 0.529588
O O1 0.688058 0.207211 0.910925
O O2 0.973093 0.911275 0.949318
O O3 0.198591 0.986164 0.502051
O O4 0.000000 0.000000 0.000000
O O5 0.929875 0.351200 0.209737
O O6 0.860929 0.435946 0.428722
O O7 0.196403 0.135226 0.417860
O O8 0.258748 0.313952 0.881223
O O9 0.903088 0.257308 0.182482
O O10 0.598837 0.294398 0.442339
O O11 0.000000 0.000000 0.500000
O O12 0.242974 0.471714 0.112568
O O13 0.549939 0.640936 0.731827
O O14 0.500000 0.500000 0.500000
O O15 0.461341 0.178610 0.493574
O O16 0.500000 0.000000 0.000000
#
# Coordination Sequence:
#
# PCOD9006399 Si02
#       7
#     2   2   2   2   2   2   2
#     4  10  21  38  65  99 132 180 236 289 340 415
#     4  11  24  44  73  99 145 189 229 292 365 423
#     4  12  23  42  69 104 140 182 237 294 350 414
#     4  12  26  43  68 106 145 181 233 301 358 408
#     4  11  24  43  70 104 139 184 241 294 346 427
#     4  11  20  41  68  98 133 188 233 279 350 424
#     4  11  24  44  70 103 138 188 241 284 355 434
#
# _framework density 23.482565999999998
#
# number of rings (size 3 to 8) (size 9 to 14) (size 15 to 20)
#    0.000    0.857    5.714    2.571    0.000    3.429 
#    0.000    0.000    0.000    2.571    0.000    0.000 
#    0.000    0.000    0.000    0.000    0.000    0.000 
#
# Total GULP energy -78082.488571 kJ/mol
# GULP energy per Si atom -5577.320612 kJ/mol
# Density = 2.342912 g / cm^3
# Si number density = 23.482566 Si / 1000 Ang^3
#
#
#
# Elastic Constant Matrix: (Units=GPa)
#
#
# Indices 1 2 3 4 5 6 
#
# 1 80.4367 28.4061 26.8249 -4.7137 4.6109 26.4579
# 2 28.4061 125.4619 33.1136 -29.2040 15.1319 35.2826
# 3 26.8249 33.1136 85.4190 -11.8694 19.2213 -1.7189
# 4 -4.7137 -29.2040 -11.8694 52.7406 -4.5708 1.7669
# 5 4.6109 15.1319 19.2213 -4.5708 28.0119 -8.6949
# 6 26.4579 35.2826 -1.7189 1.7669 -8.6949 48.5334
#
#
#
# Elastic Compliance Matrix: (Units=1/GPa)
#
#
# Indices 1 2 3 4 5 6 
#
# 1 0.017817 0.001300 -0.005426 0.001191 -0.003281 -0.011481
# 2 0.001300 0.015390 -0.003541 0.007511 -0.009201 -0.013944
# 3 -0.005426 -0.003541 0.016512 0.000507 -0.006934 0.004857
# 4 0.001191 0.007511 0.000507 0.023321 -0.003124 -0.007501
# 5 -0.003281 -0.009201 -0.006934 -0.003124 0.050877 0.017460
# 6 -0.011481 -0.013944 0.004857 -0.007501 0.017460 0.040574
#
#
# Mechanical properties :
#
#
# Convention : Reuss Voigt Hill
#
# Bulk Modulus (GPa) = 29.08248 52.00075 40.54161
# Shear Modulus (GPa) = 26.13855 39.38872 32.76364
#
# Velocity S-wave (km/s) = 3.33994 4.10000 3.73933
# Velocity P-wave (km/s) = 5.22352 6.67876 5.99546
#
# Compressibility (1/GPa) = 0.03438497
#
# Stress axis : x y z
#
# Youngs Moduli (GPa) = 56.12562 64.97603 60.56064
#
# Poissons Ratio (x) = -0.08447 0.32863
# Poissons Ratio (y) = -0.07297 0.21445
# Poissons Ratio (z) = 0.30457 0.23008
#
# Static dielectric constant tensor:
#      x y z
#    x 2.012650 0.040010 0.043510 
#    y 0.040010 2.113920 0.183760 
#    z 0.043510 0.183760 2.191060 
# 
# From -- ./inp_files/467270.got.cif
#   From: 2010.05.17/outbox.cif.g08.bks.cpg/sg2_234_cif.got.tgz:467270.got - 2010.06.03 11:33:40.
