data_PCOD9006853
_publ_section_title
;
Structure prediction by ZEFSAII (Michael W. Deem and Ramdas Pophale) SiO2 
 PCOD9006853
Probable space group: P -1
;
_chemical_formula_sum "Si O2"
_cell_formula_units_Z 12
_cell_length_a 5.012476
_cell_length_b 11.516943
_cell_length_c 9.464556
_cell_angle_alpha 91.949518
_cell_angle_beta 107.374062
_cell_angle_gamma 103.121593
_cell_volume 504.775333
_symmetry_space_group_name_H-M "P -1"
_symmetry_group_IT_number 2
_symmetry_cell_setting 'triclinic'
loop_
_space_group_symop_operation_xyz
x,y,z
-x,-y,-z
loop_
_atom_site_type_symbol
_atom_site_label
_atom_site_fract_x
_atom_site_fract_y
_atom_site_fract_z
Si Si1 0.419145 0.105447 0.715783
Si Si2 0.273319 0.111102 0.008244
Si Si3 0.610488 0.151928 0.350278
Si Si4 0.156066 0.531090 0.371663
Si Si5 0.952202 0.740492 0.224884
Si Si6 0.763108 0.697903 0.567195
O O1 0.411276 0.079485 0.882363
O O2 0.733053 0.170934 0.717492
O O3 0.231378 0.202945 0.689356
O O4 0.333340 0.978412 0.620582
O O5 0.167021 0.228232 0.943997
O O6 0.495651 0.147632 0.171415
O O7 0.000000 0.000000 0.000000
O O8 0.354167 0.189992 0.393816
O O9 0.907076 0.249241 0.426036
O O10 0.977432 0.607789 0.257810
O O11 0.481194 0.614511 0.441611
O O12 0.186622 0.402658 0.315028
O O13 0.000000 0.500000 0.500000
#
# Coordination Sequence:
#
# PCOD9006853 Si02
#       6
#     2   2   2   2   2   2
#     4  10  22  38  64 101 135 165 200 258 326 394
#     4  10  21  38  70  97 140 173 194 254 327 403
#     4  12  21  40  64 107 128 164 210 258 331 384
#     4  11  25  52  67  85 123 182 232 262 324 365
#     4  10  24  38  70  95 123 178 217 253 316 397
#     4  11  26  38  73  87 126 174 218 272 312 377
#
# _framework density 23.772953000000001
#
# number of rings (size 3 to 8) (size 9 to 14) (size 15 to 20)
#    1.000    0.333    3.333    2.500    7.000    0.000 
#    0.000    6.667    0.000    0.000    0.000    0.000 
#    0.000    0.000    0.000    0.000    0.000    0.000 
#
# Total GULP energy -66934.371923 kJ/mol
# GULP energy per Si atom -5577.864327 kJ/mol
# Density = 2.371884 g / cm^3
# Si number density = 23.772953 Si / 1000 Ang^3
#
#
#
# Elastic Constant Matrix: (Units=GPa)
#
#
# Indices 1 2 3 4 5 6 
#
# 1 151.9981 31.6775 4.4095 -4.7450 1.4014 10.6084
# 2 31.6775 104.7869 10.7599 -31.6527 13.8719 -10.0090
# 3 4.4095 10.7599 75.0249 -21.7226 17.3622 4.4604
# 4 -4.7450 -31.6527 -21.7226 35.7522 -10.0764 6.5566
# 5 1.4014 13.8719 17.3622 -10.0764 38.4593 -12.4001
# 6 10.6084 -10.0090 4.4604 6.5566 -12.4001 58.2748
#
#
#
# Elastic Compliance Matrix: (Units=1/GPa)
#
#
# Indices 1 2 3 4 5 6 
#
# 1 0.007223 -0.002709 -0.000329 -0.001348 -0.000008 -0.001605
# 2 -0.002709 0.014468 0.002402 0.013051 -0.002531 0.000787
# 3 -0.000329 0.002402 0.018351 0.011888 -0.007254 -0.003813
# 4 -0.001348 0.013051 0.011888 0.047581 0.001314 -0.003497
# 5 -0.000008 -0.002531 -0.007254 0.001314 0.032774 0.006948
# 6 -0.001605 0.000787 -0.003813 -0.003497 0.006948 0.019751
#
#
# Mechanical properties :
#
#
# Convention : Reuss Voigt Hill
#
# Bulk Modulus (GPa) = 25.79285 47.27818 36.53551
# Shear Modulus (GPa) = 32.39528 45.49479 38.94504
#
# Velocity S-wave (km/s) = 3.69547 4.37936 4.05187
# Velocity P-wave (km/s) = 5.39277 6.74553 6.10672
#
# Compressibility (1/GPa) = 0.03877044
#
# Stress axis : x y z
#
# Youngs Moduli (GPa) = 138.44255 69.11737 54.49276
#
# Poissons Ratio (x) = 0.18725 0.01792
# Poissons Ratio (y) = 0.37506 -0.13089
# Poissons Ratio (z) = 0.04553 -0.16602
#
# Static dielectric constant tensor:
#      x y z
#    x 1.914990 -0.086350 -0.009010 
#    y -0.086350 1.968860 -0.118570 
#    z -0.009010 -0.118570 2.015170 
# 
# From -- ./inp_files/197344.got.cif
#   From: 2010.05.17/outbox.cif.g08.bks.cpg/sg2_99_cif.got.tgz:197344.got - 2010.06.03 11:33:40.
