data_PCOD9006614
_publ_section_title
;
Structure prediction by ZEFSAII (Michael W. Deem and Ramdas Pophale) SiO2 
 PCOD9006614
Probable space group: P -1
;
_chemical_formula_sum "Si O2"
_cell_formula_units_Z 16
_cell_length_a 25.471901
_cell_length_b 11.505375
_cell_length_c 9.241650
_cell_angle_alpha 131.844344
_cell_angle_beta 36.340721
_cell_angle_gamma 150.916420
_cell_volume 773.740174
_symmetry_space_group_name_H-M "P -1"
_symmetry_group_IT_number 2
_symmetry_cell_setting 'triclinic'
loop_
_space_group_symop_operation_xyz
x,y,z
-x,-y,-z
loop_
_atom_site_type_symbol
_atom_site_label
_atom_site_fract_x
_atom_site_fract_y
_atom_site_fract_z
Si Si1 0.835511 0.462521 0.054255
Si Si2 0.882859 0.297643 0.356656
Si Si3 0.123908 0.201923 0.569582
Si Si4 0.411183 0.808761 0.166849
Si Si5 0.348991 0.246100 0.078530
Si Si6 0.727175 0.110116 0.266094
Si Si7 0.891024 0.667229 0.595318
Si Si8 0.678062 0.033114 0.851102
O O1 0.824908 0.623684 0.267521
O O2 0.801726 0.306823 0.137691
O O3 0.735525 0.270077 0.990973
O O4 0.991468 0.634637 0.810516
O O5 0.832448 0.187232 0.216072
O O6 0.928114 0.539564 0.445571
O O7 0.755505 0.114811 0.596388
O O8 0.243926 0.246558 0.290963
O O9 0.089035 0.267320 0.565137
O O10 0.988676 0.919644 0.668436
O O11 0.364148 0.884570 0.441638
O O12 0.272478 0.544514 0.196767
O O13 0.500000 0.000000 0.000000
O O14 0.515071 0.830416 0.030664
O O15 0.290225 0.062912 0.188880
O O16 0.500000 0.500000 0.000000
O O17 0.350666 0.134820 0.843232
#
# Coordination Sequence:
#
# PCOD9006614 Si02
#       8
#     2   2   2   2   2   2   2   2
#     4  11  23  38  69  97 129 170 220 268 322 392
#     4  11  21  43  65  99 124 168 224 268 324 375
#     4  11  23  40  62 100 130 168 214 269 327 374
#     4  11  20  41  68  98 122 164 223 273 319 373
#     4  11  26  43  64  94 139 174 214 264 332 394
#     4  10  22  39  69  94 123 172 223 269 305 399
#     4  10  21  38  67  91 131 161 215 276 314 369
#     4  11  24  42  67  93 134 171 213 273 326 392
#
# _framework density 20.678777
#
# number of rings (size 3 to 8) (size 9 to 14) (size 15 to 20)
#    0.000    1.250    5.000    3.000    5.250    1.000 
#    0.000    4.375    0.000    0.000    0.000    0.000 
#    0.000    0.000    0.000    0.000    0.000    0.000 
#
# Total GULP energy -89397.122269 kJ/mol
# GULP energy per Si atom -5587.320142 kJ/mol
# Density = 2.063171 g / cm^3
# Si number density = 20.678777 Si / 1000 Ang^3
#
#
#
# Elastic Constant Matrix: (Units=GPa)
#
#
# Indices 1 2 3 4 5 6 
#
# 1 35.5672 4.4726 6.5071 -0.5440 4.9275 -2.1115
# 2 4.4726 124.9138 33.7351 1.7399 10.4993 23.2574
# 3 6.5071 33.7351 74.3281 -10.3050 -7.8108 5.1658
# 4 -0.5440 1.7399 -10.3050 30.0054 5.4345 -1.8904
# 5 4.9275 10.4993 -7.8108 5.4345 25.9080 3.9964
# 6 -2.1115 23.2574 5.1658 -1.8904 3.9964 30.5687
#
#
#
# Elastic Compliance Matrix: (Units=1/GPa)
#
#
# Indices 1 2 3 4 5 6 
#
# 1 0.030054 -0.000261 -0.003430 0.000976 -0.007449 0.003889
# 2 -0.000261 0.011203 -0.005334 -0.002115 -0.004548 -0.007177
# 3 -0.003430 -0.005334 0.017595 0.005032 0.007026 0.000241
# 4 0.000976 -0.002115 0.005032 0.036541 -0.006075 0.003880
# 5 -0.007449 -0.004548 0.007026 -0.006075 0.045964 -0.004626
# 6 0.003889 -0.007177 0.000241 0.003880 -0.004626 0.039246
#
#
# Mechanical properties :
#
#
# Convention : Reuss Voigt Hill
#
# Bulk Modulus (GPa) = 24.50962 36.02652 30.26807
# Shear Modulus (GPa) = 23.55665 29.96938 26.76301
#
# Velocity S-wave (km/s) = 3.37882 3.81107 3.60144
# Velocity P-wave (km/s) = 5.20578 6.06840 5.65357
#
# Compressibility (1/GPa) = 0.04080030
#
# Stress axis : x y z
#
# Youngs Moduli (GPa) = 33.27349 89.25828 56.83583
#
# Poissons Ratio (x) = 0.02331 0.19496
# Poissons Ratio (y) = 0.00869 0.30318
# Poissons Ratio (z) = 0.11414 0.47614
#
# Static dielectric constant tensor:
#      x y z
#    x 1.774390 0.002070 -0.006960 
#    y 0.002070 1.745290 0.004090 
#    z -0.006960 0.004090 1.720950 
# 
# From -- ./inp_files/279521.got.cif
#   From: 2010.05.17/outbox.cif.g08.bks.cpg/sg2_140_cif.got.tgz:279521.got - 2010.06.03 11:33:40.
