data_PCOD9006444
_publ_section_title
;
Structure prediction by ZEFSAII (Michael W. Deem and Ramdas Pophale) SiO2 
 PCOD9006444
Probable space group: P -1
;
_chemical_formula_sum "Si O2"
_cell_formula_units_Z 16
_cell_length_a 15.856092
_cell_length_b 8.292148
_cell_length_c 14.648947
_cell_angle_alpha 64.442652
_cell_angle_beta 141.204111
_cell_angle_gamma 86.199441
_cell_volume 764.323836
_symmetry_space_group_name_H-M "P -1"
_symmetry_group_IT_number 2
_symmetry_cell_setting 'triclinic'
loop_
_space_group_symop_operation_xyz
x,y,z
-x,-y,-z
loop_
_atom_site_type_symbol
_atom_site_label
_atom_site_fract_x
_atom_site_fract_y
_atom_site_fract_z
Si Si1 0.199128 0.906517 0.165872
Si Si2 0.539607 0.474045 0.685382
Si Si3 0.208142 0.927800 0.753047
Si Si4 0.715164 0.936453 0.392046
Si Si5 0.948051 0.370148 0.544576
Si Si6 0.085145 0.360571 0.857434
Si Si7 0.626590 0.586374 0.913424
Si Si8 0.460945 0.222952 0.812646
O O1 0.354502 0.738771 0.418200
O O2 0.304441 0.717435 0.213605
O O3 0.150874 0.154422 0.036827
O O4 0.000000 0.000000 0.000000
O O5 0.628337 0.511377 0.830425
O O6 0.473205 0.354665 0.708920
O O7 0.194428 0.019948 0.618491
O O8 0.016875 0.138917 0.598687
O O9 0.291134 0.651153 0.896690
O O10 0.356479 0.913892 0.937438
O O11 0.566006 0.946067 0.211868
O O12 0.884286 0.648741 0.640623
O O13 0.591044 0.162596 0.304026
O O14 0.052264 0.291345 0.749801
O O15 0.000000 0.500000 0.500000
O O16 0.725829 0.568766 0.333793
O O17 0.243012 0.363748 0.979054
#
# Coordination Sequence:
#
# PCOD9006444 Si02
#       8
#     2   2   2   2   2   2   2   2
#     4  11  23  45  76  93 116 155 214 269 317 369
#     4  10  24  44  66  99 119 159 209 261 320 377
#     4  11  22  37  59  89 123 177 216 253 302 357
#     4  11  22  37  57  90 126 169 214 247 304 364
#     4  11  21  38  62  94 123 166 223 258 295 354
#     4  11  24  40  62  93 128 166 205 262 313 370
#     4  11  25  40  59  88 137 166 201 251 318 380
#     4  10  21  38  66  88 127 162 214 267 300 358
#
# _framework density 20.933534999999999
#
# number of rings (size 3 to 8) (size 9 to 14) (size 15 to 20)
#    0.000    1.250    2.500    5.250    1.750    5.000 
#    0.000    1.250    0.000    0.000    0.000    0.000 
#    0.000    0.000    0.000    0.000    0.000    0.000 
#
# Total GULP energy -89533.218727 kJ/mol
# GULP energy per Si atom -5595.826170 kJ/mol
# Density = 2.088589 g / cm^3
# Si number density = 20.933535 Si / 1000 Ang^3
#
#
#
# Elastic Constant Matrix: (Units=GPa)
#
#
# Indices 1 2 3 4 5 6 
#
# 1 76.6364 20.4575 34.7756 -15.1918 8.6334 4.7045
# 2 20.4575 64.1398 25.1547 -16.9454 4.6335 7.3590
# 3 34.7756 25.1547 85.3381 -14.1665 -6.3517 11.9900
# 4 -15.1918 -16.9454 -14.1665 32.7698 3.8263 -4.2100
# 5 8.6334 4.6335 -6.3517 3.8263 42.2965 -11.1864
# 6 4.7045 7.3590 11.9900 -4.2100 -11.1864 22.5679
#
#
#
# Elastic Compliance Matrix: (Units=1/GPa)
#
#
# Indices 1 2 3 4 5 6 
#
# 1 0.018000 -0.001289 -0.006222 0.005401 -0.005405 -0.001698
# 2 -0.001289 0.020621 -0.003791 0.008305 -0.004697 -0.005221
# 3 -0.006222 -0.003791 0.016445 0.001350 0.002830 -0.004549
# 4 0.005401 0.008305 0.001350 0.038517 -0.005291 0.000012
# 5 -0.005405 -0.004697 0.002830 -0.005291 0.030163 0.015119
# 6 -0.001698 -0.005221 -0.004549 0.000012 0.015119 0.056280
#
#
# Mechanical properties :
#
#
# Convention : Reuss Voigt Hill
#
# Bulk Modulus (GPa) = 30.80464 42.98777 36.89620
# Shear Modulus (GPa) = 23.42469 29.24196 26.33332
#
# Velocity S-wave (km/s) = 3.34878 3.74156 3.55061
# Velocity P-wave (km/s) = 5.44975 6.26463 5.87135
#
# Compressibility (1/GPa) = 0.03246264
#
# Stress axis : x y z
#
# Youngs Moduli (GPa) = 55.55559 48.49423 60.80905
#
# Poissons Ratio (x) = 0.06249 0.37838
# Poissons Ratio (y) = 0.07159 0.23051
# Poissons Ratio (z) = 0.34569 0.18383
#
# Static dielectric constant tensor:
#      x y z
#    x 1.731830 -0.007900 0.015170 
#    y -0.007900 1.748260 -0.008520 
#    z 0.015170 -0.008520 1.771840 
# 
# From -- ./inp_files/279017.got.cif
#   From: 2010.05.17/outbox.cif.g08.bks.cpg/sg2_140_cif.got.tgz:279017.got - 2010.06.03 11:33:40.
