data_PCOD9006410
_publ_section_title
;
Structure prediction by ZEFSAII (Michael W. Deem and Ramdas Pophale) SiO2 
 PCOD9006410
Probable space group: P -1
;
_chemical_formula_sum "Si O2"
_cell_formula_units_Z 16
_cell_length_a 7.972701
_cell_length_b 14.045193
_cell_length_c 11.586827
_cell_angle_alpha 43.736853
_cell_angle_beta 123.812913
_cell_angle_gamma 93.637936
_cell_volume 602.012243
_symmetry_space_group_name_H-M "P -1"
_symmetry_group_IT_number 2
_symmetry_cell_setting 'triclinic'
loop_
_space_group_symop_operation_xyz
x,y,z
-x,-y,-z
loop_
_atom_site_type_symbol
_atom_site_label
_atom_site_fract_x
_atom_site_fract_y
_atom_site_fract_z
Si Si1 0.225466 0.713646 0.726105
Si Si2 0.684337 0.868742 0.782012
Si Si3 0.619950 0.647254 0.303291
Si Si4 0.676291 0.014987 0.238489
Si Si5 0.785819 0.539584 0.021549
Si Si6 0.137857 0.931806 0.232897
Si Si7 0.109181 0.636933 0.523711
Si Si8 0.646118 0.712120 0.501648
O O1 0.277509 0.586712 0.959482
O O2 0.184005 0.587525 0.732486
O O3 0.971499 0.896869 0.484975
O O4 0.465459 0.691171 0.790071
O O5 0.500000 0.000000 0.500000
O O6 0.514192 0.899721 0.801535
O O7 0.871274 0.919373 0.838419
O O8 0.831235 0.677261 0.966676
O O9 0.693605 0.493237 0.381054
O O10 0.598544 0.631488 0.445527
O O11 0.864582 0.648928 0.391915
O O12 0.397724 0.830914 0.008351
O O13 0.630080 0.876155 0.300315
O O14 0.095408 0.399123 0.235238
O O15 0.050309 0.822075 0.346310
O O16 0.427724 0.790410 0.440616
O O17 0.000000 0.000000 0.000000
#
# Coordination Sequence:
#
# PCOD9006410 Si02
#       8
#     2   2   2   2   2   2   2   2
#     4  10  21  39  67  97 132 168 223 282 323 389
#     4  11  24  45  66  92 137 186 219 270 338 402
#     4  11  22  38  71 100 133 168 221 275 337 393
#     4  10  21  38  66 101 128 172 222 274 332 392
#     4  10  21  42  66  91 131 173 221 270 329 388
#     4  11  26  43  67  95 138 177 222 273 332 399
#     4  11  22  39  63 100 129 173 220 272 336 385
#     4  10  22  42  67  97 133 178 213 269 340 397
#
# _framework density 26.577532999999999
#
# number of rings (size 3 to 8) (size 9 to 14) (size 15 to 20)
#    0.000    1.500    2.500    3.375    5.250    1.000 
#    0.000   13.750    0.000    0.000    0.000    0.000 
#    0.000    0.000    0.000    0.000    0.000    0.000 
#
# Total GULP energy -89187.847817 kJ/mol
# GULP energy per Si atom -5574.240489 kJ/mol
# Density = 2.651704 g / cm^3
# Si number density = 26.577533 Si / 1000 Ang^3
#
#
#
# Elastic Constant Matrix: (Units=GPa)
#
#
# Indices 1 2 3 4 5 6 
#
# 1 62.8760 1.9253 9.2765 4.2178 -3.7021 13.7176
# 2 1.9253 131.3322 22.1533 -10.7597 -11.2115 14.4393
# 3 9.2765 22.1533 87.1346 -8.1632 -5.8842 9.4586
# 4 4.2178 -10.7597 -8.1632 37.3904 -6.7809 2.7920
# 5 -3.7021 -11.2115 -5.8842 -6.7809 40.9863 3.9637
# 6 13.7176 14.4393 9.4586 2.7920 3.9637 34.5177
#
#
#
# Elastic Compliance Matrix: (Units=1/GPa)
#
#
# Indices 1 2 3 4 5 6 
#
# 1 0.017854 0.000848 -0.001286 -0.001114 0.002178 -0.007258
# 2 0.000848 0.008826 -0.001368 0.003046 0.003211 -0.004269
# 3 -0.001286 -0.001368 0.012713 0.003130 0.002133 -0.002898
# 4 -0.001114 0.003046 0.003130 0.029994 0.006616 -0.004875
# 5 0.002178 0.003211 0.002133 0.006616 0.027502 -0.006486
# 6 -0.007258 -0.004269 -0.002898 -0.004875 -0.006486 0.035574
#
#
# Mechanical properties :
#
#
# Convention : Reuss Voigt Hill
#
# Bulk Modulus (GPa) = 27.94837 38.67258 33.31048
# Shear Modulus (GPa) = 33.78304 39.11138 36.44721
#
# Velocity S-wave (km/s) = 3.56913 3.84030 3.70720
# Velocity P-wave (km/s) = 5.24629 5.85204 5.55742
#
# Compressibility (1/GPa) = 0.03578026
#
# Stress axis : x y z
#
# Youngs Moduli (GPa) = 56.00859 113.30470 78.65839
#
# Poissons Ratio (x) = -0.09605 0.10114
# Poissons Ratio (y) = -0.04748 0.10764
# Poissons Ratio (z) = 0.07202 0.15505
#
# Static dielectric constant tensor:
#      x y z
#    x 2.297680 -0.074590 -0.117430 
#    y -0.074590 2.162980 0.060020 
#    z -0.117430 0.060020 2.106270 
# 
# From -- ./inp_files/505310.got.cif
#   From: 2010.05.17/outbox.cif.g08.bks.cpg/sg2_253_cif.got.tgz:505310.got - 2010.06.03 11:33:40.
