data_PCOD9006877
_publ_section_title
;
Structure prediction by ZEFSAII (Michael W. Deem and Ramdas Pophale) SiO2 
 PCOD9006877
Probable space group: P -1
;
_chemical_formula_sum "Si O2"
_cell_formula_units_Z 14
_cell_length_a 7.912236
_cell_length_b 9.177032
_cell_length_c 11.198766
_cell_angle_alpha 114.863823
_cell_angle_beta 128.451646
_cell_angle_gamma 82.216995
_cell_volume 568.617020
_symmetry_space_group_name_H-M "P -1"
_symmetry_group_IT_number 2
_symmetry_cell_setting 'triclinic'
loop_
_space_group_symop_operation_xyz
x,y,z
-x,-y,-z
loop_
_atom_site_type_symbol
_atom_site_label
_atom_site_fract_x
_atom_site_fract_y
_atom_site_fract_z
Si Si1 0.106486 0.590842 0.924295
Si Si2 0.513922 0.157845 0.468802
Si Si3 0.564272 0.620381 0.274916
Si Si4 0.013939 0.245721 0.660437
Si Si5 0.728259 0.960595 0.164850
Si Si6 0.659706 0.275526 0.147409
Si Si7 0.813963 0.849939 0.900145
O O1 0.140439 0.647423 0.821083
O O2 0.052296 0.396038 0.824161
O O3 0.916743 0.687258 0.912500
O O4 0.338020 0.634873 0.110450
O O5 0.457667 0.298206 0.579846
O O6 0.751989 0.203215 0.526688
O O7 0.350435 0.150092 0.282318
O O8 0.500000 0.000000 0.500000
O O9 0.568741 0.427200 0.213709
O O10 0.795490 0.699309 0.337525
O O11 0.078481 0.085025 0.691067
O O12 0.728249 0.150539 0.228122
O O13 0.506278 0.836888 0.056258
O O14 0.735401 0.902796 0.011354
O O15 0.000000 0.000000 0.000000
#
# Coordination Sequence:
#
# PCOD9006877 Si02
#       7
#     2   2   2   2   2   2   2
#     4  11  21  44  75 107 144 192 246 291 360 444
#     4  12  30  49  71 110 151 193 245 310 375 432
#     4  11  23  49  76 111 153 187 246 304 364 442
#     4  11  24  47  78 110 146 197 239 302 375 429
#     4  11  21  40  75 108 143 190 251 288 357 440
#     4  10  21  38  72 110 140 189 245 294 348 433
#     4  12  26  47  72 102 144 194 247 310 361 442
#
# _framework density 24.62114
#
# number of rings (size 3 to 8) (size 9 to 14) (size 15 to 20)
#    0.000    0.857    4.286    3.429    2.000    2.286 
#    2.571    1.429    0.000    0.000    0.000    0.000 
#    0.000    0.000    0.000    0.000    0.000    0.000 
#
# Total GULP energy -78240.351771 kJ/mol
# GULP energy per Si atom -5588.596555 kJ/mol
# Density = 2.456510 g / cm^3
# Si number density = 24.621140 Si / 1000 Ang^3
#
#
#
# Elastic Constant Matrix: (Units=GPa)
#
#
# Indices 1 2 3 4 5 6 
#
# 1 128.7776 70.1790 71.6838 -21.0881 11.6295 -17.0742
# 2 70.1790 149.4019 64.1777 -8.0054 -7.4374 -14.9439
# 3 71.6838 64.1777 134.3709 -24.5366 17.5633 -4.0450
# 4 -21.0881 -8.0054 -24.5366 17.7729 -2.8994 2.4756
# 5 11.6295 -7.4374 17.5633 -2.8994 44.2874 0.1637
# 6 -17.0742 -14.9439 -4.0450 2.4756 0.1637 35.4576
#
#
#
# Elastic Compliance Matrix: (Units=1/GPa)
#
#
# Indices 1 2 3 4 5 6 
#
# 1 0.014424 -0.004577 -0.003310 0.009498 -0.002637 0.003988
# 2 -0.004577 0.010826 -0.004355 -0.006176 0.004334 0.002273
# 3 -0.003310 -0.004355 0.014262 0.013425 -0.004629 -0.002718
# 4 0.009498 -0.006176 0.013425 0.083049 -0.003410 -0.002280
# 5 -0.002637 0.004334 -0.004629 -0.003410 0.025612 0.000149
# 6 0.003988 0.002273 -0.002718 -0.002280 0.000149 0.030930
#
#
# Mechanical properties :
#
#
# Convention : Reuss Voigt Hill
#
# Bulk Modulus (GPa) = 66.53672 91.62573 79.08122
# Shear Modulus (GPa) = 23.96961 33.27089 28.62025
#
# Velocity S-wave (km/s) = 3.12354 3.68001 3.41314
# Velocity P-wave (km/s) = 6.33179 7.43987 6.90808
#
# Compressibility (1/GPa) = 0.01502930
#
# Stress axis : x y z
#
# Youngs Moduli (GPa) = 69.32670 92.36728 70.11395
#
# Poissons Ratio (x) = 0.42279 0.23207
# Poissons Ratio (y) = 0.31733 0.30534
# Poissons Ratio (z) = 0.22946 0.40225
#
# Static dielectric constant tensor:
#      x y z
#    x 2.740810 0.155410 0.458250 
#    y 0.155410 2.000670 0.096240 
#    z 0.458250 0.096240 2.176830 
# 
# From -- ./inp_files/383415.got.cif
#   From: 2010.05.17/outbox.cif.g08.bks.cpg/sg2_192_cif.got.tgz:383415.got - 2010.06.03 11:33:40.
