data_PCOD9006492
_publ_section_title
;
Structure prediction by ZEFSAII (Michael W. Deem and Ramdas Pophale) SiO2 
 PCOD9006492
Probable space group: P -1
;
_chemical_formula_sum "Si O2"
_cell_formula_units_Z 12
_cell_length_a 8.874996
_cell_length_b 11.243578
_cell_length_c 9.324008
_cell_angle_alpha 64.191546
_cell_angle_beta 77.344907
_cell_angle_gamma 42.335160
_cell_volume 555.941149
_symmetry_space_group_name_H-M "P -1"
_symmetry_group_IT_number 2
_symmetry_cell_setting 'triclinic'
loop_
_space_group_symop_operation_xyz
x,y,z
-x,-y,-z
loop_
_atom_site_type_symbol
_atom_site_label
_atom_site_fract_x
_atom_site_fract_y
_atom_site_fract_z
Si Si1 0.099066 0.308562 0.498375
Si Si2 0.663460 0.454583 0.609699
Si Si3 0.454900 0.434503 0.910461
Si Si4 0.513294 0.822739 0.373007
Si Si5 0.071186 0.259492 0.205654
Si Si6 0.632360 0.782629 0.053516
O O1 0.349159 0.142799 0.601367
O O2 0.102525 0.313376 0.323547
O O3 0.000000 0.500000 0.500000
O O4 0.921199 0.307625 0.580955
O O5 0.500000 0.500000 0.500000
O O6 0.631946 0.378571 0.788009
O O7 0.559945 0.666461 0.544122
O O8 0.476305 0.261784 0.001471
O O9 0.190598 0.616636 0.821923
O O10 0.500000 0.500000 0.000000
O O11 0.629536 0.721609 0.246242
O O12 0.252755 0.025581 0.298595
O O13 0.148248 0.300394 0.032415
O O14 0.500000 0.000000 0.000000
#
# Coordination Sequence:
#
# PCOD9006492 Si02
#       6
#     2   2   2   2   2   2
#     4  10  21  38  66  93 123 170 214 262 315 384
#     4  11  21  42  63  90 134 166 213 268 325 378
#     4  12  26  41  66  98 131 173 213 269 331 379
#     4  10  22  41  67  94 125 170 220 265 321 381
#     4  11  23  42  65  94 130 172 217 265 319 393
#     4  10  23  44  66  92 131 173 218 262 315 392
#
# _framework density 21.58502
#
# number of rings (size 3 to 8) (size 9 to 14) (size 15 to 20)
#    0.000    1.333    3.333    2.000    7.000    0.667 
#    0.000    3.333    0.000    0.000    0.000    0.000 
#    0.000    0.000    0.000    0.000    0.000    0.000 
#
# Total GULP energy -66887.373389 kJ/mol
# GULP energy per Si atom -5573.947782 kJ/mol
# Density = 2.153589 g / cm^3
# Si number density = 21.585020 Si / 1000 Ang^3
#
#
#
# Elastic Constant Matrix: (Units=GPa)
#
#
# Indices 1 2 3 4 5 6 
#
# 1 128.8248 22.0795 21.0907 3.4350 13.3216 -4.5356
# 2 22.0795 96.8297 4.4676 -2.1812 2.9871 -4.5274
# 3 21.0907 4.4676 40.1175 21.1064 6.5638 -0.7873
# 4 3.4350 -2.1812 21.1064 39.1838 8.3342 -4.3424
# 5 13.3216 2.9871 6.5638 8.3342 46.9503 9.4591
# 6 -4.5356 -4.5274 -0.7873 -4.3424 9.4591 28.9007
#
#
#
# Elastic Compliance Matrix: (Units=1/GPa)
#
#
# Indices 1 2 3 4 5 6 
#
# 1 0.009274 -0.001578 -0.005829 0.003092 -0.002751 0.002415
# 2 -0.001578 0.010894 -0.001130 0.001737 -0.000788 0.001947
# 3 -0.005829 -0.001130 0.039042 -0.021112 0.000707 -0.003432
# 4 0.003092 0.001737 -0.021112 0.039037 -0.006621 0.008214
# 5 -0.002751 -0.000788 0.000707 -0.006621 0.025175 -0.009770
# 6 0.002415 0.001947 -0.003432 0.008214 -0.009770 0.039624
#
#
# Mechanical properties :
#
#
# Convention : Reuss Voigt Hill
#
# Bulk Modulus (GPa) = 23.73322 40.11640 31.92481
# Shear Modulus (GPa) = 25.75124 37.54926 31.65025
#
# Velocity S-wave (km/s) = 3.45775 4.17537 3.83339
# Velocity P-wave (km/s) = 5.19235 6.47075 5.86648
#
# Compressibility (1/GPa) = 0.04213503
#
# Stress axis : x y z
#
# Youngs Moduli (GPa) = 107.82363 91.79439 25.61369
#
# Poissons Ratio (x) = 0.14489 0.14930
# Poissons Ratio (y) = 0.17019 0.02894
# Poissons Ratio (z) = 0.62851 0.10373
#
# Static dielectric constant tensor:
#      x y z
#    x 1.852220 0.035080 -0.007480 
#    y 0.035080 1.851730 -0.062350 
#    z -0.007480 -0.062350 1.710250 
# 
# From -- ./inp_files/149946.got.cif
#   From: 2010.05.17/outbox.cif.g08.bks.cpg/sg2_75_cif.got.tgz:149946.got - 2010.06.03 11:33:40.
