data_PCOD9006578
_publ_section_title
;
Structure prediction by ZEFSAII (Michael W. Deem and Ramdas Pophale) SiO2 
 PCOD9006578
Probable space group: P -1
;
_chemical_formula_sum "Si O2"
_cell_formula_units_Z 16
_cell_length_a 11.599493
_cell_length_b 9.055358
_cell_length_c 12.022432
_cell_angle_alpha 99.506438
_cell_angle_beta 113.844590
_cell_angle_gamma 37.006261
_cell_volume 666.087924
_symmetry_space_group_name_H-M "P -1"
_symmetry_group_IT_number 2
_symmetry_cell_setting 'triclinic'
loop_
_space_group_symop_operation_xyz
x,y,z
-x,-y,-z
loop_
_atom_site_type_symbol
_atom_site_label
_atom_site_fract_x
_atom_site_fract_y
_atom_site_fract_z
Si Si1 0.845730 0.762730 0.408424
Si Si2 0.038732 0.564755 0.765994
Si Si3 0.483311 0.535217 0.187834
Si Si4 0.317861 0.885905 0.961180
Si Si5 0.049846 0.812901 0.617919
Si Si6 0.241219 0.298495 0.021777
Si Si7 0.152785 0.737154 0.267759
Si Si8 0.364248 0.230634 0.300956
O O1 0.855349 0.685134 0.279790
O O2 0.941279 0.834683 0.473889
O O3 0.000000 0.500000 0.500000
O O4 0.610841 0.975856 0.397362
O O5 0.184750 0.458427 0.916366
O O6 0.039767 0.700475 0.699697
O O7 0.796359 0.748112 0.725631
O O8 0.554840 0.327334 0.111219
O O9 0.311558 0.655220 0.228263
O O10 0.700026 0.384485 0.314336
O O11 0.388743 0.748970 0.090862
O O12 0.339011 0.044601 0.992919
O O13 0.066853 0.095862 0.861516
O O14 0.909525 0.085375 0.640082
O O15 0.365653 0.240424 0.168490
O O16 0.000000 0.500000 0.000000
O O17 0.262520 0.484428 0.330767
#
# Coordination Sequence:
#
# PCOD9006578 Si02
#       8
#     2   2   2   2   2   2   2   2
#     4  10  25  45  65  96 128 170 225 270 312 384
#     4  10  23  44  68  95 134 167 211 277 318 385
#     4  10  24  39  64  94 136 178 209 261 325 382
#     4  10  21  41  60  99 135 170 216 258 320 400
#     4  10  25  44  65  96 128 175 227 259 316 382
#     4  10  21  38  67 100 133 161 210 264 332 388
#     4  11  23  41  67  94 135 168 215 267 321 389
#     4  11  25  42  67 101 129 169 215 264 334 378
#
# _framework density 24.020852999999999
#
# number of rings (size 3 to 8) (size 9 to 14) (size 15 to 20)
#    0.000    1.750    2.500    0.375    8.750    7.000 
#    0.000    1.250    0.000    0.000    0.000    0.000 
#    0.000    0.000    0.000    0.000    0.000    0.000 
#
# Total GULP energy -89613.851856 kJ/mol
# GULP energy per Si atom -5600.865741 kJ/mol
# Density = 2.396618 g / cm^3
# Si number density = 24.020853 Si / 1000 Ang^3
#
#
#
# Elastic Constant Matrix: (Units=GPa)
#
#
# Indices 1 2 3 4 5 6 
#
# 1 118.0480 32.2679 16.0124 -13.9041 9.4820 -9.5287
# 2 32.2679 121.7842 33.5615 -20.5098 21.2962 1.9891
# 3 16.0124 33.5615 40.8596 -4.8503 19.5005 -4.9010
# 4 -13.9041 -20.5098 -4.8503 39.1291 0.3846 12.5484
# 5 9.4820 21.2962 19.5005 0.3846 39.5573 -6.9380
# 6 -9.5287 1.9891 -4.9010 12.5484 -6.9380 38.6277
#
#
#
# Elastic Compliance Matrix: (Units=1/GPa)
#
#
# Indices 1 2 3 4 5 6 
#
# 1 0.009541 -0.001721 -0.001834 0.001747 -0.000191 0.001608
# 2 -0.001721 0.012624 -0.007855 0.006616 -0.003424 -0.004835
# 3 -0.001834 -0.007855 0.038478 -0.000688 -0.013842 0.002571
# 4 0.001747 0.006616 -0.000688 0.033453 -0.006063 -0.011953
# 5 -0.000191 -0.003424 -0.013842 -0.006063 0.035221 0.006669
# 6 0.001608 -0.004835 0.002571 -0.011953 0.006669 0.031941
#
#
# Mechanical properties :
#
#
# Convention : Reuss Voigt Hill
#
# Bulk Modulus (GPa) = 26.43912 49.37503 37.90708
# Shear Modulus (GPa) = 25.42126 36.71950 31.07038
#
# Velocity S-wave (km/s) = 3.25668 3.91404 3.60039
# Velocity P-wave (km/s) = 5.01716 6.40515 5.75317
#
# Compressibility (1/GPa) = 0.03782273
#
# Stress axis : x y z
#
# Youngs Moduli (GPa) = 104.80758 79.21464 25.98900
#
# Poissons Ratio (x) = 0.13635 0.04766
# Poissons Ratio (y) = 0.18040 0.20415
# Poissons Ratio (z) = 0.19218 0.62225
#
# Static dielectric constant tensor:
#      x y z
#    x 1.931200 -0.012890 -0.005230 
#    y -0.012890 1.913170 0.029580 
#    z -0.005230 0.029580 1.953720 
# 
# From -- ./inp_files/514451.got.cif
#   From: 2010.05.17/outbox.cif.g08.bks.cpg/sg2_258_cif.got.tgz:514451.got - 2010.06.03 11:33:40.
