data_PCOD9006796
_publ_section_title
;
Structure prediction by ZEFSAII (Michael W. Deem and Ramdas Pophale) SiO2 
 PCOD9006796
Probable space group: P -1
;
_chemical_formula_sum "Si O2"
_cell_formula_units_Z 16
_cell_length_a 12.391621
_cell_length_b 4.954107
_cell_length_c 20.585045
_cell_angle_alpha 51.402137
_cell_angle_beta 144.022539
_cell_angle_gamma 121.747977
_cell_volume 579.579087
_symmetry_space_group_name_H-M "P -1"
_symmetry_group_IT_number 2
_symmetry_cell_setting 'triclinic'
loop_
_space_group_symop_operation_xyz
x,y,z
-x,-y,-z
loop_
_atom_site_type_symbol
_atom_site_label
_atom_site_fract_x
_atom_site_fract_y
_atom_site_fract_z
Si Si1 0.454891 0.158971 0.244476
Si Si2 0.809069 0.787457 0.427671
Si Si3 0.805132 0.524679 0.598790
Si Si4 0.460942 0.963575 0.409947
Si Si5 0.789873 0.299585 0.996102
Si Si6 0.180594 0.967086 0.739752
Si Si7 0.339189 0.263803 0.899414
Si Si8 0.868890 0.315697 0.881894
O O1 0.377772 0.443467 0.114973
O O2 0.643779 0.026593 0.330285
O O3 0.469521 0.253494 0.314189
O O4 0.307068 0.829771 0.220812
O O5 0.806028 0.488601 0.525854
O O6 0.800904 0.751467 0.351580
O O7 0.000000 0.000000 0.500000
O O8 0.622392 0.731837 0.495810
O O9 0.751334 0.185031 0.665040
O O10 0.987633 0.745128 0.674287
O O11 0.500000 0.000000 0.500000
O O12 0.817834 0.374278 0.922789
O O13 0.979839 0.398058 0.111024
O O14 0.738626 0.908838 0.046322
O O15 0.333454 0.674708 0.846958
O O16 0.203717 0.168486 0.787806
O O17 0.500000 0.000000 0.000000
O O18 0.000000 0.000000 0.000000
#
# Coordination Sequence:
#
# PCOD9006796 Si02
#       8
#     2   2   2   2   2   2   2   2
#     4  10  21  38  69  93 133 179 216 278 343 405
#     4   9  20  45  66  93 130 171 231 279 339 404
#     4   9  22  43  65 100 132 177 222 283 340 414
#     4  10  22  40  65 101 139 170 226 278 345 411
#     4  10  23  40  63  99 134 175 224 277 333 410
#     4  11  26  46  71 100 134 184 226 286 343 395
#     4  12  28  45  70 101 139 180 232 284 337 405
#     4   9  21  39  61  93 129 175 222 271 330 407
#
# _framework density 27.606241000000001
#
# number of rings (size 3 to 8) (size 9 to 14) (size 15 to 20)
#    0.000    2.000    0.000    1.125    8.750    5.000 
#    4.500    1.875    0.000    0.000    0.000    0.000 
#    0.000    0.000    0.000    0.000    0.000    0.000 
#
# Total GULP energy -89406.438040 kJ/mol
# GULP energy per Si atom -5587.902377 kJ/mol
# Density = 2.754341 g / cm^3
# Si number density = 27.606241 Si / 1000 Ang^3
#
#
#
# Elastic Constant Matrix: (Units=GPa)
#
#
# Indices 1 2 3 4 5 6 
#
# 1 86.4108 19.2217 45.0499 13.8051 -4.4658 18.5650
# 2 19.2217 69.1956 30.3982 20.3415 0.8890 -3.2088
# 3 45.0499 30.3982 115.2449 7.4066 13.8213 4.9061
# 4 13.8051 20.3415 7.4066 37.5633 -5.7178 -1.2604
# 5 -4.4658 0.8890 13.8213 -5.7178 56.2851 -3.3477
# 6 18.5650 -3.2088 4.9061 -1.2604 -3.3477 44.4012
#
#
#
# Elastic Compliance Matrix: (Units=1/GPa)
#
#
# Indices 1 2 3 4 5 6 
#
# 1 0.017245 -0.001131 -0.006124 -0.004427 0.002048 -0.006587
# 2 -0.001131 0.019399 -0.004146 -0.009233 -0.000194 0.002056
# 3 -0.006124 -0.004146 0.012427 0.001570 -0.003272 0.000686
# 4 -0.004427 -0.009233 0.001570 0.033459 0.002938 0.002182
# 5 0.002048 -0.000194 -0.003272 0.002938 0.019094 0.001014
# 6 -0.006587 0.002056 0.000686 0.002182 0.001014 0.025487
#
#
# Mechanical properties :
#
#
# Convention : Reuss Voigt Hill
#
# Bulk Modulus (GPa) = 38.06533 51.13233 44.59883
# Shear Modulus (GPa) = 31.51219 39.39536 35.45377
#
# Velocity S-wave (km/s) = 3.38226 3.78172 3.58755
# Velocity P-wave (km/s) = 5.39180 6.13440 5.77505
#
# Compressibility (1/GPa) = 0.02627062
#
# Stress axis : x y z
#
# Youngs Moduli (GPa) = 57.98797 51.54866 80.47147
#
# Poissons Ratio (x) = 0.05828 0.49278
# Poissons Ratio (y) = 0.06556 0.33363
# Poissons Ratio (z) = 0.35510 0.21372
#
# Static dielectric constant tensor:
#      x y z
#    x 1.154860 0.788630 -0.708870 
#    y 0.788630 1.701310 0.594090 
#    z -0.708870 0.594090 1.639840 
# 
# From -- ./inp_files/592661.got.cif
#   From: 2010.05.17/outbox.cif.g08.bks.cpg/sg2_297_cif.got.tgz:592661.got - 2010.06.03 11:33:40.
