data_PCOD9006811
_publ_section_title
;
Structure prediction by ZEFSAII (Michael W. Deem and Ramdas Pophale) SiO2 
 PCOD9006811
Probable space group: P -1
;
_chemical_formula_sum "Si O2"
_cell_formula_units_Z 14
_cell_length_a 9.828962
_cell_length_b 9.389290
_cell_length_c 26.388221
_cell_angle_alpha 36.246261
_cell_angle_beta 27.415006
_cell_angle_gamma 47.734023
_cell_volume 654.513531
_symmetry_space_group_name_H-M "P -1"
_symmetry_group_IT_number 2
_symmetry_cell_setting 'triclinic'
loop_
_space_group_symop_operation_xyz
x,y,z
-x,-y,-z
loop_
_atom_site_type_symbol
_atom_site_label
_atom_site_fract_x
_atom_site_fract_y
_atom_site_fract_z
Si Si1 0.280633 0.043528 0.015053
Si Si2 0.908660 0.392080 0.873001
Si Si3 0.406734 0.202650 0.175823
Si Si4 0.586649 0.369403 0.664742
Si Si5 0.360688 0.830404 0.782882
Si Si6 0.347427 0.499081 0.287757
Si Si7 0.314388 0.616791 0.486030
O O1 0.987100 0.147763 0.101520
O O2 0.164659 0.794317 0.095772
O O3 0.478348 0.231429 0.858057
O O4 0.500000 0.000000 0.000000
O O5 0.862092 0.658901 0.792540
O O6 0.234931 0.366254 0.791519
O O7 0.674711 0.302492 0.020351
O O8 0.521081 0.275287 0.173902
O O9 0.346335 0.908636 0.277396
O O10 0.736414 0.520596 0.619552
O O11 0.631995 0.470643 0.563803
O O12 0.432660 0.677973 0.754489
O O13 0.556075 0.097557 0.637130
O O14 0.042270 0.440955 0.373107
O O15 0.500000 0.500000 0.500000
#
# Coordination Sequence:
#
# PCOD9006811 Si02
#       7
#     2   2   2   2   2   2   2
#     4  12  23  39  68 103 139 171 228 281 330 396
#     4  11  21  40  67 102 134 181 215 279 337 403
#     4  10  21  38  69  98 132 178 222 263 345 401
#     4  11  23  45  69  96 138 176 228 277 338 393
#     4  11  24  44  68  96 136 180 221 273 348 399
#     4  12  25  42  69 101 137 174 226 283 332 397
#     4  11  25  47  70  91 134 185 227 275 343 402
#
# _framework density 21.389932000000002
#
# number of rings (size 3 to 8) (size 9 to 14) (size 15 to 20)
#    0.000    0.857    4.286    4.286    2.000    2.286 
#    2.571    0.714    0.000    0.000    0.000    0.000 
#    0.000    0.000    0.000    0.000    0.000    0.000 
#
# Total GULP energy -78299.874915 kJ/mol
# GULP energy per Si atom -5592.848208 kJ/mol
# Density = 2.134125 g / cm^3
# Si number density = 21.389932 Si / 1000 Ang^3
#
#
#
# Elastic Constant Matrix: (Units=GPa)
#
#
# Indices 1 2 3 4 5 6 
#
# 1 131.8247 38.1787 25.4832 -5.0043 14.6567 -2.7228
# 2 38.1787 37.4291 35.9504 3.7176 36.0639 -3.8817
# 3 25.4832 35.9504 55.5246 10.4128 -9.6856 -15.9027
# 4 -5.0043 3.7176 10.4128 15.8924 3.5085 10.2267
# 5 14.6567 36.0639 -9.6856 3.5085 33.4263 7.9384
# 6 -2.7228 -3.8817 -15.9027 10.2267 7.9384 32.9468
#
#
#
# Elastic Compliance Matrix: (Units=1/GPa)
#
#
# Indices 1 2 3 4 5 6 
#
# 1 0.010829 -0.004256 -0.007197 0.014045 -0.002068 -0.006942
# 2 -0.004256 -0.016376 0.026547 -0.029326 0.027198 0.013082
# 3 -0.007197 0.026547 0.009697 -0.022268 -0.025131 0.020181
# 4 0.014045 -0.029326 -0.022268 0.119845 0.019497 -0.054940
# 5 -0.002068 0.027198 -0.025131 0.019497 -0.004510 -0.014062
# 6 -0.006942 0.013082 0.020181 -0.054940 -0.014062 0.061502
#
#
# Mechanical properties :
#
#
# Convention : Reuss Voigt Hill
#
# Bulk Modulus (GPa) = 29.12252 47.11144 38.11698
# Shear Modulus (GPa) = 30.81718 24.79753 27.80735
#
# Velocity S-wave (km/s) = 3.79982 3.40856 3.60949
# Velocity P-wave (km/s) = 5.73551 6.12894 5.93549
#
# Compressibility (1/GPa) = 0.03433769
#
# Stress axis : x y z
#
# Youngs Moduli (GPa) = 92.34076 -61.06541 103.12352
#
# Poissons Ratio (x) = -0.25990 0.74221
# Poissons Ratio (y) = 0.39301 -2.73761
# Poissons Ratio (z) = 0.66460 1.62110
#
# Static dielectric constant tensor:
#      x y z
#    x 1.780840 0.008390 0.014000 
#    y 0.008390 1.772620 0.023700 
#    z 0.014000 0.023700 1.817600 
# 
# From -- ./inp_files/225926.got.cif
#   From: 2010.05.17/outbox.cif.g08.bks.cpg/sg2_113_cif.got.tgz:225926.got - 2010.06.03 11:33:40.
