data_PCOD9006951
_publ_section_title
;
Structure prediction by ZEFSAII (Michael W. Deem and Ramdas Pophale) SiO2 
 PCOD9006951
Probable space group: P -1
;
_chemical_formula_sum "Si O2"
_cell_formula_units_Z 16
_cell_length_a 5.316876
_cell_length_b 19.549348
_cell_length_c 28.283379
_cell_angle_alpha 160.705198
_cell_angle_beta 130.418320
_cell_angle_gamma 52.054560
_cell_volume 739.505336
_symmetry_space_group_name_H-M "P -1"
_symmetry_group_IT_number 2
_symmetry_cell_setting 'triclinic'
loop_
_space_group_symop_operation_xyz
x,y,z
-x,-y,-z
loop_
_atom_site_type_symbol
_atom_site_label
_atom_site_fract_x
_atom_site_fract_y
_atom_site_fract_z
Si Si1 0.298775 0.861476 0.923104
Si Si2 0.826200 0.350289 0.321400
Si Si3 0.290259 0.682292 0.617319
Si Si4 0.724983 0.245698 0.900036
Si Si5 0.308386 0.787163 0.329642
Si Si6 0.539633 0.654441 0.911938
Si Si7 0.357856 0.988337 0.172486
Si Si8 0.464648 0.294040 0.800817
O O1 0.219681 0.671415 0.753813
O O2 0.495241 0.763391 0.927103
O O3 0.500000 0.000000 0.000000
O O4 0.000000 0.000000 0.000000
O O5 0.576502 0.299032 0.300468
O O6 0.933778 0.580239 0.500205
O O7 0.083189 0.162183 0.241741
O O8 0.500000 0.500000 0.500000
O O9 0.325226 0.897159 0.735604
O O10 0.619125 0.068929 0.807918
O O11 0.652176 0.197388 0.805521
O O12 0.531927 0.458267 0.028679
O O13 0.100684 0.303322 0.994966
O O14 0.489123 0.592541 0.251018
O O15 0.353252 0.746772 0.252809
O O16 0.920289 0.780474 0.293201
O O17 0.500000 0.000000 0.500000
O O18 0.296081 0.779367 0.999209
#
# Coordination Sequence:
#
# PCOD9006951 Si02
#       8
#     2   2   2   2   2   2   2   2
#     4  12  25  41  65  98 136 180 229 277 329 401
#     4  10  21  39  57  90 132 173 222 275 333 394
#     4   9  20  36  61  84 124 174 214 277 337 385
#     4  10  22  37  65 100 127 160 227 281 335 388
#     4  11  24  46  69  97 141 178 218 271 347 407
#     4  11  24  40  66  97 135 177 226 279 338 399
#     4  11  18  36  62  91 125 166 222 275 324 393
#     4  10  23  42  69  97 130 171 214 282 337 401
#
# _framework density 21.636084
#
# number of rings (size 3 to 8) (size 9 to 14) (size 15 to 20)
#    0.000    1.500    2.500    2.625    3.500    1.500 
#    2.250    2.500    0.000    0.000    0.000    0.000 
#    0.000    0.000    0.000    0.000    0.000    0.000 
#
# Total GULP energy -89201.962294 kJ/mol
# GULP energy per Si atom -5575.122643 kJ/mol
# Density = 2.158684 g / cm^3
# Si number density = 21.636084 Si / 1000 Ang^3
#
#
#
# Elastic Constant Matrix: (Units=GPa)
#
#
# Indices 1 2 3 4 5 6 
#
# 1 83.7662 20.2738 10.4938 1.1117 -3.3544 20.0106
# 2 20.2738 116.9059 18.7657 6.7890 -4.1191 19.3472
# 3 10.4938 18.7657 85.8282 14.5594 3.1326 -0.7258
# 4 1.1117 6.7890 14.5594 32.3728 12.4970 -0.7774
# 5 -3.3544 -4.1191 3.1326 12.4970 39.4444 -1.6763
# 6 20.0106 19.3472 -0.7258 -0.7774 -1.6763 26.7943
#
#
#
# Elastic Compliance Matrix: (Units=1/GPa)
#
#
# Indices 1 2 3 4 5 6 
#
# 1 0.014895 -0.000459 -0.001807 -0.000240 0.000980 -0.010787
# 2 -0.000459 0.010297 -0.001969 -0.002020 0.001530 -0.007108
# 3 -0.001807 -0.001969 0.013261 -0.005607 0.000491 0.002998
# 4 -0.000240 -0.002020 -0.005607 0.038482 -0.011899 0.001858
# 5 0.000980 0.001530 0.000491 -0.011899 0.029312 -0.000335
# 6 -0.010787 -0.007108 0.002998 0.001858 -0.000335 0.050624
#
#
# Mechanical properties :
#
#
# Convention : Reuss Voigt Hill
#
# Bulk Modulus (GPa) = 33.35220 42.84075 38.09647
# Shear Modulus (GPa) = 28.51692 35.52010 32.01851
#
# Velocity S-wave (km/s) = 3.63440 4.05619 3.85108
# Velocity P-wave (km/s) = 5.74982 6.46379 6.11723
#
# Compressibility (1/GPa) = 0.02998303
#
# Stress axis : x y z
#
# Youngs Moduli (GPa) = 67.13783 97.11425 75.40875
#
# Poissons Ratio (x) = 0.04462 0.13626
# Poissons Ratio (y) = 0.03085 0.14845
# Poissons Ratio (z) = 0.12132 0.19118
#
# Static dielectric constant tensor:
#      x y z
#    x 2.002600 -0.042080 0.064850 
#    y -0.042080 1.824090 -0.059810 
#    z 0.064850 -0.059810 1.876080 
# 
# From -- ./inp_files/367698.got.cif
#   From: 2010.05.17/outbox.cif.g08.bks.cpg/sg2_184_cif.got.tgz:367698.got - 2010.06.03 11:33:40.
