data_PCOD9006108
_publ_section_title
;
Structure prediction by ZEFSAII (Michael W. Deem and Ramdas Pophale) SiO2 
 PCOD9006108
Probable space group: P -1
;
_chemical_formula_sum "Si O2"
_cell_formula_units_Z 16
_cell_length_a 18.561113
_cell_length_b 12.082958
_cell_length_c 17.263995
_cell_angle_alpha 31.315119
_cell_angle_beta 158.209242
_cell_angle_gamma 151.013551
_cell_volume 677.186048
_symmetry_space_group_name_H-M "P -1"
_symmetry_group_IT_number 2
_symmetry_cell_setting 'triclinic'
loop_
_space_group_symop_operation_xyz
x,y,z
-x,-y,-z
loop_
_atom_site_type_symbol
_atom_site_label
_atom_site_fract_x
_atom_site_fract_y
_atom_site_fract_z
Si Si1 0.609734 0.020786 0.953635
Si Si2 0.143068 0.470610 0.091105
Si Si3 0.675931 0.506715 0.006967
Si Si4 0.011419 0.759444 0.297196
Si Si5 0.019744 0.092871 0.551927
Si Si6 0.271630 0.065088 0.509397
Si Si7 0.713697 0.362842 0.473636
Si Si8 0.944396 0.203931 0.904742
O O1 0.684427 0.274190 0.916503
O O2 0.502237 0.056877 0.744969
O O3 0.447027 0.766166 0.973977
O O4 0.828859 0.987563 0.195641
O O5 0.263148 0.306166 0.330751
O O6 0.980712 0.342396 0.937569
O O7 0.000000 0.500000 0.000000
O O8 0.507441 0.619955 0.769113
O O9 0.787698 0.542443 0.181940
O O10 0.863108 0.639615 0.053744
O O11 0.192302 0.702145 0.470568
O O12 0.094590 0.858392 0.405603
O O13 0.975680 0.970741 0.093176
O O14 0.124572 0.374641 0.492878
O O15 0.000000 0.000000 0.500000
O O16 0.797296 0.979705 0.442904
O O17 0.729512 0.185316 0.660091
#
# Coordination Sequence:
#
# PCOD9006108 Si02
#       8
#     2   2   2   2   2   2   2   2
#     4  11  24  42  65  97 127 167 224 257 325 387
#     4  11  23  45  65  91 135 174 214 270 324 387
#     4  10  22  40  66  98 129 169 216 269 316 384
#     4  10  23  42  63  97 134 170 212 264 326 381
#     4  11  24  41  64  94 130 172 215 269 323 378
#     4  11  24  43  67  92 132 174 212 270 324 383
#     4  10  21  38  64  97 126 168 216 263 318 379
#     4  10  22  41  66  93 131 172 214 269 323 377
#
# _framework density 23.627185000000001
#
# number of rings (size 3 to 8) (size 9 to 14) (size 15 to 20)
#    0.000    1.500    1.250    4.125    0.000    8.000 
#    4.500    2.500    0.000    0.000    0.000    0.000 
#    0.000    0.000    0.000    0.000    0.000    0.000 
#
# Total GULP energy -89367.341702 kJ/mol
# GULP energy per Si atom -5585.458856 kJ/mol
# Density = 2.357341 g / cm^3
# Si number density = 23.627185 Si / 1000 Ang^3
#
#
#
# Elastic Constant Matrix: (Units=GPa)
#
#
# Indices 1 2 3 4 5 6 
#
# 1 78.2582 46.0942 34.3948 3.0889 -2.6085 -37.2792
# 2 46.0942 109.3557 23.8162 -15.2923 -3.5305 -9.9375
# 3 34.3948 23.8162 191.9135 -15.6355 12.5430 -3.5542
# 4 3.0889 -15.2923 -15.6355 39.9816 7.0460 -3.8555
# 5 -2.6085 -3.5305 12.5430 7.0460 13.5152 0.5126
# 6 -37.2792 -9.9375 -3.5542 -3.8555 0.5126 33.7036
#
#
#
# Elastic Compliance Matrix: (Units=1/GPa)
#
#
# Indices 1 2 3 4 5 6 
#
# 1 0.049015 -0.015669 -0.007994 -0.011334 0.016905 0.047198
# 2 -0.015669 0.015223 0.001528 0.007152 -0.003747 -0.011807
# 3 -0.007994 0.001528 0.007452 0.005320 -0.010574 -0.006836
# 4 -0.011334 0.007152 0.005320 0.034193 -0.022870 -0.005607
# 5 0.016905 -0.003747 -0.010574 -0.022870 0.097542 0.012378
# 6 0.047198 -0.011807 -0.006836 -0.005607 0.012378 0.076844
#
#
# Mechanical properties :
#
#
# Convention : Reuss Voigt Hill
#
# Bulk Modulus (GPa) = 36.47127 65.34862 50.90995
# Shear Modulus (GPa) = 14.98445 35.78823 25.38634
#
# Velocity S-wave (km/s) = 2.52107 3.89614 3.28144
# Velocity P-wave (km/s) = 4.89327 6.92519 5.99593
#
# Compressibility (1/GPa) = 0.02741884
#
# Stress axis : x y z
#
# Youngs Moduli (GPa) = 20.40180 65.69138 134.19800
#
# Poissons Ratio (x) = 1.02934 1.07279
# Poissons Ratio (y) = 0.31968 -0.20507
# Poissons Ratio (z) = 0.16309 -0.10038
#
# Static dielectric constant tensor:
#      x y z
#    x 1.879760 0.021140 -0.016460 
#    y 0.021140 1.932760 0.008510 
#    z -0.016460 0.008510 1.934480 
# 
# From -- ./inp_files/577942.got.cif
#   From: 2010.05.17/outbox.cif.g08.bks.cpg/sg2_289_cif.got.tgz:577942.got - 2010.06.03 11:33:40.
