data_PCOD9006034
_publ_section_title
;
Structure prediction by ZEFSAII (Michael W. Deem and Ramdas Pophale) SiO2 
 PCOD9006034
Probable space group: P -1
;
_chemical_formula_sum "Si O2"
_cell_formula_units_Z 16
_cell_length_a 10.748206
_cell_length_b 17.273411
_cell_length_c 23.415283
_cell_angle_alpha 157.965755
_cell_angle_beta 31.541260
_cell_angle_gamma 149.049034
_cell_volume 800.950275
_symmetry_space_group_name_H-M "P -1"
_symmetry_group_IT_number 2
_symmetry_cell_setting 'triclinic'
loop_
_space_group_symop_operation_xyz
x,y,z
-x,-y,-z
loop_
_atom_site_type_symbol
_atom_site_label
_atom_site_fract_x
_atom_site_fract_y
_atom_site_fract_z
Si Si1 0.712420 0.969762 0.108004
Si Si2 0.710867 0.384668 0.329606
Si Si3 0.763379 0.211262 0.609764
Si Si4 0.528400 0.671238 0.869303
Si Si5 0.990799 0.611294 0.983972
Si Si6 0.427203 0.701812 0.139110
Si Si7 0.361062 0.251744 0.703706
Si Si8 0.741830 0.079185 0.000920
O O1 0.642500 0.864143 0.125649
O O2 0.684387 0.204894 0.266994
O O3 0.539950 0.794659 0.009728
O O4 0.000000 0.000000 0.000000
O O5 0.500000 0.500000 0.500000
O O6 0.700767 0.241637 0.177283
O O7 0.983370 0.579027 0.354089
O O8 0.661641 0.191030 0.699734
O O9 0.543642 0.235329 0.671834
O O10 0.787238 0.982270 0.425335
O O11 0.264396 0.622523 0.906027
O O12 0.538551 0.433087 0.715309
O O13 0.745034 0.855141 0.875165
O O14 0.031901 0.793756 0.042651
O O15 0.814408 0.393574 0.873289
O O16 0.844255 0.659480 0.127705
O O17 0.500000 0.500000 0.000000
O O18 0.500000 0.000000 0.000000
#
# Coordination Sequence:
#
# PCOD9006034 Si02
#       8
#     2   2   2   2   2   2   2   2
#     4  11  24  41  71  98 127 173 222 266 323 396
#     4  11  24  42  64  95 137 170 211 271 332 386
#     4  11  25  42  61  93 131 170 211 261 333 384
#     4  10  21  38  64  93 122 162 216 262 314 379
#     4  11  21  38  67  93 121 165 218 265 311 376
#     4  12  22  41  66  95 129 168 223 274 315 383
#     4  11  23  41  64  89 127 171 210 265 324 386
#     4   9  21  38  61  93 122 165 208 259 317 379
#
# _framework density 19.976272000000002
#
# number of rings (size 3 to 8) (size 9 to 14) (size 15 to 20)
#    0.000    1.250    3.750    1.875    7.000    0.000 
#    4.500    1.250    0.000    3.750    0.000    0.000 
#    0.000    0.000    0.000    0.000    0.000    0.000 
#
# Total GULP energy -89266.137873 kJ/mol
# GULP energy per Si atom -5579.133617 kJ/mol
# Density = 1.993081 g / cm^3
# Si number density = 19.976272 Si / 1000 Ang^3
#
#
#
# Elastic Constant Matrix: (Units=GPa)
#
#
# Indices 1 2 3 4 5 6 
#
# 1 87.2608 41.6008 34.6843 7.6806 16.3809 -1.8743
# 2 41.6008 142.2999 27.2226 16.2132 8.2555 -16.4976
# 3 34.6843 27.2226 55.2432 18.6277 7.2642 6.6260
# 4 7.6806 16.2132 18.6277 30.8547 2.2831 -1.9697
# 5 16.3809 8.2555 7.2642 2.2831 30.1412 9.1623
# 6 -1.8743 -16.4976 6.6260 -1.9697 9.1623 42.8016
#
#
#
# Elastic Compliance Matrix: (Units=1/GPa)
#
#
# Indices 1 2 3 4 5 6 
#
# 1 0.018356 -0.002946 -0.010892 0.004343 -0.007857 0.003236
# 2 -0.002946 0.009098 -0.002098 -0.002430 -0.001382 0.003887
# 3 -0.010892 -0.002098 0.032022 -0.016164 0.002273 -0.007473
# 4 0.004343 -0.002430 -0.016164 0.042806 -0.002325 0.004223
# 5 -0.007857 -0.001382 0.002273 -0.002325 0.040495 -0.010004
# 6 0.003236 0.003887 -0.007473 0.004223 -0.010004 0.028496
#
#
# Mechanical properties :
#
#
# Convention : Reuss Voigt Hill
#
# Bulk Modulus (GPa) = 36.22891 54.64657 45.43774
# Shear Modulus (GPa) = 23.54616 32.84591 28.19604
#
# Velocity S-wave (km/s) = 3.43695 4.05933 3.76104
# Velocity P-wave (km/s) = 5.82456 7.02752 6.45413
#
# Compressibility (1/GPa) = 0.02760227
#
# Stress axis : x y z
#
# Youngs Moduli (GPa) = 54.47753 109.91592 31.22808
#
# Poissons Ratio (x) = 0.32386 0.34015
# Poissons Ratio (y) = 0.16051 0.06553
# Poissons Ratio (z) = 0.59339 0.23064
#
# Static dielectric constant tensor:
#      x y z
#    x 1.738020 -0.028960 -0.015110 
#    y -0.028960 1.731030 0.029820 
#    z -0.015110 0.029820 1.678620 
# 
# From -- ./inp_files/415302.got.cif
#   From: 2010.05.17/outbox.cif.g08.bks.cpg/sg2_208_cif.got.tgz:415302.got - 2010.06.03 11:33:40.
