data_PCOD9006899
_publ_section_title
;
Structure prediction by ZEFSAII (Michael W. Deem and Ramdas Pophale) SiO2 
 PCOD9006899
Probable space group: P -1
;
_chemical_formula_sum "Si O2"
_cell_formula_units_Z 16
_cell_length_a 12.066367
_cell_length_b 11.049670
_cell_length_c 8.554421
_cell_angle_alpha 98.800141
_cell_angle_beta 36.041982
_cell_angle_gamma 100.827349
_cell_volume 659.129770
_symmetry_space_group_name_H-M "P -1"
_symmetry_group_IT_number 2
_symmetry_cell_setting 'triclinic'
loop_
_space_group_symop_operation_xyz
x,y,z
-x,-y,-z
loop_
_atom_site_type_symbol
_atom_site_label
_atom_site_fract_x
_atom_site_fract_y
_atom_site_fract_z
Si Si1 0.579582 0.643435 0.967120
Si Si2 0.318963 0.374231 0.616630
Si Si3 0.362334 0.706298 0.938780
Si Si4 0.056263 0.056375 0.197911
Si Si5 0.138872 0.444628 0.161618
Si Si6 0.258491 0.622338 0.554443
Si Si7 0.711421 0.031453 0.827659
Si Si8 0.016742 0.809100 0.002107
O O1 0.439082 0.684463 0.268125
O O2 0.500000 0.500000 0.000000
O O3 0.529016 0.709611 0.880830
O O4 0.787602 0.633401 0.794666
O O5 0.520485 0.324999 0.354303
O O6 0.307077 0.496940 0.554075
O O7 0.257058 0.407526 0.867703
O O8 0.158664 0.267058 0.727786
O O9 0.207928 0.590186 0.128142
O O10 0.279303 0.835033 0.072548
O O11 0.222274 0.064456 0.139291
O O12 0.862099 0.041394 0.516174
O O13 0.074718 0.934092 0.051005
O O14 0.045704 0.158659 0.097234
O O15 0.918599 0.417555 0.367914
O O16 0.175122 0.717330 0.784673
O O17 0.500000 0.000000 0.000000
#
# Coordination Sequence:
#
# PCOD9006899 Si02
#       8
#     2   2   2   2   2   2   2   2
#     4  10  21  39  54  89 131 161 202 246 295 378
#     4  11  22  39  63  98 130 157 206 253 306 388
#     4  11  23  40  63  91 128 166 202 256 316 369
#     4  10  24  47  67  91 125 163 220 266 306 365
#     4  10  22  37  60  89 127 166 199 243 312 371
#     4  11  22  38  65  95 129 160 206 250 312 379
#     4  11  25  44  67  93 121 166 217 263 315 365
#     4  10  22  42  68  94 124 168 210 262 314 363
#
# _framework density 24.274432000000001
#
# number of rings (size 3 to 8) (size 9 to 14) (size 15 to 20)
#    0.000    1.500    2.500    3.375    3.500    4.000 
#    0.000    5.625    0.000    0.000    0.000    0.000 
#    0.000    0.000    0.000    0.000    0.000    0.000 
#
# Total GULP energy -89582.322759 kJ/mol
# GULP energy per Si atom -5598.895172 kJ/mol
# Density = 2.421918 g / cm^3
# Si number density = 24.274432 Si / 1000 Ang^3
#
#
#
# Elastic Constant Matrix: (Units=GPa)
#
#
# Indices 1 2 3 4 5 6 
#
# 1 133.7223 21.4751 36.7780 -0.1101 -20.5137 -19.6793
# 2 21.4751 79.6097 16.5321 5.0774 -4.1634 -8.6702
# 3 36.7780 16.5321 117.1402 3.8027 -6.0638 -9.2394
# 4 -0.1101 5.0774 3.8027 21.8354 -4.7819 -0.2786
# 5 -20.5137 -4.1634 -6.0638 -4.7819 36.8052 -4.2818
# 6 -19.6793 -8.6702 -9.2394 -0.2786 -4.2818 35.4371
#
#
#
# Elastic Compliance Matrix: (Units=1/GPa)
#
#
# Indices 1 2 3 4 5 6 
#
# 1 0.010050 -0.001479 -0.002285 0.002167 0.005963 0.005361
# 2 -0.001479 0.013652 -0.001171 -0.002858 0.000416 0.002241
# 3 -0.002285 -0.001171 0.009543 -0.001368 0.000097 0.000933
# 4 0.002167 -0.002858 -0.001368 0.048282 0.007093 0.001384
# 5 0.005963 0.000416 0.000097 0.007093 0.032339 0.007402
# 6 0.005361 0.002241 0.000933 0.001384 0.007402 0.032893
#
#
# Mechanical properties :
#
#
# Convention : Reuss Voigt Hill
#
# Bulk Modulus (GPa) = 42.78462 53.33806 48.06134
# Shear Modulus (GPa) = 30.41002 35.86136 33.13569
#
# Velocity S-wave (km/s) = 3.54327 3.84778 3.69866
# Velocity P-wave (km/s) = 5.86544 6.46229 6.17108
#
# Compressibility (1/GPa) = 0.02337289
#
# Stress axis : x y z
#
# Youngs Moduli (GPa) = 99.50621 73.25142 104.79287
#
# Poissons Ratio (x) = 0.10833 0.23949
# Poissons Ratio (y) = 0.14716 0.12274
# Poissons Ratio (z) = 0.22741 0.08579
#
# Static dielectric constant tensor:
#      x y z
#    x 2.003900 0.042220 0.043540 
#    y 0.042220 1.914250 0.021740 
#    z 0.043540 0.021740 1.906500 
# 
# From -- ./inp_files/258794.got.cif
#   From: 2010.05.17/outbox.cif.g08.bks.cpg/sg2_130_cif.got.tgz:258794.got - 2010.06.03 11:33:40.
