data_PCOD9006302
_publ_section_title
;
Structure prediction by ZEFSAII (Michael W. Deem and Ramdas Pophale) SiO2 
 PCOD9006302
Probable space group: P -1
;
_chemical_formula_sum "Si O2"
_cell_formula_units_Z 16
_cell_length_a 11.699902
_cell_length_b 9.386695
_cell_length_c 15.388645
_cell_angle_alpha 133.517522
_cell_angle_beta 109.125755
_cell_angle_gamma 40.441524
_cell_volume 722.363210
_symmetry_space_group_name_H-M "P -1"
_symmetry_group_IT_number 2
_symmetry_cell_setting 'triclinic'
loop_
_space_group_symop_operation_xyz
x,y,z
-x,-y,-z
loop_
_atom_site_type_symbol
_atom_site_label
_atom_site_fract_x
_atom_site_fract_y
_atom_site_fract_z
Si Si1 0.515615 0.739527 0.988312
Si Si2 0.106638 0.737281 0.543567
Si Si3 0.235791 0.550140 0.230501
Si Si4 0.646799 0.335304 0.547149
Si Si5 0.545940 0.726396 0.426340
Si Si6 0.815111 0.699615 0.754382
Si Si7 0.757810 0.226291 0.126310
Si Si8 0.159799 0.876942 0.090152
O O1 0.651565 0.661506 0.916042
O O2 0.330186 0.877673 0.952500
O O3 0.654768 0.394969 0.918019
O O4 0.415862 0.980751 0.145124
O O5 0.167498 0.821135 0.521639
O O6 0.267995 0.521936 0.568128
O O7 0.123405 0.510279 0.400848
O O8 0.905309 0.085331 0.671937
O O9 0.383508 0.459389 0.300439
O O10 0.129620 0.503330 0.232708
O O11 0.500000 0.500000 0.500000
O O12 0.632421 0.149208 0.515641
O O13 0.602913 0.533225 0.274602
O O14 0.500000 0.000000 0.500000
O O15 0.886589 0.832032 0.811477
O O16 0.781064 0.275131 0.054589
O O17 0.971340 0.992542 0.120407
#
# Coordination Sequence:
#
# PCOD9006302 Si02
#       8
#     2   2   2   2   2   2   2   2
#     4  11  22  40  70  90 130 168 210 268 319 375
#     4  10  23  39  64  91 127 168 207 260 324 375
#     4  11  21  40  65  92 126 166 213 266 308 382
#     4   9  19  38  56  85 121 167 194 251 317 368
#     4  11  23  36  62  91 125 161 213 263 309 382
#     4  10  21  38  65  94 122 167 218 251 323 379
#     4  10  21  41  60  91 127 164 209 253 329 363
#     4  10  23  40  67  89 128 170 207 269 315 384
#
# _framework density 22.149519999999999
#
# number of rings (size 3 to 8) (size 9 to 14) (size 15 to 20)
#    0.000    1.750    1.250    4.125    3.500    2.000 
#    0.000    1.875    8.250   10.500    0.000    0.000 
#    0.000    0.000    0.000    0.000    0.000    0.000 
#
# Total GULP energy -89092.823560 kJ/mol
# GULP energy per Si atom -5568.301472 kJ/mol
# Density = 2.209911 g / cm^3
# Si number density = 22.149520 Si / 1000 Ang^3
#
#
#
# Elastic Constant Matrix: (Units=GPa)
#
#
# Indices 1 2 3 4 5 6 
#
# 1 76.2178 41.4441 18.5599 7.0574 12.4818 7.0179
# 2 41.4441 84.3183 40.2414 10.3020 16.7265 0.8500
# 3 18.5599 40.2414 100.6420 12.2914 2.3122 4.5882
# 4 7.0574 10.3020 12.2914 29.5961 5.3631 2.4609
# 5 12.4818 16.7265 2.3122 5.3631 33.5048 1.4755
# 6 7.0179 0.8500 4.5882 2.4609 1.4755 31.8708
#
#
#
# Elastic Compliance Matrix: (Units=1/GPa)
#
#
# Indices 1 2 3 4 5 6 
#
# 1 0.018561 -0.008713 0.000385 -0.000826 -0.002295 -0.003740
# 2 -0.008713 0.020665 -0.006449 -0.001483 -0.006508 0.002712
# 3 0.000385 -0.006449 0.012890 -0.003578 0.002831 -0.001623
# 4 -0.000826 -0.001483 -0.003578 0.036969 -0.004538 -0.001908
# 5 -0.002295 -0.006508 0.002831 -0.004538 0.034524 -0.000977
# 6 -0.003740 0.002712 -0.001623 -0.001908 -0.000977 0.032554
#
#
# Mechanical properties :
#
#
# Convention : Reuss Voigt Hill
#
# Bulk Modulus (GPa) = 44.32241 51.29655 47.80948
# Shear Modulus (GPa) = 25.87493 29.72319 27.79906
#
# Velocity S-wave (km/s) = 3.42159 3.66722 3.54653
# Velocity P-wave (km/s) = 5.97191 6.41411 6.19696
#
# Compressibility (1/GPa) = 0.02256195
#
# Stress axis : x y z
#
# Youngs Moduli (GPa) = 53.87657 48.39079 77.58082
#
# Poissons Ratio (x) = 0.42163 -0.02988
# Poissons Ratio (y) = 0.46943 0.50032
# Poissons Ratio (z) = -0.02075 0.31207
#
# Static dielectric constant tensor:
#      x y z
#    x 1.867790 -0.020920 -0.007980 
#    y -0.020920 1.842380 0.004870 
#    z -0.007980 0.004870 1.879590 
# 
# From -- ./inp_files/516268.got.cif
#   From: 2010.05.17/outbox.cif.g08.bks.cpg/sg2_259_cif.got.tgz:516268.got - 2010.06.03 11:33:40.
