data_PCOD9006092
_publ_section_title
;
Structure prediction by ZEFSAII (Michael W. Deem and Ramdas Pophale) SiO2 
 PCOD9006092
Probable space group: P -1
;
_chemical_formula_sum "Si O2"
_cell_formula_units_Z 14
_cell_length_a 10.434146
_cell_length_b 10.257134
_cell_length_c 13.536442
_cell_angle_alpha 52.132931
_cell_angle_beta 42.801536
_cell_angle_gamma 82.216450
_cell_volume 629.032697
_symmetry_space_group_name_H-M "P -1"
_symmetry_group_IT_number 2
_symmetry_cell_setting 'triclinic'
loop_
_space_group_symop_operation_xyz
x,y,z
-x,-y,-z
loop_
_atom_site_type_symbol
_atom_site_label
_atom_site_fract_x
_atom_site_fract_y
_atom_site_fract_z
Si Si1 0.828905 0.670429 0.950366
Si Si2 0.697806 0.473925 0.319273
Si Si3 0.271915 0.140842 0.811730
Si Si4 0.465343 0.160946 0.893818
Si Si5 0.622469 0.392415 0.007585
Si Si6 0.172612 0.955958 0.472713
Si Si7 0.909568 0.423847 0.411539
O O1 0.817670 0.553097 0.108902
O O2 0.678224 0.764602 0.004759
O O3 0.740473 0.504930 0.990910
O O4 0.076219 0.857565 0.680802
O O5 0.465696 0.239173 0.568506
O O6 0.656253 0.645808 0.282333
O O7 0.858374 0.505974 0.305373
O O8 0.331746 0.060003 0.910642
O O9 0.000000 0.000000 0.000000
O O10 0.723215 0.367059 0.627305
O O11 0.500000 0.000000 0.000000
O O12 0.429268 0.156674 0.239449
O O13 0.500000 0.500000 0.000000
O O14 0.814284 0.438498 0.796841
O O15 0.157912 0.794027 0.483926
O O16 0.000000 0.000000 0.500000
#
# Coordination Sequence:
#
# PCOD9006092 Si02
#       7
#     2   2   2   2   2   2   2
#     4  10  22  40  63  87 124 160 201 254 302 367
#     4   9  20  39  58  86 124 160 206 246 310 352
#     4   9  19  38  60  86 129 171 195 246 314 372
#     4  10  21  38  64  96 125 156 202 261 308 354
#     4  11  23  40  62  86 120 167 200 241 316 371
#     4  11  21  40  60  82 122 161 200 247 310 361
#     4  10  22  40  63  87 124 160 201 254 302 367
#
# _framework density 22.256397
#
# number of rings (size 3 to 8) (size 9 to 14) (size 15 to 20)
#    0.000    2.000    2.857    1.714    0.000    6.857 
#    0.000    3.571    0.000    0.000    0.000    0.000 
#    0.000    0.000    0.000    0.000    0.000    0.000 
#
# Total GULP energy -78028.328480 kJ/mol
# GULP energy per Si atom -5573.452034 kJ/mol
# Density = 2.220574 g / cm^3
# Si number density = 22.256397 Si / 1000 Ang^3
#
#
#
# Elastic Constant Matrix: (Units=GPa)
#
#
# Indices 1 2 3 4 5 6 
#
# 1 88.5362 -8.9367 40.0897 -4.4185 15.7235 -13.0583
# 2 -8.9367 59.1213 19.3105 1.4746 -2.1611 -9.9675
# 3 40.0897 19.3105 192.3559 1.3787 -18.6515 11.8689
# 4 -4.4185 1.4746 1.3787 33.4422 -5.6788 0.0030
# 5 15.7235 -2.1611 -18.6515 -5.6788 41.2727 2.1649
# 6 -13.0583 -9.9675 11.8689 0.0030 2.1649 26.7469
#
#
#
# Elastic Compliance Matrix: (Units=1/GPa)
#
#
# Indices 1 2 3 4 5 6 
#
# 1 0.019571 0.007550 -0.006910 0.000677 -0.010946 0.016320
# 2 0.007550 0.022034 -0.005156 -0.000595 -0.004899 0.014582
# 3 -0.006910 -0.005156 0.008392 0.000102 0.006670 -0.009559
# 4 0.000677 -0.000595 0.000102 0.030692 0.003994 -0.000263
# 5 -0.010946 -0.004899 0.006670 0.003994 0.032375 -0.012751
# 6 0.016320 0.014582 -0.009559 -0.000263 -0.012751 0.056063
#
#
# Mechanical properties :
#
#
# Convention : Reuss Voigt Hill
#
# Bulk Modulus (GPa) = 24.41145 48.99338 36.70241
# Shear Modulus (GPa) = 26.06689 39.59569 32.83129
#
# Velocity S-wave (km/s) = 3.42601 4.22248 3.84492
# Velocity P-wave (km/s) = 5.16160 6.77004 6.01978
#
# Compressibility (1/GPa) = 0.04096439
#
# Stress axis : x y z
#
# Youngs Moduli (GPa) = 51.09717 45.38486 119.15692
#
# Poissons Ratio (x) = -0.34264 0.82336
# Poissons Ratio (y) = -0.38577 0.61437
# Poissons Ratio (z) = 0.35308 0.23400
#
# Static dielectric constant tensor:
#      x y z
#    x 1.991720 -0.096960 0.014240 
#    y -0.096960 1.913710 0.071160 
#    z 0.014240 0.071160 1.945740 
# 
# From -- ./inp_files/517666.got.cif
#   From: 2010.05.17/outbox.cif.g08.bks.cpg/sg2_259_cif.got.tgz:517666.got - 2010.06.03 11:33:40.
