data_PCOD9006667
_publ_section_title
;
Structure prediction by ZEFSAII (Michael W. Deem and Ramdas Pophale) SiO2 
 PCOD9006667
Probable space group: P -1
;
_chemical_formula_sum "Si O2"
_cell_formula_units_Z 14
_cell_length_a 24.567526
_cell_length_b 15.251121
_cell_length_c 8.275297
_cell_angle_alpha 37.958194
_cell_angle_beta 148.356298
_cell_angle_gamma 160.660668
_cell_volume 536.731644
_symmetry_space_group_name_H-M "P -1"
_symmetry_group_IT_number 2
_symmetry_cell_setting 'triclinic'
loop_
_space_group_symop_operation_xyz
x,y,z
-x,-y,-z
loop_
_atom_site_type_symbol
_atom_site_label
_atom_site_fract_x
_atom_site_fract_y
_atom_site_fract_z
Si Si1 0.613009 0.759075 0.820135
Si Si2 0.636007 0.790658 0.467312
Si Si3 0.779829 0.449350 0.602404
Si Si4 0.675870 0.067155 0.752124
Si Si5 0.048591 0.946408 0.344511
Si Si6 0.623051 0.235194 0.095246
Si Si7 0.197312 0.390108 0.240538
O O1 0.707549 0.844084 0.757696
O O2 0.733112 0.986691 0.926247
O O3 0.429245 0.641935 0.476947
O O4 0.500000 0.500000 0.000000
O O5 0.500000 0.500000 0.500000
O O6 0.511814 0.790775 0.149396
O O7 0.792233 0.968965 0.460540
O O8 0.548381 0.211248 0.359287
O O9 0.861186 0.602175 0.754963
O O10 0.880489 0.658104 0.414647
O O11 0.794894 0.294790 0.854349
O O12 0.675989 0.186622 0.438431
O O13 0.120532 0.142798 0.376263
O O14 0.000000 0.000000 0.000000
O O15 0.811769 0.519078 0.070303
O O16 0.500000 0.000000 0.000000
#
# Coordination Sequence:
#
# PCOD9006667 Si02
#       7
#     2   2   2   2   2   2   2
#     4  10  21  38  67  97 128 163 223 272 320 391
#     4  11  23  40  67  99 126 171 223 268 327 390
#     4  10  22  38  63  92 130 170 219 255 327 389
#     4  10  21  40  68  95 123 176 222 265 332 394
#     4  12  25  42  64  98 139 173 218 271 331 390
#     4  11  18  40  70  93 125 169 222 272 318 389
#     4  10  21  41  64  99 125 174 219 268 328 385
#
# _framework density 26.083798999999999
#
# number of rings (size 3 to 8) (size 9 to 14) (size 15 to 20)
#    0.000    1.429    7.143    1.286    4.000    1.143 
#    0.000    1.429    0.000    0.000    0.000    0.000 
#    0.000    0.000    0.000    0.000    0.000    0.000 
#
# Total GULP energy -78334.561698 kJ/mol
# GULP energy per Si atom -5595.325836 kJ/mol
# Density = 2.602443 g / cm^3
# Si number density = 26.083799 Si / 1000 Ang^3
#
#
#
# Elastic Constant Matrix: (Units=GPa)
#
#
# Indices 1 2 3 4 5 6 
#
# 1 214.0617 98.7329 49.3279 -32.0775 -4.4976 -22.8773
# 2 98.7329 155.4038 36.4860 -53.0417 6.8185 -1.0753
# 3 49.3279 36.4860 85.6455 -39.1060 -1.3488 2.2405
# 4 -32.0775 -53.0417 -39.1060 52.2397 3.7780 0.5003
# 5 -4.4976 6.8185 -1.3488 3.7780 47.9348 -16.3956
# 6 -22.8773 -1.0753 2.2405 0.5003 -16.3956 68.9110
#
#
#
# Elastic Compliance Matrix: (Units=1/GPa)
#
#
# Indices 1 2 3 4 5 6 
#
# 1 0.008054 -0.005671 -0.004179 -0.004188 0.002957 0.003455
# 2 -0.005671 0.014118 0.003610 0.013912 -0.004549 -0.002963
# 3 -0.004179 0.003610 0.020015 0.016293 -0.002553 -0.002707
# 4 -0.004188 0.013912 0.016293 0.043402 -0.006558 -0.003578
# 5 0.002957 -0.004549 -0.002553 -0.006558 0.024588 0.006891
# 6 0.003455 -0.002963 -0.002707 -0.003578 0.006891 0.017366
#
#
# Mechanical properties :
#
#
# Convention : Reuss Voigt Hill
#
# Bulk Modulus (GPa) = 33.66175 91.57830 62.62002
# Shear Modulus (GPa) = 33.35015 51.85470 42.60243
#
# Velocity S-wave (km/s) = 3.57960 4.46354 4.04578
# Velocity P-wave (km/s) = 5.47886 7.85810 6.77376
#
# Compressibility (1/GPa) = 0.02970731
#
# Stress axis : x y z
#
# Youngs Moduli (GPa) = 124.16223 70.83328 49.96275
#
# Poissons Ratio (x) = 0.40169 0.20878
# Poissons Ratio (y) = 0.70412 -0.18037
# Poissons Ratio (z) = 0.51884 -0.25571
#
# Static dielectric constant tensor:
#      x y z
#    x 2.308400 -0.144360 -0.036620 
#    y -0.144360 2.135790 0.047520 
#    z -0.036620 0.047520 2.206430 
# 
# From -- ./inp_files/277898.got.cif
#   From: 2010.05.17/outbox.cif.g08.bks.cpg/sg2_139_cif.got.tgz:277898.got - 2010.06.03 11:33:40.
