data_PCOD9006643
_publ_section_title
;
Structure prediction by ZEFSAII (Michael W. Deem and Ramdas Pophale) SiO2 
 PCOD9006643
Probable space group: P -1
;
_chemical_formula_sum "Si O2"
_cell_formula_units_Z 16
_cell_length_a 9.683907
_cell_length_b 11.908755
_cell_length_c 11.865644
_cell_angle_alpha 49.934836
_cell_angle_beta 70.023929
_cell_angle_gamma 48.272836
_cell_volume 772.507081
_symmetry_space_group_name_H-M "P -1"
_symmetry_group_IT_number 2
_symmetry_cell_setting 'triclinic'
loop_
_space_group_symop_operation_xyz
x,y,z
-x,-y,-z
loop_
_atom_site_type_symbol
_atom_site_label
_atom_site_fract_x
_atom_site_fract_y
_atom_site_fract_z
Si Si1 0.379451 0.462499 0.672921
Si Si2 0.613314 0.954120 0.805822
Si Si3 0.547738 0.225096 0.135287
Si Si4 0.940107 0.879947 0.141750
Si Si5 0.768361 0.282785 0.659854
Si Si6 0.747264 0.758231 0.138268
Si Si7 0.046668 0.051249 0.336163
Si Si8 0.644461 0.385045 0.193966
O O1 0.597154 0.280647 0.742023
O O2 0.326007 0.545459 0.509867
O O3 0.231263 0.428761 0.766676
O O4 0.379483 0.594625 0.677619
O O5 0.582538 0.835676 0.807501
O O6 0.763996 0.970773 0.700086
O O7 0.411796 0.141390 0.782592
O O8 0.686772 0.852965 0.971992
O O9 0.571857 0.287735 0.209535
O O10 0.749140 0.039981 0.157229
O O11 0.463621 0.407379 0.961645
O O12 0.898427 0.778949 0.128546
O O13 0.116007 0.720007 0.270284
O O14 0.000000 0.000000 0.000000
O O15 0.915453 0.099272 0.666842
O O16 0.869606 0.251228 0.208657
O O17 0.000000 0.000000 0.500000
#
# Coordination Sequence:
#
# PCOD9006643 Si02
#       8
#     2   2   2   2   2   2   2   2
#     4  11  22  42  65  93 125 167 211 255 316 378
#     4  10  21  40  63  96 124 166 213 255 317 373
#     4  10  22  39  63  89 129 164 203 266 313 373
#     4  11  22  38  64  97 126 163 211 262 316 372
#     4  11  23  40  66  90 127 170 211 253 312 385
#     4  10  21  38  67  94 126 161 212 268 307 368
#     4  12  23  41  65  91 128 172 211 255 315 385
#     4  11  22  39  62  94 127 162 209 256 322 372
#
# _framework density 20.711783
#
# number of rings (size 3 to 8) (size 9 to 14) (size 15 to 20)
#    0.000    1.250    5.000    1.500    1.750    1.000 
#    0.000    0.625    5.500    0.000    0.000    0.000 
#    0.000    0.000    0.000    0.000    0.000    0.000 
#
# Total GULP energy -89159.770723 kJ/mol
# GULP energy per Si atom -5572.485670 kJ/mol
# Density = 2.066464 g / cm^3
# Si number density = 20.711783 Si / 1000 Ang^3
#
#
#
# Elastic Constant Matrix: (Units=GPa)
#
#
# Indices 1 2 3 4 5 6 
#
# 1 164.9624 25.9369 47.6976 8.6264 4.3445 21.3264
# 2 25.9369 47.7360 8.3311 5.3449 6.4785 6.4264
# 3 47.6976 8.3311 59.6227 2.7072 1.3506 -1.8711
# 4 8.6264 5.3449 2.7072 24.7520 -8.8742 5.8308
# 5 4.3445 6.4785 1.3506 -8.8742 34.4083 -0.1779
# 6 21.3264 6.4264 -1.8711 5.8308 -0.1779 37.5765
#
#
#
# Elastic Compliance Matrix: (Units=1/GPa)
#
#
# Indices 1 2 3 4 5 6 
#
# 1 0.009293 -0.002959 -0.007126 -0.000853 -0.000582 -0.004993
# 2 -0.002959 0.024317 -0.000691 -0.005794 -0.005681 -0.001642
# 3 -0.007126 -0.000691 0.022799 -0.001206 -0.000148 0.005484
# 4 -0.000853 -0.005794 -0.001206 0.048414 0.013701 -0.006033
# 5 -0.000582 -0.005681 -0.000148 0.013701 0.033742 -0.000672
# 6 -0.004993 -0.001642 0.005484 -0.006033 -0.000672 0.030933
#
#
# Mechanical properties :
#
#
# Convention : Reuss Voigt Hill
#
# Bulk Modulus (GPa) = 28.68653 48.47248 38.57950
# Shear Modulus (GPa) = 24.67073 32.03773 28.35423
#
# Velocity S-wave (km/s) = 3.45504 3.93725 3.70400
# Velocity P-wave (km/s) = 5.45865 6.64254 6.07948
#
# Compressibility (1/GPa) = 0.03485957
#
# Stress axis : x y z
#
# Youngs Moduli (GPa) = 107.60738 41.12271 43.86096
#
# Poissons Ratio (x) = 0.12168 0.31254
# Poissons Ratio (y) = 0.31840 0.03029
# Poissons Ratio (z) = 0.76678 0.02840
#
# Static dielectric constant tensor:
#      x y z
#    x 1.786050 -0.006070 0.007580 
#    y -0.006070 1.842030 -0.013850 
#    z 0.007580 -0.013850 1.779010 
# 
# From -- ./inp_files/216518.got.cif
#   From: 2010.05.17/outbox.cif.g08.bks.cpg/sg2_109_cif.got.tgz:216518.got - 2010.06.03 11:33:40.
