data_PCOD9006150
_publ_section_title
;
Structure prediction by ZEFSAII (Michael W. Deem and Ramdas Pophale) SiO2 
 PCOD9006150
Probable space group: P -1
;
_chemical_formula_sum "Si O2"
_cell_formula_units_Z 12
_cell_length_a 12.314297
_cell_length_b 11.462830
_cell_length_c 5.551486
_cell_angle_alpha 83.333011
_cell_angle_beta 107.812939
_cell_angle_gamma 126.549866
_cell_volume 597.099979
_symmetry_space_group_name_H-M "P -1"
_symmetry_group_IT_number 2
_symmetry_cell_setting 'triclinic'
loop_
_space_group_symop_operation_xyz
x,y,z
-x,-y,-z
loop_
_atom_site_type_symbol
_atom_site_label
_atom_site_fract_x
_atom_site_fract_y
_atom_site_fract_z
Si Si1 0.329155 0.768548 0.991404
Si Si2 0.182033 0.071542 0.346369
Si Si3 0.163300 0.465025 0.698155
Si Si4 0.398364 0.003612 0.616647
Si Si5 0.889635 0.386700 0.756431
Si Si6 0.151776 0.186335 0.801354
O O1 0.262194 0.604033 0.905522
O O2 0.317162 0.854110 0.747612
O O3 0.491711 0.864690 0.158330
O O4 0.232378 0.753885 0.150284
O O5 0.292213 0.032377 0.428101
O O6 0.197906 0.148541 0.595596
O O7 0.202346 0.161038 0.095573
O O8 0.019584 0.927526 0.272676
O O9 0.177800 0.541941 0.437437
O O10 0.195733 0.348700 0.765823
O O11 0.994659 0.378205 0.659129
O O12 0.500000 0.000000 0.500000
O O13 0.000000 0.500000 0.000000
#
# Coordination Sequence:
#
# PCOD9006150 Si02
#       6
#     2   2   2   2   2   2
#     4  10  23  39  62  99 125 172 214 276 333 387
#     4  10  25  44  65  99 128 181 223 262 340 390
#     4  10  21  38  64  99 128 169 216 279 334 378
#     4  11  25  42  68  90 136 172 221 275 321 403
#     4   9  20  34  60  97 131 160 215 269 331 384
#     4  10  24  43  69  94 136 171 220 280 321 408
#
# _framework density 20.097137
#
# number of rings (size 3 to 8) (size 9 to 14) (size 15 to 20)
#    0.000    2.000    0.000    1.000   18.667    1.333 
#    0.000    1.667    0.000    0.000    0.000    0.000 
#    0.000    0.000    0.000    0.000    0.000    0.000 
#
# Total GULP energy -66958.024197 kJ/mol
# GULP energy per Si atom -5579.835350 kJ/mol
# Density = 2.005139 g / cm^3
# Si number density = 20.097137 Si / 1000 Ang^3
#
#
#
# Elastic Constant Matrix: (Units=GPa)
#
#
# Indices 1 2 3 4 5 6 
#
# 1 103.0374 53.9142 60.2674 -23.1234 2.8943 -16.7975
# 2 53.9142 127.6982 51.8915 -10.7396 -5.3682 -18.1758
# 3 60.2674 51.8915 133.9951 -24.6889 -5.8348 -20.6416
# 4 -23.1234 -10.7396 -24.6889 38.8099 6.5057 2.9903
# 5 2.8943 -5.3682 -5.8348 6.5057 31.3269 -9.3975
# 6 -16.7975 -18.1758 -20.6416 2.9903 -9.3975 29.0981
#
#
#
# Elastic Compliance Matrix: (Units=1/GPa)
#
#
# Indices 1 2 3 4 5 6 
#
# 1 0.016448 -0.004567 -0.004397 0.006276 -0.003943 0.001604
# 2 -0.004567 0.011100 -0.001711 -0.001700 0.003694 0.004451
# 3 -0.004397 -0.001711 0.011696 0.003397 0.003198 0.005373
# 4 0.006276 -0.001700 0.003397 0.032453 -0.007183 -0.000684
# 5 -0.003943 0.003694 0.003198 -0.007183 0.039770 0.015882
# 6 0.001604 0.004451 0.005373 -0.000684 0.015882 0.047084
#
#
# Mechanical properties :
#
#
# Convention : Reuss Voigt Hill
#
# Bulk Modulus (GPa) = 55.88761 77.43080 66.65920
# Shear Modulus (GPa) = 26.90083 33.09082 29.99582
#
# Velocity S-wave (km/s) = 3.66258 4.06216 3.86753
# Velocity P-wave (km/s) = 6.76425 7.78547 7.29276
#
# Compressibility (1/GPa) = 0.01789305
#
# Stress axis : x y z
#
# Youngs Moduli (GPa) = 60.79923 90.08691 85.49584
#
# Poissons Ratio (x) = 0.41142 0.37595
# Poissons Ratio (y) = 0.27766 0.14633
# Poissons Ratio (z) = 0.26735 0.15418
#
# Static dielectric constant tensor:
#      x y z
#    x 1.715650 0.012630 -0.039840 
#    y 0.012630 1.719080 0.037620 
#    z -0.039840 0.037620 1.765380 
# 
# From -- ./inp_files/58428.got.cif
#   From: 2010.05.17/outbox.cif.g08.bks.cpg/sg2_30_cif.got.tgz:58428.got - 2010.06.03 11:33:40.
