data_PCOD9006139
_publ_section_title
;
Structure prediction by ZEFSAII (Michael W. Deem and Ramdas Pophale) SiO2 
 PCOD9006139
Probable space group: P -1
;
_chemical_formula_sum "Si O2"
_cell_formula_units_Z 14
_cell_length_a 9.298147
_cell_length_b 8.869148
_cell_length_c 7.445263
_cell_angle_alpha 105.165685
_cell_angle_beta 69.580141
_cell_angle_gamma 106.047448
_cell_volume 543.604025
_symmetry_space_group_name_H-M "P -1"
_symmetry_group_IT_number 2
_symmetry_cell_setting 'triclinic'
loop_
_space_group_symop_operation_xyz
x,y,z
-x,-y,-z
loop_
_atom_site_type_symbol
_atom_site_label
_atom_site_fract_x
_atom_site_fract_y
_atom_site_fract_z
Si Si1 0.374771 0.839178 0.307349
Si Si2 0.266685 0.376274 0.611097
Si Si3 0.063595 0.120993 0.176850
Si Si4 0.623994 0.665089 0.040140
Si Si5 0.169836 0.708040 0.808765
Si Si6 0.506578 0.196470 0.357519
Si Si7 0.063156 0.797298 0.250609
O O1 0.515880 0.795648 0.118477
O O2 0.415477 0.790815 0.474290
O O3 0.207073 0.755170 0.282726
O O4 0.389367 0.028217 0.356004
O O5 0.315813 0.350921 0.787550
O O6 0.216469 0.545158 0.677071
O O7 0.409659 0.335867 0.418858
O O8 0.105332 0.255088 0.603063
O O9 0.918711 0.211104 0.279543
O O10 0.089623 0.986091 0.261371
O O11 0.218571 0.256529 0.113109
O O12 0.000000 0.000000 0.000000
O O13 0.500000 0.500000 0.000000
O O14 0.340275 0.807725 0.827649
O O15 0.062860 0.702991 0.031007
#
# Coordination Sequence:
#
# PCOD9006139 Si02
#       7
#     2   2   2   2   2   2   2
#     4  10  23  41  67  92 131 174 220 263 334 392
#     4  11  23  41  66  95 133 175 218 270 332 394
#     4  10  21  38  64  98 134 164 214 274 326 377
#     4  11  22  38  66 102 136 166 219 280 330 381
#     4  11  22  40  69  95 131 168 216 278 334 376
#     4  10  24  43  64  91 137 176 214 269 337 395
#     4  11  23  40  72  97 124 171 232 268 321 394
#
# _framework density 25.754041000000001
#
# number of rings (size 3 to 8) (size 9 to 14) (size 15 to 20)
#    0.000    1.429    2.857    3.429    6.000    4.000 
#    0.000    0.714    0.000    0.000    0.000    0.000 
#    0.000    0.000    0.000    0.000    0.000    0.000 
#
# Total GULP energy -78291.838656 kJ/mol
# GULP energy per Si atom -5592.274190 kJ/mol
# Density = 2.569542 g / cm^3
# Si number density = 25.754041 Si / 1000 Ang^3
#
#
#
# Elastic Constant Matrix: (Units=GPa)
#
#
# Indices 1 2 3 4 5 6 
#
# 1 189.2466 42.0827 26.4479 15.4978 -29.7434 -3.2378
# 2 42.0827 130.0150 11.4253 17.5837 -17.3320 -4.1599
# 3 26.4479 11.4253 42.6606 7.8851 -24.8609 -0.9933
# 4 15.4978 17.5837 7.8851 27.4650 0.0455 -16.8198
# 5 -29.7434 -17.3320 -24.8609 0.0455 44.6539 7.7100
# 6 -3.2378 -4.1599 -0.9933 -16.8198 7.7100 52.2270
#
#
#
# Elastic Compliance Matrix: (Units=1/GPa)
#
#
# Indices 1 2 3 4 5 6 
#
# 1 0.006498 -0.001109 -0.001048 -0.003491 0.003552 -0.001354
# 2 -0.001109 0.009395 0.002110 -0.007434 0.004494 -0.002338
# 3 -0.001048 0.002110 0.040725 -0.017623 0.024259 -0.008379
# 4 -0.003491 -0.007434 -0.017623 0.061321 -0.018775 0.021376
# 5 0.003552 0.004494 0.024259 -0.018775 0.041964 -0.011202
# 6 -0.001354 -0.002338 -0.008379 0.021376 -0.011202 0.027256
#
#
# Mechanical properties :
#
#
# Convention : Reuss Voigt Hill
#
# Bulk Modulus (GPa) = 17.69200 57.98155 37.83678
# Shear Modulus (GPa) = 24.26090 43.66694 33.96392
#
# Velocity S-wave (km/s) = 3.07257 4.12216 3.63544
# Velocity P-wave (km/s) = 4.41272 6.72448 5.68730
#
# Compressibility (1/GPa) = 0.05652272
#
# Stress axis : x y z
#
# Youngs Moduli (GPa) = 153.89110 106.44501 24.55511
#
# Poissons Ratio (x) = 0.11804 0.02573
# Poissons Ratio (y) = 0.17065 -0.05180
# Poissons Ratio (z) = 0.16129 -0.22456
#
# Static dielectric constant tensor:
#      x y z
#    x 1.971000 0.038370 0.003430 
#    y 0.038370 2.031450 -0.021950 
#    z 0.003430 -0.021950 2.123660 
# 
# From -- ./inp_files/157510.got.cif
#   From: 2010.05.17/outbox.cif.g08.bks.cpg/sg2_79_cif.got.tgz:157510.got - 2010.06.03 11:33:40.
