data_PCOD9006551
_publ_section_title
;
Structure prediction by ZEFSAII (Michael W. Deem and Ramdas Pophale) SiO2 
 PCOD9006551
Probable space group: P -1
;
_chemical_formula_sum "Si O2"
_cell_formula_units_Z 14
_cell_length_a 23.593739
_cell_length_b 5.457576
_cell_length_c 7.979855
_cell_angle_alpha 65.126679
_cell_angle_beta 43.515847
_cell_angle_gamma 49.224124
_cell_volume 532.997871
_symmetry_space_group_name_H-M "P -1"
_symmetry_group_IT_number 2
_symmetry_cell_setting 'triclinic'
loop_
_space_group_symop_operation_xyz
x,y,z
-x,-y,-z
loop_
_atom_site_type_symbol
_atom_site_label
_atom_site_fract_x
_atom_site_fract_y
_atom_site_fract_z
Si Si1 0.896075 0.833576 0.324664
Si Si2 0.444121 0.772428 0.398069
Si Si3 0.709527 0.818964 0.109763
Si Si4 0.356299 0.511889 0.098998
Si Si5 0.847974 0.295040 0.616571
Si Si6 0.075098 0.348674 0.223996
Si Si7 0.304683 0.652825 0.550198
O O1 0.874976 0.556744 0.491822
O O2 0.016177 0.595202 0.125564
O O3 0.876687 0.088668 0.440790
O O4 0.811005 0.052063 0.309144
O O5 0.500000 0.500000 0.500000
O O6 0.389379 0.717214 0.383317
O O7 0.351696 0.036896 0.628995
O O8 0.536850 0.758882 0.123717
O O9 0.694856 0.524030 0.228142
O O10 0.823357 0.685766 0.939839
O O11 0.666406 0.124787 0.989829
O O12 0.270323 0.511141 0.186049
O O13 0.337343 0.494836 0.339595
O O14 0.896325 0.020440 0.736604
O O15 0.000000 0.500000 0.500000
#
# Coordination Sequence:
#
# PCOD9006551 Si02
#       7
#     2   2   2   2   2   2   2
#     4  10  21  38  66  97 138 176 233 284 341 412
#     4  10  23  45  65 103 136 179 234 293 351 418
#     4  10  23  45  66 100 141 175 236 292 347 414
#     4   9  21  44  68  98 135 186 234 280 356 420
#     4   9  19  39  64 102 132 177 233 284 334 419
#     4   9  19  42  68  99 136 186 231 282 355 419
#     4  11  24  42  69  99 141 182 230 292 347 423
#
# _framework density 26.266518000000001
#
# number of rings (size 3 to 8) (size 9 to 14) (size 15 to 20)
#    0.000    2.286    0.000    1.714    4.000    3.429 
#   41.143    0.714    0.000    0.000    0.000    0.000 
#    0.000    0.000    0.000    0.000    0.000    0.000 
#
# Total GULP energy -78081.271216 kJ/mol
# GULP energy per Si atom -5577.233658 kJ/mol
# Density = 2.620673 g / cm^3
# Si number density = 26.266518 Si / 1000 Ang^3
#
#
#
# Elastic Constant Matrix: (Units=GPa)
#
#
# Indices 1 2 3 4 5 6 
#
# 1 82.8244 38.7160 -0.0555 3.6835 19.2049 -28.9909
# 2 38.7160 106.1612 17.2196 -25.1631 42.7313 -35.7822
# 3 -0.0555 17.2196 152.5100 29.8562 -28.9572 18.7752
# 4 3.6835 -25.1631 29.8562 58.6589 -24.2581 8.6428
# 5 19.2049 42.7313 -28.9572 -24.2581 54.5996 -23.8859
# 6 -28.9909 -35.7822 18.7752 8.6428 -23.8859 65.3852
#
#
#
# Elastic Compliance Matrix: (Units=1/GPa)
#
#
# Indices 1 2 3 4 5 6 
#
# 1 0.016658 -0.005215 0.000711 -0.004996 -0.001712 0.004363
# 2 -0.005215 0.021078 -0.006824 0.006702 -0.012853 0.005601
# 3 0.000711 -0.006824 0.009947 -0.004720 0.006899 -0.003131
# 4 -0.004996 0.006702 -0.004720 0.024766 0.005723 0.001625
# 5 -0.001712 -0.012853 0.006899 0.005723 0.036387 0.002762
# 6 0.004363 0.005601 -0.003131 0.001625 0.002762 0.021987
#
#
# Mechanical properties :
#
#
# Convention : Reuss Voigt Hill
#
# Bulk Modulus (GPa) = 39.95556 50.36176 45.15866
# Shear Modulus (GPa) = 30.89816 54.76979 42.83398
#
# Velocity S-wave (km/s) = 3.43349 4.57130 4.04263
# Velocity P-wave (km/s) = 5.56445 6.86130 6.24662
#
# Compressibility (1/GPa) = 0.02502780
#
# Stress axis : x y z
#
# Youngs Moduli (GPa) = 60.03058 47.44198 100.53091
#
# Poissons Ratio (x) = 0.24740 -0.07144
# Poissons Ratio (y) = 0.31304 0.68601
# Poissons Ratio (z) = -0.04266 0.32374
#
# Static dielectric constant tensor:
#      x y z
#    x 2.168560 0.332280 0.061140 
#    y 0.332280 2.852110 0.045490 
#    z 0.061140 0.045490 2.030960 
# 
# From -- ./inp_files/83379.got.cif
#   From: 2010.05.17/outbox.cif.g08.bks.cpg/sg2_42_cif.got.tgz:83379.got - 2010.06.03 11:33:40.
