data_PCOD9006114
_publ_section_title
;
Structure prediction by ZEFSAII (Michael W. Deem and Ramdas Pophale) SiO2 
 PCOD9006114
Probable space group: P -1
;
_chemical_formula_sum "Si O2"
_cell_formula_units_Z 16
_cell_length_a 8.228530
_cell_length_b 7.567167
_cell_length_c 13.582392
_cell_angle_alpha 129.532635
_cell_angle_beta 97.896631
_cell_angle_gamma 90.474094
_cell_volume 641.002496
_symmetry_space_group_name_H-M "P -1"
_symmetry_group_IT_number 2
_symmetry_cell_setting 'triclinic'
loop_
_space_group_symop_operation_xyz
x,y,z
-x,-y,-z
loop_
_atom_site_type_symbol
_atom_site_label
_atom_site_fract_x
_atom_site_fract_y
_atom_site_fract_z
Si Si1 0.516187 0.745311 0.375633
Si Si2 0.637922 0.896990 0.038773
Si Si3 0.850285 0.663046 0.345058
Si Si4 0.091160 0.843360 0.586404
Si Si5 0.452896 0.974075 0.709096
Si Si6 0.829641 0.037757 0.773598
Si Si7 0.230771 0.505146 0.186319
Si Si8 0.116120 0.759621 0.926812
O O1 0.681106 0.653425 0.389626
O O2 0.347905 0.581154 0.314736
O O3 0.500000 0.000000 0.500000
O O4 0.535330 0.804632 0.283008
O O5 0.585571 0.933450 0.156069
O O6 0.805623 0.052813 0.077201
O O7 0.662911 0.636427 0.926522
O O8 0.500000 0.000000 0.000000
O O9 0.816577 0.473879 0.188929
O O10 0.995058 0.659756 0.437038
O O11 0.885437 0.912170 0.384344
O O12 0.282334 0.807935 0.611354
O O13 0.970442 0.896911 0.687186
O O14 0.640587 0.907377 0.701983
O O15 0.829550 0.269289 0.787695
O O16 0.853609 0.143411 0.924834
O O17 0.075384 0.325172 0.136609
#
# Coordination Sequence:
#
# PCOD9006114 Si02
#       8
#     2   2   2   2   2   2   2   2
#     4  10  22  39  68 102 132 166 223 282 338 396
#     4  12  25  45  61  93 141 181 222 267 335 409
#     4  10  21  38  64  97 133 171 209 279 339 397
#     4  10  21  40  66 100 134 166 221 280 338 395
#     4  10  23  39  69  93 132 175 223 268 341 390
#     4  11  22  41  68 103 132 165 226 295 332 392
#     4  11  24  38  68  99 130 172 223 281 342 392
#     4  12  24  40  68  97 138 175 223 275 341 398
#
# _framework density 24.960902000000001
#
# number of rings (size 3 to 8) (size 9 to 14) (size 15 to 20)
#    0.000    1.250    2.500    3.750    7.000    1.000 
#    0.000    0.625    2.750    2.250    0.000    0.000 
#    0.000    0.000    0.000    0.000    0.000    0.000 
#
# Total GULP energy -89321.274962 kJ/mol
# GULP energy per Si atom -5582.579685 kJ/mol
# Density = 2.490409 g / cm^3
# Si number density = 24.960902 Si / 1000 Ang^3
#
#
#
# Elastic Constant Matrix: (Units=GPa)
#
#
# Indices 1 2 3 4 5 6 
#
# 1 185.3175 20.1180 57.1217 -7.5284 34.6193 25.9330
# 2 20.1180 51.6596 34.3864 5.0359 -5.2977 9.9996
# 3 57.1217 34.3864 76.7683 -42.4556 25.6085 13.7683
# 4 -7.5284 5.0359 -42.4556 3.8667 7.3318 -3.6012
# 5 34.6193 -5.2977 25.6085 7.3318 33.2147 -4.3747
# 6 25.9330 9.9996 13.7683 -3.6012 -4.3747 23.9413
#
#
#
# Elastic Compliance Matrix: (Units=1/GPa)
#
#
# Indices 1 2 3 4 5 6 
#
# 1 0.009274 -0.000752 -0.002531 -0.001333 -0.008871 -0.010097
# 2 -0.000752 0.016846 0.003461 0.014746 -0.003322 -0.006600
# 3 -0.002531 0.003461 0.000368 -0.019372 0.007112 -0.000530
# 4 -0.001333 0.014746 -0.019372 -0.008774 0.021811 0.009091
# 5 -0.008871 -0.003322 0.007112 0.021811 0.030603 0.015779
# 6 -0.010097 -0.006600 -0.000530 0.009091 0.015779 0.060018
#
#
# Mechanical properties :
#
#
# Convention : Reuss Voigt Hill
#
# Bulk Modulus (GPa) = 37.25206 59.66643 48.45924
# Shear Modulus (GPa) = 42.76141 25.67916 34.22028
#
# Velocity S-wave (km/s) = 4.14349 3.21093 3.70666
# Velocity P-wave (km/s) = 6.15207 6.14025 6.14616
#
# Compressibility (1/GPa) = 0.02684415
#
# Stress axis : x y z
#
# Youngs Moduli (GPa) = 107.83085 59.36019 2716.53813
#
# Poissons Ratio (x) = 0.04466 6.87427
# Poissons Ratio (y) = 0.08113 -9.40168
# Poissons Ratio (z) = 0.27287 -0.20544
#
# Static dielectric constant tensor:
#      x y z
#    x 2.357390 0.054520 -0.156210 
#    y 0.054520 1.925560 -0.060470 
#    z -0.156210 -0.060470 2.133240 
# 
# From -- ./inp_files/495862.got.cif
#   From: 2010.05.17/outbox.cif.g08.bks.cpg/sg2_248_cif.got.tgz:495862.got - 2010.06.03 11:33:40.
