data_PCOD9006552
_publ_section_title
;
Structure prediction by ZEFSAII (Michael W. Deem and Ramdas Pophale) SiO2 
 PCOD9006552
Probable space group: P -1
;
_chemical_formula_sum "Si O2"
_cell_formula_units_Z 15
_cell_length_a 6.108051
_cell_length_b 12.573870
_cell_length_c 11.250601
_cell_angle_alpha 100.580229
_cell_angle_beta 117.219921
_cell_angle_gamma 112.597845
_cell_volume 637.810364
_symmetry_space_group_name_H-M "P -1"
_symmetry_group_IT_number 2
_symmetry_cell_setting 'triclinic'
loop_
_space_group_symop_operation_xyz
x,y,z
-x,-y,-z
loop_
_atom_site_type_symbol
_atom_site_label
_atom_site_fract_x
_atom_site_fract_y
_atom_site_fract_z
Si Si1 0.899421 0.140719 0.472401
Si Si2 0.000000 0.500000 0.500000
Si Si3 0.953305 0.941356 0.292422
Si Si4 0.990801 0.807391 0.963737
Si Si5 0.350576 0.081259 0.198987
Si Si6 0.008326 0.600401 0.780384
Si Si7 0.392303 0.326003 0.944595
Si Si8 0.398852 0.413508 0.705290
O O1 0.662074 0.160182 0.355344
O O2 0.852897 0.097240 0.589655
O O3 0.215254 0.269125 0.578071
O O4 0.882601 0.025882 0.373242
O O5 0.041377 0.432760 0.377021
O O6 0.232868 0.479201 0.628811
O O7 0.676150 0.809004 0.154991
O O8 0.122814 0.023045 0.238164
O O9 0.731863 0.832785 0.877806
O O10 0.026910 0.731397 0.850840
O O11 0.871595 0.719579 0.035226
O O12 0.271220 0.951122 0.083732
O O13 0.726084 0.488977 0.756096
O O14 0.297538 0.612389 0.904611
O O15 0.390746 0.401772 0.844243
#
# Coordination Sequence:
#
# PCOD9006552 Si02
#       8
#     2   1   2   2   2   2   2   2
#     4  10  21  38  66  97 142 182 221 283 342 411
#     4  12  30  48  66  98 140 180 240 288 342 408
#     4   9  20  39  65 105 135 177 231 274 348 415
#     4  10  24  42  69 106 137 180 238 279 350 413
#     4  10  21  39  67 102 140 179 222 286 345 414
#     4  12  26  47  71  97 139 184 237 290 341 415
#     4  10  23  46  73 102 140 179 232 292 342 415
#     4  11  27  45  69 103 139 188 234 279 349 415
#
# _framework density 23.517961
#
# number of rings (size 3 to 8) (size 9 to 14) (size 15 to 20)
#    0.000    1.600    0.000    2.800    5.600    4.267 
#    0.000    6.667    0.000    0.000    0.000    0.000 
#    0.000    0.000    0.000    0.000    0.000    0.000 
#
# Total GULP energy -83649.734521 kJ/mol
# GULP energy per Si atom -5576.648968 kJ/mol
# Density = 2.346443 g / cm^3
# Si number density = 23.517961 Si / 1000 Ang^3
#
#
#
# Elastic Constant Matrix: (Units=GPa)
#
#
# Indices 1 2 3 4 5 6 
#
# 1 49.3938 39.2830 54.3696 5.0380 -23.2247 -5.7585
# 2 39.2830 75.1070 49.6113 -8.8338 -2.2342 14.0533
# 3 54.3696 49.6113 185.5701 -22.6260 -7.5125 4.8724
# 4 5.0380 -8.8338 -22.6260 81.7324 -20.3013 -5.1077
# 5 -23.2247 -2.2342 -7.5125 -20.3013 58.4774 6.4943
# 6 -5.7585 14.0533 4.8724 -5.1077 6.4943 25.2836
#
#
#
# Elastic Compliance Matrix: (Units=1/GPa)
#
#
# Indices 1 2 3 4 5 6 
#
# 1 0.088709 -0.043875 -0.014966 -0.005586 0.025267 0.039856
# 2 -0.043875 0.039848 0.002908 0.003218 -0.011171 -0.029182
# 3 -0.014966 0.002908 0.009347 0.002716 -0.003079 -0.005486
# 4 -0.005586 0.003218 0.002716 0.014436 0.003437 -0.001551
# 5 0.025267 -0.011171 -0.003079 0.003437 0.026799 0.006368
# 6 0.039856 -0.029182 -0.005486 -0.001551 0.006368 0.063957
#
#
# Mechanical properties :
#
#
# Convention : Reuss Voigt Hill
#
# Bulk Modulus (GPa) = 38.40454 66.28874 52.34664
# Shear Modulus (GPa) = 13.74985 44.21914 28.98450
#
# Velocity S-wave (km/s) = 2.42058 4.34086 3.51442
# Velocity P-wave (km/s) = 4.91707 7.30560 6.22693
#
# Compressibility (1/GPa) = 0.02603859
#
# Stress axis : x y z
#
# Youngs Moduli (GPa) = 11.27279 25.09563 106.98985
#
# Poissons Ratio (x) = 1.10107 1.60117
# Poissons Ratio (y) = 0.49459 -0.31112
# Poissons Ratio (z) = 0.16870 -0.07298
#
# Static dielectric constant tensor:
#      x y z
#    x 1.852880 -0.019060 -0.009680 
#    y -0.019060 1.931210 0.023160 
#    z -0.009680 0.023160 1.910750 
# 
# From -- ./inp_files/364898.got.cif
#   From: 2010.05.17/outbox.cif.g08.bks.cpg/sg2_183_cif.got.tgz:364898.got - 2010.06.03 11:33:40.
