data_PCOD9006514
_publ_section_title
;
Structure prediction by ZEFSAII (Michael W. Deem and Ramdas Pophale) SiO2 
 PCOD9006514
Probable space group: P -1
;
_chemical_formula_sum "Si O2"
_cell_formula_units_Z 14
_cell_length_a 10.865434
_cell_length_b 8.048862
_cell_length_c 9.869239
_cell_angle_alpha 133.555016
_cell_angle_beta 116.219023
_cell_angle_gamma 60.764650
_cell_volume 538.213631
_symmetry_space_group_name_H-M "P -1"
_symmetry_group_IT_number 2
_symmetry_cell_setting 'triclinic'
loop_
_space_group_symop_operation_xyz
x,y,z
-x,-y,-z
loop_
_atom_site_type_symbol
_atom_site_label
_atom_site_fract_x
_atom_site_fract_y
_atom_site_fract_z
Si Si1 0.378879 0.404743 0.539329
Si Si2 0.085263 0.727941 0.264827
Si Si3 0.214776 0.198674 0.942454
Si Si4 0.043430 0.500559 0.679684
Si Si5 0.797459 0.911358 0.825141
Si Si6 0.670900 0.146670 0.427598
Si Si7 0.338566 0.568018 0.904196
O O1 0.269866 0.247273 0.393418
O O2 0.531140 0.209121 0.486034
O O3 0.344654 0.597678 0.510312
O O4 0.366272 0.565647 0.755472
O O5 0.938459 0.851970 0.186666
O O6 0.033115 0.639594 0.332624
O O7 0.186177 0.893433 0.437344
O O8 0.172680 0.487804 0.092152
O O9 0.317665 0.052616 0.794212
O O10 0.264547 0.114339 0.069316
O O11 0.211209 0.436126 0.763039
O O12 0.000000 0.500000 0.500000
O O13 0.964630 0.777073 0.833544
O O14 0.741108 0.186839 0.922826
O O15 0.500000 0.500000 0.000000
#
# Coordination Sequence:
#
# PCOD9006514 Si02
#       7
#     2   2   2   2   2   2   2
#     4  11  24  41  65  97 129 176 218 271 335 399
#     4  10  22  40  64 102 128 166 225 273 327 395
#     4  10  21  38  66  94 130 166 217 274 331 388
#     4  11  22  46  72  92 137 182 222 270 326 402
#     4  11  23  45  70  94 132 180 226 269 341 396
#     4  11  21  40  64  96 135 167 212 276 336 391
#     4  12  27  47  68  99 135 177 228 276 326 401
#
# _framework density 26.011975
#
# number of rings (size 3 to 8) (size 9 to 14) (size 15 to 20)
#    0.000    1.143    5.714    0.857    0.000    6.857 
#    2.571    0.000    0.000    0.000    0.000    0.000 
#    0.000    0.000    0.000    0.000    0.000    0.000 
#
# Total GULP energy -78287.225822 kJ/mol
# GULP energy per Si atom -5591.944702 kJ/mol
# Density = 2.595277 g / cm^3
# Si number density = 26.011975 Si / 1000 Ang^3
#
#
#
# Elastic Constant Matrix: (Units=GPa)
#
#
# Indices 1 2 3 4 5 6 
#
# 1 82.1596 35.9653 26.8865 -4.8755 3.4880 -24.6585
# 2 35.9653 78.0459 30.6585 3.3369 9.2186 -27.7567
# 3 26.8865 30.6585 129.7194 7.4383 -6.0198 -6.1057
# 4 -4.8755 3.3369 7.4383 52.1401 -15.3798 -7.5891
# 5 3.4880 9.2186 -6.0198 -15.3798 36.4402 -2.9253
# 6 -24.6585 -27.7567 -6.1057 -7.5891 -2.9253 38.8820
#
#
#
# Elastic Compliance Matrix: (Units=1/GPa)
#
#
# Indices 1 2 3 4 5 6 
#
# 1 0.017631 -0.004532 -0.002345 0.003917 0.001403 0.008448
# 2 -0.004532 0.020825 -0.003642 -0.001154 -0.005055 0.010814
# 3 -0.002345 -0.003642 0.009081 -0.001100 0.001963 -0.002728
# 4 0.003917 -0.001154 -0.001100 0.023836 0.010351 0.006919
# 5 0.001403 -0.005055 0.001963 0.010351 0.033450 0.002126
# 6 0.008448 0.010814 -0.002728 0.006919 0.002126 0.039878
#
#
# Mechanical properties :
#
#
# Convention : Reuss Voigt Hill
#
# Bulk Modulus (GPa) = 37.73747 52.99395 45.36571
# Shear Modulus (GPa) = 28.64120 38.58675 33.61398
#
# Velocity S-wave (km/s) = 3.32185 3.85570 3.59869
# Velocity P-wave (km/s) = 5.40852 6.34342 5.89454
#
# Compressibility (1/GPa) = 0.02649886
#
# Stress axis : x y z
#
# Youngs Moduli (GPa) = 56.71778 48.01995 110.11447
#
# Poissons Ratio (x) = 0.21765 0.25822
# Poissons Ratio (y) = 0.25707 0.40101
# Poissons Ratio (z) = 0.13300 0.17488
#
# Static dielectric constant tensor:
#      x y z
#    x 2.084980 0.025780 0.003950 
#    y 0.025780 2.096100 0.014860 
#    z 0.003950 0.014860 2.005340 
# 
# From -- ./inp_files/402213.got.cif
#   From: 2010.05.17/outbox.cif.g08.bks.cpg/sg2_202_cif.got.tgz:402213.got - 2010.06.03 11:33:40.
