data_PCOD9006020
_publ_section_title
;
Structure prediction by ZEFSAII (Michael W. Deem and Ramdas Pophale) SiO2 
 PCOD9006020
Probable space group: P -1
;
_chemical_formula_sum "Si O2"
_cell_formula_units_Z 15
_cell_length_a 8.153455
_cell_length_b 11.456899
_cell_length_c 7.628153
_cell_angle_alpha 54.836346
_cell_angle_beta 68.685183
_cell_angle_gamma 60.539304
_cell_volume 503.975415
_symmetry_space_group_name_H-M "P -1"
_symmetry_group_IT_number 2
_symmetry_cell_setting 'triclinic'
loop_
_space_group_symop_operation_xyz
x,y,z
-x,-y,-z
loop_
_atom_site_type_symbol
_atom_site_label
_atom_site_fract_x
_atom_site_fract_y
_atom_site_fract_z
Si Si1 0.224516 0.872813 0.564937
Si Si2 0.500000 0.000000 0.500000
Si Si3 0.031103 0.271589 0.054121
Si Si4 0.106770 0.538048 0.721131
Si Si5 0.854723 0.187753 0.720217
Si Si6 0.498930 0.336765 0.938619
Si Si7 0.764045 0.841858 0.236234
Si Si8 0.391642 0.372103 0.333354
O O1 0.294964 0.997991 0.508839
O O2 0.116181 0.906184 0.393025
O O3 0.412506 0.727570 0.559145
O O4 0.129944 0.798007 0.810448
O O5 0.587765 0.958245 0.303791
O O6 0.986562 0.430820 0.825433
O O7 0.220424 0.165722 0.973548
O O8 0.021321 0.337039 0.196798
O O9 0.161910 0.638978 0.473630
O O10 0.305343 0.427524 0.828912
O O11 0.661177 0.207412 0.878497
O O12 0.043157 0.134920 0.808287
O O13 0.596427 0.462134 0.831666
O O14 0.435201 0.290090 0.192752
O O15 0.758585 0.681086 0.460765
#
# Coordination Sequence:
#
# PCOD9006020 Si02
#       8
#     2   1   2   2   2   2   2   2
#     4  10  22  44  64  89 119 164 204 268 299 367
#     4  10  26  48  66  82 118 158 220 268 328 338
#     4  10  21  38  64  92 130 164 202 236 312 369
#     4  10  22  35  61 101 136 166 191 245 294 388
#     4  11  23  36  65  95 127 159 213 242 309 366
#     4  11  21  35  60  94 137 173 193 235 300 386
#     4  11  25  41  64  90 120 166 210 269 301 365
#     4  10  22  36  58  89 135 171 200 236 302 368
#
# _framework density 29.763356999999999
#
# number of rings (size 3 to 8) (size 9 to 14) (size 15 to 20)
#    0.000    1.600    2.667    2.000   11.200    2.133 
#    0.000    0.000    0.000    7.200    0.000    0.000 
#    0.000    0.000    0.000    0.000    0.000    0.000 
#
# Total GULP energy -83791.871776 kJ/mol
# GULP energy per Si atom -5586.124785 kJ/mol
# Density = 2.969561 g / cm^3
# Si number density = 29.763357 Si / 1000 Ang^3
#
#
#
# Elastic Constant Matrix: (Units=GPa)
#
#
# Indices 1 2 3 4 5 6 
#
# 1 165.4395 34.0918 50.8511 -3.6803 -33.6295 12.7279
# 2 34.0918 90.0797 63.4587 21.9684 -18.5618 8.4828
# 3 50.8511 63.4587 207.5048 34.8045 -55.2222 1.4604
# 4 -3.6803 21.9684 34.8045 76.5245 -7.7606 -9.4682
# 5 -33.6295 -18.5618 -55.2222 -7.7606 52.0045 -5.4851
# 6 12.7279 8.4828 1.4604 -9.4682 -5.4851 47.8469
#
#
#
# Elastic Compliance Matrix: (Units=1/GPa)
#
#
# Indices 1 2 3 4 5 6 
#
# 1 0.007455 -0.001988 -0.000451 0.001402 0.003746 -0.000910
# 2 -0.001988 0.015487 -0.003861 -0.003197 -0.000631 -0.002804
# 3 -0.000451 -0.003861 0.008256 -0.001844 0.006925 0.000981
# 4 0.001402 -0.003197 -0.001844 0.015350 0.000450 0.003339
# 5 0.003746 -0.000631 0.006925 0.000450 0.029093 0.002328
# 6 -0.000910 -0.002804 0.000981 0.003339 0.002328 0.022537
#
#
# Mechanical properties :
#
#
# Convention : Reuss Voigt Hill
#
# Bulk Modulus (GPa) = 53.76732 84.42524 69.09628
# Shear Modulus (GPa) = 42.74281 56.25000 49.49641
#
# Velocity S-wave (km/s) = 3.79369 4.35202 4.08241
# Velocity P-wave (km/s) = 6.10685 7.32670 6.74441
#
# Compressibility (1/GPa) = 0.01859866
#
# Stress axis : x y z
#
# Youngs Moduli (GPa) = 134.13012 64.56859 121.12620
#
# Poissons Ratio (x) = 0.12838 0.05460
# Poissons Ratio (y) = 0.26669 0.46767
# Poissons Ratio (z) = 0.06046 0.24930
#
# Static dielectric constant tensor:
#      x y z
#    x 2.376670 0.230250 -0.050230 
#    y 0.230250 3.400040 -0.295690 
#    z -0.050230 -0.295690 2.307650 
# 
# From -- ./inp_files/175904.got.cif
#   From: 2010.05.17/outbox.cif.g08.bks.cpg/sg2_88_cif.got.tgz:175904.got - 2010.06.03 11:33:40.
