data_PCOD9006151
_publ_section_title
;
Structure prediction by ZEFSAII (Michael W. Deem and Ramdas Pophale) SiO2 
 PCOD9006151
Probable space group: P -1
;
_chemical_formula_sum "Si O2"
_cell_formula_units_Z 14
_cell_length_a 17.477496
_cell_length_b 9.864291
_cell_length_c 11.926823
_cell_angle_alpha 155.388002
_cell_angle_beta 41.484235
_cell_angle_gamma 144.455938
_cell_volume 497.450273
_symmetry_space_group_name_H-M "P -1"
_symmetry_group_IT_number 2
_symmetry_cell_setting 'triclinic'
loop_
_space_group_symop_operation_xyz
x,y,z
-x,-y,-z
loop_
_atom_site_type_symbol
_atom_site_label
_atom_site_fract_x
_atom_site_fract_y
_atom_site_fract_z
Si Si1 0.035143 0.430499 0.256347
Si Si2 0.191272 0.370941 0.840796
Si Si3 0.563829 0.278313 0.036015
Si Si4 0.962487 0.065281 0.713184
Si Si5 0.736173 0.087021 0.263894
Si Si6 0.693163 0.993997 0.992129
Si Si7 0.710700 0.267013 0.665605
O O1 0.138387 0.644263 0.406124
O O2 0.129233 0.534167 0.121256
O O3 0.892930 0.358908 0.313081
O O4 0.000000 0.000000 0.000000
O O5 0.261848 0.651599 0.872378
O O6 0.061970 0.038759 0.675022
O O7 0.308731 0.371366 0.785586
O O8 0.614955 0.092536 0.746692
O O9 0.446456 0.313330 0.132076
O O10 0.500000 0.000000 0.000000
O O11 0.808383 0.881221 0.772359
O O12 0.000000 0.000000 0.500000
O O13 0.000000 0.500000 0.000000
O O14 0.687855 0.118181 0.217382
O O15 0.670001 0.136237 0.485193
O O16 0.718033 0.672734 0.969572
#
# Coordination Sequence:
#
# PCOD9006151 Si02
#       7
#     2   2   2   2   2   2   2
#     4   9  18  37  61  92 126 168 214 262 322 379
#     4   9  18  39  63  94 130 170 216 269 318 386
#     4   9  20  43  69  94 132 173 220 264 324 386
#     4  10  21  39  62  93 126 160 208 264 316 369
#     4  11  22  39  64  94 130 166 215 264 322 384
#     4  10  21  38  64  99 128 173 215 269 326 382
#     4  10  23  41  63  93 129 171 211 264 319 387
#
# _framework density 28.143516999999999
#
# number of rings (size 3 to 8) (size 9 to 14) (size 15 to 20)
#    0.000    2.286    1.429    0.429    0.000    3.429 
#    0.000   24.286    0.000    0.000    0.000    0.000 
#    0.000    0.000    0.000    0.000    0.000    0.000 
#
# Total GULP energy -78382.904557 kJ/mol
# GULP energy per Si atom -5598.778897 kJ/mol
# Density = 2.807946 g / cm^3
# Si number density = 28.143517 Si / 1000 Ang^3
#
#
#
# Elastic Constant Matrix: (Units=GPa)
#
#
# Indices 1 2 3 4 5 6 
#
# 1 203.7790 60.3846 69.3943 -16.8837 49.9294 31.5569
# 2 60.3846 123.3387 40.6994 -15.0103 34.7960 24.8002
# 3 69.3943 40.6994 167.4968 -34.2513 47.4039 19.6908
# 4 -16.8837 -15.0103 -34.2513 47.9680 2.5796 21.7713
# 5 49.9294 34.7960 47.4039 2.5796 55.8629 -5.7437
# 6 31.5569 24.8002 19.6908 21.7713 -5.7437 73.6275
#
#
#
# Elastic Compliance Matrix: (Units=1/GPa)
#
#
# Indices 1 2 3 4 5 6 
#
# 1 0.008859 0.001274 0.002589 0.010041 -0.012282 -0.008846
# 2 0.001274 0.015223 0.005606 0.016206 -0.017497 -0.013330
# 3 0.002589 0.005606 0.016403 0.022786 -0.022409 -0.015871
# 4 0.010041 0.016206 0.022786 0.065804 -0.045439 -0.038859
# 5 -0.012282 -0.017497 -0.022409 -0.045439 0.064554 0.035623
# 6 -0.008846 -0.013330 -0.015871 -0.038859 0.035623 0.040377
#
#
# Mechanical properties :
#
#
# Convention : Reuss Voigt Hill
#
# Bulk Modulus (GPa) = 16.82843 92.84123 54.83483
# Shear Modulus (GPa) = 23.57513 57.10076 40.33795
#
# Velocity S-wave (km/s) = 2.89740 4.50923 3.78999
# Velocity P-wave (km/s) = 4.14557 7.75700 6.21919
#
# Compressibility (1/GPa) = 0.05942324
#
# Stress axis : x y z
#
# Youngs Moduli (GPa) = 112.87772 65.69107 60.96551
#
# Poissons Ratio (x) = -0.08369 -0.15786
# Poissons Ratio (y) = -0.14380 -0.34177
# Poissons Ratio (z) = -0.29228 -0.36826
#
# Static dielectric constant tensor:
#      x y z
#    x 2.289650 -0.095230 -0.281900 
#    y -0.095230 2.323610 0.148120 
#    z -0.281900 0.148120 3.114380 
# 
# From -- ./inp_files/471251.got.cif
#   From: 2010.05.17/outbox.cif.g08.bks.cpg/sg2_236_cif.got.tgz:471251.got - 2010.06.03 11:33:40.
