data_PCOD9006099
_publ_section_title
;
Structure prediction by ZEFSAII (Michael W. Deem and Ramdas Pophale) SiO2 
 PCOD9006099
Probable space group: P -1
;
_chemical_formula_sum "Si O2"
_cell_formula_units_Z 14
_cell_length_a 17.256328
_cell_length_b 11.795797
_cell_length_c 9.347940
_cell_angle_alpha 52.439024
_cell_angle_beta 89.334174
_cell_angle_gamma 134.985243
_cell_volume 654.981405
_symmetry_space_group_name_H-M "P -1"
_symmetry_group_IT_number 2
_symmetry_cell_setting 'triclinic'
loop_
_space_group_symop_operation_xyz
x,y,z
-x,-y,-z
loop_
_atom_site_type_symbol
_atom_site_label
_atom_site_fract_x
_atom_site_fract_y
_atom_site_fract_z
Si Si1 0.234141 0.630037 0.853178
Si Si2 0.548506 0.280561 0.211262
Si Si3 0.104660 0.273109 0.400511
Si Si4 0.208856 0.065823 0.235772
Si Si5 0.200140 0.861600 0.146277
Si Si6 0.485361 0.836823 0.024870
Si Si7 0.979578 0.505167 0.161417
O O1 0.306136 0.594066 0.838173
O O2 0.089391 0.447032 0.886891
O O3 0.391166 0.005238 0.539309
O O4 0.179470 0.521837 0.102114
O O5 0.638571 0.584018 0.965399
O O6 0.484990 0.114558 0.186169
O O7 0.268174 0.455981 0.322999
O O8 0.967208 0.126372 0.617548
O O9 0.000000 0.000000 0.500000
O O10 0.261168 0.101013 0.050220
O O11 0.157562 0.838454 0.502013
O O12 0.152534 0.794798 0.033359
O O13 0.000000 0.500000 0.500000
O O14 0.358160 0.009768 0.047256
O O15 0.500000 0.000000 0.000000
O O16 0.000000 0.500000 0.000000
#
# Coordination Sequence:
#
# PCOD9006099 Si02
#       7
#     2   2   2   2   2   2   2
#     4  10  21  38  64  96 129 169 225 266 337 400
#     4  10  22  40  68  96 129 176 225 275 337 400
#     4  11  21  42  70  99 128 180 231 269 333 410
#     4  11  21  42  71  99 132 173 232 277 331 406
#     4  10  23  39  63 104 135 178 224 279 345 396
#     4  11  22  38  67  98 133 177 232 273 326 411
#     4  11  22  37  66  93 137 175 217 273 346 398
#
# _framework density 21.374652999999999
#
# number of rings (size 3 to 8) (size 9 to 14) (size 15 to 20)
#    0.000    1.429    4.286    3.429    2.000    2.286 
#    0.000    0.714   18.857    4.286    0.000    0.000 
#    0.000    0.000    0.000    0.000    0.000    0.000 
#
# Total GULP energy -77953.609706 kJ/mol
# GULP energy per Si atom -5568.114979 kJ/mol
# Density = 2.132600 g / cm^3
# Si number density = 21.374653 Si / 1000 Ang^3
#
#
#
# Elastic Constant Matrix: (Units=GPa)
#
#
# Indices 1 2 3 4 5 6 
#
# 1 130.1279 78.7921 27.1409 -2.7460 -32.6613 25.3039
# 2 78.7921 153.4660 38.7459 2.8450 -10.9905 4.1511
# 3 27.1409 38.7459 65.2108 3.9982 -10.9866 1.6343
# 4 -2.7460 2.8450 3.9982 23.6961 4.5888 -11.4505
# 5 -32.6613 -10.9905 -10.9866 4.5888 41.5185 -4.2500
# 6 25.3039 4.1511 1.6343 -11.4505 -4.2500 46.5386
#
#
#
# Elastic Compliance Matrix: (Units=1/GPa)
#
#
# Indices 1 2 3 4 5 6 
#
# 1 0.016179 -0.007217 -0.000334 -0.003029 0.010250 -0.007951
# 2 -0.007217 0.010933 -0.004228 0.000694 -0.003679 0.002932
# 3 -0.000334 -0.004228 0.018907 -0.003820 0.003974 -0.000682
# 4 -0.003029 0.000694 -0.003820 0.050333 -0.007399 0.013428
# 5 0.010250 -0.003679 0.003974 -0.007399 0.032612 -0.004227
# 6 -0.007951 0.002932 -0.000682 0.013428 -0.004227 0.028491
#
#
# Mechanical properties :
#
#
# Convention : Reuss Voigt Hill
#
# Bulk Modulus (GPa) = 44.52149 70.90693 57.71421
# Shear Modulus (GPa) = 26.52531 35.95903 31.24217
#
# Velocity S-wave (km/s) = 3.52656 4.10606 3.82730
# Velocity P-wave (km/s) = 6.12017 7.46492 6.82574
#
# Compressibility (1/GPa) = 0.02246106
#
# Stress axis : x y z
#
# Youngs Moduli (GPa) = 61.80870 91.46328 52.89081
#
# Poissons Ratio (x) = 0.66009 0.01766
# Poissons Ratio (y) = 0.44608 0.22363
# Poissons Ratio (z) = 0.02063 0.38673
#
# Static dielectric constant tensor:
#      x y z
#    x 1.862700 0.010850 -0.049120 
#    y 0.010850 1.787370 -0.046990 
#    z -0.049120 -0.046990 1.880160 
# 
# From -- ./inp_files/330880.got.cif
#   From: 2010.05.17/outbox.cif.g08.bks.cpg/sg2_166_cif.got.tgz:330880.got - 2010.06.03 11:33:40.
