data_PCOD9006207
_publ_section_title
;
Structure prediction by ZEFSAII (Michael W. Deem and Ramdas Pophale) SiO2 
 PCOD9006207
Probable space group: P -1
;
_chemical_formula_sum "Si O2"
_cell_formula_units_Z 16
_cell_length_a 11.950532
_cell_length_b 24.453950
_cell_length_c 7.998631
_cell_angle_alpha 138.772467
_cell_angle_beta 143.571300
_cell_angle_gamma 25.577324
_cell_volume 596.091822
_symmetry_space_group_name_H-M "P -1"
_symmetry_group_IT_number 2
_symmetry_cell_setting 'triclinic'
loop_
_space_group_symop_operation_xyz
x,y,z
-x,-y,-z
loop_
_atom_site_type_symbol
_atom_site_label
_atom_site_fract_x
_atom_site_fract_y
_atom_site_fract_z
Si Si1 0.120580 0.783764 0.034300
Si Si2 0.025756 0.445929 0.683668
Si Si3 0.911946 0.237226 0.670307
Si Si4 0.367835 0.300364 0.081175
Si Si5 0.526120 0.489393 0.210684
Si Si6 0.150899 0.999708 0.332803
Si Si7 0.429750 0.218229 0.438827
Si Si8 0.669141 0.061436 0.050364
O O1 0.026960 0.782496 0.102267
O O2 0.349479 0.780797 0.328986
O O3 0.323352 0.647402 0.875891
O O4 0.840055 0.917621 0.915596
O O5 0.134808 0.364752 0.461716
O O6 0.885604 0.583388 0.832267
O O7 0.774524 0.471730 0.512930
O O8 0.276656 0.357364 0.918065
O O9 0.640499 0.265411 0.378494
O O10 0.775221 0.371489 0.765242
O O11 0.145489 0.101068 0.544835
O O12 0.456808 0.174607 0.919158
O O13 0.500000 0.500000 0.000000
O O14 0.461294 0.865140 0.455690
O O15 0.943837 0.034313 0.314001
O O16 0.000000 0.000000 0.000000
O O17 0.478096 0.137950 0.162561
#
# Coordination Sequence:
#
# PCOD9006207 Si02
#       8
#     2   2   2   2   2   2   2   2
#     4  10  17  33  55  80 111 140 175 220 269 314
#     4  10  21  35  54  82 106 138 188 217 270 322
#     4   9  15  32  53  78 104 142 180 213 259 318
#     4   9  18  34  53  75 111 145 172 227 265 316
#     4   9  20  36  56  75 107 151 173 212 273 335
#     4  10  17  28  52  82 110 140 178 218 266 315
#     4  11  18  30  55  86 108 130 179 243 261 298
#     4  10  18  32  52  81 111 138 176 229 272 301
#
# _framework density 26.841501000000001
#
# number of rings (size 3 to 8) (size 9 to 14) (size 15 to 20)
#    0.000    2.250    3.750    2.250    0.000    0.500 
#    0.000    1.250    0.000   18.750    0.000    0.000 
#    0.000    0.000    0.000    0.000    0.000    0.000 
#
# Total GULP energy -89249.943898 kJ/mol
# GULP energy per Si atom -5578.121494 kJ/mol
# Density = 2.678041 g / cm^3
# Si number density = 26.841501 Si / 1000 Ang^3
#
#
#
# Elastic Constant Matrix: (Units=GPa)
#
#
# Indices 1 2 3 4 5 6 
#
# 1 48.2899 18.7599 24.7988 3.6535 7.2796 4.2388
# 2 18.7599 157.1348 16.9235 45.4504 14.9397 16.6315
# 3 24.7988 16.9235 75.4904 19.1205 -4.2441 11.6457
# 4 3.6535 45.4504 19.1205 54.0276 7.6485 -0.7973
# 5 7.2796 14.9397 -4.2441 7.6485 25.4731 8.7769
# 6 4.2388 16.6315 11.6457 -0.7973 8.7769 29.9167
#
#
#
# Elastic Compliance Matrix: (Units=1/GPa)
#
#
# Indices 1 2 3 4 5 6 
#
# 1 0.029382 -0.003861 -0.012484 0.007598 -0.012841 0.006813
# 2 -0.003861 0.009764 0.002338 -0.008956 0.000593 -0.006204
# 3 -0.012484 0.002338 0.022335 -0.011132 0.013568 -0.012503
# 4 0.007598 -0.008956 -0.011132 0.031443 -0.012617 0.012775
# 5 -0.012841 0.000593 0.013568 -0.012617 0.055678 -0.020463
# 6 0.006813 -0.006204 -0.012503 0.012775 -0.020463 0.047120
#
#
# Mechanical properties :
#
#
# Convention : Reuss Voigt Hill
#
# Bulk Modulus (GPa) = 29.88009 44.65328 37.26669
# Shear Modulus (GPa) = 21.28644 36.57902 28.93273
#
# Velocity S-wave (km/s) = 2.81916 3.69559 3.28672
# Velocity P-wave (km/s) = 4.66402 5.90609 5.32142
#
# Compressibility (1/GPa) = 0.03346710
#
# Stress axis : x y z
#
# Youngs Moduli (GPa) = 34.03437 102.42048 44.77350
#
# Poissons Ratio (x) = 0.39546 0.55894
# Poissons Ratio (y) = 0.13141 -0.10469
# Poissons Ratio (z) = 0.42488 -0.23949
#
# Static dielectric constant tensor:
#      x y z
#    x 2.179060 -0.045440 -0.031810 
#    y -0.045440 2.254380 0.064310 
#    z -0.031810 0.064310 2.178720 
# 
# From -- ./inp_files/216763.got.cif
#   From: 2010.05.17/outbox.cif.g08.bks.cpg/sg2_109_cif.got.tgz:216763.got - 2010.06.03 11:33:40.
