data_PCOD9006326
_publ_section_title
;
Structure prediction by ZEFSAII (Michael W. Deem and Ramdas Pophale) SiO2 
 PCOD9006326
Probable space group: P -1
;
_chemical_formula_sum "Si O2"
_cell_formula_units_Z 16
_cell_length_a 23.683098
_cell_length_b 17.408276
_cell_length_c 15.005309
_cell_angle_alpha 24.680471
_cell_angle_beta 20.361276
_cell_angle_gamma 18.943818
_cell_volume 685.513262
_symmetry_space_group_name_H-M "P -1"
_symmetry_group_IT_number 2
_symmetry_cell_setting 'triclinic'
loop_
_space_group_symop_operation_xyz
x,y,z
-x,-y,-z
loop_
_atom_site_type_symbol
_atom_site_label
_atom_site_fract_x
_atom_site_fract_y
_atom_site_fract_z
Si Si1 0.734227 0.397869 0.747770
Si Si2 0.358463 0.202846 0.069379
Si Si3 0.274093 0.837114 0.349621
Si Si4 0.840764 0.330493 0.464627
Si Si5 0.976981 0.736018 0.384193
Si Si6 0.679147 0.788187 0.312758
Si Si7 0.175328 0.181817 0.662191
Si Si8 0.977075 0.252558 0.066367
O O1 0.805466 0.274896 0.675099
O O2 0.876348 0.261195 0.767495
O O3 0.723971 0.624651 0.505021
O O4 0.500000 0.500000 0.000000
O O5 0.505397 0.230159 0.881605
O O6 0.174005 0.457172 0.027295
O O7 0.243729 0.140891 0.368082
O O8 0.500000 0.000000 0.000000
O O9 0.275329 0.699317 0.408739
O O10 0.183810 0.784734 0.621437
O O11 0.092831 0.122907 0.297810
O O12 0.249039 0.397544 0.678622
O O13 0.088087 0.454357 0.506204
O O14 0.930084 0.837123 0.247894
O O15 0.428823 0.006706 0.456136
O O16 0.839406 0.838076 0.037361
O O17 0.098207 0.143581 0.907881
#
# Coordination Sequence:
#
# PCOD9006326 Si02
#       8
#     2   2   2   2   2   2   2   2
#     4  10  21  39  65  89 126 164 208 260 315 377
#     4  11  22  43  64  87 128 173 212 252 320 374
#     4  11  23  39  65  91 125 170 209 269 306 365
#     4   9  23  41  58  96 121 165 221 252 311 377
#     4  10  22  40  62  93 126 165 210 258 317 380
#     4  10  21  41  62  94 127 165 209 259 321 369
#     4  10  21  38  65  95 124 165 205 263 316 375
#     4  11  23  39  64  95 130 161 219 259 312 382
#
# _framework density 23.340176
#
# number of rings (size 3 to 8) (size 9 to 14) (size 15 to 20)
#    0.750    1.000    2.500    2.250    1.750    6.500 
#    0.000    1.875    0.000    0.000    0.000    0.000 
#    0.000    0.000    0.000    0.000    0.000    0.000 
#
# Total GULP energy -89439.154948 kJ/mol
# GULP energy per Si atom -5589.947184 kJ/mol
# Density = 2.328705 g / cm^3
# Si number density = 23.340176 Si / 1000 Ang^3
#
#
#
# Elastic Constant Matrix: (Units=GPa)
#
#
# Indices 1 2 3 4 5 6 
#
# 1 157.0426 41.6527 69.5521 24.9726 -8.2935 -0.8666
# 2 41.6527 68.6795 24.3028 19.3128 4.7045 16.6504
# 3 69.5521 24.3028 102.9775 17.8656 -10.7662 -6.4759
# 4 24.9726 19.3128 17.8656 32.6200 -7.5985 -0.8112
# 5 -8.2935 4.7045 -10.7662 -7.5985 44.1843 2.3700
# 6 -0.8666 16.6504 -6.4759 -0.8112 2.3700 30.5687
#
#
#
# Elastic Compliance Matrix: (Units=1/GPa)
#
#
# Indices 1 2 3 4 5 6 
#
# 1 0.010234 -0.003938 -0.005441 -0.002367 0.000544 0.001178
# 2 -0.003938 0.025064 -0.002630 -0.011983 -0.005346 -0.014224
# 3 -0.005441 -0.002630 0.014817 -0.001743 0.002345 0.004189
# 4 -0.002367 -0.011983 -0.001743 0.042392 0.007341 0.006647
# 5 0.000544 -0.005346 0.002345 0.007341 0.025048 0.001677
# 6 0.001178 -0.014224 0.004189 0.006647 0.001677 0.041428
#
#
# Mechanical properties :
#
#
# Convention : Reuss Voigt Hill
#
# Bulk Modulus (GPa) = 38.31884 66.63498 52.47691
# Shear Modulus (GPa) = 26.08257 34.35407 30.21832
#
# Velocity S-wave (km/s) = 3.34652 3.84068 3.60209
# Velocity P-wave (km/s) = 5.60228 6.94832 6.31129
#
# Compressibility (1/GPa) = 0.02609682
#
# Stress axis : x y z
#
# Youngs Moduli (GPa) = 97.71780 39.89826 67.48950
#
# Poissons Ratio (x) = 0.15714 0.36720
# Poissons Ratio (y) = 0.38486 0.17747
# Poissons Ratio (z) = 0.53166 0.10491
#
# Static dielectric constant tensor:
#      x y z
#    x 1.881440 0.014980 0.012450 
#    y 0.014980 1.936170 -0.081060 
#    z 0.012450 -0.081060 1.895130 
# 
# From -- ./inp_files/543133.got.cif
#   From: 2010.05.17/outbox.cif.g08.bks.cpg/sg2_272_cif.got.tgz:543133.got - 2010.06.03 11:33:40.
