data_PCOD9006734
_publ_section_title
;
Structure prediction by ZEFSAII (Michael W. Deem and Ramdas Pophale) SiO2 
 PCOD9006734
Probable space group: P -1
;
_chemical_formula_sum "Si O2"
_cell_formula_units_Z 16
_cell_length_a 9.940809
_cell_length_b 7.564227
_cell_length_c 11.837680
_cell_angle_alpha 121.051525
_cell_angle_beta 118.476911
_cell_angle_gamma 72.299679
_cell_volume 668.314178
_symmetry_space_group_name_H-M "P -1"
_symmetry_group_IT_number 2
_symmetry_cell_setting 'triclinic'
loop_
_space_group_symop_operation_xyz
x,y,z
-x,-y,-z
loop_
_atom_site_type_symbol
_atom_site_label
_atom_site_fract_x
_atom_site_fract_y
_atom_site_fract_z
Si Si1 0.247663 0.511011 0.863043
Si Si2 0.536744 0.937319 0.864080
Si Si3 0.535809 0.339649 0.833797
Si Si4 0.635863 0.346393 0.454871
Si Si5 0.974185 0.410166 0.610538
Si Si6 0.661491 0.094185 0.600968
Si Si7 0.140308 0.991343 0.964792
Si Si8 0.976296 0.852956 0.655672
O O1 0.359659 0.430186 0.778889
O O2 0.213716 0.756970 0.928688
O O3 0.087675 0.404548 0.762225
O O4 0.365561 0.491320 0.009125
O O5 0.428284 0.767529 0.717264
O O6 0.518287 0.131154 0.832767
O O7 0.500000 0.000000 0.000000
O O8 0.719932 0.868791 0.908861
O O9 0.631351 0.274317 0.739822
O O10 0.500000 0.500000 0.500000
O O11 0.792170 0.456806 0.547207
O O12 0.686050 0.176995 0.513869
O O13 0.025847 0.622315 0.645737
O O14 0.006233 0.196720 0.485267
O O15 0.500000 0.000000 0.500000
O O16 0.802536 0.935998 0.639005
O O17 0.077816 0.004741 0.816198
O O18 0.000000 0.000000 0.000000
#
# Coordination Sequence:
#
# PCOD9006734 Si02
#       8
#     2   2   2   2   2   2   2   2
#     4   9  20  38  67  90 130 167 217 273 320 398
#     4  11  24  44  67  95 132 179 224 280 337 399
#     4  10  21  41  68  98 124 175 228 267 327 401
#     4  12  28  43  65  99 142 172 221 284 342 397
#     4  10  22  40  62  97 131 173 215 271 335 399
#     4  12  23  41  68  96 129 174 220 270 330 400
#     4  10  21  38  68  93 125 171 227 272 324 403
#     4  10  21  40  68  93 125 176 221 267 327 403
#
# _framework density 23.940837999999999
#
# number of rings (size 3 to 8) (size 9 to 14) (size 15 to 20)
#    0.000    1.500    1.250    3.750    3.500    6.500 
#    2.250    0.625    0.000    0.000    0.000    0.000 
#    0.000    0.000    0.000    0.000    0.000    0.000 
#
# Total GULP energy -89244.457098 kJ/mol
# GULP energy per Si atom -5577.778569 kJ/mol
# Density = 2.388635 g / cm^3
# Si number density = 23.940838 Si / 1000 Ang^3
#
#
#
# Elastic Constant Matrix: (Units=GPa)
#
#
# Indices 1 2 3 4 5 6 
#
# 1 89.2752 15.0816 40.0318 -2.0314 18.4630 -33.9658
# 2 15.0816 58.0113 8.7887 -6.1761 -1.2897 -16.0174
# 3 40.0318 8.7887 145.2713 5.8240 23.9870 -8.4303
# 4 -2.0314 -6.1761 5.8240 14.3423 -5.1375 -3.8343
# 5 18.4630 -1.2897 23.9870 -5.1375 45.0998 -4.2324
# 6 -33.9658 -16.0174 -8.4303 -3.8343 -4.2324 51.9397
#
#
#
# Elastic Compliance Matrix: (Units=1/GPa)
#
#
# Indices 1 2 3 4 5 6 
#
# 1 0.018227 -0.000516 -0.003960 0.005656 -0.003672 0.011236
# 2 -0.000516 0.021128 -0.001908 0.013149 0.004000 0.007165
# 3 -0.003960 -0.001908 0.008931 -0.007229 -0.004252 -0.002609
# 4 0.005656 0.013149 -0.007229 0.087633 0.013214 0.014126
# 5 -0.003672 0.004000 -0.004252 0.013214 0.027686 0.001374
# 6 0.011236 0.007165 -0.002609 0.014126 0.001374 0.029542
#
#
# Mechanical properties :
#
#
# Convention : Reuss Voigt Hill
#
# Bulk Modulus (GPa) = 28.15410 46.70689 37.43050
# Shear Modulus (GPa) = 22.96169 37.52009 30.24089
#
# Velocity S-wave (km/s) = 3.10030 3.96308 3.55794
# Velocity P-wave (km/s) = 4.95996 6.36341 5.70501
#
# Compressibility (1/GPa) = 0.03551880
#
# Stress axis : x y z
#
# Youngs Moduli (GPa) = 54.86342 47.32979 111.97156
#
# Poissons Ratio (x) = 0.02441 0.44341
# Poissons Ratio (y) = 0.02830 0.21364
# Poissons Ratio (z) = 0.21726 0.09030
#
# Static dielectric constant tensor:
#      x y z
#    x 1.968110 0.005800 -0.016520 
#    y 0.005800 1.953340 -0.069160 
#    z -0.016520 -0.069160 2.091730 
# 
# From -- ./inp_files/383359.got.cif
#   From: 2010.05.17/outbox.cif.g08.bks.cpg/sg2_192_cif.got.tgz:383359.got - 2010.06.03 11:33:40.
