data_PCOD9006640
_publ_section_title
;
Structure prediction by ZEFSAII (Michael W. Deem and Ramdas Pophale) SiO2 
 PCOD9006640
Probable space group: P -1
;
_chemical_formula_sum "Si O2"
_cell_formula_units_Z 16
_cell_length_a 7.888569
_cell_length_b 23.937470
_cell_length_c 8.626692
_cell_angle_alpha 149.244986
_cell_angle_beta 127.835801
_cell_angle_gamma 49.926717
_cell_volume 629.862275
_symmetry_space_group_name_H-M "P -1"
_symmetry_group_IT_number 2
_symmetry_cell_setting 'triclinic'
loop_
_space_group_symop_operation_xyz
x,y,z
-x,-y,-z
loop_
_atom_site_type_symbol
_atom_site_label
_atom_site_fract_x
_atom_site_fract_y
_atom_site_fract_z
Si Si1 0.379818 0.313230 0.458110
Si Si2 0.811155 0.301860 0.863403
Si Si3 0.264779 0.353229 0.133522
Si Si4 0.134719 0.600820 0.546032
Si Si5 0.061296 0.098973 0.364922
Si Si6 0.903580 0.203103 0.218245
Si Si7 0.669430 0.928709 0.054015
Si Si8 0.461639 0.887127 0.327107
O O1 0.582280 0.338720 0.726106
O O2 0.368296 0.346488 0.349813
O O3 0.134581 0.376241 0.538825
O O4 0.404834 0.177209 0.167442
O O5 0.905649 0.163270 0.569957
O O6 0.792801 0.339743 0.121003
O O7 0.012769 0.348567 0.022754
O O8 0.251718 0.467735 0.309052
O O9 0.410224 0.243171 0.858931
O O10 0.176652 0.668626 0.582238
O O11 0.317682 0.075233 0.503225
O O12 0.003237 0.193468 0.420943
O O13 0.000000 0.000000 0.000000
O O14 0.712237 0.140158 0.953295
O O15 0.096603 0.131992 0.041578
O O16 0.668736 0.023407 0.406762
O O17 0.500000 0.000000 0.000000
#
# Coordination Sequence:
#
# PCOD9006640 Si02
#       8
#     2   2   2   2   2   2   2   2
#     4  10  21  39  67  95 126 165 212 261 318 378
#     4  10  21  38  67  94 124 171 209 261 317 375
#     4  10  23  43  63  95 129 163 218 266 308 380
#     4  10  24  42  65  94 131 164 220 266 307 376
#     4  11  24  41  64  95 134 164 212 263 316 387
#     4  11  25  42  65  96 129 170 214 260 323 378
#     4  11  23  41  65  92 132 164 207 265 315 386
#     4  11  24  42  66  93 128 171 208 259 328 376
#
# _framework density 25.402379
#
# number of rings (size 3 to 8) (size 9 to 14) (size 15 to 20)
#    0.000    1.500    1.250    3.375    1.750    7.500 
#    0.000    2.500    2.750    0.000    0.000    0.000 
#    0.000    0.000    0.000    0.000    0.000    0.000 
#
# Total GULP energy -89585.389095 kJ/mol
# GULP energy per Si atom -5599.086818 kJ/mol
# Density = 2.534456 g / cm^3
# Si number density = 25.402379 Si / 1000 Ang^3
#
#
#
# Elastic Constant Matrix: (Units=GPa)
#
#
# Indices 1 2 3 4 5 6 
#
# 1 84.1973 33.8430 18.2259 -2.5435 15.8344 -10.2445
# 2 33.8430 170.3761 51.1112 -3.8533 26.0908 -2.5350
# 3 18.2259 51.1112 58.0063 -9.8436 6.5111 -12.8045
# 4 -2.5435 -3.8533 -9.8436 63.3549 -13.2070 17.2256
# 5 15.8344 26.0908 6.5111 -13.2070 32.5494 -6.3531
# 6 -10.2445 -2.5350 -12.8045 17.2256 -6.3531 40.8478
#
#
#
# Elastic Compliance Matrix: (Units=1/GPa)
#
#
# Indices 1 2 3 4 5 6 
#
# 1 0.014231 -0.001210 -0.002501 -0.001773 -0.005669 0.002576
# 2 -0.001210 0.009432 -0.008025 -0.001336 -0.006430 -0.002670
# 3 -0.002501 -0.008025 0.026517 0.002675 0.004757 0.006799
# 4 -0.001773 -0.001336 0.002675 0.019536 0.008021 -0.006680
# 5 -0.005669 -0.006430 0.004757 0.008021 0.041472 0.002738
# 6 0.002576 -0.002670 0.006799 -0.006680 0.002738 0.030335
#
#
# Mechanical properties :
#
#
# Convention : Reuss Voigt Hill
#
# Bulk Modulus (GPa) = 37.44261 57.65998 47.55130
# Shear Modulus (GPa) = 28.75268 41.31040 35.03154
#
# Velocity S-wave (km/s) = 3.36801 4.03704 3.71761
# Velocity P-wave (km/s) = 5.46776 6.66920 6.09814
#
# Compressibility (1/GPa) = 0.02670754
#
# Stress axis : x y z
#
# Youngs Moduli (GPa) = 70.27080 106.02438 37.71150
#
# Poissons Ratio (x) = 0.12830 0.09432
# Poissons Ratio (y) = 0.08503 0.30263
# Poissons Ratio (z) = 0.17575 0.85084
#
# Static dielectric constant tensor:
#      x y z
#    x 2.036410 -0.016200 0.011020 
#    y -0.016200 2.021020 0.086980 
#    z 0.011020 0.086980 2.019360 
# 
# From -- ./inp_files/226836.got.cif
#   From: 2010.05.17/outbox.cif.g08.bks.cpg/sg2_114_cif.got.tgz:226836.got - 2010.06.03 11:33:40.
