data_PCOD9006166
_publ_section_title
;
Structure prediction by ZEFSAII (Michael W. Deem and Ramdas Pophale) SiO2 
 PCOD9006166
Probable space group: P -1
;
_chemical_formula_sum "Si O2"
_cell_formula_units_Z 16
_cell_length_a 17.737610
_cell_length_b 9.576687
_cell_length_c 5.049722
_cell_angle_alpha 70.386942
_cell_angle_beta 93.481782
_cell_angle_gamma 56.446219
_cell_volume 639.383503
_symmetry_space_group_name_H-M "P -1"
_symmetry_group_IT_number 2
_symmetry_cell_setting 'triclinic'
loop_
_space_group_symop_operation_xyz
x,y,z
-x,-y,-z
loop_
_atom_site_type_symbol
_atom_site_label
_atom_site_fract_x
_atom_site_fract_y
_atom_site_fract_z
Si Si1 0.089276 0.933822 0.879790
Si Si2 0.350967 0.454185 0.743296
Si Si3 0.547310 0.282301 0.704472
Si Si4 0.167204 0.096049 0.129122
Si Si5 0.986632 0.705224 0.664035
Si Si6 0.148616 0.368852 0.607926
Si Si7 0.335430 0.814847 0.693223
Si Si8 0.236739 0.503012 0.171548
O O1 0.148136 0.718430 0.952822
O O2 0.160480 0.955985 0.044427
O O3 0.046146 0.089984 0.545042
O O4 0.000000 0.000000 0.000000
O O5 0.461033 0.291324 0.801983
O O6 0.342595 0.630639 0.748172
O O7 0.296204 0.507979 0.419639
O O8 0.301429 0.412527 0.982418
O O9 0.500000 0.500000 0.500000
O O10 0.593250 0.187464 0.494229
O O11 0.628622 0.202779 0.993032
O O12 0.055514 0.264057 0.070355
O O13 0.230950 0.989757 0.467831
O O14 0.207438 0.188711 0.923010
O O15 0.923166 0.660358 0.525732
O O16 0.091214 0.548066 0.677019
O O17 0.199822 0.398169 0.370307
#
# Coordination Sequence:
#
# PCOD9006166 Si02
#       8
#     2   2   2   2   2   2   2   2
#     4  11  23  40  60  95 134 169 216 276 333 371
#     4  11  22  39  64  96 133 162 213 270 333 391
#     4  10  21  38  65 100 135 167 205 272 341 393
#     4  11  24  39  66  91 129 178 223 269 318 399
#     4  10  22  42  63  85 129 172 234 265 320 384
#     4  10  24  41  60  91 125 181 222 268 318 386
#     4  11  21  38  67 100 132 168 216 268 331 395
#     4  12  24  40  65  97 134 171 217 270 329 385
#
# _framework density 25.024104000000001
#
# number of rings (size 3 to 8) (size 9 to 14) (size 15 to 20)
#    0.000    1.250    2.500    4.875    5.250    1.500 
#    0.000    0.000    0.000    4.500    0.000    0.000 
#    0.000    0.000    0.000    0.000    0.000    0.000 
#
# Total GULP energy -89619.269821 kJ/mol
# GULP energy per Si atom -5601.204364 kJ/mol
# Density = 2.496715 g / cm^3
# Si number density = 25.024104 Si / 1000 Ang^3
#
#
#
# Elastic Constant Matrix: (Units=GPa)
#
#
# Indices 1 2 3 4 5 6 
#
# 1 112.3231 39.5088 48.5073 -1.7406 -23.6087 -15.9957
# 2 39.5088 76.8002 28.5429 12.0772 -12.7331 -14.6884
# 3 48.5073 28.5429 141.2419 1.3558 -12.5552 -4.8704
# 4 -1.7406 12.0772 1.3558 33.4653 -7.7621 -5.1460
# 5 -23.6087 -12.7331 -12.5552 -7.7621 50.2482 16.4034
# 6 -15.9957 -14.6884 -4.8704 -5.1460 16.4034 45.1344
#
#
#
# Elastic Compliance Matrix: (Units=1/GPa)
#
#
# Indices 1 2 3 4 5 6 
#
# 1 0.013276 -0.005301 -0.003097 0.003948 0.004220 0.001562
# 2 -0.005301 0.017897 -0.001660 -0.006265 -0.000379 0.003190
# 3 -0.003097 -0.001660 0.008496 0.000083 0.000559 -0.000914
# 4 0.003948 -0.006265 0.000083 0.033728 0.005048 0.001380
# 5 0.004220 -0.000379 0.000559 0.005048 0.025020 -0.007085
# 6 0.001562 0.003190 -0.000914 0.001380 -0.007085 0.026381
#
#
# Mechanical properties :
#
#
# Convention : Reuss Voigt Hill
#
# Bulk Modulus (GPa) = 51.14102 62.60926 56.87514
# Shear Modulus (GPa) = 33.01830 40.02334 36.52082
#
# Velocity S-wave (km/s) = 3.63638 4.00358 3.82439
# Velocity P-wave (km/s) = 6.17350 6.81509 6.50221
#
# Compressibility (1/GPa) = 0.01955378
#
# Stress axis : x y z
#
# Youngs Moduli (GPa) = 75.32663 55.87519 117.69706
#
# Poissons Ratio (x) = 0.29619 0.36450
# Poissons Ratio (y) = 0.39929 0.19535
# Poissons Ratio (z) = 0.23328 0.09274
#
# Static dielectric constant tensor:
#      x y z
#    x 2.051100 -0.048030 -0.013540 
#    y -0.048030 2.005100 0.032430 
#    z -0.013540 0.032430 1.994940 
# 
# From -- ./inp_files/108853.got.cif
#   From: 2010.05.17/outbox.cif.g08.bks.cpg/sg2_55_cif.got.tgz:108853.got - 2010.06.03 11:33:40.
