data_PCOD9006245
_publ_section_title
;
Structure prediction by ZEFSAII (Michael W. Deem and Ramdas Pophale) SiO2 
 PCOD9006245
Probable space group: P -1
;
_chemical_formula_sum "Si O2"
_cell_formula_units_Z 15
_cell_length_a 8.951362
_cell_length_b 9.575507
_cell_length_c 10.665504
_cell_angle_alpha 125.273974
_cell_angle_beta 59.904775
_cell_angle_gamma 113.925882
_cell_volume 636.961957
_symmetry_space_group_name_H-M "P -1"
_symmetry_group_IT_number 2
_symmetry_cell_setting 'triclinic'
loop_
_space_group_symop_operation_xyz
x,y,z
-x,-y,-z
loop_
_atom_site_type_symbol
_atom_site_label
_atom_site_fract_x
_atom_site_fract_y
_atom_site_fract_z
Si Si1 0.000000 0.500000 0.500000
Si Si2 0.649462 0.618445 0.171353
Si Si3 0.905233 0.127515 0.461135
Si Si4 0.977793 0.771683 0.256331
Si Si5 0.126269 0.287198 0.122121
Si Si6 0.251088 0.923819 0.891896
Si Si7 0.465542 0.913849 0.304376
Si Si8 0.657001 0.252166 0.994952
O O1 0.071169 0.707205 0.550289
O O2 0.118630 0.438855 0.302741
O O3 0.789186 0.669232 0.249123
O O4 0.521592 0.755806 0.275893
O O5 0.761105 0.635712 0.004863
O O6 0.564635 0.420586 0.125519
O O7 0.705986 0.044085 0.534573
O O8 0.994952 0.197792 0.591442
O O9 0.991158 0.965717 0.293566
O O10 0.135213 0.689287 0.089198
O O11 0.928698 0.207952 0.121165
O O12 0.206980 0.115823 0.038194
O O13 0.366340 0.943953 0.725836
O O14 0.353148 0.852391 0.926357
O O15 0.406081 0.852804 0.157393
#
# Coordination Sequence:
#
# PCOD9006245 Si02
#       8
#     1   2   2   2   2   2   2   2
#     4  12  24  38  64  92 130 156 210 262 312 374
#     4  11  22  39  68  93 128 160 216 263 310 370
#     4  10  24  42  64  91 127 168 208 256 325 369
#     4  10  21  41  64  93 121 168 212 257 309 380
#     4  10  22  39  61  98 123 168 209 262 311 373
#     4  10  21  38  65  91 127 164 218 252 311 377
#     4  10  23  40  60  93 129 168 201 258 325 371
#     4  11  20  36  65  94 121 161 212 268 302 368
#
# _framework density 23.549285000000001
#
# number of rings (size 3 to 8) (size 9 to 14) (size 15 to 20)
#    0.000    1.600    1.333    3.600    5.600    1.600 
#    0.000    4.000    0.000    1.600    0.000    0.000 
#    0.000    0.000    0.000    0.000    0.000    0.000 
#
# Total GULP energy -83690.375215 kJ/mol
# GULP energy per Si atom -5579.358348 kJ/mol
# Density = 2.349569 g / cm^3
# Si number density = 23.549285 Si / 1000 Ang^3
#
#
#
# Elastic Constant Matrix: (Units=GPa)
#
#
# Indices 1 2 3 4 5 6 
#
# 1 68.5681 24.4090 24.4675 -5.8796 -8.1392 -12.2250
# 2 24.4090 92.5964 -0.7828 12.9725 7.0053 -20.8557
# 3 24.4675 -0.7828 61.5869 9.0140 10.9832 -9.6935
# 4 -5.8796 12.9725 9.0140 23.6741 1.3970 -4.6883
# 5 -8.1392 7.0053 10.9832 1.3970 19.9511 2.6190
# 6 -12.2250 -20.8557 -9.6935 -4.6883 2.6190 22.8596
#
#
#
# Elastic Compliance Matrix: (Units=1/GPa)
#
#
# Indices 1 2 3 4 5 6 
#
# 1 0.032841 -0.015439 -0.022757 0.022486 0.030435 -0.005048
# 2 -0.015439 0.023886 0.016668 -0.017855 -0.025214 0.019830
# 3 -0.022757 0.016668 0.038522 -0.023536 -0.037163 0.018803
# 4 0.022486 -0.017855 -0.023536 0.064370 0.024396 -0.003838
# 5 0.030435 -0.025214 -0.037163 0.024396 0.093849 -0.028236
# 6 -0.005048 0.019830 0.018803 -0.003838 -0.028236 0.069559
#
#
# Mechanical properties :
#
#
# Convention : Reuss Voigt Hill
#
# Bulk Modulus (GPa) = 19.15934 35.43764 27.29849
# Shear Modulus (GPa) = 13.03849 24.94082 18.98965
#
# Velocity S-wave (km/s) = 2.35557 3.25790 2.84276
# Velocity P-wave (km/s) = 3.94357 5.40674 4.73205
#
# Compressibility (1/GPa) = 0.05219386
#
# Stress axis : x y z
#
# Youngs Moduli (GPa) = 30.44939 41.86603 25.95920
#
# Poissons Ratio (x) = 0.64638 0.59075
# Poissons Ratio (y) = 0.47011 -0.43270
# Poissons Ratio (z) = 0.69293 -0.69784
#
# Static dielectric constant tensor:
#      x y z
#    x 1.952150 0.011030 -0.000960 
#    y 0.011030 1.883980 -0.013790 
#    z -0.000960 -0.013790 1.855370 
# 
# From -- ./inp_files/261527.got.cif
#   From: 2010.05.17/outbox.cif.g08.bks.cpg/sg2_131_cif.got.tgz:261527.got - 2010.06.03 11:33:40.
