data_PCOD9006239
_publ_section_title
;
Structure prediction by ZEFSAII (Michael W. Deem and Ramdas Pophale) SiO2 
 PCOD9006239
Probable space group: P -1
;
_chemical_formula_sum "Si O2"
_cell_formula_units_Z 14
_cell_length_a 8.924224
_cell_length_b 5.144477
_cell_length_c 15.046752
_cell_angle_alpha 75.352324
_cell_angle_beta 69.629441
_cell_angle_gamma 78.955755
_cell_volume 622.457293
_symmetry_space_group_name_H-M "P -1"
_symmetry_group_IT_number 2
_symmetry_cell_setting 'triclinic'
loop_
_space_group_symop_operation_xyz
x,y,z
-x,-y,-z
loop_
_atom_site_type_symbol
_atom_site_label
_atom_site_fract_x
_atom_site_fract_y
_atom_site_fract_z
Si Si1 0.607180 0.631878 0.538743
Si Si2 0.028259 0.245994 0.303792
Si Si3 0.893152 0.348491 0.602407
Si Si4 0.375663 0.930614 0.825940
Si Si5 0.679841 0.928859 0.853021
Si Si6 0.583589 0.669018 0.071901
Si Si7 0.296309 0.948146 0.648427
O O1 0.500000 0.500000 0.500000
O O2 0.713727 0.424946 0.596475
O O3 0.476774 0.807986 0.609862
O O4 0.716252 0.816780 0.443045
O O5 0.077035 0.509248 0.321323
O O6 0.138306 0.163460 0.202035
O O7 0.838972 0.250281 0.323277
O O8 0.067264 0.972933 0.377827
O O9 0.000000 0.500000 0.500000
O O10 0.571241 0.918276 0.787566
O O11 0.354178 0.624960 0.881058
O O12 0.291540 0.035804 0.744169
O O13 0.330565 0.123884 0.901959
O O14 0.606489 0.225512 0.879345
O O15 0.620689 0.730444 0.957229
#
# Coordination Sequence:
#
# PCOD9006239 Si02
#       7
#     2   2   2   2   2   2   2
#     4  11  26  42  67  89 130 175 212 268 315 383
#     4  12  27  42  67  99 129 173 213 271 311 387
#     4  12  26  46  67  93 133 170 221 259 321 372
#     4  10  21  38  65  91 125 165 213 258 318 378
#     4   9  22  39  67  91 128 160 222 254 322 373
#     4   9  21  38  66  93 122 165 212 266 309 386
#     4  11  26  42  60  98 131 167 215 263 325 377
#
# _framework density 22.491503000000002
#
# number of rings (size 3 to 8) (size 9 to 14) (size 15 to 20)
#    0.857    0.571    1.429    2.571   12.000    0.000 
#    0.000    1.429    0.000    0.000    0.000    0.000 
#    0.000    0.000    0.000    0.000    0.000    0.000 
#
# Total GULP energy -78130.657188 kJ/mol
# GULP energy per Si atom -5580.761228 kJ/mol
# Density = 2.244031 g / cm^3
# Si number density = 22.491503 Si / 1000 Ang^3
#
#
#
# Elastic Constant Matrix: (Units=GPa)
#
#
# Indices 1 2 3 4 5 6 
#
# 1 77.8241 3.7909 25.6159 1.0152 15.1283 8.1048
# 2 3.7909 84.1917 8.5745 0.8813 4.5271 4.3753
# 3 25.6159 8.5745 83.1990 9.9984 -7.4735 -1.0264
# 4 1.0152 0.8813 9.9984 28.1435 4.4060 8.3266
# 5 15.1283 4.5271 -7.4735 4.4060 31.0492 1.6663
# 6 8.1048 4.3753 -1.0264 8.3266 1.6663 28.0739
#
#
#
# Elastic Compliance Matrix: (Units=1/GPa)
#
#
# Indices 1 2 3 4 5 6 
#
# 1 0.018021 0.000825 -0.007394 0.005651 -0.011127 -0.006617
# 2 0.000825 0.012304 -0.001974 0.001454 -0.002743 -0.002496
# 3 -0.007394 -0.001974 0.016346 -0.008323 0.008738 0.004990
# 4 0.005651 0.001454 -0.008323 0.044212 -0.010456 -0.014655
# 5 -0.011127 -0.002743 0.008738 -0.010456 0.041368 0.004605
# 6 -0.006617 -0.002496 0.004990 -0.014655 0.004605 0.042175
#
#
# Mechanical properties :
#
#
# Convention : Reuss Voigt Hill
#
# Bulk Modulus (GPa) = 33.80108 35.68639 34.74373
# Shear Modulus (GPa) = 24.82934 31.26887 28.04911
#
# Velocity S-wave (km/s) = 3.32617 3.73265 3.53526
# Velocity P-wave (km/s) = 5.46005 5.87180 5.66966
#
# Compressibility (1/GPa) = 0.02958486
#
# Stress axis : x y z
#
# Youngs Moduli (GPa) = 55.48941 81.27734 61.17735
#
# Poissons Ratio (x) = -0.06702 0.45233
# Poissons Ratio (y) = -0.04576 0.12076
# Poissons Ratio (z) = 0.41028 0.16043
#
# Static dielectric constant tensor:
#      x y z
#    x 1.878060 0.010690 -0.020110 
#    y 0.010690 1.877640 0.015000 
#    z -0.020110 0.015000 1.840460 
# 
# From -- ./inp_files/487565.got.cif
#   From: 2010.05.17/outbox.cif.g08.bks.cpg/sg2_244_cif.got.tgz:487565.got - 2010.06.03 11:33:40.
