data_PCOD9006635
_publ_section_title
;
Structure prediction by ZEFSAII (Michael W. Deem and Ramdas Pophale) SiO2 
 PCOD9006635
Probable space group: P -1
;
_chemical_formula_sum "Si O2"
_cell_formula_units_Z 16
_cell_length_a 15.734778
_cell_length_b 12.315523
_cell_length_c 8.615796
_cell_angle_alpha 132.607217
_cell_angle_beta 90.463812
_cell_angle_gamma 50.511111
_cell_volume 634.030873
_symmetry_space_group_name_H-M "P -1"
_symmetry_group_IT_number 2
_symmetry_cell_setting 'triclinic'
loop_
_space_group_symop_operation_xyz
x,y,z
-x,-y,-z
loop_
_atom_site_type_symbol
_atom_site_label
_atom_site_fract_x
_atom_site_fract_y
_atom_site_fract_z
Si Si1 0.581251 0.410238 0.080723
Si Si2 0.430343 0.315289 0.462275
Si Si3 0.068493 0.822604 0.482755
Si Si4 0.426530 0.038044 0.307358
Si Si5 0.353808 0.555415 0.389247
Si Si6 0.808355 0.814269 0.972522
Si Si7 0.900281 0.858490 0.729212
Si Si8 0.262852 0.248954 0.817744
O O1 0.605965 0.547642 0.242293
O O2 0.439904 0.577153 0.363129
O O3 0.500000 0.500000 0.000000
O O4 0.743452 0.082370 0.824364
O O5 0.357832 0.258547 0.398191
O O6 0.336819 0.555035 0.569095
O O7 0.623185 0.033237 0.140769
O O8 0.194227 0.755882 0.484758
O O9 0.973307 0.905144 0.714302
O O10 0.142395 0.560263 0.161678
O O11 0.000000 0.000000 0.500000
O O12 0.294855 0.187993 0.577869
O O13 0.565362 0.939751 0.291855
O O14 0.520799 0.759831 0.972389
O O15 0.845269 0.899624 0.945400
O O16 0.954364 0.479147 0.618641
O O17 0.791671 0.821713 0.167633
#
# Coordination Sequence:
#
# PCOD9006635 Si02
#       8
#     2   2   2   2   2   2   2   2
#     4  12  27  42  70 101 140 181 231 286 353 412
#     4  11  23  43  70 101 138 179 231 293 340 419
#     4  10  21  38  67  93 142 181 228 281 351 416
#     4   9  19  34  66  96 131 164 229 278 338 396
#     4  11  23  42  67 103 130 181 233 282 342 412
#     4   9  19  39  68  90 134 180 228 278 341 406
#     4  10  21  41  66  97 138 188 220 287 351 410
#     4   8  17  33  60  96 122 174 217 280 326 398
#
# _framework density 25.235364000000001
#
# number of rings (size 3 to 8) (size 9 to 14) (size 15 to 20)
#    0.000    2.000    1.250    2.250    8.750    0.000 
#    0.000    1.250    5.500    0.000    0.000    0.000 
#    0.000    0.000    0.000    0.000    0.000    0.000 
#
# Total GULP energy -89255.767308 kJ/mol
# GULP energy per Si atom -5578.485457 kJ/mol
# Density = 2.517793 g / cm^3
# Si number density = 25.235364 Si / 1000 Ang^3
#
#
#
# Elastic Constant Matrix: (Units=GPa)
#
#
# Indices 1 2 3 4 5 6 
#
# 1 74.6229 40.8869 20.1023 2.5458 2.9799 23.5052
# 2 40.8869 139.1387 40.6448 10.6759 -9.5068 24.7632
# 3 20.1023 40.6448 87.8109 -2.1333 -3.9903 9.8823
# 4 2.5458 10.6759 -2.1333 43.4147 5.7313 -5.8984
# 5 2.9799 -9.5068 -3.9903 5.7313 35.4069 -9.8975
# 6 23.5052 24.7632 9.8823 -5.8984 -9.8975 57.2483
#
#
#
# Elastic Compliance Matrix: (Units=1/GPa)
#
#
# Indices 1 2 3 4 5 6 
#
# 1 0.018250 -0.003981 -0.001844 -0.000441 -0.004495 -0.006276
# 2 -0.003981 0.010155 -0.003519 -0.003053 0.002596 -0.002017
# 3 -0.001844 -0.003519 0.013478 0.001594 0.000530 0.000208
# 4 -0.000441 -0.003053 0.001594 0.024809 -0.003742 0.003136
# 5 -0.004495 0.002596 0.000530 -0.003742 0.031579 0.005706
# 6 -0.006276 -0.002017 0.000208 0.003136 0.005706 0.022190
#
#
# Mechanical properties :
#
#
# Convention : Reuss Voigt Hill
#
# Bulk Modulus (GPa) = 43.10940 56.09339 49.60139
# Shear Modulus (GPa) = 34.04150 40.54320 37.29235
#
# Velocity S-wave (km/s) = 3.67680 4.01259 3.84836
# Velocity P-wave (km/s) = 5.92834 6.61394 6.28050
#
# Compressibility (1/GPa) = 0.02319680
#
# Stress axis : x y z
#
# Youngs Moduli (GPa) = 54.79531 98.47206 74.19365
#
# Poissons Ratio (x) = 0.39197 0.13682
# Poissons Ratio (y) = 0.21811 0.26105
# Poissons Ratio (z) = 0.10105 0.34647
#
# Static dielectric constant tensor:
#      x y z
#    x 2.037250 0.079260 0.015670 
#    y 0.079260 2.142400 0.063130 
#    z 0.015670 0.063130 2.094490 
# 
# From -- ./inp_files/333609.got.cif
#   From: 2010.05.17/outbox.cif.g08.bks.cpg/sg2_167_cif.got.tgz:333609.got - 2010.06.03 11:33:40.
