data_PCOD9006103
_publ_section_title
;
Structure prediction by ZEFSAII (Michael W. Deem and Ramdas Pophale) SiO2 
 PCOD9006103
Probable space group: P -1
;
_chemical_formula_sum "Si O2"
_cell_formula_units_Z 16
_cell_length_a 20.305117
_cell_length_b 10.839712
_cell_length_c 5.808532
_cell_angle_alpha 76.193889
_cell_angle_beta 80.859711
_cell_angle_gamma 34.514312
_cell_volume 701.806189
_symmetry_space_group_name_H-M "P -1"
_symmetry_group_IT_number 2
_symmetry_cell_setting 'triclinic'
loop_
_space_group_symop_operation_xyz
x,y,z
-x,-y,-z
loop_
_atom_site_type_symbol
_atom_site_label
_atom_site_fract_x
_atom_site_fract_y
_atom_site_fract_z
Si Si1 0.074350 0.726731 0.697847
Si Si2 0.426077 0.787942 0.273237
Si Si3 0.759348 0.905999 0.115482
Si Si4 0.455093 0.018027 0.267680
Si Si5 0.004045 0.327446 0.869946
Si Si6 0.124987 0.915180 0.701623
Si Si7 0.214385 0.359210 0.438140
Si Si8 0.640721 0.313968 0.263444
O O1 0.111100 0.787185 0.809104
O O2 0.168208 0.550547 0.527352
O O3 0.059503 0.620361 0.890469
O O4 0.949564 0.948595 0.550777
O O5 0.480893 0.827199 0.337496
O O6 0.525850 0.572623 0.150399
O O7 0.391747 0.732958 0.495232
O O8 0.307531 0.018085 0.115226
O O9 0.736248 0.828092 0.340048
O O10 0.895495 0.728122 0.115038
O O11 0.697090 0.134759 0.123071
O O12 0.500000 0.000000 0.500000
O O13 0.314770 0.250138 0.261470
O O14 0.500000 0.000000 0.000000
O O15 0.900758 0.521752 0.666684
O O16 0.065976 0.103732 0.831265
O O17 0.257758 0.750217 0.681452
#
# Coordination Sequence:
#
# PCOD9006103 Si02
#       8
#     2   2   2   2   2   2   2   2
#     4  10  21  38  64  96 139 177 234 283 361 420
#     4  11  24  43  70  96 135 184 237 299 351 427
#     4  11  22  43  66 101 143 180 237 295 359 424
#     4  12  29  50  74 104 144 191 240 299 364 427
#     4  10  22  38  68 100 135 185 231 287 364 423
#     4   9  20  39  61  97 135 179 224 297 340 433
#     4  11  25  42  66  98 138 182 235 297 354 433
#     4  10  22  41  67  96 134 180 243 287 362 412
#
# _framework density 22.798316
#
# number of rings (size 3 to 8) (size 9 to 14) (size 15 to 20)
#    0.000    1.500    1.250    2.625    5.250    0.500 
#    0.000    2.500    0.000    0.000    0.000    0.000 
#    0.000    0.000    0.000    0.000    0.000    0.000 
#
# Total GULP energy -89366.737669 kJ/mol
# GULP energy per Si atom -5585.421104 kJ/mol
# Density = 2.274643 g / cm^3
# Si number density = 22.798316 Si / 1000 Ang^3
#
#
#
# Elastic Constant Matrix: (Units=GPa)
#
#
# Indices 1 2 3 4 5 6 
#
# 1 142.6445 43.0754 41.1706 3.4727 7.5934 -13.8769
# 2 43.0754 100.8812 20.9067 3.9383 7.3209 -10.6328
# 3 41.1706 20.9067 77.1050 0.8916 -4.0243 -14.7836
# 4 3.4727 3.9383 0.8916 27.2105 -3.8834 -0.8319
# 5 7.5934 7.3209 -4.0243 -3.8834 34.8752 4.5125
# 6 -13.8769 -10.6328 -14.7836 -0.8319 4.5125 20.6826
#
#
#
# Elastic Compliance Matrix: (Units=1/GPa)
#
#
# Indices 1 2 3 4 5 6 
#
# 1 0.009345 -0.002708 -0.003872 -0.000930 -0.002351 0.002586
# 2 -0.002708 0.012001 -0.001154 -0.001625 -0.002770 0.004067
# 3 -0.003872 -0.001154 0.017100 0.000652 0.002016 0.008618
# 4 -0.000930 -0.001625 0.000652 0.037765 0.004894 -0.000542
# 5 -0.002351 -0.002770 0.002016 0.004894 0.031613 -0.008261
# 6 0.002586 0.004067 0.008618 -0.000542 -0.008261 0.060116
#
#
# Mechanical properties :
#
#
# Convention : Reuss Voigt Hill
#
# Bulk Modulus (GPa) = 43.52019 58.99290 51.25655
# Shear Modulus (GPa) = 26.16874 30.91887 28.54380
#
# Velocity S-wave (km/s) = 3.39165 3.68664 3.54222
# Velocity P-wave (km/s) = 5.87098 6.63732 6.26587
#
# Compressibility (1/GPa) = 0.02297784
#
# Stress axis : x y z
#
# Youngs Moduli (GPa) = 107.00749 83.32408 58.48109
#
# Poissons Ratio (x) = 0.22568 0.22642
# Poissons Ratio (y) = 0.28982 0.06749
# Poissons Ratio (z) = 0.41430 0.09615
#
# Static dielectric constant tensor:
#      x y z
#    x 1.825430 0.007470 0.042120 
#    y 0.007470 1.875220 0.027920 
#    z 0.042120 0.027920 1.881770 
# 
# From -- ./inp_files/118652.got.cif
#   From: 2010.05.17/outbox.cif.g08.bks.cpg/sg2_60_cif.got.tgz:118652.got - 2010.06.03 11:33:40.
