data_PCOD9006029
_publ_section_title
;
Structure prediction by ZEFSAII (Michael W. Deem and Ramdas Pophale) SiO2 
 PCOD9006029
Probable space group: P -1
;
_chemical_formula_sum "Si O2"
_cell_formula_units_Z 15
_cell_length_a 7.489627
_cell_length_b 9.316412
_cell_length_c 11.515545
_cell_angle_alpha 54.042663
_cell_angle_beta 90.569989
_cell_angle_gamma 67.801790
_cell_volume 572.675944
_symmetry_space_group_name_H-M "P -1"
_symmetry_group_IT_number 2
_symmetry_cell_setting 'triclinic'
loop_
_space_group_symop_operation_xyz
x,y,z
-x,-y,-z
loop_
_atom_site_type_symbol
_atom_site_label
_atom_site_fract_x
_atom_site_fract_y
_atom_site_fract_z
Si Si1 0.479208 0.772480 0.258745
Si Si2 0.869732 0.815895 0.865101
Si Si3 0.632930 0.344911 0.394077
Si Si4 0.016463 0.031077 0.622593
Si Si5 0.273873 0.378736 0.879610
Si Si6 0.500000 0.500000 0.000000
Si Si7 0.181719 0.328702 0.509592
Si Si8 0.686807 0.663828 0.740638
O O1 0.280186 0.983089 0.162115
O O2 0.466715 0.568338 0.326390
O O3 0.628328 0.769982 0.157007
O O4 0.609482 0.725907 0.398917
O O5 0.048772 0.849765 0.794517
O O6 0.752879 0.792762 0.762629
O O7 0.898323 0.640699 0.038861
O O8 0.785772 0.209626 0.557578
O O9 0.767830 0.410422 0.279639
O O10 0.536704 0.231647 0.373197
O O11 0.158612 0.127843 0.603627
O O12 0.000000 0.000000 0.500000
O O13 0.441466 0.353617 0.988058
O O14 0.649068 0.510053 0.892724
O O15 0.176223 0.398809 0.344045
O O16 0.000000 0.500000 0.500000
#
# Coordination Sequence:
#
# PCOD9006029 Si02
#       8
#     2   2   2   2   2   1   2   2
#     4  10  22  38  64  92 122 161 206 259 306 367
#     4  11  22  38  66  90 126 158 209 261 305 365
#     4   9  21  40  63  86 122 156 215 245 306 374
#     4  12  25  40  57  90 126 165 205 256 306 369
#     4   8  18  39  62  92 118 158 202 257 309 358
#     4   8  16  36  64  88 118 150 210 254 296 366
#     4  12  24  40  60  90 132 168 204 255 313 373
#     4  10  21  38  64  93 119 162 208 256 313 359
#
# _framework density 26.192823000000001
#
# number of rings (size 3 to 8) (size 9 to 14) (size 15 to 20)
#    0.800    1.067    2.667    1.200    3.733    2.133 
#    0.000    1.333    5.867    0.000    0.000    0.000 
#    0.000    0.000    0.000    0.000    0.000    0.000 
#
# Total GULP energy -83555.095770 kJ/mol
# GULP energy per Si atom -5570.339718 kJ/mol
# Density = 2.613321 g / cm^3
# Si number density = 26.192823 Si / 1000 Ang^3
#
#
#
# Elastic Constant Matrix: (Units=GPa)
#
#
# Indices 1 2 3 4 5 6 
#
# 1 71.9052 18.0361 23.4121 1.5366 -29.4228 23.3911
# 2 18.0361 113.8821 31.0681 21.2025 -12.8181 -2.2727
# 3 23.4121 31.0681 162.8961 23.0647 -44.0051 5.9707
# 4 1.5366 21.2025 23.0647 38.8616 -8.4308 -4.5675
# 5 -29.4228 -12.8181 -44.0051 -8.4308 61.6519 3.2611
# 6 23.3911 -2.2727 5.9707 -4.5675 3.2611 49.8768
#
#
#
# Elastic Compliance Matrix: (Units=1/GPa)
#
#
# Indices 1 2 3 4 5 6 
#
# 1 0.022937 -0.003012 0.000615 0.001522 0.011581 -0.011586
# 2 -0.003012 0.010417 -0.001153 -0.004872 -0.000847 0.001634
# 3 0.000615 -0.001153 0.008349 -0.003360 0.005661 -0.002018
# 4 0.001522 -0.004872 -0.003360 0.030892 0.001423 0.002203
# 5 0.011581 -0.000847 0.005661 0.001423 0.026215 -0.007731
# 6 -0.011586 0.001634 -0.002018 0.002203 -0.007731 0.026506
#
#
# Mechanical properties :
#
#
# Convention : Reuss Voigt Hill
#
# Bulk Modulus (GPa) = 28.89740 54.85733 41.87736
# Shear Modulus (GPa) = 34.73448 48.48919 41.61184
#
# Velocity S-wave (km/s) = 3.64553 4.30727 3.99014
# Velocity P-wave (km/s) = 5.36436 6.76209 6.10337
#
# Compressibility (1/GPa) = 0.03460519
#
# Stress axis : x y z
#
# Youngs Moduli (GPa) = 43.59705 95.99913 119.77176
#
# Poissons Ratio (x) = 0.28911 -0.07370
# Poissons Ratio (y) = 0.13130 0.13807
# Poissons Ratio (z) = -0.02683 0.11067
#
# Static dielectric constant tensor:
#      x y z
#    x 2.107820 -0.111420 -0.048560 
#    y -0.111420 2.049780 0.009330 
#    z -0.048560 0.009330 2.221190 
# 
# From -- ./inp_files/375575.got.cif
#   From: 2010.05.17/outbox.cif.g08.bks.cpg/sg2_188_cif.got.tgz:375575.got - 2010.06.03 11:33:40.
