data_PCOD9006824
_publ_section_title
;
Structure prediction by ZEFSAII (Michael W. Deem and Ramdas Pophale) SiO2 
 PCOD9006824
Probable space group: P -1
;
_chemical_formula_sum "Si O2"
_cell_formula_units_Z 16
_cell_length_a 16.874810
_cell_length_b 8.909950
_cell_length_c 14.492368
_cell_angle_alpha 143.965656
_cell_angle_beta 35.821988
_cell_angle_gamma 139.844559
_cell_volume 711.915992
_symmetry_space_group_name_H-M "P -1"
_symmetry_group_IT_number 2
_symmetry_cell_setting 'triclinic'
loop_
_space_group_symop_operation_xyz
x,y,z
-x,-y,-z
loop_
_atom_site_type_symbol
_atom_site_label
_atom_site_fract_x
_atom_site_fract_y
_atom_site_fract_z
Si Si1 0.898768 0.121639 0.596822
Si Si2 0.429064 0.248355 0.269067
Si Si3 0.439476 0.175020 0.515755
Si Si4 0.035129 0.739452 0.798696
Si Si5 0.722355 0.614094 0.869421
Si Si6 0.306991 0.019122 0.764134
Si Si7 0.153977 0.832673 0.529122
Si Si8 0.550174 0.794912 0.980795
O O1 0.924695 0.101931 0.452928
O O2 0.928798 0.435185 0.752345
O O3 0.732050 0.952490 0.679055
O O4 0.000000 0.000000 0.500000
O O5 0.467830 0.515247 0.425628
O O6 0.533314 0.083586 0.121037
O O7 0.455332 0.330927 0.177848
O O8 0.362065 0.139707 0.671679
O O9 0.555377 0.017188 0.332932
O O10 0.312101 0.048989 0.502051
O O11 0.077478 0.806449 0.685728
O O12 0.179930 0.749384 0.723430
O O13 0.000000 0.000000 0.000000
O O14 0.822424 0.450313 0.657607
O O15 0.583040 0.379366 0.920268
O O16 0.757122 0.805489 0.020545
O O17 0.685282 0.778858 0.902028
#
# Coordination Sequence:
#
# PCOD9006824 Si02
#       8
#     2   2   2   2   2   2   2   2
#     4  12  27  47  68  99 142 194 231 273 345 417
#     4  11  23  41  63 100 149 175 217 279 361 410
#     4  10  21  39  67 103 136 173 217 291 358 389
#     4  11  26  48  74  98 133 189 241 283 325 408
#     4  11  20  41  66 107 127 172 230 277 351 403
#     4  10  21  38  70 100 134 171 232 288 332 400
#     4  11  25  45  75  97 135 177 240 289 334 415
#     4  10  22  36  68 102 135 176 214 285 345 415
#
# _framework density 22.474561999999999
#
# number of rings (size 3 to 8) (size 9 to 14) (size 15 to 20)
#    0.000    1.250    2.500    3.375    5.250    1.500 
#    2.250    0.625    0.000    0.000    0.000    0.000 
#    0.000    0.000    0.000    0.000    0.000    0.000 
#
# Total GULP energy -89432.829175 kJ/mol
# GULP energy per Si atom -5589.551823 kJ/mol
# Density = 2.242341 g / cm^3
# Si number density = 22.474562 Si / 1000 Ang^3
#
#
#
# Elastic Constant Matrix: (Units=GPa)
#
#
# Indices 1 2 3 4 5 6 
#
# 1 170.0391 41.3876 63.6577 15.7691 -0.3817 -4.2127
# 2 41.3876 93.7044 46.3805 16.8604 4.6922 21.9532
# 3 63.6577 46.3805 136.0027 3.3676 21.4729 -2.4474
# 4 15.7691 16.8604 3.3676 35.7083 3.5304 13.3617
# 5 -0.3817 4.6922 21.4729 3.5304 24.9442 2.5659
# 6 -4.2127 21.9532 -2.4474 13.3617 2.5659 38.3857
#
#
#
# Elastic Compliance Matrix: (Units=1/GPa)
#
#
# Indices 1 2 3 4 5 6 
#
# 1 0.008140 -0.002007 -0.003585 -0.003759 0.003825 0.002866
# 2 -0.002007 0.016812 -0.005318 -0.003392 0.002810 -0.009181
# 3 -0.003585 -0.005318 0.012496 0.002764 -0.010530 0.003187
# 4 -0.003759 -0.003392 0.002764 0.035405 -0.005757 -0.010236
# 5 0.003825 0.002810 -0.010530 -0.005757 0.049827 -0.003185
# 6 0.002866 -0.009181 0.003187 -0.010236 -0.003185 0.035596
#
#
# Mechanical properties :
#
#
# Convention : Reuss Voigt Hill
#
# Bulk Modulus (GPa) = 63.99508 78.06643 71.03075
# Shear Modulus (GPa) = 26.98261 36.36233 31.67247
#
# Velocity S-wave (km/s) = 3.46870 4.02672 3.75808
# Velocity P-wave (km/s) = 6.67674 7.51200 7.10665
#
# Compressibility (1/GPa) = 0.01562620
#
# Stress axis : x y z
#
# Youngs Moduli (GPa) = 122.85301 59.48281 80.02688
#
# Poissons Ratio (x) = 0.11941 0.28687
# Poissons Ratio (y) = 0.24662 0.42561
# Poissons Ratio (z) = 0.44038 0.31635
#
# Static dielectric constant tensor:
#      x y z
#    x 1.880570 0.042710 -0.018930 
#    y 0.042710 1.875200 -0.026190 
#    z -0.018930 -0.026190 1.833070 
# 
# From -- ./inp_files/537702.got.cif
#   From: 2010.05.17/outbox.cif.g08.bks.cpg/sg2_269_cif.got.tgz:537702.got - 2010.06.03 11:33:40.
