data_PCOD9006651
_publ_section_title
;
Structure prediction by ZEFSAII (Michael W. Deem and Ramdas Pophale) SiO2 
 PCOD9006651
Probable space group: P -1
;
_chemical_formula_sum "Si O2"
_cell_formula_units_Z 16
_cell_length_a 11.339814
_cell_length_b 7.387454
_cell_length_c 13.526699
_cell_angle_alpha 111.044975
_cell_angle_beta 140.806111
_cell_angle_gamma 79.946435
_cell_volume 657.914863
_symmetry_space_group_name_H-M "P -1"
_symmetry_group_IT_number 2
_symmetry_cell_setting 'triclinic'
loop_
_space_group_symop_operation_xyz
x,y,z
-x,-y,-z
loop_
_atom_site_type_symbol
_atom_site_label
_atom_site_fract_x
_atom_site_fract_y
_atom_site_fract_z
Si Si1 0.933982 0.093749 0.575440
Si Si2 0.591813 0.408120 0.132046
Si Si3 0.996608 0.536773 0.622518
Si Si4 0.762504 0.793875 0.046478
Si Si5 0.953548 0.462674 0.847731
Si Si6 0.539773 0.287917 0.524656
Si Si7 0.667251 0.743347 0.415330
Si Si8 0.806958 0.846751 0.850311
O O1 0.937233 0.323589 0.594312
O O2 0.087204 0.076130 0.757922
O O3 0.739507 0.953564 0.453101
O O4 0.000000 0.000000 0.500000
O O5 0.786320 0.364005 0.204323
O O6 0.617908 0.576655 0.266860
O O7 0.500000 0.500000 0.000000
O O8 0.446005 0.230539 0.049470
O O9 0.000000 0.500000 0.500000
O O10 0.846281 0.674632 0.572026
O O11 0.851508 0.591384 0.075254
O O12 0.761899 0.829837 0.935597
O O13 0.767841 0.294971 0.672971
O O14 0.879938 0.659576 0.811967
O O15 0.000000 0.500000 0.000000
O O16 0.500000 0.500000 0.500000
O O17 0.486528 0.265188 0.600923
O O18 0.385358 0.137415 0.331456
O O19 0.000000 0.000000 0.000000
#
# Coordination Sequence:
#
# PCOD9006651 Si02
#       8
#     2   2   2   2   2   2   2   2
#     4  12  22  42  67  98 130 168 224 273 323 399
#     4  11  20  38  63  91 123 171 214 266 327 395
#     4  10  22  40  68  89 129 169 217 264 332 389
#     4  11  23  41  65  89 130 176 205 273 338 378
#     4   9  20  40  64  88 126 171 218 258 326 395
#     4  10  21  38  67  95 128 174 222 269 324 403
#     4  11  23  41  69  92 130 175 215 269 337 387
#     4  10  21  40  62  92 130 166 217 277 322 388
#
# _framework density 24.319254999999998
#
# number of rings (size 3 to 8) (size 9 to 14) (size 15 to 20)
#    0.000    1.500    3.750    3.000    3.500    0.000 
#    0.000    7.500    5.500    0.000    0.000    0.000 
#    0.000    0.000    0.000    0.000    0.000    0.000 
#
# Total GULP energy -89301.748695 kJ/mol
# GULP energy per Si atom -5581.359293 kJ/mol
# Density = 2.426390 g / cm^3
# Si number density = 24.319255 Si / 1000 Ang^3
#
#
#
# Elastic Constant Matrix: (Units=GPa)
#
#
# Indices 1 2 3 4 5 6 
#
# 1 113.0593 28.4483 21.2637 -4.7684 5.7832 27.0445
# 2 28.4483 73.1158 6.9081 4.9427 14.6410 10.6257
# 3 21.2637 6.9081 127.3521 -5.3904 2.8931 3.0129
# 4 -4.7684 4.9427 -5.3904 36.4182 8.0295 4.0538
# 5 5.7832 14.6410 2.8931 8.0295 60.6843 -5.8909
# 6 27.0445 10.6257 3.0129 4.0538 -5.8909 41.4499
#
#
#
# Elastic Compliance Matrix: (Units=1/GPa)
#
#
# Indices 1 2 3 4 5 6 
#
# 1 0.011898 -0.003361 -0.001479 0.002900 -0.001342 -0.007269
# 2 -0.003361 0.016166 -0.000250 -0.001629 -0.003574 -0.002282
# 3 -0.001479 -0.000250 0.008159 0.001083 -0.000303 0.000287
# 4 0.002900 -0.001629 0.001083 0.029748 -0.004365 -0.005083
# 5 -0.001342 -0.003574 -0.000303 -0.004365 0.018534 0.004875
# 6 -0.007269 -0.002282 0.000287 -0.005083 0.004875 0.030622
#
#
# Mechanical properties :
#
#
# Convention : Reuss Voigt Hill
#
# Bulk Modulus (GPa) = 38.39702 47.41860 42.90781
# Shear Modulus (GPa) = 37.31716 44.83761 41.07738
#
# Velocity S-wave (km/s) = 3.92148 4.29850 4.11431
# Velocity P-wave (km/s) = 6.02719 6.64657 6.34444
#
# Compressibility (1/GPa) = 0.02604369
#
# Stress axis : x y z
#
# Youngs Moduli (GPa) = 84.04497 61.86006 122.56892
#
# Poissons Ratio (x) = 0.20790 0.18130
# Poissons Ratio (y) = 0.28246 0.03058
# Poissons Ratio (z) = 0.12432 0.01544
#
# Static dielectric constant tensor:
#      x y z
#    x 1.929760 0.013910 0.055530 
#    y 0.013910 1.999020 0.050140 
#    z 0.055530 0.050140 2.104340 
# 
# From -- ./inp_files/516010.got.cif
#   From: 2010.05.17/outbox.cif.g08.bks.cpg/sg2_259_cif.got.tgz:516010.got - 2010.06.03 11:33:40.
