data_PCOD9006314
_publ_section_title
;
Structure prediction by ZEFSAII (Michael W. Deem and Ramdas Pophale) SiO2 
 PCOD9006314
Probable space group: P -1
;
_chemical_formula_sum "Si O2"
_cell_formula_units_Z 12
_cell_length_a 13.163300
_cell_length_b 12.706825
_cell_length_c 9.643196
_cell_angle_alpha 127.038187
_cell_angle_beta 142.700082
_cell_angle_gamma 35.582106
_cell_volume 564.169491
_symmetry_space_group_name_H-M "P -1"
_symmetry_group_IT_number 2
_symmetry_cell_setting 'triclinic'
loop_
_space_group_symop_operation_xyz
x,y,z
-x,-y,-z
loop_
_atom_site_type_symbol
_atom_site_label
_atom_site_fract_x
_atom_site_fract_y
_atom_site_fract_z
Si Si1 0.951459 0.145087 0.453138
Si Si2 0.692276 0.813691 0.142027
Si Si3 0.730013 0.655732 0.803693
Si Si4 0.572886 0.997129 0.733550
Si Si5 0.502074 0.524228 0.356845
Si Si6 0.972412 0.082823 0.889205
O O1 0.678033 0.330823 0.314497
O O2 0.084251 0.213964 0.665540
O O3 0.000000 0.000000 0.500000
O O4 0.058999 0.020381 0.333924
O O5 0.630438 0.836222 0.254579
O O6 0.661446 0.696988 0.925964
O O7 0.500000 0.000000 0.000000
O O8 0.663837 0.821993 0.779102
O O9 0.625516 0.599337 0.551511
O O10 0.000000 0.500000 0.000000
O O11 0.500000 0.000000 0.500000
O O12 0.788781 0.978335 0.944375
O O13 0.500000 0.500000 0.500000
O O14 0.238000 0.697538 0.163289
O O15 0.000000 0.000000 0.000000
#
# Coordination Sequence:
#
# PCOD9006314 Si02
#       6
#     2   2   2   2   2   2
#     4  12  23  42  68 100 134 174 222 274 331 392
#     4  10  21  38  65  94 129 169 220 264 327 386
#     4  11  21  41  65  97 131 164 220 269 318 391
#     4  11  24  44  67  92 129 177 217 272 334 391
#     4  12  25  40  71 101 134 175 222 274 332 390
#     4  12  26  46  68  97 138 175 220 278 334 398
#
# _framework density 21.270204
#
# number of rings (size 3 to 8) (size 9 to 14) (size 15 to 20)
#    0.000    0.667    3.333    7.000    2.333    0.667 
#    0.000    0.833    0.000    0.000    0.000    0.000 
#    0.000    0.000    0.000    0.000    0.000    0.000 
#
# Total GULP energy -66841.534096 kJ/mol
# GULP energy per Si atom -5570.127841 kJ/mol
# Density = 2.122179 g / cm^3
# Si number density = 21.270204 Si / 1000 Ang^3
#
#
#
# Elastic Constant Matrix: (Units=GPa)
#
#
# Indices 1 2 3 4 5 6 
#
# 1 110.8063 29.7599 19.6540 -8.6545 -14.0634 -2.0407
# 2 29.7599 96.5421 7.9204 -11.2937 -11.8845 -16.4565
# 3 19.6540 7.9204 58.8095 -2.8834 -6.6268 -4.7720
# 4 -8.6545 -11.2937 -2.8834 36.0271 -0.1271 2.3534
# 5 -14.0634 -11.8845 -6.6268 -0.1271 54.8331 3.4238
# 6 -2.0407 -16.4565 -4.7720 2.3534 3.4238 37.4671
#
#
#
# Elastic Compliance Matrix: (Units=1/GPa)
#
#
# Indices 1 2 3 4 5 6 
#
# 1 0.010652 -0.002859 -0.003001 0.001515 0.001836 -0.001321
# 2 -0.002859 0.012658 -0.000002 0.002956 0.001701 0.005063
# 3 -0.003001 -0.000002 0.018350 0.000620 0.001323 0.002013
# 4 0.001515 0.002956 0.000620 0.029133 0.001202 -0.000480
# 5 0.001836 0.001701 0.001323 0.001202 0.019291 -0.000823
# 6 -0.001321 0.005063 0.002013 -0.000480 -0.000823 0.029203
#
#
# Mechanical properties :
#
#
# Convention : Reuss Voigt Hill
#
# Bulk Modulus (GPa) = 33.40460 42.31404 37.85932
# Shear Modulus (GPa) = 35.46368 39.58702 37.52535
#
# Velocity S-wave (km/s) = 4.08768 4.31878 4.20482
# Velocity P-wave (km/s) = 6.16586 6.69372 6.43521
#
# Compressibility (1/GPa) = 0.02993600
#
# Stress axis : x y z
#
# Youngs Moduli (GPa) = 93.87963 79.00228 54.49575
#
# Poissons Ratio (x) = 0.22589 0.16353
# Poissons Ratio (y) = 0.26843 0.00010
# Poissons Ratio (z) = 0.28172 0.00014
#
# Static dielectric constant tensor:
#      x y z
#    x 1.826300 0.069000 0.097930 
#    y 0.069000 1.644070 -0.170920 
#    z 0.097930 -0.170920 1.626270 
# 
# From -- ./inp_files/151732.got.cif
#   From: 2010.05.17/outbox.cif.g08.bks.cpg/sg2_76_cif.got.tgz:151732.got - 2010.06.03 11:33:40.
