data_PCOD9006510
_publ_section_title
;
Structure prediction by ZEFSAII (Michael W. Deem and Ramdas Pophale) SiO2 
 PCOD9006510
Probable space group: P -1
;
_chemical_formula_sum "Si O2"
_cell_formula_units_Z 14
_cell_length_a 9.879065
_cell_length_b 9.798116
_cell_length_c 8.951641
_cell_angle_alpha 84.300317
_cell_angle_beta 97.880106
_cell_angle_gamma 127.109233
_cell_volume 684.334116
_symmetry_space_group_name_H-M "P -1"
_symmetry_group_IT_number 2
_symmetry_cell_setting 'triclinic'
loop_
_space_group_symop_operation_xyz
x,y,z
-x,-y,-z
loop_
_atom_site_type_symbol
_atom_site_label
_atom_site_fract_x
_atom_site_fract_y
_atom_site_fract_z
Si Si1 0.403464 0.312851 0.577929
Si Si2 0.177063 0.130217 0.293696
Si Si3 0.534702 0.948231 0.354499
Si Si4 0.424706 0.505229 0.141682
Si Si5 0.876604 0.143519 0.204551
Si Si6 0.119856 0.527460 0.151349
Si Si7 0.762317 0.112517 0.844789
O O1 0.500000 0.500000 0.500000
O O2 0.236778 0.181008 0.469441
O O3 0.513058 0.238866 0.600413
O O4 0.411070 0.356468 0.747780
O O5 0.312443 0.312139 0.211150
O O6 0.990041 0.076086 0.242885
O O7 0.191790 0.988801 0.240233
O O8 0.433715 0.968610 0.208151
O O9 0.500000 0.000000 0.500000
O O10 0.725665 0.056793 0.309394
O O11 0.292122 0.554334 0.116750
O O12 0.500000 0.500000 0.000000
O O13 0.009124 0.346386 0.237300
O O14 0.808551 0.115269 0.025574
O O15 0.153789 0.693086 0.216351
O O16 0.000000 0.500000 0.000000
#
# Coordination Sequence:
#
# PCOD9006510 Si02
#       7
#     2   2   2   2   2   2   2
#     4  10  22  43  63  89 134 168 211 263 315 387
#     4  10  22  41  64  92 133 170 211 261 324 380
#     4  12  24  43  66  95 128 170 218 265 324 380
#     4  10  21  38  66  94 123 169 217 257 316 382
#     4  10  24  42  64  94 135 168 213 268 318 379
#     4   9  20  41  60  92 132 159 203 271 315 367
#     4  11  21  41  69  96 128 167 216 268 315 383
#
# _framework density 20.457841999999999
#
# number of rings (size 3 to 8) (size 9 to 14) (size 15 to 20)
#    0.000    1.714    2.857    0.857    2.000    2.857 
#    0.000    0.714    0.000    0.000    0.000    0.000 
#    0.000    0.000    0.000    0.000    0.000    0.000 
#
# Total GULP energy -78016.028339 kJ/mol
# GULP energy per Si atom -5572.573453 kJ/mol
# Density = 2.041128 g / cm^3
# Si number density = 20.457842 Si / 1000 Ang^3
#
#
#
# Elastic Constant Matrix: (Units=GPa)
#
#
# Indices 1 2 3 4 5 6 
#
# 1 145.4066 71.1807 64.1590 0.7449 9.5250 -10.9492
# 2 71.1807 105.4426 44.4458 16.3252 -18.1372 -30.6070
# 3 64.1590 44.4458 129.5518 23.1562 3.2487 -1.1136
# 4 0.7449 16.3252 23.1562 29.4130 -3.5861 -2.2295
# 5 9.5250 -18.1372 3.2487 -3.5861 30.8286 2.1052
# 6 -10.9492 -30.6070 -1.1136 -2.2295 2.1052 39.1004
#
#
#
# Elastic Compliance Matrix: (Units=1/GPa)
#
#
# Indices 1 2 3 4 5 6 
#
# 1 0.015778 -0.013507 -0.004550 0.008952 -0.010946 -0.005185
# 2 -0.013507 0.029454 -0.001795 -0.010917 0.019221 0.017565
# 3 -0.004550 -0.001795 0.012204 -0.008922 -0.001787 -0.002744
# 4 0.008952 -0.010917 -0.008922 0.046269 -0.002626 -0.003514
# 5 -0.010946 0.019221 -0.001787 -0.002626 0.046377 0.009283
# 6 -0.005185 0.017565 -0.002744 -0.003514 0.009283 0.037095
#
#
# Mechanical properties :
#
#
# Convention : Reuss Voigt Hill
#
# Bulk Modulus (GPa) = 56.39735 82.21911 69.30823
# Shear Modulus (GPa) = 21.47852 33.24276 27.36064
#
# Velocity S-wave (km/s) = 3.24372 4.03543 3.66104
# Velocity P-wave (km/s) = 6.45418 7.87335 7.19882
#
# Compressibility (1/GPa) = 0.01773133
#
# Stress axis : x y z
#
# Youngs Moduli (GPa) = 63.38089 33.95151 81.93919
#
# Poissons Ratio (x) = 0.45858 0.37282
# Poissons Ratio (y) = 0.85607 0.14711
# Poissons Ratio (z) = 0.28838 0.06096
#
# Static dielectric constant tensor:
#      x y z
#    x 1.690990 0.018940 0.068080 
#    y 0.018940 1.814470 0.006470 
#    z 0.068080 0.006470 1.735260 
# 
# From -- ./inp_files/158655.got.cif
#   From: 2010.05.17/outbox.cif.g08.bks.cpg/sg2_80_cif.got.tgz:158655.got - 2010.06.03 11:33:40.
