data_PCOD9006425
_publ_section_title
;
Structure prediction by ZEFSAII (Michael W. Deem and Ramdas Pophale) SiO2 
 PCOD9006425
Probable space group: P -1
;
_chemical_formula_sum "Si O2"
_cell_formula_units_Z 14
_cell_length_a 10.163732
_cell_length_b 12.074934
_cell_length_c 9.135824
_cell_angle_alpha 119.732222
_cell_angle_beta 88.346527
_cell_angle_gamma 46.855858
_cell_volume 578.264741
_symmetry_space_group_name_H-M "P -1"
_symmetry_group_IT_number 2
_symmetry_cell_setting 'triclinic'
loop_
_space_group_symop_operation_xyz
x,y,z
-x,-y,-z
loop_
_atom_site_type_symbol
_atom_site_label
_atom_site_fract_x
_atom_site_fract_y
_atom_site_fract_z
Si Si1 0.935690 0.409046 0.392316
Si Si2 0.025400 0.846655 0.194125
Si Si3 0.347966 0.668291 0.825466
Si Si4 0.314834 0.970536 0.924520
Si Si5 0.598746 0.828995 0.584983
Si Si6 0.128985 0.284642 0.764934
Si Si7 0.828921 0.249950 0.432483
O O1 0.707552 0.601316 0.432236
O O2 0.899553 0.340909 0.481818
O O3 0.000000 0.500000 0.500000
O O4 0.135923 0.199198 0.154589
O O5 0.014441 0.734007 0.227005
O O6 0.815454 0.984692 0.183127
O O7 0.984843 0.025297 0.355629
O O8 0.242142 0.687431 0.983065
O O9 0.365528 0.809446 0.920018
O O10 0.588657 0.428129 0.626212
O O11 0.193759 0.759959 0.748857
O O12 0.526158 0.879539 0.792860
O O13 0.785802 0.748057 0.422367
O O14 0.368974 0.064508 0.685020
O O15 0.000000 0.500000 0.000000
#
# Coordination Sequence:
#
# PCOD9006425 Si02
#       7
#     2   2   2   2   2   2   2
#     4  12  23  36  56  83 122 157 187 231 278 346
#     4  10  18  31  55  83 112 142 176 237 291 339
#     4  10  17  28  55  79 114 140 172 241 287 337
#     4  10  18  33  52  80 115 147 186 225 285 336
#     4  10  21  37  54  82 116 152 189 226 286 336
#     4  10  22  35  58  84 116 151 186 240 286 337
#     4  10  19  31  51  85 113 144 184 227 298 337
#
# _framework density 24.210363999999998
#
# number of rings (size 3 to 8) (size 9 to 14) (size 15 to 20)
#    0.000    1.714    4.286    2.571    2.000    1.714 
#    0.000    0.000    0.000    0.857    0.000    3.000 
#    0.000    0.000    0.000    0.000    0.000    0.000 
#
# Total GULP energy -77952.384623 kJ/mol
# GULP energy per Si atom -5568.027473 kJ/mol
# Density = 2.415526 g / cm^3
# Si number density = 24.210364 Si / 1000 Ang^3
#
#
#
# Elastic Constant Matrix: (Units=GPa)
#
#
# Indices 1 2 3 4 5 6 
#
# 1 88.5682 64.1788 66.3458 -6.3797 -9.7052 37.9635
# 2 64.1788 102.8960 63.7573 -11.3803 -15.8300 57.5110
# 3 66.3458 63.7573 162.3116 8.9328 -45.4772 45.3150
# 4 -6.3797 -11.3803 8.9328 32.1337 21.1214 -10.0438
# 5 -9.7052 -15.8300 -45.4772 21.1214 36.4638 -3.5061
# 6 37.9635 57.5110 45.3150 -10.0438 -3.5061 47.5016
#
#
#
# Elastic Compliance Matrix: (Units=1/GPa)
#
#
# Indices 1 2 3 4 5 6 
#
# 1 0.017286 -0.002412 0.008231 -0.022960 0.025026 -0.021754
# 2 -0.002412 0.023114 -0.019630 0.036336 -0.036362 -0.002331
# 3 0.008231 -0.019630 -0.019320 0.049288 -0.054940 0.041986
# 4 -0.022960 0.036336 0.049288 -0.065798 0.101645 -0.079073
# 5 0.025026 -0.036362 -0.054940 0.101645 -0.100395 0.090516
# 6 -0.021754 -0.002331 0.041986 -0.079073 0.090516 -0.008831
#
#
# Mechanical properties :
#
#
# Convention : Reuss Voigt Hill
#
# Bulk Modulus (GPa) = -152.82280 82.48216 -35.17032
# Shear Modulus (GPa) = -38.90980 33.85275 -2.52852
#
# Velocity S-wave (km/s) = -4.01328 3.74341 -1.02307
# Velocity P-wave (km/s) = 9.20517 7.26822 3.99425
#
# Compressibility (1/GPa) = -0.00654353
#
# Stress axis : x y z
#
# Youngs Moduli (GPa) = 57.85011 43.26330 -51.75882
#
# Poissons Ratio (x) = 0.10435 0.42601
# Poissons Ratio (y) = 0.13954 -1.01605
# Poissons Ratio (z) = -0.47615 0.84928
#
# Static dielectric constant tensor:
#      x y z
#    x 2.114250 -0.055600 -0.002490 
#    y -0.055600 2.025180 0.055400 
#    z -0.002490 0.055400 1.986120 
# 
# From -- ./inp_files/424047.got.cif
#   From: 2010.05.17/outbox.cif.g08.bks.cpg/sg2_213_cif.got.tgz:424047.got - 2010.06.03 11:33:40.
