data_PCOD9006867
_publ_section_title
;
Structure prediction by ZEFSAII (Michael W. Deem and Ramdas Pophale) SiO2 
 PCOD9006867
Probable space group: P -1
;
_chemical_formula_sum "Si O2"
_cell_formula_units_Z 16
_cell_length_a 10.403282
_cell_length_b 9.690316
_cell_length_c 13.534645
_cell_angle_alpha 133.371756
_cell_angle_beta 136.016537
_cell_angle_gamma 54.815460
_cell_volume 679.611470
_symmetry_space_group_name_H-M "P -1"
_symmetry_group_IT_number 2
_symmetry_cell_setting 'triclinic'
loop_
_space_group_symop_operation_xyz
x,y,z
-x,-y,-z
loop_
_atom_site_type_symbol
_atom_site_label
_atom_site_fract_x
_atom_site_fract_y
_atom_site_fract_z
Si Si1 0.224841 0.336688 0.128271
Si Si2 0.884528 0.598350 0.273574
Si Si3 0.819050 0.441135 0.426214
Si Si4 0.992094 0.257731 0.785285
Si Si5 0.718004 0.010551 0.411196
Si Si6 0.387230 0.870235 0.807097
Si Si7 0.400284 0.169454 0.458495
Si Si8 0.957285 0.799044 0.842598
O O1 0.163987 0.561538 0.182063
O O2 0.445491 0.287209 0.219374
O O3 0.151133 0.285148 0.168587
O O4 0.123234 0.216018 0.932440
O O5 0.644367 0.615612 0.415945
O O6 0.092573 0.598646 0.434563
O O7 0.890301 0.650119 0.187690
O O8 0.869109 0.373735 0.168129
O O9 0.750583 0.243331 0.263687
O O10 0.000000 0.500000 0.500000
O O11 0.888963 0.096177 0.599420
O O12 0.707704 0.035020 0.298835
O O13 0.532241 0.131085 0.416317
O O14 0.749083 0.779572 0.335122
O O15 0.500000 0.000000 0.000000
O O16 0.187525 0.152381 0.303115
O O17 0.500000 0.000000 0.500000
O O18 0.000000 0.000000 0.000000
#
# Coordination Sequence:
#
# PCOD9006867 Si02
#       8
#     2   2   2   2   2   2   2   2
#     4  10  22  41  63 105 135 180 238 293 355 418
#     4  10  22  41  66  98 131 179 237 281 348 430
#     4  11  25  47  71 100 143 193 241 292 361 443
#     4  10  21  38  71  95 136 181 229 288 356 432
#     4  12  23  42  71 103 139 184 238 301 358 431
#     4  12  26  42  70 108 147 180 243 311 364 412
#     4  11  25  45  69 100 137 188 245 292 355 429
#     4  10  23  44  67  93 141 191 232 287 359 426
#
# _framework density 23.542864000000002
#
# number of rings (size 3 to 8) (size 9 to 14) (size 15 to 20)
#    0.000    1.250    2.500    2.625    3.500    3.000 
#    4.500    0.625    0.000    0.000    0.000    0.000 
#    0.000    0.000    0.000    0.000    0.000    0.000 
#
# Total GULP energy -89298.278118 kJ/mol
# GULP energy per Si atom -5581.142382 kJ/mol
# Density = 2.348928 g / cm^3
# Si number density = 23.542864 Si / 1000 Ang^3
#
#
#
# Elastic Constant Matrix: (Units=GPa)
#
#
# Indices 1 2 3 4 5 6 
#
# 1 87.4795 50.9027 14.0351 8.5586 0.2570 -10.9679
# 2 50.9027 162.9923 56.0877 14.5537 3.3134 -32.4863
# 3 14.0351 56.0877 123.2957 14.9484 -9.1174 8.0270
# 4 8.5586 14.5537 14.9484 51.1462 5.1358 -1.8492
# 5 0.2570 3.3134 -9.1174 5.1358 23.9895 -5.0587
# 6 -10.9679 -32.4863 8.0270 -1.8492 -5.0587 43.6918
#
#
#
# Elastic Compliance Matrix: (Units=1/GPa)
#
#
# Indices 1 2 3 4 5 6 
#
# 1 0.014093 -0.004511 0.000685 -0.001376 0.001053 0.000121
# 2 -0.004511 0.010859 -0.004993 -0.000434 -0.001643 0.007651
# 3 0.000685 -0.004993 0.011290 -0.002627 0.004437 -0.005213
# 4 -0.001376 -0.000434 -0.002627 0.021224 -0.005450 0.000082
# 5 0.001053 -0.001643 0.004437 -0.005450 0.045441 0.003258
# 6 0.000121 0.007651 -0.005213 0.000082 0.003258 0.029945
#
#
# Mechanical properties :
#
#
# Convention : Reuss Voigt Hill
#
# Bulk Modulus (GPa) = 53.75545 68.42429 61.08987
# Shear Modulus (GPa) = 31.90952 40.61497 36.26225
#
# Velocity S-wave (km/s) = 3.68554 4.15800 3.92888
# Velocity P-wave (km/s) = 6.40262 7.22348 6.82540
#
# Compressibility (1/GPa) = 0.01860277
#
# Stress axis : x y z
#
# Youngs Moduli (GPa) = 70.95635 92.08537 88.57265
#
# Poissons Ratio (x) = 0.41542 -0.06065
# Poissons Ratio (y) = 0.32010 0.44228
# Poissons Ratio (z) = -0.04858 0.45982
#
# Static dielectric constant tensor:
#      x y z
#    x 1.952960 -0.020820 -0.066290 
#    y -0.020820 1.972850 0.031890 
#    z -0.066290 0.031890 1.927410 
# 
# From -- ./inp_files/391160.got.cif
#   From: 2010.05.17/outbox.cif.g08.bks.cpg/sg2_196_cif.got.tgz:391160.got - 2010.06.03 11:33:40.
