data_PCOD9006397
_publ_section_title
;
Structure prediction by ZEFSAII (Michael W. Deem and Ramdas Pophale) SiO2 
 PCOD9006397
Probable space group: P -1
;
_chemical_formula_sum "Si O2"
_cell_formula_units_Z 12
_cell_length_a 10.802796
_cell_length_b 16.102934
_cell_length_c 5.349821
_cell_angle_alpha 101.122938
_cell_angle_beta 112.534393
_cell_angle_gamma 34.432434
_cell_volume 472.325581
_symmetry_space_group_name_H-M "P -1"
_symmetry_group_IT_number 2
_symmetry_cell_setting 'triclinic'
loop_
_space_group_symop_operation_xyz
x,y,z
-x,-y,-z
loop_
_atom_site_type_symbol
_atom_site_label
_atom_site_fract_x
_atom_site_fract_y
_atom_site_fract_z
Si Si1 0.133249 0.074337 0.419430
Si Si2 0.855823 0.598762 0.698331
Si Si3 0.350389 0.888706 0.981245
Si Si4 0.578167 0.350058 0.107612
Si Si5 0.677968 0.522123 0.518287
Si Si6 0.219767 0.218835 0.583642
O O1 0.266173 0.095389 0.527537
O O2 0.848755 0.237652 0.290930
O O3 0.207284 0.988257 0.679298
O O4 0.199932 0.988801 0.171443
O O5 0.642183 0.643554 0.561621
O O6 0.797968 0.726146 0.671003
O O7 0.000000 0.500000 0.500000
O O8 0.000000 0.500000 0.000000
O O9 0.413517 0.757075 0.949666
O O10 0.584625 0.826622 0.148266
O O11 0.412356 0.461688 0.277044
O O12 0.465573 0.435142 0.806480
O O13 0.959691 0.360785 0.597717
#
# Coordination Sequence:
#
# PCOD9006397 Si02
#       6
#     2   2   2   2   2   2
#     4  12  28  47  69 103 144 193 231 281 351 411
#     4  10  21  38  65  99 132 171 219 277 340 404
#     4  12  26  47  72 100 141 191 241 282 334 419
#     4  12  25  46  73 100 142 185 238 283 341 431
#     4  11  24  42  73 106 134 180 231 293 358 404
#     4  11  26  45  74 108 144 173 234 302 353 412
#
# _framework density 25.406203000000001
#
# number of rings (size 3 to 8) (size 9 to 14) (size 15 to 20)
#    0.000    0.667    1.667    6.000    2.333    6.667 
#    0.000    0.000    0.000    0.000    0.000    0.000 
#    0.000    0.000    0.000    0.000    0.000    0.000 
#
# Total GULP energy -67297.003469 kJ/mol
# GULP energy per Si atom -5608.083622 kJ/mol
# Density = 2.534838 g / cm^3
# Si number density = 25.406203 Si / 1000 Ang^3
#
#
#
# Elastic Constant Matrix: (Units=GPa)
#
#
# Indices 1 2 3 4 5 6 
#
# 1 119.4248 22.7174 58.9134 13.0953 -0.8893 -3.7440
# 2 22.7174 71.2839 35.9995 4.9228 -16.0517 -19.4531
# 3 58.9134 35.9995 196.8608 -10.7884 -29.8916 -15.0307
# 4 13.0953 4.9228 -10.7884 42.0460 -6.5459 8.3904
# 5 -0.8893 -16.0517 -29.8916 -6.5459 60.6707 -0.6794
# 6 -3.7440 -19.4531 -15.0307 8.3904 -0.6794 57.0134
#
#
#
# Elastic Compliance Matrix: (Units=1/GPa)
#
#
# Indices 1 2 3 4 5 6 
#
# 1 0.010990 -0.002063 -0.003578 -0.004448 -0.002631 -0.000302
# 2 -0.002063 0.018276 -0.001847 -0.002603 0.003682 0.006040
# 3 -0.003578 -0.001847 0.007249 0.003613 0.003426 0.000555
# 4 -0.004448 -0.002603 0.003613 0.027876 0.003986 -0.004283
# 5 -0.002631 0.003682 0.003426 0.003986 0.019554 0.001633
# 6 -0.000302 0.006040 0.000555 -0.004283 0.001633 0.020377
#
#
# Mechanical properties :
#
#
# Convention : Reuss Voigt Hill
#
# Bulk Modulus (GPa) = 46.42872 69.20333 57.81603
# Shear Modulus (GPa) = 39.53277 49.94196 44.73736
#
# Velocity S-wave (km/s) = 3.94893 4.43848 4.20084
# Velocity P-wave (km/s) = 6.25350 7.31879 6.80702
#
# Compressibility (1/GPa) = 0.02153839
#
# Stress axis : x y z
#
# Youngs Moduli (GPa) = 90.99488 54.71671 137.95236
#
# Poissons Ratio (x) = 0.11288 0.49358
# Poissons Ratio (y) = 0.18773 0.25481
# Poissons Ratio (z) = 0.32557 0.10107
#
# Static dielectric constant tensor:
#      x y z
#    x 2.023460 0.053100 0.047880 
#    y 0.053100 2.107210 0.068010 
#    z 0.047880 0.068010 2.025040 
# 
# From -- ./inp_files/80733.got.cif
#   From: 2010.05.17/outbox.cif.g08.bks.cpg/sg2_41_cif.got.tgz:80733.got - 2010.06.03 11:33:40.
