data_PCOD9006699
_publ_section_title
;
Structure prediction by ZEFSAII (Michael W. Deem and Ramdas Pophale) SiO2 
 PCOD9006699
Probable space group: P -1
;
_chemical_formula_sum "Si O2"
_cell_formula_units_Z 14
_cell_length_a 7.891777
_cell_length_b 9.226933
_cell_length_c 9.940697
_cell_angle_alpha 85.499775
_cell_angle_beta 66.793055
_cell_angle_gamma 54.132187
_cell_volume 527.715497
_symmetry_space_group_name_H-M "P -1"
_symmetry_group_IT_number 2
_symmetry_cell_setting 'triclinic'
loop_
_space_group_symop_operation_xyz
x,y,z
-x,-y,-z
loop_
_atom_site_type_symbol
_atom_site_label
_atom_site_fract_x
_atom_site_fract_y
_atom_site_fract_z
Si Si1 0.331033 0.007633 0.164800
Si Si2 0.179247 0.540822 0.428688
Si Si3 0.074665 0.248150 0.763319
Si Si4 0.316731 0.635263 0.931135
Si Si5 0.866410 0.162918 0.419584
Si Si6 0.588606 0.657737 0.287604
Si Si7 0.549206 0.149145 0.248675
O O1 0.363288 0.120445 0.258055
O O2 0.059804 0.085214 0.242725
O O3 0.472674 0.804096 0.191553
O O4 0.500000 0.000000 0.000000
O O5 0.164905 0.652890 0.548709
O O6 0.411904 0.343709 0.346244
O O7 0.000000 0.500000 0.500000
O O8 0.098962 0.670135 0.313503
O O9 0.197599 0.345439 0.730712
O O10 0.266134 0.029466 0.709525
O O11 0.933288 0.288673 0.939677
O O12 0.354576 0.521466 0.791301
O O13 0.326538 0.806986 0.903655
O O14 0.500000 0.500000 0.000000
O O15 0.602127 0.246912 0.540812
O O16 0.000000 0.000000 0.500000
#
# Coordination Sequence:
#
# PCOD9006699 Si02
#       7
#     2   2   2   2   2   2   2
#     4  10  21  38  68 102 140 179 230 287 354 421
#     4  12  24  46  75  97 139 191 239 288 358 428
#     4  11  26  44  69 104 145 184 235 303 349 418
#     4  12  21  41  75 104 143 191 237 292 355 422
#     4  10  21  43  69 101 138 184 231 289 353 430
#     4  10  22  41  67 101 143 184 238 290 353 421
#     4  11  23  43  70 107 136 181 243 282 359 419
#
# _framework density 26.529446
#
# number of rings (size 3 to 8) (size 9 to 14) (size 15 to 20)
#    0.000    1.143    4.286    1.714    0.000    1.714 
#    0.000    2.143    3.143    0.000    0.000    0.000 
#    0.000    0.000    0.000    0.000    0.000    0.000 
#
# Total GULP energy -78170.031595 kJ/mol
# GULP energy per Si atom -5583.573685 kJ/mol
# Density = 2.646906 g / cm^3
# Si number density = 26.529446 Si / 1000 Ang^3
#
#
#
# Elastic Constant Matrix: (Units=GPa)
#
#
# Indices 1 2 3 4 5 6 
#
# 1 77.8518 22.2792 38.5641 -9.4017 -19.1196 10.6449
# 2 22.2792 137.5417 22.4438 3.4216 11.6981 10.5663
# 3 38.5641 22.4438 137.5185 7.7680 -34.0753 -11.7001
# 4 -9.4017 3.4216 7.7680 46.1462 5.8295 -8.4489
# 5 -19.1196 11.6981 -34.0753 5.8295 54.7143 -15.8157
# 6 10.6449 10.5663 -11.7001 -8.4489 -15.8157 43.4575
#
#
#
# Elastic Compliance Matrix: (Units=1/GPa)
#
#
# Indices 1 2 3 4 5 6 
#
# 1 0.017036 -0.002092 -0.004316 0.003449 0.002395 -0.003284
# 2 -0.002092 0.008840 -0.002524 -0.000787 -0.005390 -0.004431
# 3 -0.004316 -0.002524 0.011886 -0.002419 0.008900 0.007640
# 4 0.003449 -0.000787 -0.002419 0.023551 -0.001895 0.002585
# 5 0.002395 -0.005390 0.008900 -0.001895 0.029958 0.013654
# 6 -0.003284 -0.004431 0.007640 0.002585 0.013654 0.032421
#
#
# Mechanical properties :
#
#
# Convention : Reuss Voigt Hill
#
# Bulk Modulus (GPa) = 50.26204 57.72067 53.99136
# Shear Modulus (GPa) = 33.74077 46.83860 40.28968
#
# Velocity S-wave (km/s) = 3.57013 4.20638 3.90125
# Velocity P-wave (km/s) = 5.99845 6.73765 6.37877
#
# Compressibility (1/GPa) = 0.01989573
#
# Stress axis : x y z
#
# Youngs Moduli (GPa) = 58.70047 113.12577 84.13269
#
# Poissons Ratio (x) = 0.23670 0.36315
# Poissons Ratio (y) = 0.12282 0.21235
# Poissons Ratio (z) = 0.25338 0.28553
#
# Static dielectric constant tensor:
#      x y z
#    x 2.432700 -0.073020 -0.170390 
#    y -0.073020 2.023270 -0.004070 
#    z -0.170390 -0.004070 2.407420 
# 
# From -- ./inp_files/353607.got.cif
#   From: 2010.05.17/outbox.cif.g08.bks.cpg/sg2_177_cif.got.tgz:353607.got - 2010.06.03 11:33:40.
