data_PCOD9006854
_publ_section_title
;
Structure prediction by ZEFSAII (Michael W. Deem and Ramdas Pophale) SiO2 
 PCOD9006854
Probable space group: P -1
;
_chemical_formula_sum "Si O2"
_cell_formula_units_Z 14
_cell_length_a 7.838107
_cell_length_b 16.188816
_cell_length_c 11.903542
_cell_angle_alpha 31.894996
_cell_angle_beta 51.037107
_cell_angle_gamma 41.563855
_cell_volume 529.387597
_symmetry_space_group_name_H-M "P -1"
_symmetry_group_IT_number 2
_symmetry_cell_setting 'triclinic'
loop_
_space_group_symop_operation_xyz
x,y,z
-x,-y,-z
loop_
_atom_site_type_symbol
_atom_site_label
_atom_site_fract_x
_atom_site_fract_y
_atom_site_fract_z
Si Si1 0.103290 0.125515 0.050042
Si Si2 0.142107 0.020367 0.810826
Si Si3 0.062541 0.568091 0.650114
Si Si4 0.369650 0.020189 0.409377
Si Si5 0.963722 0.344307 0.088037
Si Si6 0.589559 0.718919 0.332986
Si Si7 0.475214 0.363325 0.299362
O O1 0.065507 0.210631 0.089976
O O2 0.334737 0.914685 0.192411
O O3 0.185285 0.233473 0.806885
O O4 0.859873 0.119017 0.117372
O O5 0.000652 0.227492 0.580684
O O6 0.431683 0.968293 0.771668
O O7 0.000000 0.000000 0.000000
O O8 0.810061 0.569099 0.705045
O O9 0.312494 0.425622 0.641213
O O10 0.072746 0.478415 0.869817
O O11 0.095710 0.200893 0.300123
O O12 0.500000 0.000000 0.500000
O O13 0.366119 0.842983 0.577588
O O14 0.655049 0.444111 0.105187
O O15 0.551873 0.638071 0.554488
#
# Coordination Sequence:
#
# PCOD9006854 Si02
#       7
#     2   2   2   2   2   2   2
#     4  10  21  40  69  99 128 176 223 273 330 398
#     4  11  25  43  67  98 140 176 218 272 344 394
#     4  10  24  42  65 102 139 169 219 284 329 390
#     4  11  24  42  66  99 135 172 226 277 332 396
#     4  11  23  43  72  97 131 179 230 273 327 394
#     4  10  21  38  70  98 131 167 230 268 326 390
#     4  11  21  40  68  98 130 179 223 269 331 402
#
# _framework density 26.445651999999999
#
# number of rings (size 3 to 8) (size 9 to 14) (size 15 to 20)
#    0.000    1.429    1.429    3.857    6.000    1.714 
#    0.000    5.714    0.000    0.000    0.000    0.000 
#    0.000    0.000    0.000    0.000    0.000    0.000 
#
# Total GULP energy -78405.779187 kJ/mol
# GULP energy per Si atom -5600.412799 kJ/mol
# Density = 2.638546 g / cm^3
# Si number density = 26.445652 Si / 1000 Ang^3
#
#
#
# Elastic Constant Matrix: (Units=GPa)
#
#
# Indices 1 2 3 4 5 6 
#
# 1 66.4959 14.4629 33.3458 1.6659 -22.5923 0.7203
# 2 14.4629 123.6748 39.3781 -0.2517 -7.0829 1.5912
# 3 33.3458 39.3781 114.1960 21.7008 -11.6192 -6.0684
# 4 1.6659 -0.2517 21.7008 55.6341 -7.7269 1.5837
# 5 -22.5923 -7.0829 -11.6192 -7.7269 46.7726 4.0555
# 6 0.7203 1.5912 -6.0684 1.5837 4.0555 27.4643
#
#
#
# Elastic Compliance Matrix: (Units=1/GPa)
#
#
# Indices 1 2 3 4 5 6 
#
# 1 0.021279 0.000034 -0.006032 0.003150 0.009608 -0.003493
# 2 0.000034 0.009271 -0.003492 0.001579 0.000947 -0.001541
# 3 -0.006032 -0.003492 0.012743 -0.005111 -0.001440 0.003684
# 4 0.003150 0.001579 -0.005111 0.020546 0.004154 -0.003101
# 5 0.009608 0.000947 -0.001440 0.004154 0.026912 -0.004839
# 6 -0.003493 -0.001541 0.003684 -0.003101 -0.004839 0.038299
#
#
# Mechanical properties :
#
#
# Convention : Reuss Voigt Hill
#
# Bulk Modulus (GPa) = 41.13127 53.19336 47.16232
# Shear Modulus (GPa) = 32.02341 40.45284 36.23812
#
# Velocity S-wave (km/s) = 3.48359 3.91533 3.70575
# Velocity P-wave (km/s) = 5.63626 6.37163 6.01519
#
# Compressibility (1/GPa) = 0.02431240
#
# Stress axis : x y z
#
# Youngs Moduli (GPa) = 46.99376 107.86357 78.47578
#
# Poissons Ratio (x) = -0.00363 0.47336
# Poissons Ratio (y) = -0.00158 0.27405
# Poissons Ratio (z) = 0.28346 0.37668
#
# Static dielectric constant tensor:
#      x y z
#    x 2.074490 0.017470 0.072670 
#    y 0.017470 2.024900 0.010600 
#    z 0.072670 0.010600 2.118020 
# 
# From -- ./inp_files/245625.got.cif
#   From: 2010.05.17/outbox.cif.g08.bks.cpg/sg2_123_cif.got.tgz:245625.got - 2010.06.03 11:33:40.
