data_PCOD9006191
_publ_section_title
;
Structure prediction by ZEFSAII (Michael W. Deem and Ramdas Pophale) SiO2 
 PCOD9006191
Probable space group: P -1
;
_chemical_formula_sum "Si O2"
_cell_formula_units_Z 14
_cell_length_a 6.458202
_cell_length_b 11.306450
_cell_length_c 11.239587
_cell_angle_alpha 109.937546
_cell_angle_beta 101.019276
_cell_angle_gamma 52.794204
_cell_volume 614.365774
_symmetry_space_group_name_H-M "P -1"
_symmetry_group_IT_number 2
_symmetry_cell_setting 'triclinic'
loop_
_space_group_symop_operation_xyz
x,y,z
-x,-y,-z
loop_
_atom_site_type_symbol
_atom_site_label
_atom_site_fract_x
_atom_site_fract_y
_atom_site_fract_z
Si Si1 0.607434 0.018097 0.172865
Si Si2 0.500558 0.707544 0.592504
Si Si3 0.812768 0.247222 0.851111
Si Si4 0.199840 0.250435 0.518143
Si Si5 0.305488 0.893987 0.029229
Si Si6 0.701038 0.423670 0.668828
Si Si7 0.200191 0.971130 0.408503
O O1 0.617530 0.119138 0.312833
O O2 0.392093 0.984378 0.149004
O O3 0.557123 0.119567 0.084580
O O4 0.877757 0.846455 0.125739
O O5 0.776433 0.659305 0.554433
O O6 0.530816 0.600055 0.667188
O O7 0.387856 0.662624 0.455181
O O8 0.656336 0.253431 0.951584
O O9 0.698354 0.388445 0.795039
O O10 0.819933 0.118607 0.729525
O O11 0.495980 0.136935 0.558571
O O12 0.997285 0.348057 0.633963
O O13 0.127973 0.137903 0.424210
O O14 0.000000 0.000000 0.000000
O O15 0.000000 0.000000 0.500000
#
# Coordination Sequence:
#
# PCOD9006191 Si02
#       7
#     2   2   2   2   2   2   2
#     4  10  21  38  65  85 111 152 203 248 297 353
#     4  11  23  39  56  85 128 166 198 234 289 362
#     4  11  20  35  59  87 119 148 194 249 298 345
#     4  11  20  33  53  80 120 159 194 231 290 349
#     4   9  21  40  61  88 111 145 197 261 307 339
#     4  11  24  37  54  89 131 164 192 234 293 364
#     4  11  20  31  54  88 115 144 198 245 286 341
#
# _framework density 22.787728999999999
#
# number of rings (size 3 to 8) (size 9 to 14) (size 15 to 20)
#    0.000    1.429    2.857    3.000    4.000    1.143 
#    0.000    0.714    0.000    7.714    0.000    0.000 
#    0.000    0.000    0.000    0.000    0.000    0.000 
#
# Total GULP energy -78016.265735 kJ/mol
# GULP energy per Si atom -5572.590410 kJ/mol
# Density = 2.273586 g / cm^3
# Si number density = 22.787729 Si / 1000 Ang^3
#
#
#
# Elastic Constant Matrix: (Units=GPa)
#
#
# Indices 1 2 3 4 5 6 
#
# 1 113.7139 23.7385 20.4641 -11.6825 -1.0123 26.6702
# 2 23.7385 65.9903 11.3829 -21.6662 -0.7600 15.9858
# 3 20.4641 11.3829 59.2943 -21.3124 -2.6805 8.4219
# 4 -11.6825 -21.6662 -21.3124 40.2638 14.9265 -14.2775
# 5 -1.0123 -0.7600 -2.6805 14.9265 40.2743 -7.7339
# 6 26.6702 15.9858 8.4219 -14.2775 -7.7339 24.3479
#
#
#
# Elastic Compliance Matrix: (Units=1/GPa)
#
#
# Indices 1 2 3 4 5 6 
#
# 1 0.012697 -0.001752 -0.003381 -0.003554 -0.001328 -0.014094
# 2 -0.001752 0.020784 0.001227 0.010455 -0.004900 -0.007577
# 3 -0.003381 0.001227 0.022138 0.013274 -0.003118 0.002034
# 4 -0.003554 0.010455 0.013274 0.047011 -0.013408 0.015745
# 5 -0.001328 -0.004900 -0.003118 -0.013408 0.030948 0.007718
# 6 -0.014094 -0.007577 0.002034 0.015745 0.007718 0.072465
#
#
# Mechanical properties :
#
#
# Convention : Reuss Voigt Hill
#
# Bulk Modulus (GPa) = 20.91768 38.90772 29.91270
# Shear Modulus (GPa) = 21.75894 33.20471 27.48182
#
# Velocity S-wave (km/s) = 3.09342 3.82138 3.47651
# Velocity P-wave (km/s) = 4.68597 6.04828 5.41017
#
# Compressibility (1/GPa) = 0.04780645
#
# Stress axis : x y z
#
# Youngs Moduli (GPa) = 78.75953 48.11395 45.17160
#
# Poissons Ratio (x) = 0.08430 0.15274
# Poissons Ratio (y) = 0.13800 -0.05544
# Poissons Ratio (z) = 0.26631 -0.05905
#
# Static dielectric constant tensor:
#      x y z
#    x 1.911870 -0.000290 -0.018190 
#    y -0.000290 1.931670 -0.081220 
#    z -0.018190 -0.081220 1.903460 
# 
# From -- ./inp_files/66583.got.cif
#   From: 2010.05.17/outbox.cif.g08.bks.cpg/sg2_34_cif.got.tgz:66583.got - 2010.06.03 11:33:40.
