data_PCOD9006164
_publ_section_title
;
Structure prediction by ZEFSAII (Michael W. Deem and Ramdas Pophale) SiO2 
 PCOD9006164
Probable space group: P -1
;
_chemical_formula_sum "Si O2"
_cell_formula_units_Z 16
_cell_length_a 11.408442
_cell_length_b 12.559602
_cell_length_c 7.696049
_cell_angle_alpha 98.445175
_cell_angle_beta 120.914829
_cell_angle_gamma 46.885062
_cell_volume 652.845286
_symmetry_space_group_name_H-M "P -1"
_symmetry_group_IT_number 2
_symmetry_cell_setting 'triclinic'
loop_
_space_group_symop_operation_xyz
x,y,z
-x,-y,-z
loop_
_atom_site_type_symbol
_atom_site_label
_atom_site_fract_x
_atom_site_fract_y
_atom_site_fract_z
Si Si1 0.274619 0.163766 0.878792
Si Si2 0.473229 0.825432 0.351385
Si Si3 0.829629 0.137901 0.284489
Si Si4 0.233897 0.604473 0.861710
Si Si5 0.101189 0.083321 0.978862
Si Si6 0.565054 0.720165 0.015939
Si Si7 0.112563 0.334266 0.443119
Si Si8 0.628975 0.358736 0.698915
O O1 0.162579 0.145585 0.912495
O O2 0.176760 0.224150 0.629189
O O3 0.291511 0.280637 0.974792
O O4 0.500000 0.000000 0.000000
O O5 0.693035 0.744807 0.539402
O O6 0.451208 0.716995 0.375940
O O7 0.494213 0.822451 0.157187
O O8 0.253452 0.001388 0.240465
O O9 0.818012 0.271297 0.279361
O O10 0.623157 0.210260 0.216653
O O11 0.862320 0.057742 0.107415
O O12 0.000000 0.000000 0.500000
O O13 0.033546 0.657224 0.778924
O O14 0.347149 0.432916 0.859334
O O15 0.374681 0.578677 0.104382
O O16 0.865663 0.222531 0.831065
O O17 0.000000 0.500000 0.500000
O O18 0.500000 0.500000 0.500000
#
# Coordination Sequence:
#
# PCOD9006164 Si02
#       8
#     2   2   2   2   2   2   2   2
#     4  11  19  40  68 101 128 166 219 273 346 394
#     4  10  21  44  67  94 131 174 218 274 338 386
#     4  11  23  36  68 101 129 162 220 287 342 388
#     4  12  24  42  64 102 141 168 226 273 342 389
#     4  11  23  44  66  92 137 177 223 266 327 404
#     4  10  21  38  65 100 133 164 212 292 334 386
#     4  11  22  39  71 101 133 167 208 290 351 383
#     4  12  29  44  66  91 134 197 226 263 321 407
#
# _framework density 24.508105
#
# number of rings (size 3 to 8) (size 9 to 14) (size 15 to 20)
#    0.000    1.000    8.750    1.500    3.500    0.000 
#    0.000    3.125    0.000    0.000    0.000    0.000 
#    0.000    0.000    0.000    0.000    0.000    0.000 
#
# Total GULP energy -89114.177333 kJ/mol
# GULP energy per Si atom -5569.636083 kJ/mol
# Density = 2.445232 g / cm^3
# Si number density = 24.508105 Si / 1000 Ang^3
#
#
#
# Elastic Constant Matrix: (Units=GPa)
#
#
# Indices 1 2 3 4 5 6 
#
# 1 168.2449 37.6443 47.0977 -16.8266 30.6548 41.3498
# 2 37.6443 84.1340 13.8301 -29.4274 -3.1863 20.8010
# 3 47.0977 13.8301 113.2807 -31.7224 15.9855 21.8874
# 4 -16.8266 -29.4274 -31.7224 35.0258 7.7031 -3.3226
# 5 30.6548 -3.1863 15.9855 7.7031 49.2775 -6.7227
# 6 41.3498 20.8010 21.8874 -3.3226 -6.7227 43.2352
#
#
#
# Elastic Compliance Matrix: (Units=1/GPa)
#
#
# Indices 1 2 3 4 5 6 
#
# 1 0.011318 0.000270 0.001464 0.008093 -0.010497 -0.012706
# 2 0.000270 0.023850 0.009200 0.028843 -0.008227 -0.015452
# 3 0.001464 0.009200 0.019781 0.027761 -0.013223 -0.015763
# 4 0.008093 0.028843 0.027761 0.085229 -0.030110 -0.033802
# 5 -0.010497 -0.008227 -0.013223 -0.030110 0.038614 0.024381
# 6 -0.012706 -0.015452 -0.015763 -0.033802 0.024381 0.051888
#
#
# Mechanical properties :
#
#
# Convention : Reuss Voigt Hill
#
# Bulk Modulus (GPa) = 13.01814 62.53377 37.77596
# Shear Modulus (GPa) = 21.32923 43.31353 32.32138
#
# Velocity S-wave (km/s) = 2.95327 4.20850 3.63547
# Velocity P-wave (km/s) = 4.11733 7.01329 5.75059
#
# Compressibility (1/GPa) = 0.07681590
#
# Stress axis : x y z
#
# Youngs Moduli (GPa) = 88.35289 41.92856 50.55260
#
# Poissons Ratio (x) = -0.01131 -0.07400
# Poissons Ratio (y) = -0.02382 -0.46506
# Poissons Ratio (z) = -0.12933 -0.38573
#
# Static dielectric constant tensor:
#      x y z
#    x 2.094250 -0.120270 0.088060 
#    y -0.120270 2.150960 0.037210 
#    z 0.088060 0.037210 2.059670 
# 
# From -- ./inp_files/262553.got.cif
#   From: 2010.05.17/outbox.cif.g08.bks.cpg/sg2_132_cif.got.tgz:262553.got - 2010.06.03 11:33:40.
