data_PCOD9006611
_publ_section_title
;
Structure prediction by ZEFSAII (Michael W. Deem and Ramdas Pophale) SiO2 
 PCOD9006611
Probable space group: P -1
;
_chemical_formula_sum "Si O2"
_cell_formula_units_Z 16
_cell_length_a 9.138435
_cell_length_b 21.586121
_cell_length_c 9.265372
_cell_angle_alpha 49.660310
_cell_angle_beta 76.704670
_cell_angle_gamma 115.902105
_cell_volume 831.984333
_symmetry_space_group_name_H-M "P -1"
_symmetry_group_IT_number 2
_symmetry_cell_setting 'triclinic'
loop_
_space_group_symop_operation_xyz
x,y,z
-x,-y,-z
loop_
_atom_site_type_symbol
_atom_site_label
_atom_site_fract_x
_atom_site_fract_y
_atom_site_fract_z
Si Si1 0.761805 0.910813 0.286304
Si Si2 0.618705 0.122632 0.693317
Si Si3 0.134015 0.381525 0.682872
Si Si4 0.017536 0.079032 0.263161
Si Si5 0.750177 0.126078 0.336284
Si Si6 0.116088 0.367458 0.373301
Si Si7 0.543756 0.645193 0.698421
Si Si8 0.531881 0.639776 0.373399
O O1 0.577973 0.891310 0.272916
O O2 0.639367 0.770871 0.548979
O O3 0.851386 0.989132 0.296807
O O4 0.000000 0.000000 0.000000
O O5 0.697845 0.124736 0.514862
O O6 0.859480 0.257703 0.515294
O O7 0.500000 0.000000 0.000000
O O8 0.076700 0.371752 0.543447
O O9 0.295292 0.520380 0.510768
O O10 0.302394 0.371608 0.656583
O O11 0.898682 0.259516 0.016591
O O12 0.917769 0.117876 0.300961
O O13 0.000000 0.000000 0.500000
O O14 0.293676 0.214451 0.943135
O O15 0.500000 0.000000 0.500000
O O16 0.240140 0.330517 0.387141
O O17 0.315657 0.512151 0.038777
O O18 0.472643 0.626714 0.574573
#
# Coordination Sequence:
#
# PCOD9006611 Si02
#       8
#     2   2   2   2   2   2   2   2
#     4  12  25  44  64  94 133 173 210 277 323 383
#     4  12  26  41  68  95 129 172 219 263 326 384
#     4   9  19  36  62  89 124 157 213 259 310 369
#     4  11  25  39  66  95 128 167 215 260 326 380
#     4  11  22  42  63  90 129 169 208 265 317 382
#     4  10  22  39  65 101 121 171 217 263 317 394
#     4  10  21  38  67  90 136 163 216 261 322 383
#     4   9  18  37  59  89 122 166 202 260 311 369
#
# _framework density 19.231131999999999
#
# number of rings (size 3 to 8) (size 9 to 14) (size 15 to 20)
#    0.000    1.500    2.500    2.250    7.000    2.500 
#    0.000    0.000    0.000    2.250    0.000    0.000 
#    0.000    0.000    0.000    0.000    0.000    0.000 
#
# Total GULP energy -89421.026040 kJ/mol
# GULP energy per Si atom -5588.814127 kJ/mol
# Density = 1.918736 g / cm^3
# Si number density = 19.231132 Si / 1000 Ang^3
#
#
#
# Elastic Constant Matrix: (Units=GPa)
#
#
# Indices 1 2 3 4 5 6 
#
# 1 80.3923 42.6514 61.5650 -3.3202 2.1499 13.4263
# 2 42.6514 138.1359 85.2507 -1.1988 -7.0253 21.8144
# 3 61.5650 85.2507 168.1036 -0.0220 11.2754 14.5127
# 4 -3.3202 -1.1988 -0.0220 44.1102 -1.0407 -3.0057
# 5 2.1499 -7.0253 11.2754 -1.0407 28.8737 -3.8982
# 6 13.4263 21.8144 14.5127 -3.0057 -3.8982 33.8933
#
#
#
# Elastic Compliance Matrix: (Units=1/GPa)
#
#
# Indices 1 2 3 4 5 6 
#
# 1 0.018187 -0.001619 -0.005515 0.001068 -0.000057 -0.003713
# 2 -0.001619 0.011992 -0.005432 0.000022 0.004590 -0.004221
# 3 -0.005515 -0.005432 0.011047 -0.000660 -0.005209 0.000293
# 4 0.001068 0.000022 -0.000660 0.022919 0.001283 0.002026
# 5 -0.000057 0.004590 -0.005209 0.001283 0.038352 0.003823
# 6 -0.003713 -0.004221 0.000293 0.002026 0.003823 0.034186
#
#
# Mechanical properties :
#
#
# Convention : Reuss Voigt Hill
#
# Bulk Modulus (GPa) = 62.13559 85.06286 73.59923
# Shear Modulus (GPa) = 29.90789 34.51974 32.21381
#
# Velocity S-wave (km/s) = 3.94786 4.24133 4.09722
# Velocity P-wave (km/s) = 7.29115 8.26517 7.79339
#
# Compressibility (1/GPa) = 0.01609384
#
# Stress axis : x y z
#
# Youngs Moduli (GPa) = 54.98349 83.39098 90.52050
#
# Poissons Ratio (x) = 0.13503 0.49923
# Poissons Ratio (y) = 0.08903 0.49169
# Poissons Ratio (z) = 0.30324 0.45297
#
# Static dielectric constant tensor:
#      x y z
#    x 1.709580 -0.032540 0.008120 
#    y -0.032540 1.660860 -0.010320 
#    z 0.008120 -0.010320 1.655030 
# 
# From -- ./inp_files/223211.got.cif
#   From: 2010.05.17/outbox.cif.g08.bks.cpg/sg2_112_cif.got.tgz:223211.got - 2010.06.03 11:33:40.
