data_PCOD9006257
_publ_section_title
;
Structure prediction by ZEFSAII (Michael W. Deem and Ramdas Pophale) SiO2 
 PCOD9006257
Probable space group: P -1
;
_chemical_formula_sum "Si O2"
_cell_formula_units_Z 16
_cell_length_a 12.326311
_cell_length_b 10.753806
_cell_length_c 11.811076
_cell_angle_alpha 35.787491
_cell_angle_beta 58.280246
_cell_angle_gamma 71.427189
_cell_volume 760.213927
_symmetry_space_group_name_H-M "P -1"
_symmetry_group_IT_number 2
_symmetry_cell_setting 'triclinic'
loop_
_space_group_symop_operation_xyz
x,y,z
-x,-y,-z
loop_
_atom_site_type_symbol
_atom_site_label
_atom_site_fract_x
_atom_site_fract_y
_atom_site_fract_z
Si Si1 0.188618 0.916010 0.195700
Si Si2 0.518278 0.780008 0.709860
Si Si3 0.269262 0.298684 0.514672
Si Si4 0.372125 0.651152 0.388497
Si Si5 0.078303 0.379726 0.365253
Si Si6 0.117051 0.873161 0.013144
Si Si7 0.684944 0.633585 0.900135
Si Si8 0.336373 0.366478 0.819925
O O1 0.311145 0.848973 0.237106
O O2 0.059899 0.784996 0.425304
O O3 0.176876 0.847926 0.121871
O O4 0.215147 0.175625 0.991796
O O5 0.602103 0.671491 0.654506
O O6 0.603083 0.794755 0.767289
O O7 0.500000 0.000000 0.500000
O O8 0.383445 0.607469 0.930314
O O9 0.302744 0.446618 0.498081
O O10 0.156195 0.360680 0.453933
O O11 0.222900 0.043423 0.758062
O O12 0.338734 0.583811 0.586163
O O13 0.526265 0.689369 0.253051
O O14 0.168612 0.315044 0.265088
O O15 0.068727 0.630816 0.170549
O O16 0.000000 0.000000 0.000000
O O17 0.671794 0.620370 0.051011
#
# Coordination Sequence:
#
# PCOD9006257 Si02
#       8
#     2   2   2   2   2   2   2   2
#     4  12  24  39  64  92 127 169 207 256 318 368
#     4  10  21  38  65  92 122 162 207 259 312 368
#     4  11  20  38  65  94 123 157 206 268 319 360
#     4  11  23  42  63  92 124 163 212 263 308 369
#     4  11  24  40  64  96 127 160 210 265 313 370
#     4  12  22  37  65  98 126 158 209 265 317 367
#     4  10  23  43  61  91 129 165 206 258 310 373
#     4  11  25  43  62  90 129 168 212 251 309 380
#
# _framework density 21.046707999999999
#
# number of rings (size 3 to 8) (size 9 to 14) (size 15 to 20)
#    0.000    1.000    5.000    2.250    0.000    2.500 
#    0.000    0.625    0.000    0.000    0.000    0.000 
#    0.000    0.000    0.000    0.000    0.000    0.000 
#
# Total GULP energy -89426.042432 kJ/mol
# GULP energy per Si atom -5589.127652 kJ/mol
# Density = 2.099881 g / cm^3
# Si number density = 21.046708 Si / 1000 Ang^3
#
#
#
# Elastic Constant Matrix: (Units=GPa)
#
#
# Indices 1 2 3 4 5 6 
#
# 1 42.4445 5.6857 22.2376 2.5286 9.5915 -2.6720
# 2 5.6857 31.8958 25.1595 9.6513 9.1425 10.6942
# 3 22.2376 25.1595 137.2254 6.1177 5.6443 0.8785
# 4 2.5286 9.6513 6.1177 33.5794 5.5926 10.8586
# 5 9.5915 9.1425 5.6443 5.5926 49.7827 1.5044
# 6 -2.6720 10.6942 0.8785 10.8586 1.5044 24.3076
#
#
#
# Elastic Compliance Matrix: (Units=1/GPa)
#
#
# Indices 1 2 3 4 5 6 
#
# 1 0.027233 -0.001634 -0.003885 -0.001713 -0.004462 0.004894
# 2 -0.001634 0.047181 -0.007780 -0.005156 -0.006346 -0.017960
# 3 -0.003885 -0.007780 0.009292 -0.000211 0.001066 0.002688
# 4 -0.001713 -0.005156 -0.000211 0.036351 -0.002360 -0.014005
# 5 -0.004462 -0.006346 0.001066 -0.002360 0.022198 0.001943
# 6 0.004894 -0.017960 0.002688 -0.014005 0.001943 0.055618
#
#
# Mechanical properties :
#
#
# Convention : Reuss Voigt Hill
#
# Bulk Modulus (GPa) = 17.51060 35.30346 26.40703
# Shear Modulus (GPa) = 20.53349 32.09947 26.31648
#
# Velocity S-wave (km/s) = 3.12687 3.90956 3.53991
# Velocity P-wave (km/s) = 4.62324 6.09835 5.41129
#
# Compressibility (1/GPa) = 0.05710827
#
# Stress axis : x y z
#
# Youngs Moduli (GPa) = 36.72035 21.19514 107.62442
#
# Poissons Ratio (x) = 0.03462 0.41813
# Poissons Ratio (y) = 0.05999 0.83729
# Poissons Ratio (z) = 0.14266 0.16489
#
# Static dielectric constant tensor:
#      x y z
#    x 1.781070 -0.002300 0.002120 
#    y -0.002300 1.754130 -0.005990 
#    z 0.002120 -0.005990 1.747060 
# 
# From -- ./inp_files/69921.got.cif
#   From: 2010.05.17/outbox.cif.g08.bks.cpg/sg2_35_cif.got.tgz:69921.got - 2010.06.03 11:33:40.
