data_PCOD9006691
_publ_section_title
;
Structure prediction by ZEFSAII (Michael W. Deem and Ramdas Pophale) SiO2 
 PCOD9006691
Probable space group: P -1
;
_chemical_formula_sum "Si O2"
_cell_formula_units_Z 16
_cell_length_a 16.466962
_cell_length_b 8.539478
_cell_length_c 8.952892
_cell_angle_alpha 102.483751
_cell_angle_beta 69.464404
_cell_angle_gamma 139.301117
_cell_volume 766.213514
_symmetry_space_group_name_H-M "P -1"
_symmetry_group_IT_number 2
_symmetry_cell_setting 'triclinic'
loop_
_space_group_symop_operation_xyz
x,y,z
-x,-y,-z
loop_
_atom_site_type_symbol
_atom_site_label
_atom_site_fract_x
_atom_site_fract_y
_atom_site_fract_z
Si Si1 0.876041 0.424450 0.124800
Si Si2 0.394740 0.139729 0.442004
Si Si3 0.740504 0.645096 0.851333
Si Si4 0.498159 0.818910 0.908184
Si Si5 0.954332 0.771023 0.900945
Si Si6 0.320543 0.103663 0.970796
Si Si7 0.553673 0.454984 0.673879
Si Si8 0.094607 0.670283 0.614224
O O1 0.900814 0.467705 0.294706
O O2 0.753979 0.139187 0.116807
O O3 0.873935 0.571780 0.044949
O O4 0.000000 0.500000 0.000000
O O5 0.473191 0.140485 0.275403
O O6 0.476277 0.240744 0.562128
O O7 0.404669 0.331936 0.402976
O O8 0.242845 0.895013 0.509806
O O9 0.863194 0.703471 0.810365
O O10 0.671842 0.547720 0.713873
O O11 0.634106 0.439581 0.998575
O O12 0.768725 0.869630 0.921180
O O13 0.617035 0.886175 0.920300
O O14 0.500000 0.000000 0.000000
O O15 0.050050 0.769865 0.759552
O O16 0.000000 0.000000 0.000000
O O17 0.441506 0.335760 0.843805
O O18 0.000000 0.500000 0.500000
#
# Coordination Sequence:
#
# PCOD9006691 Si02
#       8
#     2   2   2   2   2   2   2   2
#     4  10  22  41  67  95 130 183 228 275 337 412
#     4  11  22  41  67  99 140 175 227 279 353 402
#     4  11  21  41  66 100 134 172 239 279 338 415
#     4  11  23  37  66  97 128 177 230 281 337 403
#     4  11  26  45  72 101 135 183 234 288 333 414
#     4  11  19  41  65  98 131 178 230 278 342 414
#     4  10  21  38  68 100 130 179 218 283 343 405
#     4  11  26  45  71 101 139 188 231 279 350 411
#
# _framework density 20.881907000000002
#
# number of rings (size 3 to 8) (size 9 to 14) (size 15 to 20)
#    0.000    1.250    3.750    3.000    5.250    1.000 
#    0.000    7.500    0.000    0.000    0.000    0.000 
#    0.000    0.000    0.000    0.000    0.000    0.000 
#
# Total GULP energy -89224.389071 kJ/mol
# GULP energy per Si atom -5576.524317 kJ/mol
# Density = 2.083438 g / cm^3
# Si number density = 20.881907 Si / 1000 Ang^3
#
#
#
# Elastic Constant Matrix: (Units=GPa)
#
#
# Indices 1 2 3 4 5 6 
#
# 1 71.5486 14.1229 11.1106 8.1634 19.8433 -1.8119
# 2 14.1229 91.9888 31.2293 5.3332 14.1099 -2.0014
# 3 11.1106 31.2293 99.7568 16.5238 21.2063 6.8409
# 4 8.1634 5.3332 16.5238 35.5027 2.0979 6.7393
# 5 19.8433 14.1099 21.2063 2.0979 35.5085 8.7173
# 6 -1.8119 -2.0014 6.8409 6.7393 8.7173 31.0804
#
#
#
# Elastic Compliance Matrix: (Units=1/GPa)
#
#
# Indices 1 2 3 4 5 6 
#
# 1 0.017744 -0.001034 0.001160 -0.004729 -0.011110 0.004854
# 2 -0.001034 0.012700 -0.003307 -0.000412 -0.003067 0.002435
# 3 0.001160 -0.003307 0.013335 -0.005580 -0.006990 0.000090
# 4 -0.004729 -0.000412 -0.005580 0.033063 0.006141 -0.007966
# 5 -0.011110 -0.003067 -0.006990 0.006141 0.042483 -0.012554
# 6 0.004854 0.002435 0.000090 -0.007966 -0.012554 0.037843
#
#
# Mechanical properties :
#
#
# Convention : Reuss Voigt Hill
#
# Bulk Modulus (GPa) = 26.72701 41.80218 34.26460
# Shear Modulus (GPa) = 28.40868 34.20706 31.30787
#
# Velocity S-wave (km/s) = 3.69242 4.05176 3.87626
# Velocity P-wave (km/s) = 5.56826 6.47695 6.03972
#
# Compressibility (1/GPa) = 0.03741534
#
# Stress axis : x y z
#
# Youngs Moduli (GPa) = 56.35594 78.74192 74.99259
#
# Poissons Ratio (x) = 0.08142 -0.08697
# Poissons Ratio (y) = 0.05827 0.24803
# Poissons Ratio (z) = -0.06536 0.26043
#
# Static dielectric constant tensor:
#      x y z
#    x 1.754970 -0.004900 0.004930 
#    y -0.004900 1.812160 0.064340 
#    z 0.004930 0.064340 1.745310 
# 
# From -- ./inp_files/329166.got.cif
#   From: 2010.05.17/outbox.cif.g08.bks.cpg/sg2_165_cif.got.tgz:329166.got - 2010.06.03 11:33:40.
