data_PCOD9006515
_publ_section_title
;
Structure prediction by ZEFSAII (Michael W. Deem and Ramdas Pophale) SiO2 
 PCOD9006515
Probable space group: P -1
;
_chemical_formula_sum "Si O2"
_cell_formula_units_Z 15
_cell_length_a 8.747122
_cell_length_b 13.860975
_cell_length_c 6.831036
_cell_angle_alpha 73.035086
_cell_angle_beta 120.520887
_cell_angle_gamma 75.749892
_cell_volume 599.188077
_symmetry_space_group_name_H-M "P -1"
_symmetry_group_IT_number 2
_symmetry_cell_setting 'triclinic'
loop_
_space_group_symop_operation_xyz
x,y,z
-x,-y,-z
loop_
_atom_site_type_symbol
_atom_site_label
_atom_site_fract_x
_atom_site_fract_y
_atom_site_fract_z
Si Si1 0.500000 0.000000 0.500000
Si Si2 0.957966 0.750415 0.116221
Si Si3 0.704247 0.698655 0.300437
Si Si4 0.674418 0.066233 0.202738
Si Si5 0.375368 0.431281 0.967842
Si Si6 0.797463 0.993013 0.908171
Si Si7 0.048429 0.639659 0.834511
Si Si8 0.779049 0.224626 0.400652
O O1 0.584267 0.011199 0.326200
O O2 0.400734 0.918748 0.385740
O O3 0.848440 0.707251 0.220785
O O4 0.797198 0.881132 0.864929
O O5 0.116441 0.773893 0.328302
O O6 0.049877 0.667132 0.045217
O O7 0.680225 0.590818 0.273221
O O8 0.823290 0.680009 0.588317
O O9 0.497527 0.815888 0.077235
O O10 0.810331 0.109159 0.384954
O O11 0.774408 0.986082 0.128099
O O12 0.184659 0.508413 0.932156
O O13 0.500000 0.500000 0.000000
O O14 0.538700 0.306419 0.220863
O O15 0.000000 0.000000 0.000000
O O16 0.134822 0.714323 0.730929
#
# Coordination Sequence:
#
# PCOD9006515 Si02
#       8
#     1   2   2   2   2   2   2   2
#     4  12  26  42  70  96 134 180 238 282 338 410
#     4  11  23  39  60  98 127 175 221 269 339 398
#     4  10  22  40  64  92 134 166 219 277 332 406
#     4  11  24  45  66  98 135 184 226 288 339 397
#     4   9  19  40  65  93 123 170 217 267 341 403
#     4  12  27  44  68 101 139 183 236 280 347 411
#     4  10  21  38  66  94 131 172 213 274 339 404
#     4   9  21  41  65  91 134 168 221 279 330 407
#
# _framework density 25.033877
#
# number of rings (size 3 to 8) (size 9 to 14) (size 15 to 20)
#    0.000    1.600    1.333    2.400    1.867    4.267 
#    0.000    6.667    0.000    0.000    0.000    0.000 
#    0.000    0.000    0.000    0.000    0.000    0.000 
#
# Total GULP energy -83733.829841 kJ/mol
# GULP energy per Si atom -5582.255323 kJ/mol
# Density = 2.497690 g / cm^3
# Si number density = 25.033877 Si / 1000 Ang^3
#
#
#
# Elastic Constant Matrix: (Units=GPa)
#
#
# Indices 1 2 3 4 5 6 
#
# 1 77.3473 17.4078 45.4765 20.9343 9.4601 6.4739
# 2 17.4078 90.3644 34.0184 21.5219 10.6540 -3.5629
# 3 45.4765 34.0184 126.0129 39.1190 17.0502 -6.6523
# 4 20.9343 21.5219 39.1190 40.9704 6.5381 1.8043
# 5 9.4601 10.6540 17.0502 6.5381 41.2224 7.3138
# 6 6.4739 -3.5629 -6.6523 1.8043 7.3138 43.7295
#
#
#
# Elastic Compliance Matrix: (Units=1/GPa)
#
#
# Indices 1 2 3 4 5 6 
#
# 1 0.017339 -0.000661 -0.005110 -0.003399 -0.000595 -0.003158
# 2 -0.000661 0.013228 -0.001411 -0.004985 -0.002164 0.001529
# 3 -0.005110 -0.001411 0.013710 -0.009374 -0.003297 0.003665
# 4 -0.003399 -0.004985 -0.009374 0.037767 0.000482 -0.002968
# 5 -0.000595 -0.002164 -0.003297 0.000482 0.027156 -0.005151
# 6 -0.003158 0.001529 0.003665 -0.002968 -0.005151 0.025002
#
#
# Mechanical properties :
#
#
# Convention : Reuss Voigt Hill
#
# Bulk Modulus (GPa) = 33.43124 54.16999 43.80062
# Shear Modulus (GPa) = 31.53833 38.30592 34.92212
#
# Velocity S-wave (km/s) = 3.55325 3.91597 3.73901
# Velocity P-wave (km/s) = 5.49705 6.49093 6.01455
#
# Compressibility (1/GPa) = 0.02991214
#
# Stress axis : x y z
#
# Youngs Moduli (GPa) = 57.67328 75.59916 72.93776
#
# Poissons Ratio (x) = 0.05000 0.37270
# Poissons Ratio (y) = 0.03814 0.10293
# Poissons Ratio (z) = 0.29470 0.10669
#
# Static dielectric constant tensor:
#      x y z
#    x 1.879660 0.100910 -0.132510 
#    y 0.100910 1.916580 0.158300 
#    z -0.132510 0.158300 1.653340 
# 
# From -- ./inp_files/39073.got.cif
#   From: 2010.05.17/outbox.cif.g08.bks.cpg/sg2_20_cif.got.tgz:39073.got - 2010.06.03 11:33:40.
