data_PCOD9006889
_publ_section_title
;
Structure prediction by ZEFSAII (Michael W. Deem and Ramdas Pophale) SiO2 
 PCOD9006889
Probable space group: P -1
;
_chemical_formula_sum "Si O2"
_cell_formula_units_Z 10
_cell_length_a 14.494340
_cell_length_b 11.490363
_cell_length_c 9.300207
_cell_angle_alpha 59.721407
_cell_angle_beta 150.200672
_cell_angle_gamma 138.674655
_cell_volume 454.079714
_symmetry_space_group_name_H-M "P -1"
_symmetry_group_IT_number 2
_symmetry_cell_setting 'triclinic'
loop_
_space_group_symop_operation_xyz
x,y,z
-x,-y,-z
loop_
_atom_site_type_symbol
_atom_site_label
_atom_site_fract_x
_atom_site_fract_y
_atom_site_fract_z
Si Si1 0.167898 0.966607 0.823083
Si Si2 0.433482 0.511880 0.225923
Si Si3 0.915127 0.850367 0.854858
Si Si4 0.851263 0.525700 0.680031
Si Si5 0.279558 0.627634 0.715617
O O1 0.135554 0.964960 0.953984
O O2 0.037458 0.752886 0.749766
O O3 0.000000 0.000000 0.500000
O O4 0.477502 0.137618 0.083886
O O5 0.632864 0.713121 0.464723
O O6 0.155701 0.326745 0.047058
O O7 0.595021 0.458400 0.453973
O O8 0.391851 0.551735 0.989205
O O9 0.000000 0.000000 0.000000
O O10 0.767838 0.413015 0.490396
O O11 0.000000 0.500000 0.000000
O O12 0.000000 0.500000 0.500000
#
# Coordination Sequence:
#
# PCOD9006889 Si02
#       5
#     2   2   2   2   2
#     4  11  24  47  73 102 138 189 239 281 351 424
#     4  10  23  44  69 103 140 183 232 287 351 418
#     4  10  21  38  75  98 132 177 241 283 347 404
#     4  11  26  45  75 104 145 182 234 295 353 412
#     4  12  27  45  73 104 145 183 238 292 349 414
#
# _framework density 22.022563999999999
#
# number of rings (size 3 to 8) (size 9 to 14) (size 15 to 20)
#    0.000    1.200    4.000    1.800   11.200    1.600 
#    3.600    0.000    0.000    0.000    0.000    0.000 
#    0.000    0.000    0.000    0.000    0.000    0.000 
#
# Total GULP energy -55814.915069 kJ/mol
# GULP energy per Si atom -5581.491507 kJ/mol
# Density = 2.197244 g / cm^3
# Si number density = 22.022564 Si / 1000 Ang^3
#
#
#
# Elastic Constant Matrix: (Units=GPa)
#
#
# Indices 1 2 3 4 5 6 
#
# 1 69.5814 1.4966 32.8483 13.2546 2.5140 17.8870
# 2 1.4966 103.5084 39.5223 8.6572 11.1917 17.8427
# 3 32.8483 39.5223 95.5464 -5.5983 -7.6225 0.3627
# 4 13.2546 8.6572 -5.5983 50.4762 10.9065 0.5385
# 5 2.5140 11.1917 -7.6225 10.9065 44.5427 6.2113
# 6 17.8870 17.8427 0.3627 0.5385 6.2113 44.3495
#
#
#
# Elastic Compliance Matrix: (Units=1/GPa)
#
#
# Indices 1 2 3 4 5 6 
#
# 1 0.024913 0.007347 -0.012182 -0.008706 -0.001449 -0.012596
# 2 0.007347 0.015406 -0.009428 -0.004761 -0.003544 -0.008530
# 3 -0.012182 -0.009428 0.019177 0.006048 0.003749 0.007951
# 4 -0.008706 -0.004761 0.006048 0.024397 -0.004039 0.005646
# 5 -0.001449 -0.003544 0.003749 -0.004039 0.025263 -0.001510
# 6 -0.012596 -0.008530 0.007951 0.005646 -0.001510 0.031138
#
#
# Mechanical properties :
#
#
# Convention : Reuss Voigt Hill
#
# Bulk Modulus (GPa) = 32.28793 46.26339 39.27566
# Shear Modulus (GPa) = 27.91040 40.85828 34.38434
#
# Velocity S-wave (km/s) = 3.56385 4.31198 3.95564
# Velocity P-wave (km/s) = 5.62387 6.77080 6.22381
#
# Compressibility (1/GPa) = 0.03097133
#
# Stress axis : x y z
#
# Youngs Moduli (GPa) = 40.13950 64.90772 52.14502
#
# Poissons Ratio (x) = -0.47689 0.63523
# Poissons Ratio (y) = -0.29491 0.49162
# Poissons Ratio (z) = 0.48898 0.61195
#
# Static dielectric constant tensor:
#      x y z
#    x 1.826220 0.024180 0.018520 
#    y 0.024180 1.834680 0.002910 
#    z 0.018520 0.002910 1.855820 
# 
# From -- ./inp_files/144053.got.cif
#   From: 2010.05.17/outbox.cif.g08.bks.cpg/sg2_73_cif.got.tgz:144053.got - 2010.06.03 11:33:40.
