data_PCOD9006788
_publ_section_title
;
Structure prediction by ZEFSAII (Michael W. Deem and Ramdas Pophale) SiO2 
 PCOD9006788
Probable space group: P -1
;
_chemical_formula_sum "Si O2"
_cell_formula_units_Z 14
_cell_length_a 16.838686
_cell_length_b 12.496570
_cell_length_c 10.374994
_cell_angle_alpha 50.301641
_cell_angle_beta 139.300011
_cell_angle_gamma 156.297828
_cell_volume 559.333299
_symmetry_space_group_name_H-M "P -1"
_symmetry_group_IT_number 2
_symmetry_cell_setting 'triclinic'
loop_
_space_group_symop_operation_xyz
x,y,z
-x,-y,-z
loop_
_atom_site_type_symbol
_atom_site_label
_atom_site_fract_x
_atom_site_fract_y
_atom_site_fract_z
Si Si1 0.795777 0.927785 0.850821
Si Si2 0.986816 0.057804 0.242521
Si Si3 0.947561 0.601677 0.811091
Si Si4 0.022876 0.683841 0.424459
Si Si5 0.592554 0.652358 0.294910
Si Si6 0.408519 0.752121 0.576529
Si Si7 0.385280 0.041239 0.816052
O O1 0.073672 0.033983 0.908437
O O2 0.617556 0.661214 0.750748
O O3 0.625354 0.861884 0.775058
O O4 0.957135 0.191853 0.764815
O O5 0.047565 0.280374 0.162796
O O6 0.213917 0.200360 0.470942
O O7 0.758944 0.812692 0.246314
O O8 0.708429 0.381994 0.604360
O O9 0.159304 0.832522 0.793420
O O10 0.000000 0.500000 0.000000
O O11 0.268139 0.939977 0.609652
O O12 0.000000 0.500000 0.500000
O O13 0.794104 0.482250 0.388669
O O14 0.480308 0.689237 0.175710
O O15 0.500000 0.000000 0.500000
O O16 0.500000 0.000000 0.000000
#
# Coordination Sequence:
#
# PCOD9006788 Si02
#       7
#     2   2   2   2   2   2   2
#     4  12  24  45  80 108 149 205 245 310 385 438
#     4  10  22  42  76 112 145 194 256 302 371 455
#     4  10  21  38  69 107 138 188 251 304 358 443
#     4  11  26  45  67 115 152 188 260 311 361 456
#     4  10  23  48  75 108 150 196 253 310 374 457
#     4  11  22  42  72 105 151 198 245 309 371 435
#     4  10  25  46  72 102 146 194 240 313 381 440
#
# _framework density 25.029798
#
# number of rings (size 3 to 8) (size 9 to 14) (size 15 to 20)
#    0.000    1.429    2.857    1.286    6.000    2.857 
#    2.571    0.714    0.000    0.000    0.000    0.000 
#    0.000    0.000    0.000    0.000    0.000    0.000 
#
# Total GULP energy -78437.886122 kJ/mol
# GULP energy per Si atom -5602.706152 kJ/mol
# Density = 2.497283 g / cm^3
# Si number density = 25.029798 Si / 1000 Ang^3
#
#
#
# Elastic Constant Matrix: (Units=GPa)
#
#
# Indices 1 2 3 4 5 6 
#
# 1 100.2977 68.0832 57.2492 -2.8451 11.0266 0.7649
# 2 68.0832 137.6407 53.5694 -7.2207 -7.3535 -3.0671
# 3 57.2492 53.5694 136.9177 -2.3418 -6.4253 1.7979
# 4 -2.8451 -7.2207 -2.3418 35.3752 -2.7130 6.5549
# 5 11.0266 -7.3535 -6.4253 -2.7130 57.7033 -6.4059
# 6 0.7649 -3.0671 1.7979 6.5549 -6.4059 52.0514
#
#
#
# Elastic Compliance Matrix: (Units=1/GPa)
#
#
# Indices 1 2 3 4 5 6 
#
# 1 0.018527 -0.007537 -0.005038 -0.000576 -0.005212 -0.001111
# 2 -0.007537 0.011772 -0.001297 0.001756 0.002989 0.000996
# 3 -0.005038 -0.001297 0.010012 0.000164 0.001905 -0.000134
# 4 -0.000576 0.001756 0.000164 0.029329 0.001351 -0.003421
# 5 -0.005212 0.002989 0.001905 0.001351 0.019247 0.002386
# 6 -0.001111 0.000996 -0.000134 -0.003421 0.002386 0.020016
#
#
# Mechanical properties :
#
#
# Convention : Reuss Voigt Hill
#
# Bulk Modulus (GPa) = 79.57350 81.40663 80.49007
# Shear Modulus (GPa) = 35.50212 42.08962 38.79587
#
# Velocity S-wave (km/s) = 3.77024 4.10516 3.94126
# Velocity P-wave (km/s) = 7.12836 7.42053 7.27591
#
# Compressibility (1/GPa) = 0.01256700
#
# Stress axis : x y z
#
# Youngs Moduli (GPa) = 53.97428 84.94445 99.88438
#
# Poissons Ratio (x) = 0.64024 0.50319
# Poissons Ratio (y) = 0.40682 0.12957
# Poissons Ratio (z) = 0.27191 0.11019
#
# Static dielectric constant tensor:
#      x y z
#    x 1.890900 -0.076440 0.001340 
#    y -0.076440 2.081060 -0.114990 
#    z 0.001340 -0.114990 2.048760 
# 
# From -- ./inp_files/451137.got.cif
#   From: 2010.05.17/outbox.cif.g08.bks.cpg/sg2_226_cif.got.tgz:451137.got - 2010.06.03 11:33:40.
