data_PCOD9006380
_publ_section_title
;
Structure prediction by ZEFSAII (Michael W. Deem and Ramdas Pophale) SiO2 
 PCOD9006380
Probable space group: P -1
;
_chemical_formula_sum "Si O2"
_cell_formula_units_Z 16
_cell_length_a 12.226941
_cell_length_b 16.733100
_cell_length_c 8.499822
_cell_angle_alpha 98.043998
_cell_angle_beta 81.716787
_cell_angle_gamma 26.669270
_cell_volume 615.058873
_symmetry_space_group_name_H-M "P -1"
_symmetry_group_IT_number 2
_symmetry_cell_setting 'triclinic'
loop_
_space_group_symop_operation_xyz
x,y,z
-x,-y,-z
loop_
_atom_site_type_symbol
_atom_site_label
_atom_site_fract_x
_atom_site_fract_y
_atom_site_fract_z
Si Si1 0.341608 0.359933 0.437427
Si Si2 0.003418 0.541184 0.260716
Si Si3 0.370677 0.508605 0.122432
Si Si4 0.343914 0.176469 0.883737
Si Si5 0.754405 0.287365 0.272451
Si Si6 0.882715 0.957946 0.394369
Si Si7 0.721235 0.158014 0.761129
Si Si8 0.962355 0.742363 0.803065
O O1 0.205549 0.453849 0.317753
O O2 0.186865 0.390243 0.569688
O O3 0.241352 0.505813 0.598111
O O4 0.700791 0.100243 0.312200
O O5 0.768680 0.744697 0.249315
O O6 0.221290 0.338320 0.048898
O O7 0.580737 0.358384 0.191730
O O8 0.034482 0.767529 0.310758
O O9 0.500000 0.500000 0.000000
O O10 0.422049 0.394272 0.976430
O O11 0.703943 0.927084 0.773250
O O12 0.189909 0.206243 0.014462
O O13 0.500000 0.500000 0.500000
O O14 0.927039 0.247495 0.155851
O O15 0.012692 0.060099 0.244978
O O16 0.141644 0.850545 0.334782
O O17 0.663173 0.130392 0.633236
#
# Coordination Sequence:
#
# PCOD9006380 Si02
#       8
#     2   2   2   2   2   2   2   2
#     4  10  21  38  65  98 131 171 218 274 342 398
#     4   9  20  40  67  93 129 169 219 283 332 402
#     4  10  23  41  63  95 131 176 223 272 326 408
#     4   9  20  43  65  93 131 169 225 276 337 397
#     4  12  23  41  65  95 136 176 223 278 337 403
#     4  10  21  41  65  94 136 177 214 278 337 396
#     4  10  22  40  66  91 136 177 221 273 326 404
#     4  10  23  39  66  94 130 179 218 274 334 402
#
# _framework density 26.013770000000001
#
# number of rings (size 3 to 8) (size 9 to 14) (size 15 to 20)
#    0.000    2.000    1.250    1.125    5.250    2.500 
#    0.000    3.750    0.000    0.000    0.000    0.000 
#    0.000    0.000    0.000    0.000    0.000    0.000 
#
# Total GULP energy -89687.899640 kJ/mol
# GULP energy per Si atom -5605.493727 kJ/mol
# Density = 2.595456 g / cm^3
# Si number density = 26.013770 Si / 1000 Ang^3
#
#
#
# Elastic Constant Matrix: (Units=GPa)
#
#
# Indices 1 2 3 4 5 6 
#
# 1 95.3236 22.1302 31.7015 4.2168 12.0793 0.8279
# 2 22.1302 188.2664 41.5117 -3.1900 27.6626 -0.2953
# 3 31.7015 41.5117 96.1676 6.2146 23.8046 7.6762
# 4 4.2168 -3.1900 6.2146 43.9023 12.1496 7.3072
# 5 12.0793 27.6626 23.8046 12.1496 35.0413 -2.3821
# 6 0.8279 -0.2953 7.6762 7.3072 -2.3821 37.1215
#
#
#
# Elastic Compliance Matrix: (Units=1/GPa)
#
#
# Indices 1 2 3 4 5 6 
#
# 1 0.011910 -0.000471 -0.003427 -0.000427 -0.001228 0.000445
# 2 -0.000471 0.006423 -0.001598 0.002049 -0.004553 -0.000303
# 3 -0.003427 -0.001598 0.014406 0.000968 -0.007924 -0.003614
# 4 -0.000427 0.002049 0.000968 0.027196 -0.011985 -0.006297
# 5 -0.001228 -0.004553 -0.007924 -0.011985 0.042551 0.006720
# 6 0.000445 -0.000303 -0.003614 -0.006297 0.006720 0.029344
#
#
# Mechanical properties :
#
#
# Convention : Reuss Voigt Hill
#
# Bulk Modulus (GPa) = 45.98448 63.38272 54.68360
# Shear Modulus (GPa) = 33.31781 42.17399 37.74590
#
# Velocity S-wave (km/s) = 3.58268 4.03080 3.81333
# Velocity P-wave (km/s) = 5.90165 6.78831 6.36045
#
# Compressibility (1/GPa) = 0.02174647
#
# Stress axis : x y z
#
# Youngs Moduli (GPa) = 83.96204 155.70006 69.41702
#
# Poissons Ratio (x) = 0.07326 0.23790
# Poissons Ratio (y) = 0.03950 0.11096
# Poissons Ratio (z) = 0.28774 0.24888
#
# Static dielectric constant tensor:
#      x y z
#    x 2.016750 0.023660 -0.053580 
#    y 0.023660 2.002660 0.010950 
#    z -0.053580 0.010950 2.128980 
# 
# From -- ./inp_files/319017.got.cif
#   From: 2010.05.17/outbox.cif.g08.bks.cpg/sg2_160_cif.got.tgz:319017.got - 2010.06.03 11:33:40.
