data_PCOD9006700
_publ_section_title
;
Structure prediction by ZEFSAII (Michael W. Deem and Ramdas Pophale) SiO2 
 PCOD9006700
Probable space group: P -1
;
_chemical_formula_sum "Si O2"
_cell_formula_units_Z 15
_cell_length_a 7.925174
_cell_length_b 8.357352
_cell_length_c 14.868241
_cell_angle_alpha 137.391077
_cell_angle_beta 90.336263
_cell_angle_gamma 74.732772
_cell_volume 615.951892
_symmetry_space_group_name_H-M "P -1"
_symmetry_group_IT_number 2
_symmetry_cell_setting 'triclinic'
loop_
_space_group_symop_operation_xyz
x,y,z
-x,-y,-z
loop_
_atom_site_type_symbol
_atom_site_label
_atom_site_fract_x
_atom_site_fract_y
_atom_site_fract_z
Si Si1 0.500000 0.000000 0.500000
Si Si2 0.787566 0.449268 0.278977
Si Si3 0.837099 0.723098 0.217125
Si Si4 0.837903 0.724221 0.723077
Si Si5 0.687256 0.078311 0.711960
Si Si6 0.083744 0.851006 0.530212
Si Si7 0.298227 0.023464 0.986463
Si Si8 0.226100 0.474229 0.035908
O O1 0.380953 0.296954 0.590209
O O2 0.557725 0.100935 0.636899
O O3 0.869621 0.553247 0.236690
O O4 0.727841 0.225592 0.152587
O O5 0.942021 0.354346 0.317998
O O6 0.017501 0.668910 0.134658
O O7 0.786141 0.010792 0.373028
O O8 0.723887 0.629110 0.107470
O O9 0.820415 0.449386 0.611468
O O10 0.692998 0.907223 0.728267
O O11 0.806110 0.877132 0.879735
O O12 0.664261 0.361598 0.859669
O O13 0.898230 0.923953 0.616203
O O14 0.000000 0.000000 0.500000
O O15 0.500000 0.000000 0.000000
O O16 0.237488 0.236776 0.998080
#
# Coordination Sequence:
#
# PCOD9006700 Si02
#       8
#     1   2   2   2   2   2   2   2
#     4  12  26  44  66 100 142 186 226 288 362 416
#     4  12  25  44  72 101 140 188 241 286 354 429
#     4  10  21  38  68 103 129 183 229 286 341 415
#     4  12  24  44  74 107 137 189 246 292 347 431
#     4  11  24  42  71 103 145 186 238 292 357 427
#     4  11  20  40  68 104 142 176 233 292 346 406
#     4  12  27  44  68 103 147 184 234 303 360 416
#     4  10  22  41  67 101 140 179 233 293 349 411
#
# _framework density 24.352550000000001
#
# number of rings (size 3 to 8) (size 9 to 14) (size 15 to 20)
#    0.000    0.800    4.000    3.200    5.600    2.133 
#    0.000    2.667    0.000    6.400    0.000    0.000 
#    0.000    0.000    0.000    0.000    0.000    0.000 
#
# Total GULP energy -83627.796717 kJ/mol
# GULP energy per Si atom -5575.186448 kJ/mol
# Density = 2.429712 g / cm^3
# Si number density = 24.352550 Si / 1000 Ang^3
#
#
#
# Elastic Constant Matrix: (Units=GPa)
#
#
# Indices 1 2 3 4 5 6 
#
# 1 72.5512 2.6223 30.8615 9.2584 27.6943 -12.2250
# 2 2.6223 69.5403 26.4465 -2.9946 13.6438 -4.9429
# 3 30.8615 26.4465 184.3916 20.7243 52.1911 2.4069
# 4 9.2584 -2.9946 20.7243 47.6323 1.1266 9.2773
# 5 27.6943 13.6438 52.1911 1.1266 46.3010 1.6893
# 6 -12.2250 -4.9429 2.4069 9.2773 1.6893 26.6939
#
#
#
# Elastic Compliance Matrix: (Units=1/GPa)
#
#
# Indices 1 2 3 4 5 6 
#
# 1 0.022531 0.002578 0.000861 -0.006976 -0.015553 0.014127
# 2 0.002578 0.016124 -0.001495 0.000407 -0.004781 0.004462
# 3 0.000861 -0.001495 0.008727 -0.004093 -0.009862 0.001377
# 4 -0.006976 0.000407 -0.004093 0.026382 0.008479 -0.012456
# 5 -0.015553 -0.004781 -0.009862 0.008479 0.043688 -0.012830
# 6 0.014127 0.004462 0.001377 -0.012456 -0.012830 0.049774
#
#
# Mechanical properties :
#
#
# Convention : Reuss Voigt Hill
#
# Bulk Modulus (GPa) = 19.50416 49.59374 34.54895
# Shear Modulus (GPa) = 27.71168 41.89562 34.80365
#
# Velocity S-wave (km/s) = 3.37699 4.15225 3.78452
# Velocity P-wave (km/s) = 4.81995 6.58766 5.77188
#
# Compressibility (1/GPa) = 0.05127112
#
# Stress axis : x y z
#
# Youngs Moduli (GPa) = 44.38266 62.01855 114.58482
#
# Poissons Ratio (x) = -0.15989 -0.09864
# Poissons Ratio (y) = -0.11443 0.17128
# Poissons Ratio (z) = -0.03821 0.09271
#
# Static dielectric constant tensor:
#      x y z
#    x 2.149590 0.054200 -0.102550 
#    y 0.054200 2.174120 -0.063240 
#    z -0.102550 -0.063240 1.971480 
# 
# From -- ./inp_files/495888.got.cif
#   From: 2010.05.17/outbox.cif.g08.bks.cpg/sg2_248_cif.got.tgz:495888.got - 2010.06.03 11:33:40.
