data_PCOD9006469
_publ_section_title
;
Structure prediction by ZEFSAII (Michael W. Deem and Ramdas Pophale) SiO2 
 PCOD9006469
Probable space group: P -1
;
_chemical_formula_sum "Si O2"
_cell_formula_units_Z 16
_cell_length_a 19.827662
_cell_length_b 6.035061
_cell_length_c 18.948958
_cell_angle_alpha 49.586910
_cell_angle_beta 24.216636
_cell_angle_gamma 46.872664
_cell_volume 676.468790
_symmetry_space_group_name_H-M "P -1"
_symmetry_group_IT_number 2
_symmetry_cell_setting 'triclinic'
loop_
_space_group_symop_operation_xyz
x,y,z
-x,-y,-z
loop_
_atom_site_type_symbol
_atom_site_label
_atom_site_fract_x
_atom_site_fract_y
_atom_site_fract_z
Si Si1 0.791932 0.743879 0.431110
Si Si2 0.623175 0.348086 0.851164
Si Si3 0.764880 0.357850 0.102071
Si Si4 0.125805 0.280546 0.799509
Si Si5 0.780095 0.879620 0.567023
Si Si6 0.503613 0.424244 0.793681
Si Si7 0.042324 0.083635 0.363074
Si Si8 0.533934 0.638530 0.514694
O O1 0.826936 0.852754 0.297941
O O2 0.784566 0.937410 0.467986
O O3 0.610822 0.661819 0.621712
O O4 0.943074 0.431016 0.367155
O O5 0.748621 0.555814 0.674238
O O6 0.521973 0.361032 0.872293
O O7 0.752097 0.022067 0.815952
O O8 0.500000 0.500000 0.000000
O O9 0.687490 0.446135 0.080626
O O10 0.595438 0.469367 0.289129
O O11 0.841077 0.995351 0.119200
O O12 0.925860 0.471763 0.946906
O O13 0.261188 0.458691 0.651004
O O14 0.952946 0.901844 0.433277
O O15 0.618544 0.118561 0.709256
O O16 0.000000 0.000000 0.500000
O O17 0.500000 0.500000 0.500000
O O18 0.500000 0.000000 0.500000
#
# Coordination Sequence:
#
# PCOD9006469 Si02
#       8
#     2   2   2   2   2   2   2   2
#     4  10  21  38  66  95 130 172 234 271 342 418
#     4  11  24  39  61  95 132 166 219 279 350 404
#     4  10  22  42  68  97 141 178 231 291 348 417
#     4  10  22  43  67 101 136 185 227 288 353 418
#     4  10  21  38  66  91 126 177 217 274 341 410
#     4  10  21  40  60  94 129 174 227 278 339 422
#     4  11  20  40  63  91 124 169 223 274 326 421
#     4  10  22  42  72 100 133 184 234 288 353 423
#
# _framework density 23.652235999999998
#
# number of rings (size 3 to 8) (size 9 to 14) (size 15 to 20)
#    0.000    1.750    5.000    0.375    0.000    5.000 
#    2.250    0.000    0.000    0.000    0.000    0.000 
#    0.000    0.000    0.000    0.000    0.000    0.000 
#
# Total GULP energy -89354.149516 kJ/mol
# GULP energy per Si atom -5584.634345 kJ/mol
# Density = 2.359840 g / cm^3
# Si number density = 23.652236 Si / 1000 Ang^3
#
#
#
# Elastic Constant Matrix: (Units=GPa)
#
#
# Indices 1 2 3 4 5 6 
#
# 1 199.2727 62.6674 76.1354 17.2578 -20.1649 4.1615
# 2 62.6674 78.4202 21.7784 -0.0813 -5.0201 -3.9815
# 3 76.1354 21.7784 129.0413 6.9981 -30.3736 2.7992
# 4 17.2578 -0.0813 6.9981 25.4921 -0.7751 -4.0703
# 5 -20.1649 -5.0201 -30.3736 -0.7751 52.7877 8.3518
# 6 4.1615 -3.9815 2.7992 -4.0703 8.3518 38.5654
#
#
#
# Elastic Compliance Matrix: (Units=1/GPa)
#
#
# Indices 1 2 3 4 5 6 
#
# 1 0.008993 -0.006213 -0.003687 -0.005405 0.000980 -0.002127
# 2 -0.006213 0.017794 0.000083 0.004724 -0.001075 0.003233
# 3 -0.003687 0.000083 0.011234 -0.000686 0.005311 -0.001632
# 4 -0.005405 0.004724 -0.000686 0.044021 -0.002357 0.006277
# 5 0.000980 -0.001075 0.005311 -0.002357 0.023166 -0.005868
# 6 -0.002127 0.003233 -0.001632 0.006277 -0.005868 0.028545
#
#
# Mechanical properties :
#
#
# Convention : Reuss Voigt Hill
#
# Bulk Modulus (GPa) = 54.38897 80.87741 67.63319
# Shear Modulus (GPa) = 31.34508 39.77923 35.56216
#
# Velocity S-wave (km/s) = 3.64434 4.10547 3.88176
# Velocity P-wave (km/s) = 6.38385 7.53272 6.98195
#
# Compressibility (1/GPa) = 0.01838608
#
# Stress axis : x y z
#
# Youngs Moduli (GPa) = 111.20283 56.19912 89.01828
#
# Poissons Ratio (x) = 0.34917 0.32823
# Poissons Ratio (y) = 0.69091 -0.00741
# Poissons Ratio (z) = 0.41003 -0.00468
#
# Static dielectric constant tensor:
#      x y z
#    x 1.925080 -0.048040 -0.019880 
#    y -0.048040 1.977340 -0.011040 
#    z -0.019880 -0.011040 1.938540 
# 
# From -- ./inp_files/574785.got.cif
#   From: 2010.05.17/outbox.cif.g08.bks.cpg/sg2_288_cif.got.tgz:574785.got - 2010.06.03 11:33:40.
