data_PCOD9006299
_publ_section_title
;
Structure prediction by ZEFSAII (Michael W. Deem and Ramdas Pophale) SiO2 
 PCOD9006299
Probable space group: P -1
;
_chemical_formula_sum "Si O2"
_cell_formula_units_Z 15
_cell_length_a 13.564435
_cell_length_b 9.542137
_cell_length_c 8.652094
_cell_angle_alpha 133.390403
_cell_angle_beta 75.206058
_cell_angle_gamma 126.776950
_cell_volume 628.001338
_symmetry_space_group_name_H-M "P -1"
_symmetry_group_IT_number 2
_symmetry_cell_setting 'triclinic'
loop_
_space_group_symop_operation_xyz
x,y,z
-x,-y,-z
loop_
_atom_site_type_symbol
_atom_site_label
_atom_site_fract_x
_atom_site_fract_y
_atom_site_fract_z
Si Si1 0.649924 0.195516 0.473418
Si Si2 0.192482 0.661859 0.932161
Si Si3 0.588529 0.323175 0.311260
Si Si4 0.788624 0.558244 0.951455
Si Si5 0.000000 0.000000 0.000000
Si Si6 0.924225 0.579426 0.502968
Si Si7 0.357091 0.259466 0.881305
Si Si8 0.324396 0.190561 0.203515
O O1 0.550159 0.165797 0.365840
O O2 0.672271 0.341663 0.729274
O O3 0.779321 0.376296 0.461704
O O4 0.640680 0.960190 0.333699
O O5 0.323987 0.707653 0.855946
O O6 0.082661 0.468148 0.712587
O O7 0.171988 0.555874 0.028578
O O8 0.219321 0.919697 0.098274
O O9 0.463598 0.254068 0.220210
O O10 0.666828 0.600048 0.548996
O O11 0.732053 0.695242 0.143166
O O12 0.905628 0.742993 0.934230
O O13 0.022820 0.154389 0.267144
O O14 0.000000 0.500000 0.500000
O O15 0.500000 0.500000 0.000000
O O16 0.304397 0.203437 0.038133
#
# Coordination Sequence:
#
# PCOD9006299 Si02
#       8
#     2   2   2   2   1   2   2   2
#     4  10  22  41  63  94 133 180 214 267 330 389
#     4  11  24  40  67  95 133 170 219 278 330 390
#     4  10  21  38  65  93 132 182 219 264 326 388
#     4  11  25  44  65  99 134 173 227 276 327 398
#     4  10  24  44  70  88 130 174 220 274 336 384
#     4  10  21  41  69  92 124 171 218 274 334 389
#     4  12  24  38  66  99 133 178 219 267 330 397
#     4  11  22  39  64  94 133 179 220 270 322 393
#
# _framework density 23.885299
#
# number of rings (size 3 to 8) (size 9 to 14) (size 15 to 20)
#    0.000    1.333    4.000    2.000    1.867    4.267 
#    0.000    2.667    0.000    0.000    0.000    0.000 
#    0.000    0.000    0.000    0.000    0.000    0.000 
#
# Total GULP energy -83708.036958 kJ/mol
# GULP energy per Si atom -5580.535797 kJ/mol
# Density = 2.383093 g / cm^3
# Si number density = 23.885299 Si / 1000 Ang^3
#
#
#
# Elastic Constant Matrix: (Units=GPa)
#
#
# Indices 1 2 3 4 5 6 
#
# 1 47.0341 9.2460 4.2969 -2.7691 -1.5829 -21.5021
# 2 9.2460 119.5298 34.6524 12.5333 -5.0318 -15.8924
# 3 4.2969 34.6524 115.2827 30.0050 -12.7174 -15.8618
# 4 -2.7691 12.5333 30.0050 38.7603 -17.7498 -0.6512
# 5 -1.5829 -5.0318 -12.7174 -17.7498 31.7431 -2.5250
# 6 -21.5021 -15.8924 -15.8618 -0.6512 -2.5250 30.8575
#
#
#
# Elastic Compliance Matrix: (Units=1/GPa)
#
#
# Indices 1 2 3 4 5 6 
#
# 1 0.032722 0.000024 0.001688 0.004539 0.006786 0.024332
# 2 0.000024 0.009615 -0.001950 -0.001406 0.000273 0.003959
# 3 0.001688 -0.001950 0.012331 -0.008463 0.000490 0.006372
# 4 0.004539 -0.001406 -0.008463 0.042496 0.020427 0.000657
# 5 0.006786 0.000273 0.000490 0.020427 0.044233 0.009171
# 6 0.024332 0.003959 0.006372 0.000657 0.009171 0.055441
#
#
# Mechanical properties :
#
#
# Convention : Reuss Voigt Hill
#
# Bulk Modulus (GPa) = 18.45291 42.02637 30.23964
# Shear Modulus (GPa) = 23.21519 35.84893 29.53206
#
# Velocity S-wave (km/s) = 3.12098 3.87832 3.52008
# Velocity P-wave (km/s) = 4.55300 6.13909 5.40455
#
# Compressibility (1/GPa) = 0.05419200
#
# Stress axis : x y z
#
# Youngs Moduli (GPa) = 30.56093 104.00493 81.09567
#
# Poissons Ratio (x) = -0.00253 -0.13690
# Poissons Ratio (y) = -0.00074 0.15815
# Poissons Ratio (z) = -0.05159 0.20283
#
# Static dielectric constant tensor:
#      x y z
#    x 2.009670 -0.008610 0.023830 
#    y -0.008610 1.917510 -0.062540 
#    z 0.023830 -0.062540 1.940080 
# 
# From -- ./inp_files/195537.got.cif
#   From: 2010.05.17/outbox.cif.g08.bks.cpg/sg2_98_cif.got.tgz:195537.got - 2010.06.03 11:33:40.
