data_PCOD9006277
_publ_section_title
;
Structure prediction by ZEFSAII (Michael W. Deem and Ramdas Pophale) SiO2 
 PCOD9006277
Probable space group: P -1
;
_chemical_formula_sum "Si O2"
_cell_formula_units_Z 14
_cell_length_a 7.717765
_cell_length_b 8.589364
_cell_length_c 20.122333
_cell_angle_alpha 40.769146
_cell_angle_beta 127.412180
_cell_angle_gamma 100.322455
_cell_volume 581.602044
_symmetry_space_group_name_H-M "P -1"
_symmetry_group_IT_number 2
_symmetry_cell_setting 'triclinic'
loop_
_space_group_symop_operation_xyz
x,y,z
-x,-y,-z
loop_
_atom_site_type_symbol
_atom_site_label
_atom_site_fract_x
_atom_site_fract_y
_atom_site_fract_z
Si Si1 0.905214 0.209197 0.729308
Si Si2 0.566297 0.204300 0.313884
Si Si3 0.263375 0.562750 0.011861
Si Si4 0.816097 0.202488 0.561322
Si Si5 0.808204 0.434314 0.150986
Si Si6 0.072230 0.609297 0.610269
Si Si7 0.695077 0.613604 0.666676
O O1 0.771273 0.296840 0.596717
O O2 0.102040 0.316243 0.729589
O O3 0.744095 0.365758 0.707259
O O4 0.035353 0.876612 0.876533
O O5 0.387539 0.363797 0.283842
O O6 0.763705 0.312125 0.329749
O O7 0.768704 0.863723 0.469349
O O8 0.374150 0.316833 0.171092
O O9 0.191873 0.479906 0.952992
O O10 0.510275 0.593728 0.049433
O O11 0.590881 0.146106 0.507095
O O12 0.844662 0.374788 0.451805
O O13 0.086459 0.899906 0.720812
O O14 0.020974 0.437484 0.244553
#
# Coordination Sequence:
#
# PCOD9006277 Si02
#       7
#     2   2   2   2   2   2   2
#     4  11  24  38  64  93 126 158 199 253 313 355
#     4  10  22  39  63  91 124 160 206 249 294 366
#     4  10  22  43  62  89 124 162 205 248 297 372
#     4  10  21  41  62  93 123 157 205 259 297 357
#     4  10  21  39  67  88 118 166 210 244 298 364
#     4  10  21  38  65  93 118 161 209 250 294 357
#     4  11  24  37  62  95 125 160 200 255 306 359
#
# _framework density 24.071445000000001
#
# number of rings (size 3 to 8) (size 9 to 14) (size 15 to 20)
#    0.000    1.714    1.429    2.143    6.000    3.429 
#    0.000    1.429    0.000    0.000    0.000    0.000 
#    0.000    0.000    0.000    0.000    0.000    0.000 
#
# Total GULP energy -78064.907346 kJ/mol
# GULP energy per Si atom -5576.064810 kJ/mol
# Density = 2.401666 g / cm^3
# Si number density = 24.071445 Si / 1000 Ang^3
#
#
#
# Elastic Constant Matrix: (Units=GPa)
#
#
# Indices 1 2 3 4 5 6 
#
# 1 97.6357 24.4167 22.5525 1.2399 22.3758 -18.2981
# 2 24.4167 88.5574 35.0381 23.7336 4.8724 -19.1954
# 3 22.5525 35.0381 83.0220 19.2525 4.3951 -10.0369
# 4 1.2399 23.7336 19.2525 30.3907 -2.3113 0.5914
# 5 22.3758 4.8724 4.3951 -2.3113 24.2478 4.4087
# 6 -18.2981 -19.1954 -10.0369 0.5914 4.4087 44.5665
#
#
#
# Elastic Compliance Matrix: (Units=1/GPa)
#
#
# Indices 1 2 3 4 5 6 
#
# 1 0.015855 -0.001270 -0.002235 0.000470 -0.015191 0.006956
# 2 -0.001270 0.018059 -0.003307 -0.012424 -0.004334 0.007106
# 3 -0.002235 -0.003307 0.016057 -0.007617 -0.001181 0.001492
# 4 0.000470 -0.012424 -0.007617 0.048308 0.009587 -0.008463
# 5 -0.015191 -0.004334 -0.001181 0.009587 0.059879 -0.014420
# 6 0.006956 0.007106 0.001492 -0.008463 -0.014420 0.030230
#
#
# Mechanical properties :
#
#
# Convention : Reuss Voigt Hill
#
# Bulk Modulus (GPa) = 27.51181 48.13663 37.82422
# Shear Modulus (GPa) = 23.35066 32.32152 27.83609
#
# Velocity S-wave (km/s) = 3.11795 3.66831 3.40427
# Velocity P-wave (km/s) = 4.94128 6.16302 5.58565
#
# Compressibility (1/GPa) = 0.03634803
#
# Stress axis : x y z
#
# Youngs Moduli (GPa) = 63.07208 55.37404 62.27782
#
# Poissons Ratio (x) = 0.07030 0.13919
# Poissons Ratio (y) = 0.08007 0.20595
# Poissons Ratio (z) = 0.14096 0.18312
#
# Static dielectric constant tensor:
#      x y z
#    x 2.030910 -0.022920 -0.027840 
#    y -0.022920 1.946640 0.015210 
#    z -0.027840 0.015210 1.874500 
# 
# From -- ./inp_files/185023.got.cif
#   From: 2010.05.17/outbox.cif.g08.bks.cpg/sg2_93_cif.got.tgz:185023.got - 2010.06.03 11:33:40.
