data_PCOD9006901
_publ_section_title
;
Structure prediction by ZEFSAII (Michael W. Deem and Ramdas Pophale) SiO2 
 PCOD9006901
Probable space group: P -1
;
_chemical_formula_sum "Si O2"
_cell_formula_units_Z 14
_cell_length_a 11.598005
_cell_length_b 5.064873
_cell_length_c 12.297218
_cell_angle_alpha 62.271207
_cell_angle_beta 58.582876
_cell_angle_gamma 86.897396
_cell_volume 528.424222
_symmetry_space_group_name_H-M "P -1"
_symmetry_group_IT_number 2
_symmetry_cell_setting 'triclinic'
loop_
_space_group_symop_operation_xyz
x,y,z
-x,-y,-z
loop_
_atom_site_type_symbol
_atom_site_label
_atom_site_fract_x
_atom_site_fract_y
_atom_site_fract_z
Si Si1 0.493181 0.018320 0.138017
Si Si2 0.840145 0.695015 0.507095
Si Si3 0.537906 0.539233 0.597740
Si Si4 0.742151 0.415574 0.201584
Si Si5 0.325522 0.511636 0.161525
Si Si6 0.861652 0.100032 0.008552
Si Si7 0.062240 0.614146 0.682641
O O1 0.374164 0.207331 0.165487
O O2 0.481180 0.812940 0.288646
O O3 0.450629 0.740126 0.125179
O O4 0.643184 0.261965 0.002352
O O5 0.692538 0.716054 0.522647
O O6 0.798362 0.572871 0.673333
O O7 0.894740 0.473385 0.441245
O O8 0.942989 0.031861 0.385786
O O9 0.500000 0.500000 0.500000
O O10 0.422332 0.683503 0.681916
O O11 0.820695 0.412816 0.279334
O O12 0.802879 0.218026 0.123934
O O13 0.771563 0.768597 0.076285
O O14 0.923729 0.374492 0.840321
O O15 0.000000 0.000000 0.000000
#
# Coordination Sequence:
#
# PCOD9006901 Si02
#       7
#     2   2   2   2   2   2   2
#     4   9  19  36  51  75 107 154 183 222 256 331
#     4  11  21  33  54  85 111 145 173 228 279 326
#     4  11  23  37  53  87 126 150 173 216 292 360
#     4  11  22  35  54  77 111 156 180 220 276 338
#     4   9  18  34  55  73 107 144 196 222 261 312
#     4  10  21  39  55  73 103 152 201 229 256 318
#     4  11  20  35  54  78 107 142 189 231 268 307
#
# _framework density 26.493863000000001
#
# number of rings (size 3 to 8) (size 9 to 14) (size 15 to 20)
#    0.000    1.714    1.429    6.000    0.000    4.000 
#    0.000    0.000    0.000    0.000    0.000    6.000 
#    0.000    0.000    0.000    0.000    0.000    0.000 
#
# Total GULP energy -78406.194057 kJ/mol
# GULP energy per Si atom -5600.442433 kJ/mol
# Density = 2.643356 g / cm^3
# Si number density = 26.493863 Si / 1000 Ang^3
#
#
#
# Elastic Constant Matrix: (Units=GPa)
#
#
# Indices 1 2 3 4 5 6 
#
# 1 49.0479 10.0455 8.9337 5.0333 -13.4746 12.6548
# 2 10.0455 157.4012 32.1759 24.6314 0.8926 8.8292
# 3 8.9337 32.1759 130.1320 -4.2793 2.2218 7.9801
# 4 5.0333 24.6314 -4.2793 61.9036 -9.6557 -3.7976
# 5 -13.4746 0.8926 2.2218 -9.6557 54.6917 2.6129
# 6 12.6548 8.8292 7.9801 -3.7976 2.6129 23.3755
#
#
#
# Elastic Compliance Matrix: (Units=1/GPa)
#
#
# Indices 1 2 3 4 5 6 
#
# 1 0.026644 -0.000396 -0.000992 -0.001909 0.006992 -0.015028
# 2 -0.000396 0.007388 -0.001747 -0.003273 -0.000608 -0.002444
# 3 -0.000992 -0.001747 0.008316 0.001222 -0.000270 -0.001413
# 4 -0.001909 -0.003273 0.001222 0.018375 0.002560 0.004552
# 5 0.006992 -0.000608 -0.000270 0.002560 0.020736 -0.005365
# 6 -0.015028 -0.002444 -0.001413 0.004552 -0.005365 0.053660
#
#
# Mechanical properties :
#
#
# Convention : Reuss Voigt Hill
#
# Bulk Modulus (GPa) = 27.71683 48.76571 38.24127
# Shear Modulus (GPa) = 32.59133 47.02256 39.80694
#
# Velocity S-wave (km/s) = 3.51115 4.21746 3.88041
# Velocity P-wave (km/s) = 5.18863 6.49326 5.87725
#
# Compressibility (1/GPa) = 0.03607916
#
# Stress axis : x y z
#
# Youngs Moduli (GPa) = 37.53188 135.34882 120.24962
#
# Poissons Ratio (x) = 0.05355 0.11928
# Poissons Ratio (y) = 0.01485 0.21008
# Poissons Ratio (z) = 0.03723 0.23646
#
# Static dielectric constant tensor:
#      x y z
#    x 2.365200 -0.052700 0.203640 
#    y -0.052700 1.988830 -0.002640 
#    z 0.203640 -0.002640 2.409240 
# 
# From -- ./inp_files/536241.got.cif
#   From: 2010.05.17/outbox.cif.g08.bks.cpg/sg2_269_cif.got.tgz:536241.got - 2010.06.03 11:33:40.
