data_PCOD9006366
_publ_section_title
;
Structure prediction by ZEFSAII (Michael W. Deem and Ramdas Pophale) SiO2 
 PCOD9006366
Probable space group: P -1
;
_chemical_formula_sum "Si O2"
_cell_formula_units_Z 12
_cell_length_a 13.590366
_cell_length_b 9.591478
_cell_length_c 8.817689
_cell_angle_alpha 105.500803
_cell_angle_beta 148.060561
_cell_angle_gamma 87.473193
_cell_volume 547.016648
_symmetry_space_group_name_H-M "P -1"
_symmetry_group_IT_number 2
_symmetry_cell_setting 'triclinic'
loop_
_space_group_symop_operation_xyz
x,y,z
-x,-y,-z
loop_
_atom_site_type_symbol
_atom_site_label
_atom_site_fract_x
_atom_site_fract_y
_atom_site_fract_z
Si Si1 0.066690 0.941259 0.253330
Si Si2 0.143861 0.260421 0.327632
Si Si3 0.693872 0.461548 0.189448
Si Si4 0.683660 0.127987 0.190572
Si Si5 0.488229 0.611150 0.384135
Si Si6 0.632566 0.940258 0.763601
O O1 0.132812 0.869246 0.463342
O O2 0.195979 0.121330 0.438023
O O3 0.049160 0.831603 0.052935
O O4 0.847581 0.945836 0.991318
O O5 0.132971 0.387707 0.470453
O O6 0.314162 0.342540 0.450383
O O7 0.684014 0.299659 0.205424
O O8 0.500000 0.500000 0.000000
O O9 0.681703 0.446547 0.985685
O O10 0.500000 0.000000 0.000000
O O11 0.680318 0.043969 0.004045
O O12 0.500000 0.500000 0.500000
O O13 0.498186 0.760097 0.537701
O O14 0.500000 0.000000 0.500000
#
# Coordination Sequence:
#
# PCOD9006366 Si02
#       6
#     2   2   2   2   2   2
#     4  10  23  44  68  95 132 171 222 272 321 392
#     4   9  21  41  67  88 132 171 212 268 328 377
#     4  10  21  40  61  97 130 169 216 265 321 387
#     4  12  25  40  70  99 130 174 221 267 334 387
#     4  10  21  38  65  97 130 170 214 267 327 385
#     4  11  24  44  67  96 132 175 218 269 328 388
#
# _framework density 21.937175
#
# number of rings (size 3 to 8) (size 9 to 14) (size 15 to 20)
#    0.000    1.667    1.667    2.500   11.667    0.667 
#    0.000    4.167    0.000    0.000    0.000    0.000 
#    0.000    0.000    0.000    0.000    0.000    0.000 
#
# Total GULP energy -66893.079956 kJ/mol
# GULP energy per Si atom -5574.423330 kJ/mol
# Density = 2.188725 g / cm^3
# Si number density = 21.937175 Si / 1000 Ang^3
#
#
#
# Elastic Constant Matrix: (Units=GPa)
#
#
# Indices 1 2 3 4 5 6 
#
# 1 50.0011 52.2595 52.1077 -3.0030 -19.0000 0.7065
# 2 52.2595 239.6002 94.4820 -4.7708 -45.9945 5.8532
# 3 52.1077 94.4820 139.9387 -10.5779 -47.5798 -6.2766
# 4 -3.0030 -4.7708 -10.5779 50.4548 -6.9732 -13.4686
# 5 -19.0000 -45.9945 -47.5798 -6.9732 44.8688 -1.7870
# 6 0.7065 5.8532 -6.2766 -13.4686 -1.7870 27.3384
#
#
#
# Elastic Compliance Matrix: (Units=1/GPa)
#
#
# Indices 1 2 3 4 5 6 
#
# 1 0.034876 -0.003238 -0.011522 -0.001837 -0.001207 -0.003837
# 2 -0.003238 0.006308 -0.002252 -0.000158 0.002615 -0.001691
# 3 -0.011522 -0.002252 0.018882 0.007680 0.014421 0.009841
# 4 -0.001837 -0.000158 0.007680 0.027264 0.012081 0.016066
# 5 -0.001207 0.002615 0.014421 0.012081 0.042084 0.011485
# 6 -0.003837 -0.001691 0.009841 0.016066 0.011485 0.047965
#
#
# Mechanical properties :
#
#
# Convention : Reuss Voigt Hill
#
# Bulk Modulus (GPa) = 38.39834 91.91538 65.15686
# Shear Modulus (GPa) = 22.71874 39.91177 31.31525
#
# Velocity S-wave (km/s) = 3.22161 4.27003 3.78232
# Velocity P-wave (km/s) = 5.60180 8.14256 6.98861
#
# Compressibility (1/GPa) = 0.02604279
#
# Stress axis : x y z
#
# Youngs Moduli (GPa) = 28.67290 158.52747 52.96175
#
# Poissons Ratio (x) = 0.51332 0.61020
# Poissons Ratio (y) = 0.09284 0.11926
# Poissons Ratio (z) = 0.33036 0.35698
#
# Static dielectric constant tensor:
#      x y z
#    x 2.613290 0.027220 -0.118160 
#    y 0.027220 1.881990 0.074940 
#    z -0.118160 0.074940 1.986110 
# 
# From -- ./inp_files/153375.got.cif
#   From: 2010.05.17/outbox.cif.g08.bks.cpg/sg2_77_cif.got.tgz:153375.got - 2010.06.03 11:33:40.
