data_PCOD9006662
_publ_section_title
;
Structure prediction by ZEFSAII (Michael W. Deem and Ramdas Pophale) SiO2 
 PCOD9006662
Probable space group: P -1
;
_chemical_formula_sum "Si O2"
_cell_formula_units_Z 15
_cell_length_a 7.873097
_cell_length_b 11.532969
_cell_length_c 15.558809
_cell_angle_alpha 144.828217
_cell_angle_beta 58.773097
_cell_angle_gamma 101.977966
_cell_volume 625.239289
_symmetry_space_group_name_H-M "P -1"
_symmetry_group_IT_number 2
_symmetry_cell_setting 'triclinic'
loop_
_space_group_symop_operation_xyz
x,y,z
-x,-y,-z
loop_
_atom_site_type_symbol
_atom_site_label
_atom_site_fract_x
_atom_site_fract_y
_atom_site_fract_z
Si Si1 0.225741 0.697912 0.536604
Si Si2 0.781404 0.606832 0.955850
Si Si3 0.739389 0.986221 0.419551
Si Si4 0.690530 0.056465 0.170895
Si Si5 0.708816 0.181592 0.717687
Si Si6 0.000000 0.500000 0.000000
Si Si7 0.424180 0.801929 0.889076
Si Si8 0.753984 0.979928 0.767021
O O1 0.265326 0.809045 0.681209
O O2 0.377936 0.434468 0.330254
O O3 0.965376 0.784775 0.638341
O O4 0.293129 0.802274 0.500716
O O5 0.743066 0.395922 0.807397
O O6 0.990921 0.508153 0.902119
O O7 0.558126 0.731020 0.148560
O O8 0.793711 0.789518 0.999894
O O9 0.500000 0.000000 0.500000
O O10 0.804564 0.001368 0.509320
O O11 0.895043 0.771304 0.195532
O O12 0.741478 0.123775 0.103982
O O13 0.430356 0.105387 0.260904
O O14 0.793717 0.079854 0.727927
O O15 0.500000 0.000000 0.000000
O O16 0.328981 0.815601 0.018121
#
# Coordination Sequence:
#
# PCOD9006662 Si02
#       8
#     2   2   2   2   2   1   2   2
#     4  12  25  44  74 103 137 190 236 282 362 414
#     4  10  21  38  67  96 137 175 225 282 336 422
#     4  12  25  43  68 106 144 185 224 290 349 422
#     4  10  22  47  67 103 142 179 235 298 341 411
#     4  10  22  41  65  96 142 178 217 284 352 400
#     4  12  22  40  64  98 134 172 228 268 332 424
#     4  10  25  46  76  99 139 186 237 298 347 405
#     4  10  24  47  69 104 139 183 235 289 347 421
#
# _framework density 23.990817
#
# number of rings (size 3 to 8) (size 9 to 14) (size 15 to 20)
#    0.000    1.333    2.667    2.000    7.467    5.867 
#    0.000    2.667    0.000    0.000    0.000    0.000 
#    0.000    0.000    0.000    0.000    0.000    0.000 
#
# Total GULP energy -83538.661643 kJ/mol
# GULP energy per Si atom -5569.244110 kJ/mol
# Density = 2.393621 g / cm^3
# Si number density = 23.990817 Si / 1000 Ang^3
#
#
#
# Elastic Constant Matrix: (Units=GPa)
#
#
# Indices 1 2 3 4 5 6 
#
# 1 108.7391 35.3221 25.8302 -4.7281 24.6661 -24.2480
# 2 35.3221 105.0636 44.2737 13.4514 15.1252 -24.1998
# 3 25.8302 44.2737 126.8157 11.9040 38.1463 -8.2649
# 4 -4.7281 13.4514 11.9040 49.0977 -10.2331 -2.2879
# 5 24.6661 15.1252 38.1463 -10.2331 32.0987 -11.2983
# 6 -24.2480 -24.1998 -8.2649 -2.2879 -11.2983 39.8295
#
#
#
# Elastic Compliance Matrix: (Units=1/GPa)
#
#
# Indices 1 2 3 4 5 6 
#
# 1 0.012543 -0.002588 0.001090 0.000108 -0.008291 0.003944
# 2 -0.002588 0.013601 -0.004246 -0.002208 0.002135 0.006286
# 3 0.001090 -0.004246 0.016279 -0.007617 -0.022496 -0.005358
# 4 0.000108 -0.002208 -0.007617 0.027262 0.020270 0.004460
# 5 -0.008291 0.002135 -0.022496 0.020270 0.074613 0.013911
# 6 0.003944 0.006286 -0.005358 0.004460 0.013911 0.034418
#
#
# Mechanical properties :
#
#
# Convention : Reuss Voigt Hill
#
# Bulk Modulus (GPa) = 32.32788 61.27447 46.80117
# Shear Modulus (GPa) = 24.93567 39.88467 32.41017
#
# Velocity S-wave (km/s) = 3.22745 4.08180 3.67950
# Velocity P-wave (km/s) = 5.23382 6.91455 6.13204
#
# Compressibility (1/GPa) = 0.03093305
#
# Stress axis : x y z
#
# Youngs Moduli (GPa) = 79.72484 73.52580 61.42978
#
# Poissons Ratio (x) = 0.19028 -0.06693
# Poissons Ratio (y) = 0.20632 0.26086
# Poissons Ratio (z) = -0.08686 0.31222
#
# Static dielectric constant tensor:
#      x y z
#    x 2.067790 0.061260 -0.040290 
#    y 0.061260 1.939400 -0.069240 
#    z -0.040290 -0.069240 1.854800 
# 
# From -- ./inp_files/498434.got.cif
#   From: 2010.05.17/outbox.cif.g08.bks.cpg/sg2_250_cif.got.tgz:498434.got - 2010.06.03 11:33:40.
