data_PCOD9006895
_publ_section_title
;
Structure prediction by ZEFSAII (Michael W. Deem and Ramdas Pophale) SiO2 
 PCOD9006895
Probable space group: P -1
;
_chemical_formula_sum "Si O2"
_cell_formula_units_Z 16
_cell_length_a 19.978857
_cell_length_b 11.286781
_cell_length_c 14.828392
_cell_angle_alpha 30.698802
_cell_angle_beta 134.676057
_cell_angle_gamma 150.846833
_cell_volume 816.063666
_symmetry_space_group_name_H-M "P -1"
_symmetry_group_IT_number 2
_symmetry_cell_setting 'triclinic'
loop_
_space_group_symop_operation_xyz
x,y,z
-x,-y,-z
loop_
_atom_site_type_symbol
_atom_site_label
_atom_site_fract_x
_atom_site_fract_y
_atom_site_fract_z
Si Si1 0.609734 0.902752 0.319128
Si Si2 0.341891 0.651443 0.210165
Si Si3 0.797902 0.039108 0.549926
Si Si4 0.149917 0.163755 0.719465
Si Si5 0.906463 0.227169 0.914033
Si Si6 0.889080 0.684923 0.670537
Si Si7 0.228792 0.890383 0.847153
Si Si8 0.115118 0.627361 0.394878
O O1 0.500000 0.500000 0.500000
O O2 0.507845 0.937928 0.192908
O O3 0.722142 0.094746 0.380059
O O4 0.680068 0.965420 0.250753
O O5 0.248884 0.428634 0.357612
O O6 0.289297 0.357213 0.284148
O O7 0.290179 0.804109 0.026601
O O8 0.810878 0.134056 0.603549
O O9 0.953491 0.289637 0.492536
O O10 0.178462 0.488809 0.522863
O O11 0.226358 0.126763 0.746962
O O12 0.986943 0.834094 0.752935
O O13 0.159035 0.095955 0.875983
O O14 0.843974 0.355106 0.806972
O O15 0.886463 0.204858 0.802488
O O16 0.070604 0.551636 0.883833
O O17 0.000000 0.000000 0.500000
#
# Coordination Sequence:
#
# PCOD9006895 Si02
#       8
#     2   2   2   2   2   2   2   2
#     4  10  23  36  59  81 114 154 193 234 287 346
#     4  11  20  38  59  84 119 148 190 243 286 339
#     4  10  21  39  52  86 116 156 197 221 287 356
#     4  11  21  34  58  91 117 143 191 242 294 343
#     4  11  19  34  57  89 118 145 187 242 294 337
#     4  11  18  30  57  88 115 142 181 245 292 323
#     4  11  20  36  56  90 115 140 196 245 290 336
#     4  11  21  36  60  80 125 156 183 241 286 341
#
# _framework density 19.606314000000001
#
# number of rings (size 3 to 8) (size 9 to 14) (size 15 to 20)
#    0.000    1.250    6.250    1.125    5.250    0.000 
#    2.250    1.875    0.000    7.500    0.000    0.000 
#    0.000    0.000    0.000    0.000    0.000    0.000 
#
# Total GULP energy -89214.676110 kJ/mol
# GULP energy per Si atom -5575.917257 kJ/mol
# Density = 1.956169 g / cm^3
# Si number density = 19.606314 Si / 1000 Ang^3
#
#
#
# Elastic Constant Matrix: (Units=GPa)
#
#
# Indices 1 2 3 4 5 6 
#
# 1 121.2196 47.3469 46.0354 27.7521 -7.9044 8.0676
# 2 47.3469 53.8897 24.4073 22.2161 5.8483 -3.4071
# 3 46.0354 24.4073 93.3742 31.8934 -12.1160 -1.1030
# 4 27.7521 22.2161 31.8934 23.9104 1.7837 -5.3795
# 5 -7.9044 5.8483 -12.1160 1.7837 41.3223 8.2696
# 6 8.0676 -3.4071 -1.1030 -5.3795 8.2696 22.9817
#
#
#
# Elastic Compliance Matrix: (Units=1/GPa)
#
#
# Indices 1 2 3 4 5 6 
#
# 1 0.017144 -0.011535 -0.000306 -0.012425 0.008071 -0.013556
# 2 -0.011535 0.038628 0.003233 -0.024801 -0.006984 0.006639
# 3 -0.000306 0.003233 0.024365 -0.038408 0.010489 -0.011009
# 4 -0.012425 -0.024801 -0.038408 0.141505 -0.024390 0.040741
# 5 0.008071 -0.006984 0.010489 -0.024390 0.035212 -0.021745
# 6 -0.013556 0.006639 -0.011009 0.040741 -0.021745 0.066089
#
#
# Mechanical properties :
#
#
# Convention : Reuss Voigt Hill
#
# Bulk Modulus (GPa) = 15.89268 56.00698 35.94983
# Shear Modulus (GPa) = 13.84529 27.68913 20.76721
#
# Velocity S-wave (km/s) = 2.66026 3.76208 3.25808
# Velocity P-wave (km/s) = 4.19040 6.89193 5.70343
#
# Compressibility (1/GPa) = 0.06292206
#
# Stress axis : x y z
#
# Youngs Moduli (GPa) = 58.32856 25.88772 41.04201
#
# Poissons Ratio (x) = 0.29861 0.01257
# Poissons Ratio (y) = 0.67281 -0.13270
# Poissons Ratio (z) = 0.01786 -0.08370
#
# Static dielectric constant tensor:
#      x y z
#    x 1.760420 0.033360 -0.004370 
#    y 0.033360 1.681260 0.040140 
#    z -0.004370 0.040140 1.777850 
# 
# From -- ./inp_files/303412.got.cif
#   From: 2010.05.17/outbox.cif.g08.bks.cpg/sg2_152_cif.got.tgz:303412.got - 2010.06.03 11:33:40.
