data_PCOD9006959
_publ_section_title
;
Structure prediction by ZEFSAII (Michael W. Deem and Ramdas Pophale) SiO2 
 PCOD9006959
Probable space group: P -1
;
_chemical_formula_sum "Si O2"
_cell_formula_units_Z 14
_cell_length_a 10.436943
_cell_length_b 8.792776
_cell_length_c 6.486109
_cell_angle_alpha 102.191155
_cell_angle_beta 69.362725
_cell_angle_gamma 86.841213
_cell_volume 538.984169
_symmetry_space_group_name_H-M "P -1"
_symmetry_group_IT_number 2
_symmetry_cell_setting 'triclinic'
loop_
_space_group_symop_operation_xyz
x,y,z
-x,-y,-z
loop_
_atom_site_type_symbol
_atom_site_label
_atom_site_fract_x
_atom_site_fract_y
_atom_site_fract_z
Si Si1 0.737433 0.867531 0.082198
Si Si2 0.244348 0.364990 0.359838
Si Si3 0.084449 0.198328 0.675177
Si Si4 0.758421 0.224092 0.243047
Si Si5 0.308150 0.589680 0.036417
Si Si6 0.188728 0.867526 0.387099
Si Si7 0.450918 0.319446 0.613038
O O1 0.872867 0.785488 0.108261
O O2 0.611313 0.822936 0.280388
O O3 0.752710 0.049571 0.108582
O O4 0.724366 0.785810 0.849543
O O5 0.109276 0.344508 0.563276
O O6 0.359335 0.364861 0.472791
O O7 0.241385 0.503209 0.234723
O O8 0.938732 0.144930 0.695064
O O9 0.193564 0.047204 0.492876
O O10 0.782377 0.353725 0.099053
O O11 0.849976 0.202738 0.389459
O O12 0.604859 0.276351 0.434844
O O13 0.427201 0.463642 0.832780
O O14 0.320871 0.759314 0.180361
#
# Coordination Sequence:
#
# PCOD9006959 Si02
#       7
#     2   2   2   2   2   2   2
#     4   9  20  38  62  85 109 148 192 233 280 328
#     4  10  21  39  58  81 117 152 185 231 280 331
#     4   9  20  41  62  83 111 145 190 238 279 331
#     4  11  22  37  58  87 116 146 190 234 276 335
#     4  11  23  37  57  86 116 153 187 224 285 340
#     4  10  22  39  61  85 112 147 188 236 284 328
#     4  10  22  38  57  84 117 150 188 230 277 335
#
# _framework density 25.974788
#
# number of rings (size 3 to 8) (size 9 to 14) (size 15 to 20)
#    0.000    2.000    0.000    2.571    0.000    5.714 
#    0.000   11.429    0.000    0.000    0.000    0.000 
#    0.000    0.000    0.000    0.000    0.000    0.000 
#
# Total GULP energy -78226.245224 kJ/mol
# GULP energy per Si atom -5587.588945 kJ/mol
# Density = 2.591567 g / cm^3
# Si number density = 25.974788 Si / 1000 Ang^3
#
#
#
# Elastic Constant Matrix: (Units=GPa)
#
#
# Indices 1 2 3 4 5 6 
#
# 1 62.8527 11.9546 30.5004 2.5750 12.5364 1.4071
# 2 11.9546 113.0208 64.9209 -22.6875 -1.9672 -2.1748
# 3 30.5004 64.9209 141.2620 -7.1585 20.5169 1.7393
# 4 2.5750 -22.6875 -7.1585 78.9515 3.4776 3.3908
# 5 12.5364 -1.9672 20.5169 3.4776 29.3056 0.7431
# 6 1.4071 -2.1748 1.7393 3.3908 0.7431 22.3104
#
#
#
# Elastic Compliance Matrix: (Units=1/GPa)
#
#
# Indices 1 2 3 4 5 6 
#
# 1 0.018661 -0.000535 -0.002965 -0.000744 -0.005837 -0.000690
# 2 -0.000535 0.013500 -0.006747 0.002991 0.005472 0.001239
# 3 -0.002965 -0.006747 0.011894 -0.000389 -0.007438 -0.001091
# 4 -0.000744 0.002991 -0.000389 0.013621 -0.000782 -0.001675
# 5 -0.005837 0.005472 -0.007438 -0.000782 0.042283 0.000192
# 6 -0.000690 0.001239 -0.001091 -0.001675 0.000192 0.045320
#
#
# Mechanical properties :
#
#
# Convention : Reuss Voigt Hill
#
# Bulk Modulus (GPa) = 42.44373 59.09860 50.77116
# Shear Modulus (GPa) = 28.79769 40.09747 34.44758
#
# Velocity S-wave (km/s) = 3.33329 3.93327 3.64564
# Velocity P-wave (km/s) = 5.58483 6.59008 6.10817
#
# Compressibility (1/GPa) = 0.02356061
#
# Stress axis : x y z
#
# Youngs Moduli (GPa) = 53.58807 74.07624 84.07654
#
# Poissons Ratio (x) = 0.03965 0.24925
# Poissons Ratio (y) = 0.02868 0.56727
# Poissons Ratio (z) = 0.15886 0.49980
#
# Static dielectric constant tensor:
#      x y z
#    x 2.014000 -0.041670 -0.009870 
#    y -0.041670 2.100040 -0.011920 
#    z -0.009870 -0.011920 2.083440 
# 
# From -- ./inp_files/27614.got.cif
#   From: 2010.05.17/outbox.cif.g08.bks.cpg/sg2_14_cif.got.tgz:27614.got - 2010.06.03 11:33:40.
