data_PCOD9006307
_publ_section_title
;
Structure prediction by ZEFSAII (Michael W. Deem and Ramdas Pophale) SiO2 
 PCOD9006307
Probable space group: P -1
;
_chemical_formula_sum "Si O2"
_cell_formula_units_Z 14
_cell_length_a 10.625276
_cell_length_b 16.478448
_cell_length_c 8.500947
_cell_angle_alpha 112.470354
_cell_angle_beta 45.102035
_cell_angle_gamma 139.572887
_cell_volume 643.563104
_symmetry_space_group_name_H-M "P -1"
_symmetry_group_IT_number 2
_symmetry_cell_setting 'triclinic'
loop_
_space_group_symop_operation_xyz
x,y,z
-x,-y,-z
loop_
_atom_site_type_symbol
_atom_site_label
_atom_site_fract_x
_atom_site_fract_y
_atom_site_fract_z
Si Si1 0.984879 0.910015 0.256569
Si Si2 0.985810 0.784022 0.425980
Si Si3 0.474349 0.551152 0.906879
Si Si4 0.549282 0.866930 0.473841
Si Si5 0.279917 0.646070 0.316862
Si Si6 0.981406 0.268148 0.979495
Si Si7 0.540573 0.110844 0.764830
O O1 0.815841 0.931227 0.370401
O O2 0.932247 0.801502 0.117972
O O3 0.919558 0.850885 0.445315
O O4 0.303879 0.038389 0.043677
O O5 0.256484 0.890936 0.369437
O O6 0.738567 0.653079 0.642647
O O7 0.050655 0.745416 0.190645
O O8 0.213837 0.418970 0.945396
O O9 0.500000 0.500000 0.000000
O O10 0.435247 0.634500 0.066675
O O11 0.429832 0.731182 0.405826
O O12 0.589979 0.938354 0.330735
O O13 0.302579 0.815560 0.751576
O O14 0.264979 0.732308 0.301813
O O15 0.000000 0.500000 0.500000
#
# Coordination Sequence:
#
# PCOD9006307 Si02
#       7
#     2   2   2   2   2   2   2
#     4  10  23  42  65  95 133 169 218 267 325 381
#     4  10  24  41  64  97 130 172 208 271 333 380
#     4  12  21  42  67  95 127 172 219 265 323 389
#     4  10  21  42  67  96 125 172 219 267 313 382
#     4  10  21  38  65  94 125 160 223 261 312 374
#     4  10  23  40  66  94 135 161 213 273 325 375
#     4  10  22  43  64  92 132 172 221 262 316 390
#
# _framework density 21.753888
#
# number of rings (size 3 to 8) (size 9 to 14) (size 15 to 20)
#    1.714    0.000    1.429    3.857    0.000    1.714 
#    2.571    2.857    0.000    0.000    0.000    0.000 
#    0.000    0.000    0.000    0.000    0.000    0.000 
#
# Total GULP energy -78063.267266 kJ/mol
# GULP energy per Si atom -5575.947662 kJ/mol
# Density = 2.170437 g / cm^3
# Si number density = 21.753888 Si / 1000 Ang^3
#
#
#
# Elastic Constant Matrix: (Units=GPa)
#
#
# Indices 1 2 3 4 5 6 
#
# 1 115.3130 1.3467 37.9101 -1.1127 -4.5726 -14.1554
# 2 1.3467 63.0169 16.8984 2.2861 1.2339 1.9444
# 3 37.9101 16.8984 137.6316 -11.4096 5.3715 -5.1399
# 4 -1.1127 2.2861 -11.4096 48.2783 -7.5286 -0.4565
# 5 -4.5726 1.2339 5.3715 -7.5286 38.2311 1.5190
# 6 -14.1554 1.9444 -5.1399 -0.4565 1.5190 27.5248
#
#
#
# Elastic Compliance Matrix: (Units=1/GPa)
#
#
# Indices 1 2 3 4 5 6 
#
# 1 0.010191 0.000355 -0.002746 -0.000173 0.001376 0.004624
# 2 0.000355 0.016576 -0.002286 -0.001391 -0.000389 -0.001417
# 3 -0.002746 -0.002286 0.008519 0.001891 -0.001096 0.000432
# 4 -0.000173 -0.001391 0.001891 0.021857 0.004043 0.000502
# 5 0.001376 -0.000389 -0.001096 0.004043 0.027320 -0.000911
# 6 0.004624 -0.001417 0.000432 0.000502 -0.000911 0.038948
#
#
# Mechanical properties :
#
#
# Convention : Reuss Voigt Hill
#
# Bulk Modulus (GPa) = 38.56250 47.58577 43.07414
# Shear Modulus (GPa) = 35.35832 40.12728 37.74280
#
# Velocity S-wave (km/s) = 4.03597 4.29954 4.16984
# Velocity P-wave (km/s) = 6.28363 6.82424 6.55950
#
# Compressibility (1/GPa) = 0.02593193
#
# Stress axis : x y z
#
# Youngs Moduli (GPa) = 98.12346 60.32823 117.39095
#
# Poissons Ratio (x) = -0.02143 0.32236
# Poissons Ratio (y) = -0.03485 0.26837
# Poissons Ratio (z) = 0.26945 0.13792
#
# Static dielectric constant tensor:
#      x y z
#    x 1.862230 -0.017130 -0.016500 
#    y -0.017130 1.874870 0.038790 
#    z -0.016500 0.038790 1.839540 
# 
# From -- ./inp_files/279586.got.cif
#   From: 2010.05.17/outbox.cif.g08.bks.cpg/sg2_140_cif.got.tgz:279586.got - 2010.06.03 11:33:40.
