data_PCOD9006696
_publ_section_title
;
Structure prediction by ZEFSAII (Michael W. Deem and Ramdas Pophale) SiO2 
 PCOD9006696
Probable space group: P -1
;
_chemical_formula_sum "Si O2"
_cell_formula_units_Z 16
_cell_length_a 15.062599
_cell_length_b 9.723859
_cell_length_c 9.009459
_cell_angle_alpha 113.695048
_cell_angle_beta 39.229363
_cell_angle_gamma 98.330398
_cell_volume 731.954409
_symmetry_space_group_name_H-M "P -1"
_symmetry_group_IT_number 2
_symmetry_cell_setting 'triclinic'
loop_
_space_group_symop_operation_xyz
x,y,z
-x,-y,-z
loop_
_atom_site_type_symbol
_atom_site_label
_atom_site_fract_x
_atom_site_fract_y
_atom_site_fract_z
Si Si1 0.208260 0.409693 0.798151
Si Si2 0.058069 0.083429 0.597324
Si Si3 0.332993 0.162521 0.148610
Si Si4 0.680483 0.419294 0.034168
Si Si5 0.521453 0.646450 0.128312
Si Si6 0.497905 0.814104 0.757828
Si Si7 0.909656 0.318080 0.126834
Si Si8 0.219031 0.795367 0.469670
O O1 0.353681 0.265551 0.555893
O O2 0.065085 0.352992 0.956596
O O3 0.209030 0.524513 0.982870
O O4 0.205144 0.517153 0.701858
O O5 0.173135 0.169413 0.420161
O O6 0.930956 0.198086 0.909308
O O7 0.148776 0.955786 0.543391
O O8 0.000000 0.000000 0.500000
O O9 0.439497 0.178511 0.153132
O O10 0.343653 0.294923 0.077052
O O11 0.403313 0.988547 0.916102
O O12 0.754718 0.333617 0.751432
O O13 0.553239 0.575324 0.218831
O O14 0.604834 0.300207 0.157050
O O15 0.374833 0.783490 0.340814
O O16 0.500000 0.500000 0.000000
O O17 0.872679 0.245938 0.295055
#
# Coordination Sequence:
#
# PCOD9006696 Si02
#       8
#     2   2   2   2   2   2   2   2
#     4  11  25  42  64 100 135 179 231 273 329 408
#     4  12  25  45  69  97 135 178 230 271 332 407
#     4  11  21  40  71  95 125 177 222 274 338 392
#     4  11  22  40  68 100 135 173 225 283 334 390
#     4  10  21  38  68 101 131 168 218 280 340 391
#     4  11  20  40  68  94 129 173 223 281 331 389
#     4  11  26  41  66  95 138 185 219 271 339 401
#     4  11  22  42  66  95 136 176 221 275 335 398
#
# _framework density 21.859285
#
# number of rings (size 3 to 8) (size 9 to 14) (size 15 to 20)
#    0.000    1.000    5.000    3.000    1.750    1.500 
#    0.000    0.625    0.000    0.000    0.000    0.000 
#    0.000    0.000    0.000    0.000    0.000    0.000 
#
# Total GULP energy -89415.046539 kJ/mol
# GULP energy per Si atom -5588.440409 kJ/mol
# Density = 2.180953 g / cm^3
# Si number density = 21.859285 Si / 1000 Ang^3
#
#
#
# Elastic Constant Matrix: (Units=GPa)
#
#
# Indices 1 2 3 4 5 6 
#
# 1 58.3784 13.9296 2.5332 -2.0403 7.8513 7.9789
# 2 13.9296 77.1755 13.8414 -33.5173 -1.9670 -6.7953
# 3 2.5332 13.8414 81.5142 -13.9366 1.6283 1.3221
# 4 -2.0403 -33.5173 -13.9366 29.6221 -1.2913 -8.7571
# 5 7.8513 -1.9670 1.6283 -1.2913 14.1300 8.5225
# 6 7.9789 -6.7953 1.3221 -8.7571 8.5225 31.4947
#
#
#
# Elastic Compliance Matrix: (Units=1/GPa)
#
#
# Indices 1 2 3 4 5 6 
#
# 1 0.021955 -0.011504 -0.000996 -0.015259 -0.009196 -0.009757
# 2 -0.011504 0.040191 0.002239 0.053501 0.000854 0.026137
# 3 -0.000996 0.002239 0.013571 0.009769 -0.001846 0.003381
# 4 -0.015259 0.053501 0.009769 0.111564 -0.003299 0.046912
# 5 -0.009196 0.000854 -0.001846 -0.003299 0.089511 -0.022548
# 6 -0.009757 0.026137 0.003381 0.046912 -0.022548 0.058866
#
#
# Mechanical properties :
#
#
# Convention : Reuss Voigt Hill
#
# Bulk Modulus (GPa) = 18.11771 30.85294 24.48533
# Shear Modulus (GPa) = 13.34838 27.50027 20.42432
#
# Velocity S-wave (km/s) = 2.47381 3.55076 3.06004
# Velocity P-wave (km/s) = 4.05783 5.56377 4.86937
#
# Compressibility (1/GPa) = 0.05519460
#
# Stress axis : x y z
#
# Youngs Moduli (GPa) = 45.54811 24.88134 73.68785
#
# Poissons Ratio (x) = 0.28624 0.07337
# Poissons Ratio (y) = 0.52400 -0.16499
# Poissons Ratio (z) = 0.04535 -0.05571
#
# Static dielectric constant tensor:
#      x y z
#    x 1.818260 -0.032930 -0.010510 
#    y -0.032930 1.816730 0.047050 
#    z -0.010510 0.047050 1.842650 
# 
# From -- ./inp_files/299061.got.cif
#   From: 2010.05.17/outbox.cif.g08.bks.cpg/sg2_150_cif.got.tgz:299061.got - 2010.06.03 11:33:40.
