data_PCOD9006341
_publ_section_title
;
Structure prediction by ZEFSAII (Michael W. Deem and Ramdas Pophale) SiO2 
 PCOD9006341
Probable space group: P -1
;
_chemical_formula_sum "Si O2"
_cell_formula_units_Z 16
_cell_length_a 12.104798
_cell_length_b 13.709130
_cell_length_c 12.713295
_cell_angle_alpha 118.326399
_cell_angle_beta 34.618489
_cell_angle_gamma 98.707720
_cell_volume 926.642402
_symmetry_space_group_name_H-M "P -1"
_symmetry_group_IT_number 2
_symmetry_cell_setting 'triclinic'
loop_
_space_group_symop_operation_xyz
x,y,z
-x,-y,-z
loop_
_atom_site_type_symbol
_atom_site_label
_atom_site_fract_x
_atom_site_fract_y
_atom_site_fract_z
Si Si1 0.069623 0.361082 0.412913
Si Si2 0.222923 0.147331 0.007969
Si Si3 0.739826 0.932263 0.647031
Si Si4 0.639749 0.119283 0.132952
Si Si5 0.550040 0.205105 0.020806
Si Si6 0.983928 0.110461 0.994612
Si Si7 0.840122 0.232268 0.627227
Si Si8 0.735673 0.046816 0.501400
O O1 0.000000 0.500000 0.500000
O O2 0.874704 0.346888 0.617287
O O3 0.144998 0.265254 0.205980
O O4 0.292853 0.306404 0.279919
O O5 0.065168 0.182220 0.047454
O O6 0.472961 0.097112 0.743289
O O7 0.234605 0.029404 0.007154
O O8 0.609786 0.859622 0.671478
O O9 0.922690 0.861730 0.554919
O O10 0.572770 0.071551 0.893647
O O11 0.838793 0.963072 0.482294
O O12 0.668720 0.166728 0.020701
O O13 0.738496 0.177315 0.170813
O O14 0.667059 0.250675 0.865272
O O15 0.154584 0.039509 0.729438
O O16 0.000000 0.000000 0.000000
O O17 0.781609 0.164516 0.543183
#
# Coordination Sequence:
#
# PCOD9006341 Si02
#       8
#     2   2   2   2   2   2   2   2
#     4  12  24  38  54  74 106 149 186 223 259 302
#     4  10  20  36  49  77 115 142 175 221 255 321
#     4  10  17  28  53  82 114 134 161 218 280 322
#     4  10  17  30  55  81 109 136 166 214 279 325
#     4  11  19  34  53  81 110 136 174 223 269 323
#     4  10  19  29  49  78 114 144 169 203 271 334
#     4  11  20  32  55  81 111 136 169 222 277 319
#     4  10  18  30  51  82 109 139 172 206 275 332
#
# _framework density 17.266639000000001
#
# number of rings (size 3 to 8) (size 9 to 14) (size 15 to 20)
#    0.000    1.500    5.000    6.000    0.000    0.500 
#    0.000    0.000    0.000    0.750    0.000    1.750 
#    0.000    0.000    0.000    0.000    0.000    0.000 
#
# Total GULP energy -89081.288640 kJ/mol
# GULP energy per Si atom -5567.580540 kJ/mol
# Density = 1.722734 g / cm^3
# Si number density = 17.266639 Si / 1000 Ang^3
#
#
#
# Elastic Constant Matrix: (Units=GPa)
#
#
# Indices 1 2 3 4 5 6 
#
# 1 115.4849 17.5078 3.3921 5.4814 -7.2731 -5.1531
# 2 17.5078 94.1674 20.6271 -8.2994 -2.4367 -0.3460
# 3 3.3921 20.6271 25.9381 -8.3638 -4.9326 0.0380
# 4 5.4814 -8.2994 -8.3638 21.9576 4.0766 -3.0097
# 5 -7.2731 -2.4367 -4.9326 4.0766 25.4031 -11.9224
# 6 -5.1531 -0.3460 0.0380 -3.0097 -11.9224 19.9422
#
#
#
# Elastic Compliance Matrix: (Units=1/GPa)
#
#
# Indices 1 2 3 4 5 6 
#
# 1 0.009715 -0.002005 0.000311 -0.003389 0.005720 0.005383
# 2 -0.002005 0.013317 -0.010124 0.001905 -0.002167 -0.001276
# 3 0.000311 -0.010124 0.053743 0.015704 0.011194 0.008865
# 4 -0.003389 0.001905 0.015704 0.054536 -0.004221 0.004835
# 5 0.005720 -0.002167 0.011194 -0.004221 0.061179 0.037358
# 6 0.005383 -0.001276 0.008865 0.004835 0.037358 0.074561
#
#
# Mechanical properties :
#
#
# Convention : Reuss Voigt Hill
#
# Bulk Modulus (GPa) = 18.81835 35.40493 27.11164
# Shear Modulus (GPa) = 16.21263 26.39811 21.30537
#
# Velocity S-wave (km/s) = 3.06756 3.91429 3.51651
# Velocity P-wave (km/s) = 4.84448 6.40143 5.67658
#
# Compressibility (1/GPa) = 0.05313962
#
# Stress axis : x y z
#
# Youngs Moduli (GPa) = 102.93025 75.09187 18.60705
#
# Poissons Ratio (x) = 0.15059 -0.00580
# Poissons Ratio (y) = 0.20642 0.18838
# Poissons Ratio (z) = -0.03206 0.76023
#
# Static dielectric constant tensor:
#      x y z
#    x 1.654090 0.016170 -0.010390 
#    y 0.016170 1.608720 -0.055070 
#    z -0.010390 -0.055070 1.616590 
# 
# From -- ./inp_files/423854.got.cif
#   From: 2010.05.17/outbox.cif.g08.bks.cpg/sg2_212_cif.got.tgz:423854.got - 2010.06.03 11:33:40.
