data_PCOD9006476
_publ_section_title
;
Structure prediction by ZEFSAII (Michael W. Deem and Ramdas Pophale) SiO2 
 PCOD9006476
Probable space group: P -1
;
_chemical_formula_sum "Si O2"
_cell_formula_units_Z 16
_cell_length_a 9.557258
_cell_length_b 10.097993
_cell_length_c 11.880188
_cell_angle_alpha 116.701322
_cell_angle_beta 49.143113
_cell_angle_gamma 94.554670
_cell_volume 734.623824
_symmetry_space_group_name_H-M "P -1"
_symmetry_group_IT_number 2
_symmetry_cell_setting 'triclinic'
loop_
_space_group_symop_operation_xyz
x,y,z
-x,-y,-z
loop_
_atom_site_type_symbol
_atom_site_label
_atom_site_fract_x
_atom_site_fract_y
_atom_site_fract_z
Si Si1 0.240789 0.299572 0.596428
Si Si2 0.950095 0.177888 0.559811
Si Si3 0.552454 0.314922 0.721530
Si Si4 0.708067 0.540378 0.585379
Si Si5 0.642967 0.099143 0.383998
Si Si6 0.968595 0.175920 0.122699
Si Si7 0.115203 0.268554 0.288781
Si Si8 0.829601 0.723649 0.122982
O O1 0.068207 0.260361 0.607403
O O2 0.432596 0.149683 0.455868
O O3 0.162985 0.346388 0.782380
O O4 0.318631 0.404426 0.508603
O O5 0.035593 0.176728 0.389129
O O6 0.720945 0.276280 0.711502
O O7 0.000000 0.000000 0.500000
O O8 0.572407 0.453587 0.683551
O O9 0.611410 0.162306 0.551580
O O10 0.331772 0.334476 0.878813
O O11 0.717115 0.679441 0.719031
O O12 0.930086 0.422514 0.423081
O O13 0.765700 0.202813 0.303566
O O14 0.748419 0.914203 0.251985
O O15 0.135736 0.179652 0.126040
O O16 0.982991 0.290438 0.058290
O O17 0.000000 0.000000 0.000000
#
# Coordination Sequence:
#
# PCOD9006476 Si02
#       8
#     2   2   2   2   2   2   2   2
#     4  10  20  31  54  84 107 134 183 234 259 306
#     4  10  17  28  56  81 105 129 178 233 267 297
#     4  10  18  34  56  79 103 144 182 222 260 314
#     4   9  18  33  58  76 108 137 187 223 262 308
#     4  10  18  34  54  79 109 139 182 222 266 318
#     4  10  20  35  57  74 112 151 173 207 278 338
#     4   9  18  35  53  82 102 147 179 219 262 324
#     4  10  21  33  53  81 112 141 178 221 272 320
#
# _framework density 21.779852999999999
#
# number of rings (size 3 to 8) (size 9 to 14) (size 15 to 20)
#    0.000    2.250    2.500    3.750    1.750    2.000 
#    0.000    1.250    5.500    6.750    0.000    0.000 
#    0.000    0.000    0.000    0.000    0.000    0.000 
#
# Total GULP energy -89143.791060 kJ/mol
# GULP energy per Si atom -5571.486941 kJ/mol
# Density = 2.173028 g / cm^3
# Si number density = 21.779853 Si / 1000 Ang^3
#
#
#
# Elastic Constant Matrix: (Units=GPa)
#
#
# Indices 1 2 3 4 5 6 
#
# 1 92.0902 32.8808 13.7227 -14.2923 14.2178 4.8921
# 2 32.8808 119.9934 12.0357 -26.6681 4.0254 3.3829
# 3 13.7227 12.0357 32.0306 -17.0842 11.5858 6.6147
# 4 -14.2923 -26.6681 -17.0842 34.0504 6.6163 -0.5767
# 5 14.2178 4.0254 11.5858 6.6163 23.6009 -6.3501
# 6 4.8921 3.3829 6.6147 -0.5767 -6.3501 38.5761
#
#
#
# Elastic Compliance Matrix: (Units=1/GPa)
#
#
# Indices 1 2 3 4 5 6 
#
# 1 0.015410 -0.001213 0.009916 0.014210 -0.019698 -0.006578
# 2 -0.001213 0.011633 0.009166 0.015294 -0.011128 -0.004041
# 3 0.009916 0.009166 0.110073 0.084375 -0.094715 -0.035266
# 4 0.014210 0.015294 0.084375 0.106774 -0.090855 -0.030971
# 5 -0.019698 -0.011128 -0.094715 -0.090855 0.139207 0.041272
# 6 -0.006578 -0.004041 -0.035266 -0.030971 0.041272 0.039489
#
#
# Mechanical properties :
#
#
# Convention : Reuss Voigt Hill
#
# Bulk Modulus (GPa) = 5.78521 40.15475 22.96998
# Shear Modulus (GPa) = 11.24941 31.61047 21.42994
#
# Velocity S-wave (km/s) = 2.27514 3.81381 3.14018
# Velocity P-wave (km/s) = 3.09252 6.15388 4.87000
#
# Compressibility (1/GPa) = 0.17285454
#
# Stress axis : x y z
#
# Youngs Moduli (GPa) = 64.89126 85.96076 9.08487
#
# Poissons Ratio (x) = 0.10428 -0.09009
# Poissons Ratio (y) = 0.07872 -0.08327
# Poissons Ratio (z) = -0.64348 -0.78789
#
# Static dielectric constant tensor:
#      x y z
#    x 1.845330 0.006280 0.013550 
#    y 0.006280 1.834610 -0.012330 
#    z 0.013550 -0.012330 1.884200 
# 
# From -- ./inp_files/388145.got.cif
#   From: 2010.05.17/outbox.cif.g08.bks.cpg/sg2_195_cif.got.tgz:388145.got - 2010.06.03 11:33:40.
