data_PCOD9006346
_publ_section_title
;
Structure prediction by ZEFSAII (Michael W. Deem and Ramdas Pophale) SiO2 
 PCOD9006346
Probable space group: P -1
;
_chemical_formula_sum "Si O2"
_cell_formula_units_Z 14
_cell_length_a 13.314111
_cell_length_b 8.055869
_cell_length_c 7.927617
_cell_angle_alpha 59.516613
_cell_angle_beta 60.402183
_cell_angle_gamma 74.028680
_cell_volume 636.801419
_symmetry_space_group_name_H-M "P -1"
_symmetry_group_IT_number 2
_symmetry_cell_setting 'triclinic'
loop_
_space_group_symop_operation_xyz
x,y,z
-x,-y,-z
loop_
_atom_site_type_symbol
_atom_site_label
_atom_site_fract_x
_atom_site_fract_y
_atom_site_fract_z
Si Si1 0.595317 0.325697 0.151809
Si Si2 0.760041 0.419291 0.470561
Si Si3 0.619120 0.094283 0.897285
Si Si4 0.339911 0.341044 0.285527
Si Si5 0.767666 0.023016 0.322025
Si Si6 0.787990 0.789474 0.073792
Si Si7 0.968150 0.168645 0.307380
O O1 0.459033 0.331488 0.301262
O O2 0.680434 0.203439 0.263463
O O3 0.601406 0.212077 0.026198
O O4 0.632959 0.541654 0.966239
O O5 0.670717 0.247469 0.645744
O O6 0.751135 0.527899 0.601222
O O7 0.735669 0.584485 0.267858
O O8 0.887361 0.329383 0.382218
O O9 0.500000 0.000000 0.000000
O O10 0.712558 0.924541 0.944016
O O11 0.293537 0.128554 0.426547
O O12 0.791014 0.909499 0.185522
O O13 0.885578 0.088340 0.271773
O O14 0.914792 0.758354 0.907609
O O15 0.000000 0.000000 0.500000
#
# Coordination Sequence:
#
# PCOD9006346 Si02
#       7
#     2   2   2   2   2   2   2
#     4   9  19  38  62  88 128 162 203 246 305 375
#     4  10  22  42  60  91 126 159 207 254 310 362
#     4  10  21  38  65  96 128 159 202 257 311 364
#     4   9  19  39  62  90 123 162 202 250 303 371
#     4  10  22  40  64  89 119 165 210 247 307 368
#     4  10  22  45  64  88 125 168 206 253 304 374
#     4  12  24  43  65  89 127 162 210 263 314 359
#
# _framework density 21.984876
#
# number of rings (size 3 to 8) (size 9 to 14) (size 15 to 20)
#    0.000    2.000    1.429    1.286    2.000    0.571 
#   12.857    1.429    0.000    0.000    0.000    0.000 
#    0.000    0.000    0.000    0.000    0.000    0.000 
#
# Total GULP energy -78294.731203 kJ/mol
# GULP energy per Si atom -5592.480800 kJ/mol
# Density = 2.193484 g / cm^3
# Si number density = 21.984876 Si / 1000 Ang^3
#
#
#
# Elastic Constant Matrix: (Units=GPa)
#
#
# Indices 1 2 3 4 5 6 
#
# 1 105.2622 41.2620 65.8961 -7.7134 -9.2661 -8.6590
# 2 41.2620 94.4738 57.6099 -3.8547 -4.1015 -20.0134
# 3 65.8961 57.6099 124.7194 -31.7796 -11.9441 -12.7959
# 4 -7.7134 -3.8547 -31.7796 42.9627 1.2013 -4.2919
# 5 -9.2661 -4.1015 -11.9441 1.2013 30.1053 9.9667
# 6 -8.6590 -20.0134 -12.7959 -4.2919 9.9667 25.9539
#
#
#
# Elastic Compliance Matrix: (Units=1/GPa)
#
#
# Indices 1 2 3 4 5 6 
#
# 1 0.015031 -0.002280 -0.007792 -0.003519 0.002006 -0.001938
# 2 -0.002280 0.017896 -0.007118 -0.002863 -0.004550 0.010804
# 3 -0.007792 -0.007118 0.019032 0.012173 0.002981 0.002163
# 4 -0.003519 -0.002863 0.012173 0.032229 -0.000643 0.008197
# 5 0.002006 -0.004550 0.002981 -0.000643 0.039996 -0.016835
# 6 -0.001938 0.010804 0.002163 0.008197 -0.016835 0.055101
#
#
# Mechanical properties :
#
#
# Convention : Reuss Voigt Hill
#
# Bulk Modulus (GPa) = 56.88909 72.66571 64.77740
# Shear Modulus (GPa) = 22.77638 30.45022 26.61330
#
# Velocity S-wave (km/s) = 3.22219 3.72567 3.48304
# Velocity P-wave (km/s) = 6.30682 7.18553 6.76047
#
# Compressibility (1/GPa) = 0.01757806
#
# Stress axis : x y z
#
# Youngs Moduli (GPa) = 66.52855 55.87846 52.54275
#
# Poissons Ratio (x) = 0.12743 0.40940
# Poissons Ratio (y) = 0.15172 0.37402
# Poissons Ratio (z) = 0.51837 0.39776
#
# Static dielectric constant tensor:
#      x y z
#    x 1.747930 0.016650 0.008460 
#    y 0.016650 1.830160 0.015170 
#    z 0.008460 0.015170 1.817820 
# 
# From -- ./inp_files/177183.got.cif
#   From: 2010.05.17/outbox.cif.g08.bks.cpg/sg2_89_cif.got.tgz:177183.got - 2010.06.03 11:33:40.
