data_PCOD9006317
_publ_section_title
;
Structure prediction by ZEFSAII (Michael W. Deem and Ramdas Pophale) SiO2 
 PCOD9006317
Probable space group: P -1
;
_chemical_formula_sum "Si O2"
_cell_formula_units_Z 16
_cell_length_a 19.608585
_cell_length_b 8.957517
_cell_length_c 19.417297
_cell_angle_alpha 57.355581
_cell_angle_beta 22.094501
_cell_angle_gamma 43.952639
_cell_volume 776.716602
_symmetry_space_group_name_H-M "P -1"
_symmetry_group_IT_number 2
_symmetry_cell_setting 'triclinic'
loop_
_space_group_symop_operation_xyz
x,y,z
-x,-y,-z
loop_
_atom_site_type_symbol
_atom_site_label
_atom_site_fract_x
_atom_site_fract_y
_atom_site_fract_z
Si Si1 0.297289 0.313046 0.781758
Si Si2 0.873904 0.419907 0.601421
Si Si3 0.372645 0.966923 0.904059
Si Si4 0.543535 0.529654 0.286015
Si Si5 0.391226 0.265725 0.550553
Si Si6 0.961443 0.004453 0.693406
Si Si7 0.845291 0.583142 0.916904
Si Si8 0.205711 0.165353 0.220856
O O1 0.370943 0.075142 0.807290
O O2 0.367137 0.420291 0.743164
O O3 0.415747 0.275018 0.606865
O O4 0.000000 0.500000 0.000000
O O5 0.866839 0.264841 0.700838
O O6 0.000000 0.500000 0.500000
O O7 0.047038 0.247054 0.417942
O O8 0.605573 0.676356 0.764378
O O9 0.362369 0.136310 0.927633
O O10 0.134818 0.010869 0.140283
O O11 0.524792 0.335081 0.368206
O O12 0.738753 0.461665 0.062091
O O13 0.262377 0.782942 0.465904
O O14 0.098581 0.454883 0.753816
O O15 0.500000 0.000000 0.500000
O O16 0.846211 0.962254 0.750444
O O17 0.888336 0.600628 0.793172
O O18 0.500000 0.000000 0.000000
#
# Coordination Sequence:
#
# PCOD9006317 Si02
#       8
#     2   2   2   2   2   2   2   2
#     4  11  21  43  69  96 131 183 222 267 338 394
#     4  12  24  39  66 103 133 172 226 277 329 395
#     4  10  21  38  65  94 135 166 219 280 312 394
#     4  11  21  43  75  93 132 185 219 269 341 400
#     4  12  25  42  69  99 137 172 229 284 326 397
#     4  11  22  44  68  98 134 179 219 265 348 404
#     4  10  22  45  64  95 139 177 218 272 340 394
#     4  11  23  43  69  94 136 180 218 272 339 400
#
# _framework density 20.599533999999998
#
# number of rings (size 3 to 8) (size 9 to 14) (size 15 to 20)
#    0.000    1.000    5.000    4.875    1.750    0.500 
#    0.000    1.250    0.000    0.000    0.000    0.000 
#    0.000    0.000    0.000    0.000    0.000    0.000 
#
# Total GULP energy -89343.111507 kJ/mol
# GULP energy per Si atom -5583.944469 kJ/mol
# Density = 2.055265 g / cm^3
# Si number density = 20.599534 Si / 1000 Ang^3
#
#
#
# Elastic Constant Matrix: (Units=GPa)
#
#
# Indices 1 2 3 4 5 6 
#
# 1 44.3115 7.7313 5.3609 -2.9475 -24.1076 -9.0906
# 2 7.7313 142.9337 34.5738 -30.1996 -10.8625 -15.9091
# 3 5.3609 34.5738 68.9616 -28.3329 -15.3741 -0.6668
# 4 -2.9475 -30.1996 -28.3329 45.8265 -5.2730 5.9443
# 5 -24.1076 -10.8625 -15.3741 -5.2730 34.6395 -8.2789
# 6 -9.0906 -15.9091 -0.6668 5.9443 -8.2789 31.3441
#
#
#
# Elastic Compliance Matrix: (Units=1/GPa)
#
#
# Indices 1 2 3 4 5 6 
#
# 1 0.062346 0.005837 0.014701 0.019747 0.062934 0.034235
# 2 0.005837 0.009835 -0.000303 0.006775 0.009962 0.008025
# 3 0.014701 -0.000303 0.028044 0.020202 0.027611 0.008168
# 4 0.019747 0.006775 0.020202 0.042582 0.033814 0.010451
# 5 0.062934 0.009962 0.027611 0.033814 0.103933 0.044935
# 6 0.034235 0.008025 0.008168 0.010451 0.044935 0.055966
#
#
# Mechanical properties :
#
#
# Convention : Reuss Voigt Hill
#
# Bulk Modulus (GPa) = 7.10749 39.05986 23.08368
# Shear Modulus (GPa) = 16.17415 36.26475 26.21945
#
# Velocity S-wave (km/s) = 2.80513 4.20034 3.57153
# Velocity P-wave (km/s) = 3.73490 6.52124 5.31394
#
# Compressibility (1/GPa) = 0.14069665
#
# Stress axis : x y z
#
# Youngs Moduli (GPa) = 16.03947 101.67269 35.65770
#
# Poissons Ratio (x) = -0.59347 -0.52421
# Poissons Ratio (y) = -0.09362 0.01080
# Poissons Ratio (z) = -0.23580 0.03079
#
# Static dielectric constant tensor:
#      x y z
#    x 1.756060 -0.049260 0.011520 
#    y -0.049260 1.805140 0.020780 
#    z 0.011520 0.020780 1.780430 
# 
# From -- ./inp_files/601152.got.cif
#   From: 2010.05.17/outbox.cif.g08.bks.cpg/sg2_301_cif.got.tgz:601152.got - 2010.06.03 11:33:40.
