data_PCOD9006490
_publ_section_title
;
Structure prediction by ZEFSAII (Michael W. Deem and Ramdas Pophale) SiO2 
 PCOD9006490
Probable space group: P -1
;
_chemical_formula_sum "Si O2"
_cell_formula_units_Z 16
_cell_length_a 15.196344
_cell_length_b 9.998778
_cell_length_c 9.409981
_cell_angle_alpha 59.376972
_cell_angle_beta 86.051898
_cell_angle_gamma 46.842237
_cell_volume 803.611556
_symmetry_space_group_name_H-M "P -1"
_symmetry_group_IT_number 2
_symmetry_cell_setting 'triclinic'
loop_
_space_group_symop_operation_xyz
x,y,z
-x,-y,-z
loop_
_atom_site_type_symbol
_atom_site_label
_atom_site_fract_x
_atom_site_fract_y
_atom_site_fract_z
Si Si1 0.016531 0.194471 0.863290
Si Si2 0.646242 0.191706 0.298024
Si Si3 0.050149 0.282508 0.523130
Si Si4 0.604403 0.903743 0.915227
Si Si5 0.599072 0.568761 0.978527
Si Si6 0.516759 0.647995 0.487068
Si Si7 0.914715 0.580872 0.111268
Si Si8 0.227453 0.659436 0.195239
O O1 0.032250 0.171139 0.702886
O O2 0.070218 0.280457 0.877684
O O3 0.856930 0.384648 0.800371
O O4 0.108450 0.943267 0.064775
O O5 0.555820 0.260241 0.136571
O O6 0.572315 0.234350 0.424001
O O7 0.792068 0.924119 0.414338
O O8 0.645753 0.380909 0.191453
O O9 0.000000 0.500000 0.500000
O O10 0.977045 0.373589 0.329282
O O11 0.614769 0.728013 0.924134
O O12 0.537547 0.139372 0.716627
O O13 0.758240 0.747855 0.016676
O O14 0.500000 0.000000 0.000000
O O15 0.685387 0.416556 0.911255
O O16 0.500000 0.500000 0.500000
O O17 0.670728 0.474037 0.612672
O O18 0.000000 0.500000 0.000000
#
# Coordination Sequence:
#
# PCOD9006490 Si02
#       8
#     2   2   2   2   2   2   2   2
#     4  10  21  39  65  92 130 164 221 268 324 393
#     4  10  21  41  68  94 127 174 214 270 325 398
#     4  10  22  37  66  92 124 166 220 263 317 390
#     4  12  27  40  63  96 135 170 217 277 329 393
#     4  10  22  40  66  94 133 163 218 266 334 388
#     4  11  24  42  66  95 133 172 219 266 340 399
#     4  11  24  42  63  90 132 177 216 266 334 392
#     4  10  21  38  66  93 121 169 213 272 321 389
#
# _framework density 19.910117
#
# number of rings (size 3 to 8) (size 9 to 14) (size 15 to 20)
#    0.000    1.500    1.250    3.000    5.250    4.000 
#    0.000    0.625    0.000    0.000    0.000    0.000 
#    0.000    0.000    0.000    0.000    0.000    0.000 
#
# Total GULP energy -89206.754873 kJ/mol
# GULP energy per Si atom -5575.422180 kJ/mol
# Density = 1.986480 g / cm^3
# Si number density = 19.910117 Si / 1000 Ang^3
#
#
#
# Elastic Constant Matrix: (Units=GPa)
#
#
# Indices 1 2 3 4 5 6 
#
# 1 129.3883 36.0518 70.9402 -17.9187 15.2364 -3.5892
# 2 36.0518 64.8389 50.6716 -12.0192 6.8035 -12.0671
# 3 70.9402 50.6716 162.7232 -18.8186 9.1535 -13.7044
# 4 -17.9187 -12.0192 -18.8186 31.3760 -11.8585 -3.5253
# 5 15.2364 6.8035 9.1535 -11.8585 34.6985 -5.4825
# 6 -3.5892 -12.0671 -13.7044 -3.5253 -5.4825 44.3403
#
#
#
# Elastic Compliance Matrix: (Units=1/GPa)
#
#
# Indices 1 2 3 4 5 6 
#
# 1 0.011108 -0.002899 -0.003674 0.001783 -0.002927 -0.001245
# 2 -0.002899 0.022546 -0.004818 0.004845 0.000548 0.004865
# 3 -0.003674 -0.004818 0.009608 0.002434 0.001122 0.001693
# 4 0.001783 0.004845 0.002434 0.041962 0.013099 0.007171
# 5 -0.002927 0.000548 0.001122 0.013099 0.035069 0.005637
# 6 -0.001245 0.004865 0.001693 0.007171 0.005637 0.025567
#
#
# Mechanical properties :
#
#
# Convention : Reuss Voigt Hill
#
# Bulk Modulus (GPa) = 48.82618 74.69751 61.76185
# Shear Modulus (GPa) = 28.49538 35.36873 31.93205
#
# Velocity S-wave (km/s) = 3.78723 4.21933 4.00910
# Velocity P-wave (km/s) = 6.61065 7.83172 7.24695
#
# Compressibility (1/GPa) = 0.02048081
#
# Stress axis : x y z
#
# Youngs Moduli (GPa) = 90.02671 44.35394 104.07914
#
# Poissons Ratio (x) = 0.12859 0.38235
# Poissons Ratio (y) = 0.26101 0.50141
# Poissons Ratio (z) = 0.33073 0.21368
#
# Static dielectric constant tensor:
#      x y z
#    x 1.675890 -0.031560 0.029010 
#    y -0.031560 1.701730 0.014910 
#    z 0.029010 0.014910 1.705720 
# 
# From -- ./inp_files/297916.got.cif
#   From: 2010.05.17/outbox.cif.g08.bks.cpg/sg2_149_cif.got.tgz:297916.got - 2010.06.03 11:33:40.
