data_PCOD9006631
_publ_section_title
;
Structure prediction by ZEFSAII (Michael W. Deem and Ramdas Pophale) SiO2 
 PCOD9006631
Probable space group: P -1
;
_chemical_formula_sum "Si O2"
_cell_formula_units_Z 16
_cell_length_a 9.096168
_cell_length_b 13.641887
_cell_length_c 8.260331
_cell_angle_alpha 128.058877
_cell_angle_beta 107.718871
_cell_angle_gamma 105.165495
_cell_volume 615.633837
_symmetry_space_group_name_H-M "P -1"
_symmetry_group_IT_number 2
_symmetry_cell_setting 'triclinic'
loop_
_space_group_symop_operation_xyz
x,y,z
-x,-y,-z
loop_
_atom_site_type_symbol
_atom_site_label
_atom_site_fract_x
_atom_site_fract_y
_atom_site_fract_z
Si Si1 0.746806 0.340296 0.694961
Si Si2 0.157256 0.096005 0.510252
Si Si3 0.701877 0.595120 0.069117
Si Si4 0.369433 0.323582 0.222587
Si Si5 0.009276 0.837767 0.924967
Si Si6 0.597200 0.984185 0.863326
Si Si7 0.455701 0.780777 0.048710
Si Si8 0.064608 0.603331 0.869936
O O1 0.538849 0.190649 0.425360
O O2 0.888360 0.428106 0.679167
O O3 0.740642 0.472118 0.912204
O O4 0.848009 0.308057 0.836811
O O5 0.161822 0.245651 0.622216
O O6 0.373164 0.165565 0.714116
O O7 0.101344 0.975219 0.228158
O O8 0.000000 0.000000 0.500000
O O9 0.500000 0.500000 0.000000
O O10 0.709241 0.664300 0.964552
O O11 0.500000 0.500000 0.500000
O O12 0.475930 0.249752 0.126793
O O13 0.212259 0.228050 0.212434
O O14 0.175909 0.925588 0.936588
O O15 0.998494 0.690076 0.833794
O O16 0.579877 0.089378 0.836031
O O17 0.500000 0.000000 0.000000
O O18 0.244987 0.625851 0.864093
#
# Coordination Sequence:
#
# PCOD9006631 Si02
#       8
#     2   2   2   2   2   2   2   2
#     4  11  21  39  62  98 129 157 207 267 315 370
#     4  11  19  38  67  96 125 159 212 261 315 373
#     4  11  22  38  64  97 129 162 209 269 319 366
#     4  11  24  42  66  91 128 173 215 255 313 393
#     4  11  21  44  66  92 123 173 211 261 318 381
#     4  11  26  41  64  89 130 168 214 259 312 376
#     4  10  22  41  62  93 122 167 209 255 314 380
#     4  10  21  38  67  93 125 159 206 263 321 369
#
# _framework density 25.989471999999999
#
# number of rings (size 3 to 8) (size 9 to 14) (size 15 to 20)
#    0.000    1.250    3.750    3.750    1.750    4.000 
#    0.000    4.375    0.000    0.000    0.000    0.000 
#    0.000    0.000    0.000    0.000    0.000    0.000 
#
# Total GULP energy -89487.224787 kJ/mol
# GULP energy per Si atom -5592.951549 kJ/mol
# Density = 2.593032 g / cm^3
# Si number density = 25.989472 Si / 1000 Ang^3
#
#
#
# Elastic Constant Matrix: (Units=GPa)
#
#
# Indices 1 2 3 4 5 6 
#
# 1 149.1111 37.4846 33.1441 25.2600 13.0589 44.2666
# 2 37.4846 84.7450 5.6246 26.5599 12.6106 15.8102
# 3 33.1441 5.6246 101.1028 31.9956 6.4246 6.2110
# 4 25.2600 26.5599 31.9956 40.8788 6.5577 5.9629
# 5 13.0589 12.6106 6.4246 6.5577 33.8691 10.2054
# 6 44.2666 15.8102 6.2110 5.9629 10.2054 66.3862
#
#
#
# Elastic Compliance Matrix: (Units=1/GPa)
#
#
# Indices 1 2 3 4 5 6 
#
# 1 0.009798 -0.002507 -0.002104 -0.001909 -0.000417 -0.005504
# 2 -0.002507 0.017124 0.003938 -0.011928 -0.003495 -0.001166
# 3 -0.002104 0.003938 0.014313 -0.012343 -0.001102 0.000404
# 4 -0.001909 -0.011928 -0.012343 0.043027 -0.001295 0.001603
# 5 -0.000417 -0.003495 -0.001102 -0.001295 0.032555 -0.003674
# 6 -0.005504 -0.001166 0.000404 0.001603 -0.003674 0.019394
#
#
# Mechanical properties :
#
#
# Convention : Reuss Voigt Hill
#
# Bulk Modulus (GPa) = 25.06993 54.16284 39.61638
# Shear Modulus (GPa) = 33.14485 45.47387 39.30936
#
# Velocity S-wave (km/s) = 3.57503 4.18748 3.89332
# Velocity P-wave (km/s) = 5.16801 6.65324 5.95709
#
# Compressibility (1/GPa) = 0.03988843
#
# Stress axis : x y z
#
# Youngs Moduli (GPa) = 102.05952 58.39911 69.86676
#
# Poissons Ratio (x) = 0.14641 0.14698
# Poissons Ratio (y) = 0.25587 -0.27511
# Poissons Ratio (z) = 0.21471 -0.22996
#
# Static dielectric constant tensor:
#      x y z
#    x 2.150420 -0.039110 0.000690 
#    y -0.039110 2.239070 -0.079680 
#    z 0.000690 -0.079680 2.044220 
# 
# From -- ./inp_files/209055.got.cif
#   From: 2010.05.17/outbox.cif.g08.bks.cpg/sg2_105_cif.got.tgz:209055.got - 2010.06.03 11:33:40.
