data_PCOD9006941
_publ_section_title
;
Structure prediction by ZEFSAII (Michael W. Deem and Ramdas Pophale) SiO2 
 PCOD9006941
Probable space group: P -1
;
_chemical_formula_sum "Si O2"
_cell_formula_units_Z 14
_cell_length_a 8.028425
_cell_length_b 13.232184
_cell_length_c 7.928706
_cell_angle_alpha 44.965981
_cell_angle_beta 85.565897
_cell_angle_gamma 76.592242
_cell_volume 574.386369
_symmetry_space_group_name_H-M "P -1"
_symmetry_group_IT_number 2
_symmetry_cell_setting 'triclinic'
loop_
_space_group_symop_operation_xyz
x,y,z
-x,-y,-z
loop_
_atom_site_type_symbol
_atom_site_label
_atom_site_fract_x
_atom_site_fract_y
_atom_site_fract_z
Si Si1 0.859842 0.130247 0.629659
Si Si2 0.378341 0.548001 0.258786
Si Si3 0.251402 0.965728 0.888281
Si Si4 0.368530 0.248149 0.515925
Si Si5 0.929425 0.499382 0.821862
Si Si6 0.248776 0.543226 0.634451
Si Si7 0.606917 0.124800 0.360603
O O1 0.816424 0.308787 0.424970
O O2 0.770574 0.082467 0.526016
O O3 0.061347 0.048050 0.732768
O O4 0.773070 0.089813 0.857200
O O5 0.426331 0.364728 0.492750
O O6 0.225947 0.580025 0.095162
O O7 0.282146 0.596614 0.382574
O O8 0.569728 0.561620 0.195746
O O9 0.367387 0.084039 0.758149
O O10 0.334790 0.854170 0.860752
O O11 0.170012 0.333241 0.409755
O O12 0.474148 0.247579 0.335854
O O13 0.098460 0.456201 0.744215
O O14 0.000000 0.500000 0.000000
O O15 0.500000 0.000000 0.500000
#
# Coordination Sequence:
#
# PCOD9006941 Si02
#       7
#     2   2   2   2   2   2   2
#     4  11  20  40  62  91 121 159 204 253 303 365
#     4   9  21  39  62  90 117 163 199 247 311 353
#     4  10  22  37  65  89 118 165 203 245 313 357
#     4   9  19  40  58  85 127 152 198 253 298 361
#     4  10  21  39  60  87 121 161 194 249 306 359
#     4  11  20  40  64  86 126 156 201 257 300 363
#     4  10  21  39  57  86 125 160 198 255 294 361
#
# _framework density 24.373836000000001
#
# number of rings (size 3 to 8) (size 9 to 14) (size 15 to 20)
#    0.857    1.143    2.857    0.857    0.000    2.857 
#    7.714    4.286    0.000    0.000    0.000    0.000 
#    0.000    0.000    0.000    0.000    0.000    0.000 
#
# Total GULP energy -78010.643256 kJ/mol
# GULP energy per Si atom -5572.188804 kJ/mol
# Density = 2.431836 g / cm^3
# Si number density = 24.373836 Si / 1000 Ang^3
#
#
#
# Elastic Constant Matrix: (Units=GPa)
#
#
# Indices 1 2 3 4 5 6 
#
# 1 119.6629 -5.9420 18.9456 4.5668 15.4586 -34.3028
# 2 -5.9420 51.2448 -2.5411 13.4755 0.3372 -5.5797
# 3 18.9456 -2.5411 95.2577 18.0015 -4.5531 1.3627
# 4 4.5668 13.4755 18.0015 23.2743 0.2857 0.3082
# 5 15.4586 0.3372 -4.5531 0.2857 40.0189 13.7672
# 6 -34.3028 -5.5797 1.3627 0.3082 13.7672 29.7812
#
#
#
# Elastic Compliance Matrix: (Units=1/GPa)
#
#
# Indices 1 2 3 4 5 6 
#
# 1 0.025680 0.009297 -0.005483 -0.006443 -0.025518 0.043435
# 2 0.009297 0.028235 0.001817 -0.019725 -0.010734 0.021082
# 3 -0.005483 0.001817 0.014181 -0.010902 0.007175 -0.009828
# 4 -0.006443 -0.019725 -0.010902 0.064197 0.005753 -0.013942
# 5 -0.025518 -0.010734 0.007175 0.005753 0.055469 -0.057434
# 6 0.043435 0.021082 -0.009828 -0.013942 -0.057434 0.114702
#
#
# Mechanical properties :
#
#
# Convention : Reuss Voigt Hill
#
# Bulk Modulus (GPa) = 12.60095 31.89892 22.24993
# Shear Modulus (GPa) = 15.74037 35.66176 25.70107
#
# Velocity S-wave (km/s) = 2.54400 3.82922 3.25076
# Velocity P-wave (km/s) = 3.71622 5.71545 4.82061
#
# Compressibility (1/GPa) = 0.07935907
#
# Stress axis : x y z
#
# Youngs Moduli (GPa) = 38.94047 35.41651 70.51911
#
# Poissons Ratio (x) = -0.32928 0.38665
# Poissons Ratio (y) = -0.36204 -0.12813
# Poissons Ratio (z) = 0.21351 -0.06435
#
# Static dielectric constant tensor:
#      x y z
#    x 1.993290 0.035780 -0.004550 
#    y 0.035780 1.981160 -0.006660 
#    z -0.004550 -0.006660 1.946420 
# 
# From -- ./inp_files/34419.got.cif
#   From: 2010.05.17/outbox.cif.g08.bks.cpg/sg2_18_cif.got.tgz:34419.got - 2010.06.03 11:33:40.
