data_PCOD9006610
_publ_section_title
;
Structure prediction by ZEFSAII (Michael W. Deem and Ramdas Pophale) SiO2 
 PCOD9006610
Probable space group: P -1
;
_chemical_formula_sum "Si O2"
_cell_formula_units_Z 16
_cell_length_a 9.009726
_cell_length_b 7.599933
_cell_length_c 16.548115
_cell_angle_alpha 57.095841
_cell_angle_beta 130.769801
_cell_angle_gamma 107.581126
_cell_volume 718.003492
_symmetry_space_group_name_H-M "P -1"
_symmetry_group_IT_number 2
_symmetry_cell_setting 'triclinic'
loop_
_space_group_symop_operation_xyz
x,y,z
-x,-y,-z
loop_
_atom_site_type_symbol
_atom_site_label
_atom_site_fract_x
_atom_site_fract_y
_atom_site_fract_z
Si Si1 0.991187 0.116607 0.337626
Si Si2 0.349852 0.419979 0.643787
Si Si3 0.990623 0.306347 0.466141
Si Si4 0.733227 0.224281 0.891850
Si Si5 0.331219 0.590454 0.857056
Si Si6 0.894487 0.764217 0.075198
Si Si7 0.378219 0.198164 0.368159
Si Si8 0.317347 0.346830 0.139204
O O1 0.954984 0.210007 0.390975
O O2 0.788418 0.201137 0.202390
O O3 0.171771 0.216091 0.335976
O O4 0.031548 0.869821 0.428324
O O5 0.172408 0.506068 0.618595
O O6 0.504925 0.241638 0.779819
O O7 0.488722 0.605697 0.627629
O O8 0.218517 0.354571 0.538805
O O9 0.756389 0.422485 0.909827
O O10 0.873831 0.247437 0.857929
O O11 0.808657 0.997908 0.010477
O O12 0.178657 0.410411 0.847530
O O13 0.458014 0.638045 0.812459
O O14 0.500000 0.500000 0.000000
O O15 0.803294 0.719612 0.964596
O O16 0.324609 0.187533 0.256685
O O17 0.500000 0.000000 0.500000
#
# Coordination Sequence:
#
# PCOD9006610 Si02
#       8
#     2   2   2   2   2   2   2   2
#     4  11  22  39  65  92 122 168 215 259 313 386
#     4  10  21  41  61  93 128 162 205 271 316 375
#     4  10  23  39  65  90 125 166 211 262 324 371
#     4  10  21  38  67  90 132 164 208 264 314 378
#     4  10  22  38  64  95 123 163 214 259 314 378
#     4  10  22  41  63  96 125 170 213 256 317 379
#     4  11  22  39  63  92 124 165 213 257 318 381
#     4  10  22  40  65  88 130 166 210 264 313 374
#
# _framework density 22.284015
#
# number of rings (size 3 to 8) (size 9 to 14) (size 15 to 20)
#    0.000    1.750    1.250    3.375    5.250    2.000 
#    0.000    3.750   13.750    0.000    0.000    0.000 
#    0.000    0.000    0.000    0.000    0.000    0.000 
#
# Total GULP energy -89313.749432 kJ/mol
# GULP energy per Si atom -5582.109339 kJ/mol
# Density = 2.223330 g / cm^3
# Si number density = 22.284015 Si / 1000 Ang^3
#
#
#
# Elastic Constant Matrix: (Units=GPa)
#
#
# Indices 1 2 3 4 5 6 
#
# 1 118.3940 9.6896 34.1385 -19.8298 18.2554 14.6912
# 2 9.6896 48.1939 12.3200 -1.7975 5.5261 1.1437
# 3 34.1385 12.3200 88.1477 -5.8283 16.7993 -7.7253
# 4 -19.8298 -1.7975 -5.8283 32.4142 7.2434 3.6011
# 5 18.2554 5.5261 16.7993 7.2434 40.9552 -6.6676
# 6 14.6912 1.1437 -7.7253 3.6011 -6.6676 34.6044
#
#
#
# Elastic Compliance Matrix: (Units=1/GPa)
#
#
# Indices 1 2 3 4 5 6 
#
# 1 0.013699 -0.000250 -0.003901 0.010445 -0.007830 -0.009274
# 2 -0.000250 0.021813 -0.002585 0.001300 -0.002290 -0.001769
# 3 -0.003901 -0.002585 0.014195 0.000234 -0.003077 0.004293
# 4 0.010445 0.001300 0.000234 0.041806 -0.014195 -0.011511
# 5 -0.007830 -0.002290 -0.003077 -0.014195 0.033729 0.010689
# 6 -0.009274 -0.001769 0.004293 -0.011511 0.010689 0.037110
#
#
# Mechanical properties :
#
#
# Convention : Reuss Voigt Hill
#
# Bulk Modulus (GPa) = 27.59575 40.78130 34.18852
# Shear Modulus (GPa) = 26.60979 34.83393 30.72186
#
# Velocity S-wave (km/s) = 3.45935 3.95800 3.71705
# Velocity P-wave (km/s) = 5.32604 6.26323 5.81355
#
# Compressibility (1/GPa) = 0.03623747
#
# Stress axis : x y z
#
# Youngs Moduli (GPa) = 72.99743 45.84325 70.44898
#
# Poissons Ratio (x) = 0.01145 0.27479
# Poissons Ratio (y) = 0.01823 0.18209
# Poissons Ratio (z) = 0.28473 0.11849
#
# Static dielectric constant tensor:
#      x y z
#    x 1.824100 -0.008380 0.017630 
#    y -0.008380 1.884940 -0.003300 
#    z 0.017630 -0.003300 1.920810 
# 
# From -- ./inp_files/556006.got.cif
#   From: 2010.05.17/outbox.cif.g08.bks.cpg/sg2_279_cif.got.tgz:556006.got - 2010.06.03 11:33:40.
