data_PCOD9006008
_publ_section_title
;
Structure prediction by ZEFSAII (Michael W. Deem and Ramdas Pophale) SiO2 
 PCOD9006008
Probable space group: P -1
;
_chemical_formula_sum "Si O2"
_cell_formula_units_Z 15
_cell_length_a 9.425079
_cell_length_b 15.104120
_cell_length_c 9.351901
_cell_angle_alpha 47.866778
_cell_angle_beta 116.519828
_cell_angle_gamma 86.885117
_cell_volume 747.288526
_symmetry_space_group_name_H-M "P -1"
_symmetry_group_IT_number 2
_symmetry_cell_setting 'triclinic'
loop_
_space_group_symop_operation_xyz
x,y,z
-x,-y,-z
loop_
_atom_site_type_symbol
_atom_site_label
_atom_site_fract_x
_atom_site_fract_y
_atom_site_fract_z
Si Si1 0.387607 0.841726 0.357253
Si Si2 0.500000 0.500000 0.500000
Si Si3 0.609789 0.738170 0.303960
Si Si4 0.979078 0.417160 0.445981
Si Si5 0.428767 0.393957 0.067917
Si Si6 0.142324 0.736417 0.243128
Si Si7 0.766378 0.910565 0.748617
Si Si8 0.484594 0.846324 0.818607
O O1 0.516975 0.836546 0.293269
O O2 0.512938 0.701189 0.661183
O O3 0.217887 0.832937 0.224879
O O4 0.305481 0.974008 0.281654
O O5 0.543849 0.626902 0.399650
O O6 0.316055 0.589362 0.425238
O O7 0.833962 0.652454 0.488020
O O8 0.532988 0.824876 0.028579
O O9 0.954427 0.296786 0.635794
O O10 0.000000 0.500000 0.500000
O O11 0.790704 0.518439 0.163236
O O12 0.533539 0.281600 0.108002
O O13 0.500000 0.500000 0.000000
O O14 0.987345 0.809418 0.970536
O O15 0.657467 0.832096 0.819488
O O16 0.689616 0.002273 0.471050
#
# Coordination Sequence:
#
# PCOD9006008 Si02
#       8
#     2   1   2   2   2   2   2   2
#     4  10  24  38  60  92 133 161 210 273 318 364
#     4  10  22  34  60  94 132 150 208 272 314 366
#     4  11  22  39  62  96 128 167 210 268 326 371
#     4  12  20  36  67  91 121 171 217 249 324 398
#     4  11  21  38  63  96 127 162 217 269 318 375
#     4  11  19  38  61  94 120 172 206 264 314 384
#     4  10  21  40  65  88 124 174 223 249 308 391
#     4  10  21  38  64  92 121 174 215 261 307 383
#
# _framework density 20.072568
#
# number of rings (size 3 to 8) (size 9 to 14) (size 15 to 20)
#    0.000    1.333    5.333    0.400    1.867    1.067 
#    0.000    2.667    0.000    1.600    0.000    0.000 
#    0.000    0.000    0.000    0.000    0.000    0.000 
#
# Total GULP energy -83553.247442 kJ/mol
# GULP energy per Si atom -5570.216496 kJ/mol
# Density = 2.002688 g / cm^3
# Si number density = 20.072568 Si / 1000 Ang^3
#
#
#
# Elastic Constant Matrix: (Units=GPa)
#
#
# Indices 1 2 3 4 5 6 
#
# 1 79.2976 2.8366 13.5095 -0.6637 2.2994 6.6024
# 2 2.8366 50.8241 -3.2872 -7.0336 -6.5186 8.0762
# 3 13.5095 -3.2872 83.8750 17.2358 1.3581 4.9122
# 4 -0.6637 -7.0336 17.2358 24.7715 9.3351 -3.7514
# 5 2.2994 -6.5186 1.3581 9.3351 16.8456 8.1866
# 6 6.6024 8.0762 4.9122 -3.7514 8.1866 29.6527
#
#
#
# Elastic Compliance Matrix: (Units=1/GPa)
#
#
# Indices 1 2 3 4 5 6 
#
# 1 0.013294 -0.000704 -0.002660 0.002947 -0.002951 -0.001140
# 2 -0.000704 0.023288 0.001894 -0.002293 0.015621 -0.011103
# 3 -0.002660 0.001894 0.016236 -0.017180 0.013437 -0.008497
# 4 0.002947 -0.002293 -0.017180 0.077277 -0.056416 0.028166
# 5 -0.002951 0.015621 0.013437 -0.056416 0.118140 -0.045577
# 6 -0.001140 -0.011103 -0.008497 0.028166 -0.045577 0.054556
#
#
# Mechanical properties :
#
#
# Convention : Reuss Voigt Hill
#
# Bulk Modulus (GPa) = 20.04802 26.67937 23.36369
# Shear Modulus (GPa) = 15.51087 27.64981 21.58034
#
# Velocity S-wave (km/s) = 2.78284 3.71549 3.28245
# Velocity P-wave (km/s) = 4.50944 5.63265 5.10205
#
# Compressibility (1/GPa) = 0.04988025
#
# Stress axis : x y z
#
# Youngs Moduli (GPa) = 75.22077 42.94057 61.59279
#
# Poissons Ratio (x) = 0.03021 0.16382
# Poissons Ratio (y) = 0.05292 -0.11668
# Poissons Ratio (z) = 0.20007 -0.08135
#
# Static dielectric constant tensor:
#      x y z
#    x 1.695280 0.022550 -0.000800 
#    y 0.022550 1.734630 0.001910 
#    z -0.000800 0.001910 1.750470 
# 
# From -- ./inp_files/169349.got.cif
#   From: 2010.05.17/outbox.cif.g08.bks.cpg/sg2_85_cif.got.tgz:169349.got - 2010.06.03 11:33:40.
