data_PCOD9006262
_publ_section_title
;
Structure prediction by ZEFSAII (Michael W. Deem and Ramdas Pophale) SiO2 
 PCOD9006262
Probable space group: P -1
;
_chemical_formula_sum "Si O2"
_cell_formula_units_Z 14
_cell_length_a 12.755255
_cell_length_b 10.628375
_cell_length_c 20.607050
_cell_angle_alpha 135.723768
_cell_angle_beta 26.190240
_cell_angle_gamma 147.348857
_cell_volume 655.985163
_symmetry_space_group_name_H-M "P -1"
_symmetry_group_IT_number 2
_symmetry_cell_setting 'triclinic'
loop_
_space_group_symop_operation_xyz
x,y,z
-x,-y,-z
loop_
_atom_site_type_symbol
_atom_site_label
_atom_site_fract_x
_atom_site_fract_y
_atom_site_fract_z
Si Si1 0.732534 0.869886 0.831000
Si Si2 0.766800 0.597955 0.810593
Si Si3 0.954776 0.792743 0.912389
Si Si4 0.026043 0.690777 0.366645
Si Si5 0.954237 0.365241 0.908929
Si Si6 0.350530 0.657070 0.673842
Si Si7 0.911586 0.954694 0.613889
O O1 0.837892 0.734984 0.755066
O O2 0.890566 0.123053 0.869136
O O3 0.360143 0.717298 0.982014
O O4 0.817714 0.914348 0.724738
O O5 0.961587 0.794841 0.831359
O O6 0.825906 0.413603 0.720962
O O7 0.397158 0.448997 0.969451
O O8 0.215925 0.791326 0.794769
O O9 0.000000 0.000000 0.000000
O O10 0.810299 0.511709 0.362349
O O11 0.233070 0.944304 0.306986
O O12 0.860702 0.734223 0.528548
O O13 0.221621 0.513518 0.760142
O O14 0.000000 0.500000 0.000000
O O15 0.716731 0.835192 0.522909
#
# Coordination Sequence:
#
# PCOD9006262 Si02
#       7
#     2   2   2   2   2   2   2
#     4  11  25  43  62 101 130 165 209 272 320 373
#     4  10  22  40  63  93 131 163 208 268 317 371
#     4  10  21  38  65  92 124 170 211 255 315 384
#     4  10  23  41  64  93 125 172 211 259 314 384
#     4  11  26  40  66  95 132 167 214 264 319 373
#     4  11  22  42  64  94 122 167 220 259 303 391
#     4  11  24  40  69  89 128 170 217 255 318 378
#
# _framework density 21.341947000000001
#
# number of rings (size 3 to 8) (size 9 to 14) (size 15 to 20)
#    0.000    1.429    2.857    1.286    6.000    0.571 
#    0.000    2.857    0.000    0.000    0.000    0.000 
#    0.000    0.000    0.000    0.000    0.000    0.000 
#
# Total GULP energy -78123.767931 kJ/mol
# GULP energy per Si atom -5580.269138 kJ/mol
# Density = 2.129337 g / cm^3
# Si number density = 21.341947 Si / 1000 Ang^3
#
#
#
# Elastic Constant Matrix: (Units=GPa)
#
#
# Indices 1 2 3 4 5 6 
#
# 1 101.9528 54.2610 39.4148 6.4522 -2.9463 -34.2074
# 2 54.2610 84.0613 49.1434 23.7352 0.8736 -20.9729
# 3 39.4148 49.1434 95.7817 7.4730 -3.3489 -10.7125
# 4 6.4522 23.7352 7.4730 50.3772 3.4490 -5.5734
# 5 -2.9463 0.8736 -3.3489 3.4490 43.3030 7.7714
# 6 -34.2074 -20.9729 -10.7125 -5.5734 7.7714 39.2094
#
#
#
# Elastic Compliance Matrix: (Units=1/GPa)
#
#
# Indices 1 2 3 4 5 6 
#
# 1 0.019351 -0.009175 -0.002222 0.003590 -0.001128 0.012102
# 2 -0.009175 0.026274 -0.008724 -0.009515 -0.001541 0.002619
# 3 -0.002222 -0.008724 0.015477 0.001726 0.001521 -0.002432
# 4 0.003590 -0.009515 0.001726 0.023988 -0.001748 0.002270
# 5 -0.001128 -0.001541 0.001521 -0.001748 0.024469 -0.006491
# 6 0.012102 0.002619 -0.002432 0.002270 -0.006491 0.038408
#
#
# Mechanical properties :
#
#
# Convention : Reuss Voigt Hill
#
# Bulk Modulus (GPa) = 47.93433 63.04823 55.49128
# Shear Modulus (GPa) = 25.61969 35.84303 30.73136
#
# Velocity S-wave (km/s) = 3.46849 4.10257 3.79879
# Velocity P-wave (km/s) = 6.20882 7.21440 6.73042
#
# Compressibility (1/GPa) = 0.02086188
#
# Stress axis : x y z
#
# Youngs Moduli (GPa) = 51.67751 38.05975 64.61080
#
# Poissons Ratio (x) = 0.34918 0.14355
# Poissons Ratio (y) = 0.47412 0.56367
# Poissons Ratio (z) = 0.11482 0.33204
#
# Static dielectric constant tensor:
#      x y z
#    x 1.822080 0.027510 -0.006970 
#    y 0.027510 1.838800 0.018850 
#    z -0.006970 0.018850 1.786020 
# 
# From -- ./inp_files/566906.got.cif
#   From: 2010.05.17/outbox.cif.g08.bks.cpg/sg2_284_cif.got.tgz:566906.got - 2010.06.03 11:33:40.
