data_PCOD9006863
_publ_section_title
;
Structure prediction by ZEFSAII (Michael W. Deem and Ramdas Pophale) SiO2 
 PCOD9006863
Probable space group: P -1
;
_chemical_formula_sum "Si O2"
_cell_formula_units_Z 16
_cell_length_a 8.957842
_cell_length_b 8.580222
_cell_length_c 20.340020
_cell_angle_alpha 122.724519
_cell_angle_beta 58.731328
_cell_angle_gamma 75.894321
_cell_volume 769.332668
_symmetry_space_group_name_H-M "P -1"
_symmetry_group_IT_number 2
_symmetry_cell_setting 'triclinic'
loop_
_space_group_symop_operation_xyz
x,y,z
-x,-y,-z
loop_
_atom_site_type_symbol
_atom_site_label
_atom_site_fract_x
_atom_site_fract_y
_atom_site_fract_z
Si Si1 0.866009 0.298946 0.604552
Si Si2 0.677980 0.611587 0.842600
Si Si3 0.352079 0.181075 0.452927
Si Si4 0.829852 0.720039 0.032499
Si Si5 0.809899 0.348805 0.321055
Si Si6 0.520189 0.243794 0.304804
Si Si7 0.618028 0.065724 0.895733
Si Si8 0.857076 0.567396 0.234884
O O1 0.707075 0.438247 0.740157
O O2 0.685306 0.481215 0.626126
O O3 0.087248 0.283104 0.551943
O O4 0.000000 0.000000 0.500000
O O5 0.946706 0.437964 0.778373
O O6 0.618847 0.851651 0.873335
O O7 0.471769 0.746188 0.977821
O O8 0.340036 0.385018 0.540814
O O9 0.386343 0.196645 0.371528
O O10 0.588756 0.872534 0.351613
O O11 0.595622 0.769695 0.073932
O O12 0.703096 0.001181 0.155691
O O13 0.000000 0.500000 0.000000
O O14 0.005862 0.608960 0.902755
O O15 0.677361 0.256250 0.319571
O O16 0.832448 0.423425 0.260573
O O17 0.095753 0.108276 0.229191
#
# Coordination Sequence:
#
# PCOD9006863 Si02
#       8
#     2   2   2   2   2   2   2   2
#     4  12  25  42  67 100 130 168 221 276 324 385
#     4   9  18  37  65  92 122 164 214 268 314 381
#     4  12  23  44  64  91 138 179 210 265 335 394
#     4  11  21  42  66  95 132 172 215 271 336 380
#     4  11  23  41  67  95 126 178 226 263 316 393
#     4  12  26  42  65  97 137 170 218 272 328 385
#     4   9  18  39  66  89 121 173 212 260 326 381
#     4  10  21  38  71  91 125 177 221 262 324 386
#
# _framework density 20.797245
#
# number of rings (size 3 to 8) (size 9 to 14) (size 15 to 20)
#    0.000    1.250    5.000    2.625    1.750    0.500 
#    2.250    0.625    0.000    0.000    0.000    0.000 
#    0.000    0.000    0.000    0.000    0.000    0.000 
#
# Total GULP energy -89441.320974 kJ/mol
# GULP energy per Si atom -5590.082561 kJ/mol
# Density = 2.074991 g / cm^3
# Si number density = 20.797245 Si / 1000 Ang^3
#
#
#
# Elastic Constant Matrix: (Units=GPa)
#
#
# Indices 1 2 3 4 5 6 
#
# 1 63.1360 21.6917 37.9174 3.6075 0.7199 -18.4578
# 2 21.6917 45.1312 23.9596 1.2561 -9.5339 -26.7633
# 3 37.9174 23.9596 117.0248 -2.0226 3.1624 -7.8273
# 4 3.6075 1.2561 -2.0226 27.7834 -12.0505 -5.4703
# 5 0.7199 -9.5339 3.1624 -12.0505 35.1417 8.6632
# 6 -18.4578 -26.7633 -7.8273 -5.4703 8.6632 30.3303
#
#
#
# Elastic Compliance Matrix: (Units=1/GPa)
#
#
# Indices 1 2 3 4 5 6 
#
# 1 0.024191 -0.001744 -0.006599 -0.003064 -0.004432 0.012193
# 2 -0.001744 0.055352 -0.007790 0.009468 0.007849 0.045236
# 3 -0.006599 -0.007790 0.011810 0.000089 -0.001163 -0.007494
# 4 -0.003064 0.009468 0.000089 0.044664 0.015435 0.010159
# 5 -0.004432 0.007849 -0.001163 0.015435 0.037026 -0.003863
# 6 0.012193 0.045236 -0.007494 0.010159 -0.003863 0.081308
#
#
# Mechanical properties :
#
#
# Convention : Reuss Voigt Hill
#
# Bulk Modulus (GPa) = 16.92453 43.60327 30.26390
# Shear Modulus (GPa) = 16.32317 28.09929 22.21123
#
# Velocity S-wave (km/s) = 2.80460 3.67973 3.27156
# Velocity P-wave (km/s) = 4.31778 6.25022 5.37161
#
# Compressibility (1/GPa) = 0.05908585
#
# Stress axis : x y z
#
# Youngs Moduli (GPa) = 41.33712 18.06633 84.67402
#
# Poissons Ratio (x) = 0.03152 0.55875
# Poissons Ratio (y) = 0.07211 0.65963
# Poissons Ratio (z) = 0.27278 0.14074
#
# Static dielectric constant tensor:
#      x y z
#    x 1.746200 -0.002700 -0.001590 
#    y -0.002700 1.722510 -0.009800 
#    z -0.001590 -0.009800 1.749190 
# 
# From -- ./inp_files/318136.got.cif
#   From: 2010.05.17/outbox.cif.g08.bks.cpg/sg2_160_cif.got.tgz:318136.got - 2010.06.03 11:33:40.
