data_PCOD9006456
_publ_section_title
;
Structure prediction by ZEFSAII (Michael W. Deem and Ramdas Pophale) SiO2 
 PCOD9006456
Probable space group: P -1
;
_chemical_formula_sum "Si O2"
_cell_formula_units_Z 14
_cell_length_a 11.535140
_cell_length_b 14.201452
_cell_length_c 19.823669
_cell_angle_alpha 22.870463
_cell_angle_beta 32.496614
_cell_angle_gamma 44.122194
_cell_volume 650.185011
_symmetry_space_group_name_H-M "P -1"
_symmetry_group_IT_number 2
_symmetry_cell_setting 'triclinic'
loop_
_space_group_symop_operation_xyz
x,y,z
-x,-y,-z
loop_
_atom_site_type_symbol
_atom_site_label
_atom_site_fract_x
_atom_site_fract_y
_atom_site_fract_z
Si Si1 0.669643 0.154686 0.234726
Si Si2 0.996857 0.352835 0.273620
Si Si3 0.616558 0.292435 0.601341
Si Si4 0.418784 0.385895 0.310772
Si Si5 0.982376 0.295797 0.525361
Si Si6 0.174832 0.017371 0.506281
Si Si7 0.374645 0.839246 0.104931
O O1 0.612271 0.322414 0.213793
O O2 0.435275 0.074213 0.361338
O O3 0.701404 0.890589 0.417228
O O4 0.890500 0.349599 0.967689
O O5 0.760409 0.250805 0.494892
O O6 0.156144 0.214905 0.326384
O O7 0.942326 0.253506 0.290096
O O8 0.500000 0.500000 0.500000
O O9 0.805007 0.383224 0.508271
O O10 0.436138 0.038256 0.882749
O O11 0.472198 0.605359 0.194363
O O12 0.237694 0.464191 0.299787
O O13 0.874509 0.251395 0.682047
O O14 0.030363 0.067794 0.608022
O O15 0.500000 0.000000 0.000000
#
# Coordination Sequence:
#
# PCOD9006456 Si02
#       7
#     2   2   2   2   2   2   2
#     4  10  22  39  63  95 131 162 210 268 301 391
#     4  10  21  38  66  89 132 169 201 269 317 370
#     4  10  23  41  60  95 121 164 219 249 314 384
#     4  10  22  40  61  95 124 163 216 252 325 368
#     4   9  20  41  62  89 125 165 202 264 310 368
#     4   9  20  38  63  98 125 164 216 248 329 374
#     4  10  22  39  67  84 127 168 203 264 307 369
#
# _framework density 21.532333000000001
#
# number of rings (size 3 to 8) (size 9 to 14) (size 15 to 20)
#    0.000    2.286    0.000    0.857   10.000    2.286 
#    2.571    2.857    0.000    0.000    0.000    0.000 
#    0.000    0.000    0.000    0.000    0.000    0.000 
#
# Total GULP energy -77978.799693 kJ/mol
# GULP energy per Si atom -5569.914264 kJ/mol
# Density = 2.148332 g / cm^3
# Si number density = 21.532333 Si / 1000 Ang^3
#
#
#
# Elastic Constant Matrix: (Units=GPa)
#
#
# Indices 1 2 3 4 5 6 
#
# 1 75.3159 48.2376 28.7554 -11.8719 -11.7807 2.9721
# 2 48.2376 88.5819 32.1707 -8.3083 0.2907 6.5206
# 3 28.7554 32.1707 84.4424 -11.2091 5.6935 15.0663
# 4 -11.8719 -8.3083 -11.2091 25.9765 6.6699 -1.7964
# 5 -11.7807 0.2907 5.6935 6.6699 24.4065 -3.5271
# 6 2.9721 6.5206 15.0663 -1.7964 -3.5271 23.5768
#
#
#
# Elastic Compliance Matrix: (Units=1/GPa)
#
#
# Indices 1 2 3 4 5 6 
#
# 1 0.025570 -0.012095 -0.005881 0.002064 0.014184 0.006159
# 2 -0.012095 0.018945 -0.001919 0.001116 -0.006407 -0.003362
# 3 -0.005881 -0.001919 0.018173 0.006438 -0.010464 -0.011416
# 4 0.002064 0.001116 0.006438 0.045820 -0.013505 -0.003212
# 5 0.014184 -0.006407 -0.010464 -0.013505 0.056055 0.014028
# 6 0.006159 -0.003362 -0.011416 -0.003212 0.014028 0.051717
#
#
# Mechanical properties :
#
#
# Convention : Reuss Voigt Hill
#
# Bulk Modulus (GPa) = 43.66977 51.85196 47.76087
# Shear Modulus (GPa) = 18.96072 24.07037 21.51555
#
# Velocity S-wave (km/s) = 2.97066 3.34709 3.16447
# Velocity P-wave (km/s) = 5.66493 6.25064 5.96498
#
# Compressibility (1/GPa) = 0.02289913
#
# Stress axis : x y z
#
# Youngs Moduli (GPa) = 39.10828 52.78314 55.02634
#
# Poissons Ratio (x) = 0.63840 0.32360
# Poissons Ratio (y) = 0.47301 0.10560
# Poissons Ratio (z) = 0.22999 0.10129
#
# Static dielectric constant tensor:
#      x y z
#    x 1.933340 -0.021730 0.107630 
#    y -0.021730 1.890640 -0.011450 
#    z 0.107630 -0.011450 2.000010 
# 
# From -- ./inp_files/184120.got.cif
#   From: 2010.05.17/outbox.cif.g08.bks.cpg/sg2_93_cif.got.tgz:184120.got - 2010.06.03 11:33:40.
