data_PCOD9006487
_publ_section_title
;
Structure prediction by ZEFSAII (Michael W. Deem and Ramdas Pophale) SiO2 
 PCOD9006487
Probable space group: P -1
;
_chemical_formula_sum "Si O2"
_cell_formula_units_Z 14
_cell_length_a 7.172422
_cell_length_b 4.967261
_cell_length_c 21.769918
_cell_angle_alpha 65.330818
_cell_angle_beta 101.968594
_cell_angle_gamma 137.242882
_cell_volume 472.282876
_symmetry_space_group_name_H-M "P -1"
_symmetry_group_IT_number 2
_symmetry_cell_setting 'triclinic'
loop_
_space_group_symop_operation_xyz
x,y,z
-x,-y,-z
loop_
_atom_site_type_symbol
_atom_site_label
_atom_site_fract_x
_atom_site_fract_y
_atom_site_fract_z
Si Si1 0.459195 0.561956 0.888230
Si Si2 0.295681 0.916183 0.654950
Si Si3 0.647501 0.542953 0.776241
Si Si4 0.296959 0.005485 0.512691
Si Si5 0.215984 0.487702 0.995031
Si Si6 0.849161 0.862434 0.631014
Si Si7 0.896708 0.450558 0.201146
O O1 0.629879 0.718635 0.820083
O O2 0.426943 0.755834 0.925281
O O3 0.157727 0.304385 0.861938
O O4 0.582326 0.420581 0.947617
O O5 0.191613 0.756170 0.593610
O O6 0.621294 0.352247 0.642902
O O7 0.171517 0.560747 0.731137
O O8 0.142939 0.051009 0.648003
O O9 0.720063 0.804721 0.693505
O O10 0.852542 0.490014 0.800396
O O11 0.359620 0.050874 0.789368
O O12 0.500000 0.500000 0.500000
O O13 0.119369 0.917626 0.451150
O O14 0.500000 0.000000 0.500000
O O15 0.000000 0.500000 0.000000
O O16 0.000000 0.000000 0.000000
#
# Coordination Sequence:
#
# PCOD9006487 Si02
#       7
#     2   2   2   2   2   2   2
#     4  11  26  40  74  99 142 180 230 287 344 422
#     4   9  19  39  61  93 132 178 229 285 339 406
#     4  10  23  41  67  99 140 182 234 286 349 413
#     4  10  21  38  66  92 134 182 232 286 344 404
#     4  11  28  49  74 106 141 182 233 283 348 420
#     4   9  19  39  61  93 132 178 229 285 339 406
#     4  10  23  41  67  99 140 182 234 286 349 413
#
# _framework density 29.643252
#
# number of rings (size 3 to 8) (size 9 to 14) (size 15 to 20)
#    0.000    2.000    0.000    1.286   10.000    1.143 
#    0.000   11.429    0.000    0.000    0.000    0.000 
#    0.000    0.000    0.000    0.000    0.000    0.000 
#
# Total GULP energy -78249.915081 kJ/mol
# GULP energy per Si atom -5589.279649 kJ/mol
# Density = 2.957578 g / cm^3
# Si number density = 29.643252 Si / 1000 Ang^3
#
#
#
# Elastic Constant Matrix: (Units=GPa)
#
#
# Indices 1 2 3 4 5 6 
#
# 1 230.3153 65.5764 75.5529 18.4077 -8.4040 -0.1877
# 2 65.5764 99.9534 32.1399 20.6759 -2.3594 3.7806
# 3 75.5529 32.1399 322.8875 21.5795 -21.6268 -2.9154
# 4 18.4077 20.6759 21.5795 49.0767 7.0420 -7.6950
# 5 -8.4040 -2.3594 -21.6268 7.0420 75.3130 13.6720
# 6 -0.1877 3.7806 -2.9154 -7.6950 13.6720 58.7815
#
#
#
# Elastic Compliance Matrix: (Units=1/GPa)
#
#
# Indices 1 2 3 4 5 6 
#
# 1 0.005634 -0.003322 -0.000947 -0.000323 0.000268 0.000080
# 2 -0.003322 0.013285 -0.000203 -0.004623 0.000719 -0.001647
# 3 -0.000947 -0.000203 0.003493 -0.001282 0.001053 -0.000229
# 4 -0.000323 -0.004623 -0.001282 0.024186 -0.003579 0.004231
# 5 0.000268 0.000719 0.001053 -0.003579 0.014670 -0.003874
# 6 0.000080 -0.001647 -0.000229 0.004231 -0.003874 0.018562
#
#
# Mechanical properties :
#
#
# Convention : Reuss Voigt Hill
#
# Bulk Modulus (GPa) = 74.24942 111.07719 92.66330
# Shear Modulus (GPa) = 53.61175 68.62670 61.11923
#
# Velocity S-wave (km/s) = 4.25734 4.81675 4.54566
# Velocity P-wave (km/s) = 7.01916 8.27572 7.67320
#
# Compressibility (1/GPa) = 0.01346812
#
# Stress axis : x y z
#
# Youngs Moduli (GPa) = 177.49140 75.27479 286.28312
#
# Poissons Ratio (x) = 0.25003 0.27123
# Poissons Ratio (y) = 0.58954 0.05808
# Poissons Ratio (z) = 0.16816 0.01527
#
# Static dielectric constant tensor:
#      x y z
#    x 2.190390 -0.010890 0.018390 
#    y -0.010890 2.506390 -0.157180 
#    z 0.018390 -0.157180 2.779990 
# 
# From -- ./inp_files/9615.got.cif
#   From: 2010.05.17/outbox.cif.g08.bks.cpg/sg2_5_cif.got.tgz:9615.got - 2010.06.03 11:33:40.
