data_PCOD9006204
_publ_section_title
;
Structure prediction by ZEFSAII (Michael W. Deem and Ramdas Pophale) SiO2 
 PCOD9006204
Probable space group: P -1
;
_chemical_formula_sum "Si O2"
_cell_formula_units_Z 10
_cell_length_a 9.802837
_cell_length_b 7.460626
_cell_length_c 5.539150
_cell_angle_alpha 96.186657
_cell_angle_beta 80.198953
_cell_angle_gamma 111.473205
_cell_volume 371.029578
_symmetry_space_group_name_H-M "P -1"
_symmetry_group_IT_number 2
_symmetry_cell_setting 'triclinic'
loop_
_space_group_symop_operation_xyz
x,y,z
-x,-y,-z
loop_
_atom_site_type_symbol
_atom_site_label
_atom_site_fract_x
_atom_site_fract_y
_atom_site_fract_z
Si Si1 0.548908 0.681851 0.332091
Si Si2 0.640382 0.383283 0.014461
Si Si3 0.957712 0.779484 0.572697
Si Si4 0.680233 0.854487 0.727260
Si Si5 0.892887 0.241386 0.959365
O O1 0.500000 0.500000 0.500000
O O2 0.634092 0.594977 0.100335
O O3 0.652795 0.876564 0.451771
O O4 0.399940 0.685013 0.258583
O O5 0.491647 0.228833 0.154715
O O6 0.792387 0.370086 0.046080
O O7 0.011944 0.691914 0.309558
O O8 0.782081 0.721530 0.652047
O O9 0.026090 0.770399 0.815380
O O10 0.000000 0.000000 0.500000
O O11 0.773010 0.032994 0.887181
#
# Coordination Sequence:
#
# PCOD9006204 Si02
#       5
#     2   2   2   2   2
#     4   9  21  39  61  84 125 161 205 247 315 354
#     4  10  22  39  63  90 121 160 208 258 296 359
#     4  10  23  41  60  92 132 162 191 250 317 365
#     4  10  21  38  65  88 121 164 201 244 313 367
#     4  11  24  39  65  96 125 154 207 257 299 359
#
# _framework density 26.952029
#
# number of rings (size 3 to 8) (size 9 to 14) (size 15 to 20)
#    0.000    2.000    0.000    3.000   14.000    0.800 
#    0.000    2.000    0.000    0.000    0.000    0.000 
#    0.000    0.000    0.000    0.000    0.000    0.000 
#
# Total GULP energy -55755.141565 kJ/mol
# GULP energy per Si atom -5575.514157 kJ/mol
# Density = 2.689069 g / cm^3
# Si number density = 26.952029 Si / 1000 Ang^3
#
#
#
# Elastic Constant Matrix: (Units=GPa)
#
#
# Indices 1 2 3 4 5 6 
#
# 1 118.0578 37.6523 81.1821 8.0196 8.5813 -5.6840
# 2 37.6523 52.4783 39.1139 21.6492 7.4456 16.9772
# 3 81.1821 39.1139 181.2699 -7.1641 26.9960 16.5319
# 4 8.0196 21.6492 -7.1641 37.9629 16.3203 0.3658
# 5 8.5813 7.4456 26.9960 16.3203 72.7773 -7.0164
# 6 -5.6840 16.9772 16.5319 0.3658 -7.0164 41.1690
#
#
#
# Elastic Compliance Matrix: (Units=1/GPa)
#
#
# Indices 1 2 3 4 5 6 
#
# 1 0.016477 -0.010741 -0.006270 0.000369 0.002326 0.009615
# 2 -0.010741 0.046931 -0.005078 -0.026357 0.002511 -0.018135
# 3 -0.006270 -0.005078 0.010885 0.008497 -0.005078 -0.004084
# 4 0.000369 -0.026357 0.008497 0.047414 -0.010623 0.005276
# 5 0.002326 0.002511 -0.005078 -0.010623 0.017906 0.004471
# 6 0.009615 -0.018135 -0.004084 0.005276 0.004471 0.035451
#
#
# Mechanical properties :
#
#
# Convention : Reuss Voigt Hill
#
# Bulk Modulus (GPa) = 33.20735 74.18919 53.69827
# Shear Modulus (GPa) = 21.80751 43.30569 32.55660
#
# Velocity S-wave (km/s) = 2.84759 4.01280 3.47932
# Velocity P-wave (km/s) = 4.81242 7.00402 6.00898
#
# Compressibility (1/GPa) = 0.03011382
#
# Stress axis : x y z
#
# Youngs Moduli (GPa) = 60.69243 21.30808 91.87043
#
# Poissons Ratio (x) = 0.22887 0.57604
# Poissons Ratio (y) = 0.65190 0.46651
# Poissons Ratio (z) = 0.38055 0.10820
#
# Static dielectric constant tensor:
#      x y z
#    x 2.079080 0.016050 -0.060230 
#    y 0.016050 2.156070 -0.037580 
#    z -0.060230 -0.037580 2.560520 
# 
# From -- ./inp_files/15820.got.cif
#   From: 2010.05.17/outbox.cif.g08.bks.cpg/sg2_8_cif.got.tgz:15820.got - 2010.06.03 11:33:40.
