data_PCOD9006837
_publ_section_title
;
Structure prediction by ZEFSAII (Michael W. Deem and Ramdas Pophale) SiO2 
 PCOD9006837
Probable space group: P -1
;
_chemical_formula_sum "Si O2"
_cell_formula_units_Z 16
_cell_length_a 11.358565
_cell_length_b 9.566260
_cell_length_c 13.069534
_cell_angle_alpha 111.565713
_cell_angle_beta 34.299489
_cell_angle_gamma 100.734335
_cell_volume 725.331622
_symmetry_space_group_name_H-M "P -1"
_symmetry_group_IT_number 2
_symmetry_cell_setting 'triclinic'
loop_
_space_group_symop_operation_xyz
x,y,z
-x,-y,-z
loop_
_atom_site_type_symbol
_atom_site_label
_atom_site_fract_x
_atom_site_fract_y
_atom_site_fract_z
Si Si1 0.453963 0.669676 0.120478
Si Si2 0.926375 0.974654 0.297583
Si Si3 0.955309 0.329115 0.001220
Si Si4 0.566962 0.907895 0.684960
Si Si5 0.532247 0.575115 0.604813
Si Si6 0.782818 0.034515 0.733651
Si Si7 0.664970 0.279335 0.556309
Si Si8 0.261673 0.194228 0.908857
O O1 0.338274 0.790231 0.152785
O O2 0.307251 0.692606 0.334719
O O3 0.670539 0.715731 0.018223
O O4 0.500000 0.500000 0.000000
O O5 0.734715 0.977023 0.516673
O O6 0.136460 0.984816 0.213746
O O7 0.838937 0.136861 0.347619
O O8 0.945318 0.818036 0.180027
O O9 0.705152 0.358388 0.165334
O O10 0.000000 0.500000 0.000000
O O11 0.035327 0.266436 0.039967
O O12 0.619588 0.728187 0.574759
O O13 0.627039 0.936203 0.767054
O O14 0.339185 0.013931 0.837796
O O15 0.500000 0.500000 0.500000
O O16 0.656068 0.438360 0.549170
O O17 0.000000 0.000000 0.500000
O O18 0.430890 0.234020 0.711849
#
# Coordination Sequence:
#
# PCOD9006837 Si02
#       8
#     2   2   2   2   2   2   2   2
#     4   9  17  32  62  92 120 148 198 257 286 343
#     4  10  21  38  70  86 116 161 210 250 282 369
#     4  12  23  38  62  92 113 156 217 247 284 367
#     4   9  20  39  61  87 121 162 189 252 309 352
#     4  12  26  41  57  86 132 159 194 253 319 348
#     4   9  16  36  61  89 113 153 207 234 299 355
#     4   9  20  40  57  91 121 159 201 239 308 351
#     4   8  19  37  59  88 116 151 211 237 297 352
#
# _framework density 22.058875
#
# number of rings (size 3 to 8) (size 9 to 14) (size 15 to 20)
#    0.750    1.500    3.750    0.750    5.250    1.500 
#    0.000    1.250    0.000    0.000    0.000    0.000 
#    0.000    0.000    0.000    0.000    0.000    0.000 
#
# Total GULP energy -89165.788293 kJ/mol
# GULP energy per Si atom -5572.861768 kJ/mol
# Density = 2.200867 g / cm^3
# Si number density = 22.058875 Si / 1000 Ang^3
#
#
#
# Elastic Constant Matrix: (Units=GPa)
#
#
# Indices 1 2 3 4 5 6 
#
# 1 75.2103 44.0182 23.7739 28.4562 -11.9622 -7.3360
# 2 44.0182 115.4434 32.5698 52.5153 3.7365 -12.6020
# 3 23.7739 32.5698 74.7549 41.4438 1.9303 0.1290
# 4 28.4562 52.5153 41.4438 50.3491 3.0211 0.5341
# 5 -11.9622 3.7365 1.9303 3.0211 27.9820 11.7270
# 6 -7.3360 -12.6020 0.1290 0.5341 11.7270 22.9267
#
#
#
# Elastic Compliance Matrix: (Units=1/GPa)
#
#
# Indices 1 2 3 4 5 6 
#
# 1 0.020599 -0.005698 -0.001536 -0.005078 0.011097 -0.002090
# 2 -0.005698 0.022473 0.005929 -0.024674 -0.009956 0.016163
# 3 -0.001536 0.005929 0.026177 -0.026778 -0.002193 0.004366
# 4 -0.005078 -0.024674 -0.026778 0.070522 0.002988 -0.018208
# 5 0.011097 -0.009956 -0.002193 0.002988 0.054057 -0.029629
# 6 -0.002090 0.016163 0.004366 -0.018208 -0.029629 0.067388
#
#
# Mechanical properties :
#
#
# Convention : Reuss Voigt Hill
#
# Bulk Modulus (GPa) = 15.00632 51.79249 33.39940
# Shear Modulus (GPa) = 17.48014 31.25468 24.36741
#
# Velocity S-wave (km/s) = 2.81807 3.76822 3.32724
# Velocity P-wave (km/s) = 4.17209 6.51635 5.47125
#
# Compressibility (1/GPa) = 0.06663859
#
# Stress axis : x y z
#
# Youngs Moduli (GPa) = 48.54585 44.49755 38.20171
#
# Poissons Ratio (x) = 0.25357 0.05868
# Poissons Ratio (y) = 0.27664 -0.22651
# Poissons Ratio (z) = 0.07457 -0.26384
#
# Static dielectric constant tensor:
#      x y z
#    x 1.819950 0.004450 -0.035220 
#    y 0.004450 1.947740 -0.047540 
#    z -0.035220 -0.047540 1.857800 
# 
# From -- ./inp_files/516057.got.cif
#   From: 2010.05.17/outbox.cif.g08.bks.cpg/sg2_259_cif.got.tgz:516057.got - 2010.06.03 11:33:40.
