data_PCOD9006296
_publ_section_title
;
Structure prediction by ZEFSAII (Michael W. Deem and Ramdas Pophale) SiO2 
 PCOD9006296
Probable space group: P -1
;
_chemical_formula_sum "Si O2"
_cell_formula_units_Z 14
_cell_length_a 12.592293
_cell_length_b 13.312898
_cell_length_c 14.079839
_cell_angle_alpha 129.846781
_cell_angle_beta 29.902104
_cell_angle_gamma 146.809060
_cell_volume 612.331197
_symmetry_space_group_name_H-M "P -1"
_symmetry_group_IT_number 2
_symmetry_cell_setting 'triclinic'
loop_
_space_group_symop_operation_xyz
x,y,z
-x,-y,-z
loop_
_atom_site_type_symbol
_atom_site_label
_atom_site_fract_x
_atom_site_fract_y
_atom_site_fract_z
Si Si1 0.258024 0.193639 0.478578
Si Si2 0.318514 0.024536 0.093013
Si Si3 0.224473 0.719477 0.759928
Si Si4 0.413146 0.588120 0.179266
Si Si5 0.875232 0.508745 0.470208
Si Si6 0.470057 0.088966 0.793766
Si Si7 0.287458 0.562021 0.873447
O O1 0.495468 0.191977 0.332475
O O2 0.468553 0.381151 0.360673
O O3 0.000000 0.000000 0.500000
O O4 0.045659 0.154449 0.703466
O O5 0.491231 0.235960 0.119141
O O6 0.358377 0.031987 0.954418
O O7 0.500000 0.000000 0.000000
O O8 0.203703 0.583019 0.626611
O O9 0.324833 0.898341 0.739335
O O10 0.905171 0.598040 0.992397
O O11 0.057401 0.465984 0.349324
O O12 0.603371 0.803081 0.129448
O O13 0.395060 0.570590 0.296319
O O14 0.500000 0.500000 0.000000
O O15 0.148721 0.740892 0.395722
O O16 0.000000 0.500000 0.000000
#
# Coordination Sequence:
#
# PCOD9006296 Si02
#       7
#     2   2   2   2   2   2   2
#     4   9  20  35  59  89 126 182 223 269 320 382
#     4  11  20  37  58  90 133 171 223 269 331 390
#     4  11  20  40  65  94 132 169 230 269 328 400
#     4   9  20  44  69  96 132 169 214 275 346 401
#     4   9  21  42  67  95 129 172 215 276 340 382
#     4  10  21  38  65  93 130 176 208 276 338 379
#     4   9  17  34  58  82 123 170 215 273 310 378
#
# _framework density 22.863441999999999
#
# number of rings (size 3 to 8) (size 9 to 14) (size 15 to 20)
#    0.857    1.429    1.429    2.571    0.000    1.714 
#    2.571    8.571    3.143    0.000    0.000    0.000 
#    0.000    0.000    0.000    0.000    0.000    0.000 
#
# Total GULP energy -78039.694889 kJ/mol
# GULP energy per Si atom -5574.263921 kJ/mol
# Density = 2.281140 g / cm^3
# Si number density = 22.863442 Si / 1000 Ang^3
#
#
#
# Elastic Constant Matrix: (Units=GPa)
#
#
# Indices 1 2 3 4 5 6 
#
# 1 28.5149 7.0347 39.5352 -10.4090 2.0959 2.9952
# 2 7.0347 118.1034 45.6862 -25.5929 9.3717 -13.4928
# 3 39.5352 45.6862 168.8179 -20.9952 24.6741 -19.5715
# 4 -10.4090 -25.5929 -20.9952 28.1925 -4.0726 1.8100
# 5 2.0959 9.3717 24.6741 -4.0726 38.5847 -1.0791
# 6 2.9952 -13.4928 -19.5715 1.8100 -1.0791 28.3787
#
#
#
# Elastic Compliance Matrix: (Units=1/GPa)
#
#
# Indices 1 2 3 4 5 6 
#
# 1 0.066254 0.003912 -0.017728 0.017144 0.008090 -0.018145
# 2 0.003912 0.011702 -0.002464 0.010003 -0.000345 0.002801
# 3 -0.017728 -0.002464 0.012629 -0.000886 -0.006350 0.009225
# 4 0.017144 0.010003 -0.000886 0.050637 0.002528 -0.000798
# 5 0.008090 -0.000345 -0.006350 0.002528 0.029765 -0.004427
# 6 -0.018145 0.002801 0.009225 -0.000798 -0.004427 0.044729
#
#
# Mechanical properties :
#
#
# Convention : Reuss Voigt Hill
#
# Bulk Modulus (GPa) = 17.23411 55.54981 36.39196
# Shear Modulus (GPa) = 18.68324 33.90984 26.29654
#
# Velocity S-wave (km/s) = 2.86171 3.85534 3.39507
# Velocity P-wave (km/s) = 4.29807 6.64585 5.59646
#
# Compressibility (1/GPa) = 0.05802447
#
# Stress axis : x y z
#
# Youngs Moduli (GPa) = 15.09346 85.45370 79.17995
#
# Poissons Ratio (x) = -0.33427 1.40374
# Poissons Ratio (y) = -0.05904 0.19508
# Poissons Ratio (z) = 0.26758 0.21054
#
# Static dielectric constant tensor:
#      x y z
#    x 1.936720 -0.000910 0.042640 
#    y -0.000910 1.871060 0.013790 
#    z 0.042640 0.013790 1.901330 
# 
# From -- ./inp_files/534358.got.cif
#   From: 2010.05.17/outbox.cif.g08.bks.cpg/sg2_268_cif.got.tgz:534358.got - 2010.06.03 11:33:40.
