data_PCOD9006252
_publ_section_title
;
Structure prediction by ZEFSAII (Michael W. Deem and Ramdas Pophale) SiO2 
 PCOD9006252
Probable space group: P -1
;
_chemical_formula_sum "Si O2"
_cell_formula_units_Z 12
_cell_length_a 23.615292
_cell_length_b 15.683622
_cell_length_c 14.634943
_cell_angle_alpha 29.788322
_cell_angle_beta 161.513272
_cell_angle_gamma 160.434446
_cell_volume 558.370140
_symmetry_space_group_name_H-M "P -1"
_symmetry_group_IT_number 2
_symmetry_cell_setting 'triclinic'
loop_
_space_group_symop_operation_xyz
x,y,z
-x,-y,-z
loop_
_atom_site_type_symbol
_atom_site_label
_atom_site_fract_x
_atom_site_fract_y
_atom_site_fract_z
Si Si1 0.795365 0.123894 0.819106
Si Si2 0.823073 0.754031 0.261062
Si Si3 0.160288 0.404615 0.746725
Si Si4 0.765570 0.135462 0.552390
Si Si5 0.762092 0.690620 0.416984
Si Si6 0.806607 0.417133 0.864822
O O1 0.787891 0.075213 0.744666
O O2 0.500000 0.000000 0.500000
O O3 0.026420 0.420164 0.938239
O O4 0.850208 0.980905 0.086414
O O5 0.955675 0.761071 0.370051
O O6 0.870128 0.686920 0.490287
O O7 0.500000 0.500000 0.000000
O O8 0.170797 0.617823 0.562599
O O9 0.986899 0.225735 0.735941
O O10 0.471728 0.569915 0.073955
O O11 0.468634 0.895382 0.274016
O O12 0.721282 0.540575 0.579707
O O13 0.000000 0.000000 0.500000
O O14 0.000000 0.500000 0.000000
#
# Coordination Sequence:
#
# PCOD9006252 Si02
#       6
#     2   2   2   2   2   2
#     4  12  23  41  65  97 129 166 216 267 320 376
#     4  10  21  38  65  92 120 172 207 258 322 375
#     4  10  24  44  66  89 131 176 207 269 321 378
#     4  11  24  46  64  94 133 169 218 260 324 381
#     4  11  21  41  64  96 129 159 216 263 315 383
#     4  12  25  39  68  98 127 169 214 269 317 381
#
# _framework density 21.491121
#
# number of rings (size 3 to 8) (size 9 to 14) (size 15 to 20)
#    0.000    1.000    3.333    5.000    2.333    2.667 
#    3.000    3.333    0.000    0.000    0.000    0.000 
#    0.000    0.000    0.000    0.000    0.000    0.000 
#
# Total GULP energy -66841.138417 kJ/mol
# GULP energy per Si atom -5570.094868 kJ/mol
# Density = 2.144221 g / cm^3
# Si number density = 21.491121 Si / 1000 Ang^3
#
#
#
# Elastic Constant Matrix: (Units=GPa)
#
#
# Indices 1 2 3 4 5 6 
#
# 1 148.1170 20.4762 29.9230 20.1906 6.5168 -3.7373
# 2 20.4762 72.9334 3.9792 10.7915 3.8177 -14.1106
# 3 29.9230 3.9792 43.0095 8.7953 -1.4580 -2.3266
# 4 20.1906 10.7915 8.7953 37.0507 -2.1464 -3.2996
# 5 6.5168 3.8177 -1.4580 -2.1464 33.1261 4.5690
# 6 -3.7373 -14.1106 -2.3266 -3.2996 4.5690 33.7607
#
#
#
# Elastic Compliance Matrix: (Units=1/GPa)
#
#
# Indices 1 2 3 4 5 6 
#
# 1 0.008525 -0.001577 -0.005229 -0.003066 -0.001908 -0.000117
# 2 -0.001577 0.016057 0.000600 -0.003526 -0.002652 0.006592
# 3 -0.005229 0.000600 0.027706 -0.003711 0.001804 0.000974
# 4 -0.003066 -0.003526 -0.003711 0.030779 0.002763 0.000565
# 5 -0.001908 -0.002652 0.001804 0.002763 0.031849 -0.005235
# 6 -0.000117 0.006592 0.000974 0.000565 -0.005235 0.033193
#
#
# Mechanical properties :
#
#
# Convention : Reuss Voigt Hill
#
# Bulk Modulus (GPa) = 25.07880 41.42410 33.25145
# Shear Modulus (GPa) = 28.76629 34.76627 31.76628
#
# Velocity S-wave (km/s) = 3.66255 4.02643 3.84879
# Velocity P-wave (km/s) = 5.43879 6.39789 5.93774
#
# Compressibility (1/GPa) = 0.03987431
#
# Stress axis : x y z
#
# Youngs Moduli (GPa) = 117.30539 62.27737 36.09337
#
# Poissons Ratio (x) = 0.09823 0.18874
# Poissons Ratio (y) = 0.18502 -0.02164
# Poissons Ratio (z) = 0.61340 -0.03734
#
# Static dielectric constant tensor:
#      x y z
#    x 1.797540 -0.087940 0.034510 
#    y -0.087940 1.828810 -0.006130 
#    z 0.034510 -0.006130 1.626020 
# 
# From -- ./inp_files/427069.got.cif
#   From: 2010.05.17/outbox.cif.g08.bks.cpg/sg2_214_cif.got.tgz:427069.got - 2010.06.03 11:33:40.
