data_PCOD9006406
_publ_section_title
;
Structure prediction by ZEFSAII (Michael W. Deem and Ramdas Pophale) SiO2 
 PCOD9006406
Probable space group: P -1
;
_chemical_formula_sum "Si O2"
_cell_formula_units_Z 14
_cell_length_a 15.534862
_cell_length_b 7.360070
_cell_length_c 7.751500
_cell_angle_alpha 74.024630
_cell_angle_beta 138.975643
_cell_angle_gamma 101.244213
_cell_volume 559.162713
_symmetry_space_group_name_H-M "P -1"
_symmetry_group_IT_number 2
_symmetry_cell_setting 'triclinic'
loop_
_space_group_symop_operation_xyz
x,y,z
-x,-y,-z
loop_
_atom_site_type_symbol
_atom_site_label
_atom_site_fract_x
_atom_site_fract_y
_atom_site_fract_z
Si Si1 0.878184 0.773546 0.929241
Si Si2 0.191654 0.726452 0.442806
Si Si3 0.479327 0.723295 0.942203
Si Si4 0.813305 0.150481 0.927693
Si Si5 0.110324 0.129921 0.466742
Si Si6 0.852019 0.575743 0.267709
Si Si7 0.649252 0.071189 0.018470
O O1 0.816004 0.620442 0.004137
O O2 0.035054 0.786076 0.208675
O O3 0.864031 0.765932 0.704109
O O4 0.818245 0.974008 0.848623
O O5 0.342240 0.794934 0.635418
O O6 0.179573 0.669422 0.233595
O O7 0.215433 0.569654 0.669331
O O8 0.455157 0.786344 0.088234
O O9 0.500000 0.500000 0.000000
O O10 0.588712 0.862751 0.997024
O O11 0.953457 0.124652 0.241418
O O12 0.694940 0.138201 0.883608
O O13 0.149612 0.234153 0.673469
O O14 0.209518 0.948416 0.658902
O O15 0.000000 0.500000 0.500000
#
# Coordination Sequence:
#
# PCOD9006406 Si02
#       7
#     2   2   2   2   2   2   2
#     4  10  21  38  66 100 130 173 214 270 350 403
#     4  10  22  41  62  94 136 172 220 273 331 399
#     4  11  25  45  67  88 134 184 229 285 328 391
#     4  11  22  38  68 102 128 173 221 273 348 409
#     4  11  21  40  68  99 141 170 216 281 338 411
#     4  10  22  36  59  98 139 175 215 268 337 397
#     4  11  24  42  69 100 128 182 231 271 342 400
#
# _framework density 25.037433
#
# number of rings (size 3 to 8) (size 9 to 14) (size 15 to 20)
#    0.000    1.429    1.429    4.714    4.000    5.714 
#    0.000    0.714    0.000    0.000    0.000    0.000 
#    0.000    0.000    0.000    0.000    0.000    0.000 
#
# Total GULP energy -78013.202092 kJ/mol
# GULP energy per Si atom -5572.371578 kJ/mol
# Density = 2.498045 g / cm^3
# Si number density = 25.037433 Si / 1000 Ang^3
#
#
#
# Elastic Constant Matrix: (Units=GPa)
#
#
# Indices 1 2 3 4 5 6 
#
# 1 206.6211 59.4531 35.9404 -10.7162 1.2469 23.8703
# 2 59.4531 102.0915 7.8341 -12.1660 5.5981 8.1435
# 3 35.9404 7.8341 53.7315 -6.8878 0.1160 12.2424
# 4 -10.7162 -12.1660 -6.8878 24.0041 8.3589 1.4437
# 5 1.2469 5.5981 0.1160 8.3589 38.6790 -14.4202
# 6 23.8703 8.1435 12.2424 1.4437 -14.4202 51.6092
#
#
#
# Elastic Compliance Matrix: (Units=1/GPa)
#
#
# Indices 1 2 3 4 5 6 
#
# 1 0.006662 -0.003363 -0.003456 0.000585 -0.000553 -0.001902
# 2 -0.003363 0.012870 0.001809 0.007119 -0.004141 -0.002261
# 3 -0.003456 0.001809 0.022877 0.007616 -0.003882 -0.005411
# 4 0.000585 0.007119 0.007616 0.053896 -0.016158 -0.009223
# 5 -0.000553 -0.004141 -0.003882 -0.016158 0.034410 0.011897
# 6 -0.001902 -0.002261 -0.005411 -0.009223 0.011897 0.025478
#
#
# Mechanical properties :
#
#
# Convention : Reuss Voigt Hill
#
# Bulk Modulus (GPa) = 30.87383 63.21105 47.04244
# Shear Modulus (GPa) = 28.24723 40.13957 34.19340
#
# Velocity S-wave (km/s) = 3.36251 4.00832 3.69953
# Velocity P-wave (km/s) = 5.23767 6.83547 6.08920
#
# Compressibility (1/GPa) = 0.03238989
#
# Stress axis : x y z
#
# Youngs Moduli (GPa) = 150.10688 77.69817 43.71253
#
# Poissons Ratio (x) = 0.26127 0.15109
# Poissons Ratio (y) = 0.50475 -0.07909
# Poissons Ratio (z) = 0.51882 -0.14059
#
# Static dielectric constant tensor:
#      x y z
#    x 2.114890 -0.023640 -0.138950 
#    y -0.023640 2.220560 0.008970 
#    z -0.138950 0.008970 2.070240 
# 
# From -- ./inp_files/298045.got.cif
#   From: 2010.05.17/outbox.cif.g08.bks.cpg/sg2_150_cif.got.tgz:298045.got - 2010.06.03 11:33:40.
