data_PCOD9006900
_publ_section_title
;
Structure prediction by ZEFSAII (Michael W. Deem and Ramdas Pophale) SiO2 
 PCOD9006900
Probable space group: P -1
;
_chemical_formula_sum "Si O2"
_cell_formula_units_Z 16
_cell_length_a 23.396128
_cell_length_b 11.643492
_cell_length_c 26.077241
_cell_angle_alpha 30.613279
_cell_angle_beta 10.021018
_cell_angle_gamma 30.116796
_cell_volume 617.072390
_symmetry_space_group_name_H-M "P -1"
_symmetry_group_IT_number 2
_symmetry_cell_setting 'triclinic'
loop_
_space_group_symop_operation_xyz
x,y,z
-x,-y,-z
loop_
_atom_site_type_symbol
_atom_site_label
_atom_site_fract_x
_atom_site_fract_y
_atom_site_fract_z
Si Si1 0.793416 0.807935 0.648961
Si Si2 0.759265 0.806624 0.459975
Si Si3 0.453224 0.674689 0.428310
Si Si4 0.161584 0.732898 0.950126
Si Si5 0.783550 0.880469 0.899703
Si Si6 0.292616 0.830348 0.276924
Si Si7 0.441484 0.685031 0.608063
Si Si8 0.500827 0.811392 0.798971
O O1 0.684423 0.711391 0.728233
O O2 0.095753 0.694089 0.463752
O O3 0.961347 0.019967 0.400869
O O4 0.463920 0.909156 0.934380
O O5 0.493354 0.693196 0.707051
O O6 0.715865 0.776662 0.570683
O O7 0.652789 0.078288 0.432555
O O8 0.152061 0.731300 0.129145
O O9 0.500000 0.500000 0.500000
O O10 0.613967 0.528439 0.294182
O O11 0.050575 0.745268 0.753754
O O12 0.582875 0.911464 0.227044
O O13 0.248188 0.717616 0.819513
O O14 0.842811 0.623715 0.288101
O O15 0.000000 0.000000 0.000000
O O16 0.556120 0.733071 0.126477
O O17 0.000000 0.000000 0.500000
O O18 0.500000 0.000000 0.000000
#
# Coordination Sequence:
#
# PCOD9006900 Si02
#       8
#     2   2   2   2   2   2   2   2
#     4   9  17  29  46  69  97 127 165 204 248 298
#     4  11  20  35  52  69  96 129 172 218 248 285
#     4  11  23  36  48  76 114 144 169 195 246 323
#     4  10  21  39  55  70  87 128 187 230 248 273
#     4   9  18  32  44  66  96 137 169 199 232 293
#     4   8  14  27  47  63  88 127 168 203 239 280
#     4  11  22  35  53  70  97 136 178 209 249 291
#     4  11  21  32  49  75 106 133 161 198 257 306
#
# _framework density 25.928888000000001
#
# number of rings (size 3 to 8) (size 9 to 14) (size 15 to 20)
#    0.000    2.000    1.250    5.250    0.000    3.500 
#    0.000    0.000    0.000    0.000    0.000    0.000 
#    0.000    6.000    0.000    0.000    0.000    0.500 
#
# Total GULP energy -89498.047231 kJ/mol
# GULP energy per Si atom -5593.627952 kJ/mol
# Density = 2.586987 g / cm^3
# Si number density = 25.928888 Si / 1000 Ang^3
#
#
#
# Elastic Constant Matrix: (Units=GPa)
#
#
# Indices 1 2 3 4 5 6 
#
# 1 116.9995 19.9659 32.7491 6.7901 -9.9753 -3.5082
# 2 19.9659 58.5545 12.6736 -8.6995 4.0648 8.4747
# 3 32.7491 12.6736 124.9162 1.8536 -4.9505 -14.6889
# 4 6.7901 -8.6995 1.8536 36.5410 -0.9223 -9.9384
# 5 -9.9753 4.0648 -4.9505 -0.9223 69.4944 22.6197
# 6 -3.5082 8.4747 -14.6889 -9.9384 22.6197 43.9404
#
#
#
# Elastic Compliance Matrix: (Units=1/GPa)
#
#
# Indices 1 2 3 4 5 6 
#
# 1 0.010032 -0.003332 -0.002279 -0.002719 0.001700 -0.000808
# 2 -0.003332 0.019747 -0.001606 0.004496 -0.000622 -0.003274
# 3 -0.002279 -0.001606 0.009164 0.000569 -0.000785 0.003724
# 4 -0.002719 0.004496 0.000569 0.030870 -0.002624 0.007439
# 5 0.001700 -0.000622 -0.000785 -0.002624 0.017749 -0.009737
# 6 -0.000808 -0.003274 0.003724 0.007439 -0.009737 0.031265
#
#
# Mechanical properties :
#
#
# Convention : Reuss Voigt Hill
#
# Bulk Modulus (GPa) = 40.80372 47.91638 44.36005
# Shear Modulus (GPa) = 35.35251 45.66726 40.50989
#
# Velocity S-wave (km/s) = 3.69649 4.20128 3.95694
# Velocity P-wave (km/s) = 5.83006 6.48493 6.16620
#
# Compressibility (1/GPa) = 0.02450757
#
# Stress axis : x y z
#
# Youngs Moduli (GPa) = 99.67925 50.64044 109.11925
#
# Poissons Ratio (x) = 0.16875 0.24872
# Poissons Ratio (y) = 0.33217 0.17527
# Poissons Ratio (z) = 0.22720 0.08134
#
# Static dielectric constant tensor:
#      x y z
#    x 2.256480 -0.130570 -0.065520 
#    y -0.130570 2.176130 -0.031390 
#    z -0.065520 -0.031390 2.005500 
# 
# From -- ./inp_files/620946.got.cif
#   From: 2010.05.17/outbox.cif.g08.bks.cpg/sg2_311_cif.got.tgz:620946.got - 2010.06.03 11:33:40.
