data_PCOD9006450
_publ_section_title
;
Structure prediction by ZEFSAII (Michael W. Deem and Ramdas Pophale) SiO2 
 PCOD9006450
Probable space group: P -1
;
_chemical_formula_sum "Si O2"
_cell_formula_units_Z 14
_cell_length_a 13.056854
_cell_length_b 7.412785
_cell_length_c 7.848221
_cell_angle_alpha 96.103236
_cell_angle_beta 87.869614
_cell_angle_gamma 47.846612
_cell_volume 553.844489
_symmetry_space_group_name_H-M "P -1"
_symmetry_group_IT_number 2
_symmetry_cell_setting 'triclinic'
loop_
_space_group_symop_operation_xyz
x,y,z
-x,-y,-z
loop_
_atom_site_type_symbol
_atom_site_label
_atom_site_fract_x
_atom_site_fract_y
_atom_site_fract_z
Si Si1 0.641464 0.071302 0.451590
Si Si2 0.798615 0.181193 0.323959
Si Si3 0.241464 0.408559 0.798145
Si Si4 0.299961 0.793206 0.029860
Si Si5 0.108043 0.736227 0.163325
Si Si6 0.611745 0.584699 0.739118
Si Si7 0.443996 0.950125 0.177487
O O1 0.729952 0.825067 0.302898
O O2 0.614584 0.000171 0.620838
O O3 0.726525 0.156931 0.479004
O O4 0.489790 0.303035 0.404672
O O5 0.804837 0.389947 0.321701
O O6 0.703779 0.230472 0.174015
O O7 0.953494 0.919584 0.259739
O O8 0.394548 0.294962 0.833856
O O9 0.144744 0.556125 0.986032
O O10 0.149960 0.885465 0.100724
O O11 0.398117 0.563657 0.135088
O O12 0.338646 0.952164 0.079261
O O13 0.222024 0.577225 0.290338
O O14 0.558900 0.836604 0.848704
#
# Coordination Sequence:
#
# PCOD9006450 Si02
#       7
#     2   2   2   2   2   2   2
#     4  11  25  39  64  93 126 166 203 248 312 370
#     4  11  23  42  64  93 126 158 209 253 311 368
#     4  10  21  38  66  89 123 160 202 256 308 351
#     4   9  21  37  65  90 120 159 201 261 302 352
#     4   9  22  42  62  94 123 159 205 261 307 357
#     4   9  21  39  62  91 123 154 209 254 301 360
#     4  11  23  40  63  95 125 162 206 254 306 368
#
# _framework density 25.277854000000001
#
# number of rings (size 3 to 8) (size 9 to 14) (size 15 to 20)
#    0.857    1.143    0.000    4.286    4.000    6.857 
#    2.571    1.429    3.143    0.000    0.000    0.000 
#    0.000    0.000    0.000    0.000    0.000    0.000 
#
# Total GULP energy -78206.985488 kJ/mol
# GULP energy per Si atom -5586.213249 kJ/mol
# Density = 2.522032 g / cm^3
# Si number density = 25.277854 Si / 1000 Ang^3
#
#
#
# Elastic Constant Matrix: (Units=GPa)
#
#
# Indices 1 2 3 4 5 6 
#
# 1 44.4903 13.1966 3.7794 8.8983 1.7950 8.4505
# 2 13.1966 116.9841 22.8815 15.9953 -2.5901 -8.6825
# 3 3.7794 22.8815 77.7183 -7.5633 -5.7160 -0.9573
# 4 8.8983 15.9953 -7.5633 24.4089 0.5476 -1.6079
# 5 1.7950 -2.5901 -5.7160 0.5476 38.0547 5.8813
# 6 8.4505 -8.6825 -0.9573 -1.6079 5.8813 36.8765
#
#
#
# Elastic Compliance Matrix: (Units=1/GPa)
#
#
# Indices 1 2 3 4 5 6 
#
# 1 0.026379 -0.001868 -0.001763 -0.009382 -0.000440 -0.006870
# 2 -0.001868 0.010675 -0.003734 -0.007304 -0.000032 0.002531
# 3 -0.001763 -0.003734 0.014943 0.007671 0.001974 -0.000068
# 4 -0.009382 -0.007304 0.007671 0.051745 -0.000095 0.002901
# 5 -0.000440 -0.000032 0.001974 -0.000095 0.027244 -0.004205
# 6 -0.006870 0.002531 -0.000068 0.002901 -0.004205 0.030083
#
#
# Mechanical properties :
#
#
# Convention : Reuss Voigt Hill
#
# Bulk Modulus (GPa) = 26.83266 35.43419 31.13342
# Shear Modulus (GPa) = 26.56436 33.15703 29.86070
#
# Velocity S-wave (km/s) = 3.24527 3.62567 3.44073
# Velocity P-wave (km/s) = 4.96794 5.61922 5.30359
#
# Compressibility (1/GPa) = 0.03726802
#
# Stress axis : x y z
#
# Youngs Moduli (GPa) = 37.90823 93.67615 66.92129
#
# Poissons Ratio (x) = 0.17497 0.11797
# Poissons Ratio (y) = 0.07081 0.24989
# Poissons Ratio (z) = 0.06683 0.34979
#
# Static dielectric constant tensor:
#      x y z
#    x 1.964560 0.050230 0.025710 
#    y 0.050230 2.013610 0.031220 
#    z 0.025710 0.031220 2.122680 
# 
# From -- ./inp_files/298513.got.cif
#   From: 2010.05.17/outbox.cif.g08.bks.cpg/sg2_150_cif.got.tgz:298513.got - 2010.06.03 11:33:40.
