data_PCOD9006809
_publ_section_title
;
Structure prediction by ZEFSAII (Michael W. Deem and Ramdas Pophale) SiO2 
 PCOD9006809
Probable space group: P -1
;
_chemical_formula_sum "Si O2"
_cell_formula_units_Z 16
_cell_length_a 25.213849
_cell_length_b 15.604401
_cell_length_c 19.375948
_cell_angle_alpha 31.411618
_cell_angle_beta 160.205141
_cell_angle_gamma 160.854074
_cell_volume 802.521008
_symmetry_space_group_name_H-M "P -1"
_symmetry_group_IT_number 2
_symmetry_cell_setting 'triclinic'
loop_
_space_group_symop_operation_xyz
x,y,z
-x,-y,-z
loop_
_atom_site_type_symbol
_atom_site_label
_atom_site_fract_x
_atom_site_fract_y
_atom_site_fract_z
Si Si1 0.265018 0.429621 0.532228
Si Si2 0.752946 0.225984 0.704590
Si Si3 0.768493 0.613983 0.818743
Si Si4 0.780210 0.892551 0.758922
Si Si5 0.806391 0.926196 0.541688
Si Si6 0.173390 0.806689 0.496596
Si Si7 0.867143 0.936903 0.273255
Si Si8 0.734553 0.171056 0.884208
O O1 0.147736 0.501769 0.366821
O O2 0.527009 0.703422 0.625558
O O3 0.074683 0.188807 0.408177
O O4 0.316623 0.337121 0.717821
O O5 0.693422 0.143323 0.770070
O O6 0.500000 0.000000 0.500000
O O7 0.984280 0.291435 0.925695
O O8 0.716272 0.709812 0.745726
O O9 0.814139 0.754739 0.707334
O O10 0.494606 0.289361 0.698130
O O11 0.887252 0.145000 0.680376
O O12 0.000000 0.000000 0.000000
O O13 0.985142 0.055766 0.605007
O O14 0.889472 0.131230 0.557913
O O15 0.000000 0.500000 0.500000
O O16 0.485601 0.037183 0.711860
O O17 0.753946 0.999134 0.052043
O O18 0.000000 0.500000 0.000000
#
# Coordination Sequence:
#
# PCOD9006809 Si02
#       8
#     2   2   2   2   2   2   2   2
#     4  11  24  43  65  97 134 175 225 280 340 404
#     4  12  24  41  65 103 139 181 226 281 346 417
#     4  10  21  38  69  98 126 176 234 276 335 412
#     4  11  22  42  65  89 136 180 212 267 350 406
#     4  10  21  42  68  98 130 172 233 288 336 404
#     4  11  26  43  66 103 135 171 227 289 343 410
#     4  11  23  43  69  98 130 170 233 289 331 399
#     4  12  23  45  75  98 134 189 238 276 339 423
#
# _framework density 19.937173000000001
#
# number of rings (size 3 to 8) (size 9 to 14) (size 15 to 20)
#    0.000    1.000    5.000    1.500    3.500    1.000 
#    0.000    1.875    0.000    0.000    0.000    0.000 
#    0.000    0.000    0.000    0.000    0.000    0.000 
#
# Total GULP energy -89353.765282 kJ/mol
# GULP energy per Si atom -5584.610330 kJ/mol
# Density = 1.989179 g / cm^3
# Si number density = 19.937173 Si / 1000 Ang^3
#
#
#
# Elastic Constant Matrix: (Units=GPa)
#
#
# Indices 1 2 3 4 5 6 
#
# 1 85.7036 34.4422 29.5278 -11.0178 -6.1530 6.6119
# 2 34.4422 90.8353 36.4732 -28.0403 -10.8422 11.5828
# 3 29.5278 36.4732 124.6126 -17.3082 -5.9532 8.1871
# 4 -11.0178 -28.0403 -17.3082 31.8749 0.0764 -4.4994
# 5 -6.1530 -10.8422 -5.9532 0.0764 38.6428 -3.3966
# 6 6.6119 11.5828 8.1871 -4.4994 -3.3966 14.1322
#
#
#
# Elastic Compliance Matrix: (Units=1/GPa)
#
#
# Indices 1 2 3 4 5 6 
#
# 1 0.014266 -0.004390 -0.001983 -0.000274 0.000570 -0.001878
# 2 -0.004390 0.018827 -0.002030 0.012914 0.003610 -0.007221
# 3 -0.001983 -0.002030 0.009584 0.002438 0.000403 -0.002088
# 4 -0.000274 0.012914 0.002438 0.044414 0.004155 0.003271
# 5 0.000570 0.003610 0.000403 0.004155 0.027427 0.004456
# 6 -0.001878 -0.007221 -0.002088 0.003271 0.004456 0.080880
#
#
# Mechanical properties :
#
#
# Convention : Reuss Voigt Hill
#
# Bulk Modulus (GPa) = 38.65273 55.78201 47.21737
# Shear Modulus (GPa) = 22.64215 30.31053 26.47634
#
# Velocity S-wave (km/s) = 3.37363 3.90334 3.64811
# Velocity P-wave (km/s) = 5.88256 6.95373 6.44045
#
# Compressibility (1/GPa) = 0.02587140
#
# Stress axis : x y z
#
# Youngs Moduli (GPa) = 70.09570 53.11561 104.34313
#
# Poissons Ratio (x) = 0.23319 0.20691
# Poissons Ratio (y) = 0.30774 0.21176
# Poissons Ratio (z) = 0.13900 0.10780
#
# Static dielectric constant tensor:
#      x y z
#    x 1.584040 -0.031060 -0.123670 
#    y -0.031060 1.625590 -0.087830 
#    z -0.123670 -0.087830 1.536930 
# 
# From -- ./inp_files/318209.got.cif
#   From: 2010.05.17/outbox.cif.g08.bks.cpg/sg2_160_cif.got.tgz:318209.got - 2010.06.03 11:33:40.
