data_PCOD9006458
_publ_section_title
;
Structure prediction by ZEFSAII (Michael W. Deem and Ramdas Pophale) SiO2 
 PCOD9006458
Probable space group: P -1
;
_chemical_formula_sum "Si O2"
_cell_formula_units_Z 14
_cell_length_a 5.515836
_cell_length_b 11.826434
_cell_length_c 12.706384
_cell_angle_alpha 117.843517
_cell_angle_beta 106.177180
_cell_angle_gamma 60.711089
_cell_volume 637.866477
_symmetry_space_group_name_H-M "P -1"
_symmetry_group_IT_number 2
_symmetry_cell_setting 'triclinic'
loop_
_space_group_symop_operation_xyz
x,y,z
-x,-y,-z
loop_
_atom_site_type_symbol
_atom_site_label
_atom_site_fract_x
_atom_site_fract_y
_atom_site_fract_z
Si Si1 0.398186 0.599459 0.733697
Si Si2 0.223083 0.394403 0.059975
Si Si3 0.331458 0.188785 0.657356
Si Si4 0.895071 0.073969 0.188921
Si Si5 0.454021 0.087338 0.858856
Si Si6 0.971668 0.511592 0.710355
Si Si7 0.876790 0.980061 0.584244
O O1 0.562486 0.545497 0.841537
O O2 0.263911 0.767603 0.801402
O O3 0.161021 0.546188 0.666584
O O4 0.653835 0.544870 0.658442
O O5 0.073293 0.387956 0.148945
O O6 0.376851 0.242369 0.961447
O O7 0.000000 0.500000 0.000000
O O8 0.324447 0.115125 0.735860
O O9 0.138788 0.352744 0.702324
O O10 0.262099 0.122686 0.515382
O O11 0.662360 0.136112 0.663220
O O12 0.932311 0.090051 0.325190
O O13 0.702727 0.988501 0.125495
O O14 0.209221 0.998301 0.146703
O O15 0.000000 0.000000 0.500000
#
# Coordination Sequence:
#
# PCOD9006458 Si02
#       7
#     2   2   2   2   2   2   2
#     4  10  24  42  58  89 127 165 197 246 298 364
#     4  10  23  40  63  92 123 159 208 244 297 359
#     4  10  21  39  60  97 116 155 203 257 302 354
#     4  11  24  41  62  87 129 157 204 248 304 357
#     4  11  22  37  65  91 119 165 198 250 302 351
#     4  10  23  41  64  85 129 158 200 249 300 355
#     4  10  21  38  66  90 118 154 205 255 304 354
#
# _framework density 21.948166000000001
#
# number of rings (size 3 to 8) (size 9 to 14) (size 15 to 20)
#    0.857    0.857    2.857    0.857    4.000    4.000 
#    0.000    1.429    0.000    0.000    0.000    0.000 
#    0.000    0.000    0.000    0.000    0.000    0.000 
#
# Total GULP energy -77976.228170 kJ/mol
# GULP energy per Si atom -5569.730584 kJ/mol
# Density = 2.189821 g / cm^3
# Si number density = 21.948166 Si / 1000 Ang^3
#
#
#
# Elastic Constant Matrix: (Units=GPa)
#
#
# Indices 1 2 3 4 5 6 
#
# 1 149.3669 44.7443 5.0122 12.5139 -9.0000 -2.4473
# 2 44.7443 95.9971 5.0189 23.3337 -11.9913 -20.2264
# 3 5.0122 5.0189 47.0499 -2.8504 -3.3906 -15.7949
# 4 12.5139 23.3337 -2.8504 23.6797 -8.6204 -3.6925
# 5 -9.0000 -11.9913 -3.3906 -8.6204 19.3073 2.1773
# 6 -2.4473 -20.2264 -15.7949 -3.6925 2.1773 25.1047
#
#
#
# Elastic Compliance Matrix: (Units=1/GPa)
#
#
# Indices 1 2 3 4 5 6 
#
# 1 0.008057 -0.004217 -0.001644 -0.000513 0.001049 -0.003813
# 2 -0.004217 0.018647 0.002672 -0.012564 0.002874 0.014196
# 3 -0.001644 0.002672 0.029087 0.007535 0.007021 0.020792
# 4 -0.000513 -0.012564 0.007535 0.063985 0.021612 0.002105
# 5 0.001049 0.002874 0.007021 0.021612 0.064451 0.004424
# 6 -0.003813 0.014196 0.020792 0.002105 0.004424 0.063906
#
#
# Mechanical properties :
#
#
# Convention : Reuss Voigt Hill
#
# Bulk Modulus (GPa) = 20.23803 44.66275 32.45039
# Shear Modulus (GPa) = 18.45136 29.46091 23.95613
#
# Velocity S-wave (km/s) = 2.90259 3.66771 3.30735
# Velocity P-wave (km/s) = 4.52485 6.19108 5.42235
#
# Compressibility (1/GPa) = 0.04941192
#
# Stress axis : x y z
#
# Youngs Moduli (GPa) = 124.11445 53.62801 34.38005
#
# Poissons Ratio (x) = 0.22616 0.05652
# Poissons Ratio (y) = 0.52341 -0.09186
# Poissons Ratio (z) = 0.20405 -0.14328
#
# Static dielectric constant tensor:
#      x y z
#    x 1.944100 -0.019330 0.016910 
#    y -0.019330 1.808170 -0.024920 
#    z 0.016910 -0.024920 1.826430 
# 
# From -- ./inp_files/38121.got.cif
#   From: 2010.05.17/outbox.cif.g08.bks.cpg/sg2_20_cif.got.tgz:38121.got - 2010.06.03 11:33:40.
