data_PCOD9006904
_publ_section_title
;
Structure prediction by ZEFSAII (Michael W. Deem and Ramdas Pophale) SiO2 
 PCOD9006904
Probable space group: P -1
;
_chemical_formula_sum "Si O2"
_cell_formula_units_Z 16
_cell_length_a 14.225046
_cell_length_b 13.415051
_cell_length_c 15.370658
_cell_angle_alpha 57.224528
_cell_angle_beta 150.087703
_cell_angle_gamma 142.005182
_cell_volume 798.696492
_symmetry_space_group_name_H-M "P -1"
_symmetry_group_IT_number 2
_symmetry_cell_setting 'triclinic'
loop_
_space_group_symop_operation_xyz
x,y,z
-x,-y,-z
loop_
_atom_site_type_symbol
_atom_site_label
_atom_site_fract_x
_atom_site_fract_y
_atom_site_fract_z
Si Si1 0.904799 0.542978 0.773343
Si Si2 0.702058 0.875832 0.270305
Si Si3 0.831475 0.546566 0.911438
Si Si4 0.625307 0.429418 0.157642
Si Si5 0.216411 0.072274 0.889614
Si Si6 0.281408 0.847873 0.788051
Si Si7 0.856029 0.494919 0.505577
Si Si8 0.382566 0.305786 0.348545
O O1 0.930168 0.598845 0.865722
O O2 0.603995 0.443085 0.539100
O O3 0.157304 0.708846 0.833874
O O4 0.930814 0.412538 0.862449
O O5 0.451291 0.673272 0.204289
O O6 0.745762 0.864949 0.208861
O O7 0.670701 0.000177 0.206858
O O8 0.000000 0.000000 0.500000
O O9 0.742180 0.635126 0.824022
O O10 0.713317 0.457092 0.316189
O O11 0.915070 0.505707 0.311208
O O12 0.500000 0.500000 0.000000
O O13 0.367976 0.224131 0.012146
O O14 0.413912 0.048976 0.054898
O O15 0.886241 0.892493 0.734151
O O16 0.036358 0.696346 0.590888
O O17 0.593417 0.342719 0.432331
#
# Coordination Sequence:
#
# PCOD9006904 Si02
#       8
#     2   2   2   2   2   2   2   2
#     4  10  21  39  55  85 125 179 214 242 302 363
#     4  12  23  35  61  96 129 165 214 255 302 375
#     4  11  23  35  60  87 128 177 214 244 306 367
#     4  10  23  44  72  90 120 157 210 266 307 377
#     4  11  24  40  61  95 125 165 205 257 321 356
#     4  10  21  40  64  85 135 164 208 259 303 373
#     4   9  22  43  66  94 117 168 207 247 324 374
#     4  11  23  40  61  88 134 158 204 263 309 372
#
# _framework density 20.032641000000002
#
# number of rings (size 3 to 8) (size 9 to 14) (size 15 to 20)
#    0.000    1.500    1.250    3.750    7.000    0.500 
#    0.000    0.625    0.000    0.000    0.000    0.000 
#    0.000    0.000    0.000    0.000    0.000    0.000 
#
# Total GULP energy -89204.034619 kJ/mol
# GULP energy per Si atom -5575.252164 kJ/mol
# Density = 1.998705 g / cm^3
# Si number density = 20.032641 Si / 1000 Ang^3
#
#
#
# Elastic Constant Matrix: (Units=GPa)
#
#
# Indices 1 2 3 4 5 6 
#
# 1 89.0491 42.1654 33.5581 12.8023 -1.0727 15.5554
# 2 42.1654 59.3201 20.6638 6.3352 6.6770 4.7175
# 3 33.5581 20.6638 89.4142 5.0523 2.1797 0.1613
# 4 12.8023 6.3352 5.0523 34.2020 -0.2411 13.0585
# 5 -1.0727 6.6770 2.1797 -0.2411 42.1545 4.0132
# 6 15.5554 4.7175 0.1613 13.0585 4.0132 26.3992
#
#
#
# Elastic Compliance Matrix: (Units=1/GPa)
#
#
# Indices 1 2 3 4 5 6 
#
# 1 0.021146 -0.012806 -0.005003 -0.000844 0.003801 -0.010301
# 2 -0.012806 0.026756 -0.001170 -0.001687 -0.004928 0.004355
# 3 -0.005003 -0.001170 0.013429 -0.001399 -0.001018 0.003922
# 4 -0.000844 -0.001687 -0.001399 0.036873 0.002221 -0.017770
# 5 0.003801 -0.004928 -0.001018 0.002221 0.025264 -0.006292
# 6 -0.010301 0.004355 0.003922 -0.017770 -0.006292 0.052894
#
#
# Mechanical properties :
#
#
# Convention : Reuss Voigt Hill
#
# Bulk Modulus (GPa) = 42.78416 47.83976 45.31196
# Shear Modulus (GPa) = 22.51136 29.97753 26.24445
#
# Velocity S-wave (km/s) = 3.35585 3.87257 3.62344
# Velocity P-wave (km/s) = 6.03483 6.62786 6.33829
#
# Compressibility (1/GPa) = 0.02337314
#
# Stress axis : x y z
#
# Youngs Moduli (GPa) = 47.29136 37.37425 74.46772
#
# Poissons Ratio (x) = 0.47862 0.37256
# Poissons Ratio (y) = 0.60562 0.08709
# Poissons Ratio (z) = 0.23660 0.04371
#
# Static dielectric constant tensor:
#      x y z
#    x 1.720320 -0.024410 0.029950 
#    y -0.024410 1.694110 -0.049540 
#    z 0.029950 -0.049540 1.797530 
# 
# From -- ./inp_files/534344.got.cif
#   From: 2010.05.17/outbox.cif.g08.bks.cpg/sg2_268_cif.got.tgz:534344.got - 2010.06.03 11:33:40.
