data_PCOD9006604
_publ_section_title
;
Structure prediction by ZEFSAII (Michael W. Deem and Ramdas Pophale) SiO2 
 PCOD9006604
Probable space group: P -1
;
_chemical_formula_sum "Si O2"
_cell_formula_units_Z 14
_cell_length_a 9.539461
_cell_length_b 11.408595
_cell_length_c 10.598455
_cell_angle_alpha 74.791803
_cell_angle_beta 149.656054
_cell_angle_gamma 110.493787
_cell_volume 543.895500
_symmetry_space_group_name_H-M "P -1"
_symmetry_group_IT_number 2
_symmetry_cell_setting 'triclinic'
loop_
_space_group_symop_operation_xyz
x,y,z
-x,-y,-z
loop_
_atom_site_type_symbol
_atom_site_label
_atom_site_fract_x
_atom_site_fract_y
_atom_site_fract_z
Si Si1 0.862869 0.040163 0.567626
Si Si2 0.392581 0.662731 0.677875
Si Si3 0.447051 0.417957 0.657523
Si Si4 0.245108 0.889389 0.787987
Si Si5 0.954242 0.306749 0.115065
Si Si6 0.233795 0.306094 0.796882
Si Si7 0.200004 0.110031 0.206577
O O1 0.724493 0.111828 0.336520
O O2 0.129293 0.154846 0.780917
O O3 0.700027 0.963139 0.578399
O O4 0.960142 0.931719 0.595339
O O5 0.479309 0.559785 0.685470
O O6 0.549730 0.796658 0.701252
O O7 0.050495 0.644417 0.411417
O O8 0.519182 0.646020 0.920266
O O9 0.306412 0.341143 0.696897
O O10 0.240989 0.381846 0.387187
O O11 0.748197 0.385041 0.875225
O O12 0.228375 0.766532 0.887750
O O13 0.500000 0.000000 0.000000
O O14 0.015689 0.200905 0.099164
O O15 0.000000 0.000000 0.000000
#
# Coordination Sequence:
#
# PCOD9006604 Si02
#       7
#     2   2   2   2   2   2   2
#     4  10  22  40  67 100 145 179 241 292 366 429
#     4  12  28  47  74 105 153 198 241 297 370 437
#     4  12  25  50  75 111 141 190 255 310 357 433
#     4  10  21  38  67 107 137 183 234 307 365 422
#     4  11  26  44  79 106 146 189 248 305 369 423
#     4  12  24  45  74 110 142 192 241 312 368 427
#     4  11  26  51  70 111 149 202 239 299 368 457
#
# _framework density 25.740238000000002
#
# number of rings (size 3 to 8) (size 9 to 14) (size 15 to 20)
#    0.000    0.857    2.857    3.429    6.000    2.857 
#    2.571    0.000    0.000    0.000    0.000    0.000 
#    0.000    0.000    0.000    0.000    0.000    0.000 
#
# Total GULP energy -78427.006017 kJ/mol
# GULP energy per Si atom -5601.929001 kJ/mol
# Density = 2.568165 g / cm^3
# Si number density = 25.740238 Si / 1000 Ang^3
#
#
#
# Elastic Constant Matrix: (Units=GPa)
#
#
# Indices 1 2 3 4 5 6 
#
# 1 137.7599 42.4860 44.8114 -11.8194 -7.3684 -8.9860
# 2 42.4860 121.7155 34.3472 4.0429 5.4239 -16.1745
# 3 44.8114 34.3472 154.5302 5.1310 10.1685 -16.7078
# 4 -11.8194 4.0429 5.1310 42.0637 -9.5614 -4.8069
# 5 -7.3684 5.4239 10.1685 -9.5614 33.0415 -4.3021
# 6 -8.9860 -16.1745 -16.7078 -4.8069 -4.3021 60.8273
#
#
#
# Elastic Compliance Matrix: (Units=1/GPa)
#
#
# Indices 1 2 3 4 5 6 
#
# 1 0.009676 -0.002936 -0.002549 0.004477 0.004803 0.000642
# 2 -0.002936 0.009895 -0.000952 -0.002012 -0.002359 0.001610
# 3 -0.002549 -0.000952 0.007834 -0.002207 -0.003317 0.001113
# 4 0.004477 -0.002012 -0.002207 0.028161 0.010481 0.002487
# 5 0.004803 -0.002359 -0.003317 0.010481 0.036109 0.002554
# 6 0.000642 0.001610 0.001113 0.002487 0.002554 0.017646
#
#
# Mechanical properties :
#
#
# Convention : Reuss Voigt Hill
#
# Bulk Modulus (GPa) = 68.81189 73.03273 70.92231
# Shear Modulus (GPa) = 39.35807 46.67723 43.01765
#
# Velocity S-wave (km/s) = 3.91455 4.26302 4.09249
# Velocity P-wave (km/s) = 6.87189 7.25711 7.06712
#
# Compressibility (1/GPa) = 0.01453237
#
# Stress axis : x y z
#
# Youngs Moduli (GPa) = 103.34327 101.05897 127.65201
#
# Poissons Ratio (x) = 0.29669 0.32536
# Poissons Ratio (y) = 0.30340 0.12152
# Poissons Ratio (z) = 0.26340 0.09620
#
# Static dielectric constant tensor:
#      x y z
#    x 2.029950 0.004240 0.050290 
#    y 0.004240 2.024340 -0.057470 
#    z 0.050290 -0.057470 1.974650 
# 
# From -- ./inp_files/187162.got.cif
#   From: 2010.05.17/outbox.cif.g08.bks.cpg/sg2_94_cif.got.tgz:187162.got - 2010.06.03 11:33:40.
