data_PCOD9006021
_publ_section_title
;
Structure prediction by ZEFSAII (Michael W. Deem and Ramdas Pophale) SiO2 
 PCOD9006021
Probable space group: P -1
;
_chemical_formula_sum "Si O2"
_cell_formula_units_Z 16
_cell_length_a 15.601925
_cell_length_b 8.361321
_cell_length_c 8.493019
_cell_angle_alpha 117.712385
_cell_angle_beta 129.818350
_cell_angle_gamma 78.329723
_cell_volume 745.900840
_symmetry_space_group_name_H-M "P -1"
_symmetry_group_IT_number 2
_symmetry_cell_setting 'triclinic'
loop_
_space_group_symop_operation_xyz
x,y,z
-x,-y,-z
loop_
_atom_site_type_symbol
_atom_site_label
_atom_site_fract_x
_atom_site_fract_y
_atom_site_fract_z
Si Si1 0.366282 0.160517 0.998113
Si Si2 0.095183 0.140810 0.097922
Si Si3 0.033882 0.357548 0.844871
Si Si4 0.605741 0.259853 0.200561
Si Si5 0.761468 0.545895 0.101456
Si Si6 0.442224 0.731540 0.213787
Si Si7 0.659667 0.891498 0.698665
Si Si8 0.163426 0.536565 0.503419
O O1 0.281653 0.258400 0.837655
O O2 0.364235 0.947194 0.859053
O O3 0.496153 0.253151 0.176209
O O4 0.331286 0.178537 0.145525
O O5 0.216507 0.073676 0.210407
O O6 0.114112 0.332698 0.300845
O O7 0.059019 0.186183 0.898437
O O8 0.000000 0.000000 0.000000
O O9 0.144136 0.438545 0.913901
O O10 0.928781 0.333717 0.590532
O O11 0.000000 0.500000 0.000000
O O12 0.720880 0.394814 0.422716
O O13 0.563954 0.303469 0.996011
O O14 0.808384 0.468393 0.281234
O O15 0.645565 0.415688 0.867337
O O16 0.569704 0.753326 0.433056
O O17 0.393890 0.922056 0.267699
#
# Coordination Sequence:
#
# PCOD9006021 Si02
#       8
#     2   2   2   2   2   2   2   2
#     4  10  21  38  64  92 131 159 204 256 311 374
#     4  11  25  43  64  91 124 167 216 263 302 373
#     4  10  23  44  61  89 126 165 212 258 310 367
#     4   9  21  42  61  93 130 162 200 256 320 371
#     4  11  22  40  67  98 123 163 210 261 312 375
#     4   9  22  37  64  89 128 164 200 260 308 382
#     4  10  21  41  58  92 125 167 209 249 320 362
#     4  10  24  42  66  91 127 170 206 258 316 370
#
# _framework density 21.450572999999999
#
# number of rings (size 3 to 8) (size 9 to 14) (size 15 to 20)
#    0.000    2.000    1.250    0.375    7.000    4.500 
#    6.750    1.250    0.000    0.000    0.000    0.000 
#    0.000    0.000    0.000    0.000    0.000    0.000 
#
# Total GULP energy -89380.364926 kJ/mol
# GULP energy per Si atom -5586.272808 kJ/mol
# Density = 2.140175 g / cm^3
# Si number density = 21.450573 Si / 1000 Ang^3
#
#
#
# Elastic Constant Matrix: (Units=GPa)
#
#
# Indices 1 2 3 4 5 6 
#
# 1 115.0919 24.3171 40.4899 5.3233 42.2859 29.6795
# 2 24.3171 59.4609 41.6543 -9.2865 18.6122 19.3282
# 3 40.4899 41.6543 100.5747 -5.3306 34.5113 11.1327
# 4 5.3233 -9.2865 -5.3306 37.0700 4.0091 12.5745
# 5 42.2859 18.6122 34.5113 4.0091 33.2064 6.4010
# 6 29.6795 19.3282 11.1327 12.5745 6.4010 30.4342
#
#
#
# Elastic Compliance Matrix: (Units=1/GPa)
#
#
# Indices 1 2 3 4 5 6 
#
# 1 0.028721 0.014196 0.001477 0.016167 -0.041158 -0.035588
# 2 0.014196 0.043479 -0.007496 0.025576 -0.029439 -0.043090
# 3 0.001477 -0.007496 0.018598 0.002788 -0.017147 -0.001029
# 4 0.016167 0.025576 0.002788 0.051118 -0.034972 -0.046794
# 5 -0.041158 -0.029439 -0.017147 -0.034972 0.110202 0.056377
# 6 -0.035588 -0.043090 -0.001029 -0.046794 0.056377 0.102782
#
#
# Mechanical properties :
#
#
# Convention : Reuss Voigt Hill
#
# Bulk Modulus (GPa) = 9.33249 54.22779 31.78014
# Shear Modulus (GPa) = 13.35959 31.38653 22.37306
#
# Velocity S-wave (km/s) = 2.49832 3.82933 3.23306
# Velocity P-wave (km/s) = 3.56122 6.69977 5.36513
#
# Compressibility (1/GPa) = 0.10715255
#
# Stress axis : x y z
#
# Youngs Moduli (GPa) = 34.81774 22.99947 53.76913
#
# Poissons Ratio (x) = -0.32649 -0.07942
# Poissons Ratio (y) = -0.49426 0.40303
# Poissons Ratio (z) = -0.05143 0.17239
#
# Static dielectric constant tensor:
#      x y z
#    x 1.761220 -0.022360 -0.016470 
#    y -0.022360 1.818320 -0.014230 
#    z -0.016470 -0.014230 1.797320 
# 
# From -- ./inp_files/177423.got.cif
#   From: 2010.05.17/outbox.cif.g08.bks.cpg/sg2_89_cif.got.tgz:177423.got - 2010.06.03 11:33:40.
