data_PCOD9006087
_publ_section_title
;
Structure prediction by ZEFSAII (Michael W. Deem and Ramdas Pophale) SiO2 
 PCOD9006087
Probable space group: P -1
;
_chemical_formula_sum "Si O2"
_cell_formula_units_Z 16
_cell_length_a 7.191872
_cell_length_b 10.844397
_cell_length_c 12.750905
_cell_angle_alpha 121.207477
_cell_angle_beta 77.967314
_cell_angle_gamma 132.274317
_cell_volume 613.748497
_symmetry_space_group_name_H-M "P -1"
_symmetry_group_IT_number 2
_symmetry_cell_setting 'triclinic'
loop_
_space_group_symop_operation_xyz
x,y,z
-x,-y,-z
loop_
_atom_site_type_symbol
_atom_site_label
_atom_site_fract_x
_atom_site_fract_y
_atom_site_fract_z
Si Si1 0.088807 0.687055 0.516119
Si Si2 0.290037 0.636760 0.238534
Si Si3 0.169380 0.201947 0.706780
Si Si4 0.419427 0.040377 0.921520
Si Si5 0.621731 0.534080 0.386407
Si Si6 0.681970 0.472323 0.020822
Si Si7 0.369805 0.994767 0.331802
Si Si8 0.111439 0.281354 0.244387
O O1 0.885087 0.588068 0.402677
O O2 0.013546 0.769814 0.647727
O O3 0.000000 0.500000 0.500000
O O4 0.396643 0.838262 0.546441
O O5 0.604626 0.776746 0.258492
O O6 0.166148 0.513596 0.090568
O O7 0.267642 0.796044 0.309383
O O8 0.187052 0.475582 0.268991
O O9 0.275638 0.280172 0.611997
O O10 0.866356 0.015346 0.658932
O O11 0.176830 0.359844 0.835884
O O12 0.538016 0.260492 0.991933
O O13 0.519364 0.994379 0.790507
O O14 0.109781 0.894962 0.880592
O O15 0.500000 0.000000 0.000000
O O16 0.500000 0.500000 0.500000
O O17 0.388941 0.350034 0.262676
O O18 0.500000 0.500000 0.000000
#
# Coordination Sequence:
#
# PCOD9006087 Si02
#       8
#     2   2   2   2   2   2   2   2
#     4  10  22  41  59  90 122 158 222 273 328 381
#     4   9  20  40  63  88 134 168 207 268 324 397
#     4  10  21  38  64  96 121 168 224 260 327 386
#     4  10  22  37  64  97 134 177 214 264 335 394
#     4   9  20  42  63  83 124 167 206 269 326 381
#     4   9  20  39  60  92 133 170 214 264 316 398
#     4  10  23  40  63  93 129 168 215 272 325 400
#     4   9  20  40  62  89 124 173 209 259 336 386
#
# _framework density 26.069307999999999
#
# number of rings (size 3 to 8) (size 9 to 14) (size 15 to 20)
#    0.000    2.500    0.000    0.000    5.250    2.500 
#   13.500    6.875    0.000    0.000    0.000    0.000 
#    0.000    0.000    0.000    0.000    0.000    0.000 
#
# Total GULP energy -89341.336159 kJ/mol
# GULP energy per Si atom -5583.833510 kJ/mol
# Density = 2.600997 g / cm^3
# Si number density = 26.069308 Si / 1000 Ang^3
#
#
#
# Elastic Constant Matrix: (Units=GPa)
#
#
# Indices 1 2 3 4 5 6 
#
# 1 116.1991 42.7575 64.2531 8.6980 43.6385 11.6419
# 2 42.7575 107.2363 46.8536 -4.4727 16.1852 3.5581
# 3 64.2531 46.8536 123.5529 7.4451 41.1513 8.1178
# 4 8.6980 -4.4727 7.4451 40.7976 6.4998 3.3661
# 5 43.6385 16.1852 41.1513 6.4998 50.9206 3.9502
# 6 11.6419 3.5581 8.1178 3.3661 3.9502 49.3223
#
#
#
# Elastic Compliance Matrix: (Units=1/GPa)
#
#
# Indices 1 2 3 4 5 6 
#
# 1 0.015468 -0.003225 -0.003616 -0.001396 -0.008975 -0.002009
# 2 -0.003225 0.012025 -0.003531 0.002399 0.001474 0.000193
# 3 -0.003616 -0.003531 0.013610 -0.001003 -0.006608 -0.000534
# 4 -0.001396 0.002399 -0.001003 0.025668 -0.001933 -0.001275
# 5 -0.008975 0.001474 -0.006608 -0.001933 0.032399 0.000637
# 6 -0.002009 0.000193 -0.000534 -0.001275 0.000637 0.020859
#
#
# Mechanical properties :
#
#
# Convention : Reuss Voigt Hill
#
# Bulk Modulus (GPa) = 49.11802 72.74630 60.93216
# Shear Modulus (GPa) = 33.88462 41.08304 37.48383
#
# Velocity S-wave (km/s) = 3.60917 3.97409 3.79602
# Velocity P-wave (km/s) = 6.02083 7.00167 6.52969
#
# Compressibility (1/GPa) = 0.02035913
#
# Stress axis : x y z
#
# Youngs Moduli (GPa) = 64.64843 83.15957 73.47683
#
# Poissons Ratio (x) = 0.26816 0.26569
# Poissons Ratio (y) = 0.20847 0.25947
# Poissons Ratio (z) = 0.23377 0.29367
#
# Static dielectric constant tensor:
#      x y z
#    x 1.936880 0.081860 -0.398150 
#    y 0.081860 2.027590 -0.025040 
#    z -0.398150 -0.025040 1.411900 
# 
# From -- ./inp_files/500570.got.cif
#   From: 2010.05.17/outbox.cif.g08.bks.cpg/sg2_251_cif.got.tgz:500570.got - 2010.06.03 11:33:40.
