data_PCOD9006075
_publ_section_title
;
Structure prediction by ZEFSAII (Michael W. Deem and Ramdas Pophale) SiO2 
 PCOD9006075
Probable space group: P -1
;
_chemical_formula_sum "Si O2"
_cell_formula_units_Z 16
_cell_length_a 12.785299
_cell_length_b 9.838472
_cell_length_c 15.893592
_cell_angle_alpha 67.306526
_cell_angle_beta 154.216530
_cell_angle_gamma 104.619634
_cell_volume 779.479790
_symmetry_space_group_name_H-M "P -1"
_symmetry_group_IT_number 2
_symmetry_cell_setting 'triclinic'
loop_
_space_group_symop_operation_xyz
x,y,z
-x,-y,-z
loop_
_atom_site_type_symbol
_atom_site_label
_atom_site_fract_x
_atom_site_fract_y
_atom_site_fract_z
Si Si1 0.405012 0.700779 0.806082
Si Si2 0.507238 0.011000 0.759834
Si Si3 0.893728 0.460791 0.254947
Si Si4 0.782277 0.946695 0.806942
Si Si5 0.290134 0.633984 0.552429
Si Si6 0.967112 0.029595 0.757983
Si Si7 0.765782 0.639538 0.788058
Si Si8 0.144371 0.248755 0.353041
O O1 0.392197 0.878987 0.745693
O O2 0.195374 0.659842 0.722009
O O3 0.389092 0.630698 0.719243
O O4 0.669960 0.610738 0.055060
O O5 0.569091 0.970124 0.715843
O O6 0.329933 0.176365 0.580415
O O7 0.762614 0.004558 0.994890
O O8 0.131914 0.512022 0.448951
O O9 0.949141 0.386987 0.220509
O O10 0.840324 0.773449 0.863069
O O11 0.763575 0.032151 0.684206
O O12 0.000000 0.000000 0.000000
O O13 0.515627 0.614146 0.654327
O O14 0.108840 0.802215 0.373237
O O15 0.963418 0.890975 0.725902
O O16 0.734380 0.691865 0.655127
O O17 0.000000 0.500000 0.000000
#
# Coordination Sequence:
#
# PCOD9006075 Si02
#       8
#     2   2   2   2   2   2   2   2
#     4  11  23  45  68  89 127 171 224 265 311 377
#     4  11  20  39  67  91 125 170 214 260 315 377
#     4  11  27  43  65  94 127 172 218 268 317 373
#     4   9  19  34  60  89 123 166 204 243 308 384
#     4  12  22  42  69  93 125 173 217 257 320 388
#     4  10  21  38  64  95 128 164 212 256 320 384
#     4  11  23  38  64  99 136 164 201 266 326 381
#     4  11  24  41  61  98 133 160 208 266 320 378
#
# _framework density 20.526509999999998
#
# number of rings (size 3 to 8) (size 9 to 14) (size 15 to 20)
#    0.000    1.250    3.750    1.875    0.000    7.000 
#    0.000    0.625    0.000    0.000    0.000    0.000 
#    0.000    0.000    0.000    0.000    0.000    0.000 
#
# Total GULP energy -89354.434147 kJ/mol
# GULP energy per Si atom -5584.652134 kJ/mol
# Density = 2.047979 g / cm^3
# Si number density = 20.526510 Si / 1000 Ang^3
#
#
#
# Elastic Constant Matrix: (Units=GPa)
#
#
# Indices 1 2 3 4 5 6 
#
# 1 79.8891 13.7703 11.1803 20.9086 10.1839 18.6429
# 2 13.7703 44.3334 16.2663 19.3291 14.3828 13.2954
# 3 11.1803 16.2663 88.0027 12.6354 0.4492 15.3428
# 4 20.9086 19.3291 12.6354 28.5697 3.0339 8.8168
# 5 10.1839 14.3828 0.4492 3.0339 23.0672 -3.8532
# 6 18.6429 13.2954 15.3428 8.8168 -3.8532 23.5906
#
#
#
# Elastic Compliance Matrix: (Units=1/GPa)
#
#
# Indices 1 2 3 4 5 6 
#
# 1 0.022219 0.013012 0.001200 -0.016513 -0.019566 -0.022697
# 2 0.013012 0.058842 -0.001033 -0.032453 -0.044477 -0.037909
# 3 0.001200 -0.001033 0.013281 -0.003526 -0.000991 -0.007848
# 4 -0.016513 -0.032453 -0.003526 0.064301 0.021323 0.013084
# 5 -0.019566 -0.044477 -0.000991 0.021323 0.084797 0.047055
# 6 -0.022697 -0.037909 -0.007848 0.013084 0.047055 0.089592
#
#
# Mechanical properties :
#
#
# Convention : Reuss Voigt Hill
#
# Bulk Modulus (GPa) = 8.28505 32.73988 20.51247
# Shear Modulus (GPa) = 14.41307 26.44607 20.42957
#
# Velocity S-wave (km/s) = 2.65272 3.59330 3.15822
# Velocity P-wave (km/s) = 3.66437 5.76198 4.82846
#
# Compressibility (1/GPa) = 0.12069930
#
# Stress axis : x y z
#
# Youngs Moduli (GPa) = 45.00644 16.99479 75.29336
#
# Poissons Ratio (x) = -0.22114 -0.09035
# Poissons Ratio (y) = -0.58563 0.07781
# Poissons Ratio (z) = -0.05400 0.01756
#
# Static dielectric constant tensor:
#      x y z
#    x 1.731820 0.008920 0.007320 
#    y 0.008920 1.721720 -0.034620 
#    z 0.007320 -0.034620 1.805230 
# 
# From -- ./inp_files/187227.got.cif
#   From: 2010.05.17/outbox.cif.g08.bks.cpg/sg2_94_cif.got.tgz:187227.got - 2010.06.03 11:33:40.
