data_PCOD9006225
_publ_section_title
;
Structure prediction by ZEFSAII (Michael W. Deem and Ramdas Pophale) SiO2 
 PCOD9006225
Probable space group: P -1
;
_chemical_formula_sum "Si O2"
_cell_formula_units_Z 14
_cell_length_a 9.227864
_cell_length_b 18.882296
_cell_length_c 7.543451
_cell_angle_alpha 55.317543
_cell_angle_beta 131.731632
_cell_angle_gamma 148.628179
_cell_volume 510.643078
_symmetry_space_group_name_H-M "P -1"
_symmetry_group_IT_number 2
_symmetry_cell_setting 'triclinic'
loop_
_space_group_symop_operation_xyz
x,y,z
-x,-y,-z
loop_
_atom_site_type_symbol
_atom_site_label
_atom_site_fract_x
_atom_site_fract_y
_atom_site_fract_z
Si Si1 0.830623 0.127013 0.498556
Si Si2 0.898123 0.790055 0.026778
Si Si3 0.517157 0.285050 0.596691
Si Si4 0.268122 0.381391 0.133957
Si Si5 0.817850 0.464918 0.153670
Si Si6 0.672600 0.255201 0.133691
Si Si7 0.199389 0.070351 0.338460
O O1 0.811728 0.210094 0.262682
O O2 0.047750 0.214232 0.720958
O O3 0.500000 0.000000 0.500000
O O4 0.896854 0.062222 0.538087
O O5 0.528585 0.671547 0.865612
O O6 0.992855 0.750901 0.018038
O O7 0.032726 0.930830 0.896392
O O8 0.395094 0.342288 0.400893
O O9 0.354308 0.158911 0.517446
O O10 0.528515 0.253815 0.850742
O O11 0.879086 0.412606 0.659738
O O12 0.214067 0.453218 0.086101
O O13 0.500000 0.500000 0.000000
O O14 0.881907 0.399660 0.192113
O O15 0.419934 0.147936 0.233904
#
# Coordination Sequence:
#
# PCOD9006225 Si02
#       7
#     2   2   2   2   2   2   2
#     4  10  21  38  65  90 124 166 214 261 310 366
#     4   9  19  37  62  95 124 159 217 252 312 377
#     4  11  23  42  63  95 134 157 213 253 314 381
#     4   9  21  36  61  94 124 167 202 253 306 376
#     4  10  22  38  61  93 129 166 197 257 318 369
#     4  10  23  39  60  97 125 167 206 258 312 373
#     4   9  21  41  67  88 122 174 204 266 311 360
#
# _framework density 27.416411
#
# number of rings (size 3 to 8) (size 9 to 14) (size 15 to 20)
#    0.000    2.286    0.000    1.714    8.000    9.143 
#    5.143    0.000    0.000   10.286    0.000    0.000 
#    0.000    0.000    0.000    0.000    0.000    0.000 
#
# Total GULP energy -78153.522256 kJ/mol
# GULP energy per Si atom -5582.394447 kJ/mol
# Density = 2.735401 g / cm^3
# Si number density = 27.416411 Si / 1000 Ang^3
#
#
#
# Elastic Constant Matrix: (Units=GPa)
#
#
# Indices 1 2 3 4 5 6 
#
# 1 107.8486 33.1482 31.0050 -9.1794 3.5024 -39.4749
# 2 33.1482 130.8990 52.7890 -37.4893 17.9814 -45.0121
# 3 31.0050 52.7890 135.6201 -21.2889 14.6107 -38.5917
# 4 -9.1794 -37.4893 -21.2889 75.9892 -10.3869 12.6901
# 5 3.5024 17.9814 14.6107 -10.3869 43.8889 -9.9194
# 6 -39.4749 -45.0121 -38.5917 12.6901 -9.9194 68.4098
#
#
#
# Elastic Compliance Matrix: (Units=1/GPa)
#
#
# Indices 1 2 3 4 5 6 
#
# 1 0.011927 -0.000746 -0.000819 -0.000036 0.000992 0.006080
# 2 -0.000746 0.011895 -0.002146 0.004047 -0.001978 0.005148
# 3 -0.000819 -0.002146 0.009569 0.000812 -0.001332 0.003170
# 4 -0.000036 0.004047 0.000812 0.015553 0.001865 0.000485
# 5 0.000992 -0.001978 -0.001332 0.001865 0.024801 0.001769
# 6 0.006080 0.005148 0.003170 0.000485 0.001769 0.023468
#
#
# Mechanical properties :
#
#
# Convention : Reuss Voigt Hill
#
# Bulk Modulus (GPa) = 38.50767 67.58357 53.04562
# Shear Modulus (GPa) = 44.13384 54.81928 49.47656
#
# Velocity S-wave (km/s) = 4.01653 4.47643 4.25271
# Velocity P-wave (km/s) = 5.96540 7.17093 6.59577
#
# Compressibility (1/GPa) = 0.02596885
#
# Stress axis : x y z
#
# Youngs Moduli (GPa) = 83.84259 84.07006 104.50365
#
# Poissons Ratio (x) = 0.06273 0.08556
# Poissons Ratio (y) = 0.06256 0.22429
# Poissons Ratio (z) = 0.06865 0.18043
#
# Static dielectric constant tensor:
#      x y z
#    x 4.015570 -0.288200 -0.682020 
#    y -0.288200 2.287340 0.107650 
#    z -0.682020 0.107650 2.431810 
# 
# From -- ./inp_files/282937.got.cif
#   From: 2010.05.17/outbox.cif.g08.bks.cpg/sg2_142_cif.got.tgz:282937.got - 2010.06.03 11:33:40.
