data_PCOD9006649
_publ_section_title
;
Structure prediction by ZEFSAII (Michael W. Deem and Ramdas Pophale) SiO2 
 PCOD9006649
Probable space group: P -1
;
_chemical_formula_sum "Si O2"
_cell_formula_units_Z 16
_cell_length_a 5.388065
_cell_length_b 7.304761
_cell_length_c 18.616180
_cell_angle_alpha 60.315182
_cell_angle_beta 93.734493
_cell_angle_gamma 73.691042
_cell_volume 592.328993
_symmetry_space_group_name_H-M "P -1"
_symmetry_group_IT_number 2
_symmetry_cell_setting 'triclinic'
loop_
_space_group_symop_operation_xyz
x,y,z
-x,-y,-z
loop_
_atom_site_type_symbol
_atom_site_label
_atom_site_fract_x
_atom_site_fract_y
_atom_site_fract_z
Si Si1 0.460464 0.172430 0.860084
Si Si2 0.824388 0.066010 0.172270
Si Si3 0.947627 0.811846 0.985536
Si Si4 0.204004 0.339531 0.333248
Si Si5 0.914034 0.263461 0.462206
Si Si6 0.315863 0.766312 0.300527
Si Si7 0.336259 0.447500 0.156579
Si Si8 0.533390 0.810314 0.443897
O O1 0.595154 0.180043 0.785226
O O2 0.499147 0.382134 0.860358
O O3 0.188684 0.147302 0.833763
O O4 0.630518 0.929722 0.946154
O O5 0.922310 0.199069 0.088014
O O6 0.544624 0.226542 0.167056
O O7 0.022793 0.961384 0.262574
O O8 0.089443 0.581067 0.074695
O O9 0.000000 0.000000 0.000000
O O10 0.658573 0.301738 0.499489
O O11 0.291396 0.525133 0.338457
O O12 0.225512 0.382751 0.240976
O O13 0.924686 0.365125 0.362825
O O14 0.836663 0.714585 0.494108
O O15 0.405027 0.082749 0.401625
O O16 0.505909 0.780318 0.364508
O O17 0.000000 0.000000 0.500000
#
# Coordination Sequence:
#
# PCOD9006649 Si02
#       8
#     2   2   2   2   2   2   2   2
#     4   9  21  41  61  90 136 173 219 281 336 406
#     4  11  22  40  64  93 134 173 227 276 334 405
#     4   9  20  40  62  92 136 169 223 275 337 408
#     4  10  22  44  66  94 136 174 225 284 348 410
#     4  10  23  46  74 102 139 184 230 288 355 418
#     4  10  24  41  63 101 132 179 225 283 341 412
#     4  10  21  38  67  95 126 176 226 276 342 407
#     4  11  24  45  74 101 140 183 231 290 350 421
#
# _framework density 27.012014000000001
#
# number of rings (size 3 to 8) (size 9 to 14) (size 15 to 20)
#    0.000    2.000    0.000    3.375    3.500    4.500 
#   11.250    7.500    0.000    0.000    0.000    0.000 
#    0.000    0.000    0.000    0.000    0.000    0.000 
#
# Total GULP energy -89627.313899 kJ/mol
# GULP energy per Si atom -5601.707119 kJ/mol
# Density = 2.695053 g / cm^3
# Si number density = 27.012014 Si / 1000 Ang^3
#
#
#
# Elastic Constant Matrix: (Units=GPa)
#
#
# Indices 1 2 3 4 5 6 
#
# 1 122.2143 40.6881 64.5950 -0.1347 -8.7938 8.0901
# 2 40.6881 146.3182 44.5611 -0.0175 -6.4582 -0.2526
# 3 64.5950 44.5611 162.1265 -13.5888 -8.1726 -12.7236
# 4 -0.1347 -0.0175 -13.5888 39.9454 -1.9250 1.0356
# 5 -8.7938 -6.4582 -8.1726 -1.9250 48.4759 6.8397
# 6 8.0901 -0.2526 -12.7236 1.0356 6.8397 46.3338
#
#
#
# Elastic Compliance Matrix: (Units=1/GPa)
#
#
# Indices 1 2 3 4 5 6 
#
# 1 0.011410 -0.001786 -0.004352 -0.001281 0.001526 -0.003394
# 2 -0.001786 0.007795 -0.001455 -0.000472 0.000465 -0.000103
# 3 -0.004352 -0.001455 0.008796 0.002906 0.000181 0.003076
# 4 -0.001281 -0.000472 0.002906 0.026069 0.001193 0.000260
# 5 0.001526 0.000465 0.000181 0.001193 0.021528 -0.003419
# 6 -0.003394 -0.000103 0.003076 0.000260 -0.003419 0.023518
#
#
# Mechanical properties :
#
#
# Convention : Reuss Voigt Hill
#
# Bulk Modulus (GPa) = 78.03706 81.14971 79.59338
# Shear Modulus (GPa) = 42.16802 45.67200 43.92001
#
# Velocity S-wave (km/s) = 3.95534 4.11640 4.03667
# Velocity P-wave (km/s) = 7.05777 7.25950 7.15934
#
# Compressibility (1/GPa) = 0.01281443
#
# Stress axis : x y z
#
# Youngs Moduli (GPa) = 87.64044 128.29519 113.68918
#
# Poissons Ratio (x) = 0.22916 0.49477
# Poissons Ratio (y) = 0.15655 0.16541
# Poissons Ratio (z) = 0.38141 0.18666
#
# Static dielectric constant tensor:
#      x y z
#    x 2.207990 -0.023750 0.028520 
#    y -0.023750 2.104560 -0.032950 
#    z 0.028520 -0.032950 2.129660 
# 
# From -- ./inp_files/547975.got.cif
#   From: 2010.05.17/outbox.cif.g08.bks.cpg/sg2_274_cif.got.tgz:547975.got - 2010.06.03 11:33:40.
