data_PCOD9006407
_publ_section_title
;
Structure prediction by ZEFSAII (Michael W. Deem and Ramdas Pophale) SiO2 
 PCOD9006407
Probable space group: P -1
;
_chemical_formula_sum "Si O2"
_cell_formula_units_Z 14
_cell_length_a 14.670762
_cell_length_b 5.527555
_cell_length_c 23.406157
_cell_angle_alpha 101.496601
_cell_angle_beta 20.852709
_cell_angle_gamma 98.235145
_cell_volume 657.045347
_symmetry_space_group_name_H-M "P -1"
_symmetry_group_IT_number 2
_symmetry_cell_setting 'triclinic'
loop_
_space_group_symop_operation_xyz
x,y,z
-x,-y,-z
loop_
_atom_site_type_symbol
_atom_site_label
_atom_site_fract_x
_atom_site_fract_y
_atom_site_fract_z
Si Si1 0.583190 0.232075 0.996775
Si Si2 0.766028 0.575881 0.185074
Si Si3 0.890990 0.564254 0.783131
Si Si4 0.053874 0.926744 0.898810
Si Si5 0.050960 0.894982 0.402089
Si Si6 0.357235 0.083978 0.954689
Si Si7 0.815062 0.381840 0.491595
O O1 0.856825 0.296842 0.816841
O O2 0.337865 0.420020 0.130035
O O3 0.500000 0.000000 0.000000
O O4 0.600822 0.183288 0.050992
O O5 0.789377 0.347557 0.205116
O O6 0.489465 0.595896 0.317925
O O7 0.805852 0.848034 0.197727
O O8 0.000000 0.500000 0.000000
O O9 0.131129 0.623276 0.608713
O O10 0.810918 0.744657 0.891932
O O11 0.792362 0.917659 0.016544
O O12 0.000000 0.000000 0.000000
O O13 0.359403 0.839392 0.212958
O O14 0.917379 0.642191 0.462150
O O15 0.000000 0.000000 0.500000
O O16 0.949078 0.125482 0.429887
#
# Coordination Sequence:
#
# PCOD9006407 Si02
#       7
#     2   2   2   2   2   2   2
#     4   9  17  35  60  95 134 172 210 260 341 412
#     4  10  24  44  70  88 126 186 234 270 329 395
#     4  10  21  38  66 100 137 178 218 277 352 407
#     4  10  24  45  69  93 128 187 232 274 326 401
#     4  12  28  41  68 110 143 173 220 287 351 408
#     4  11  24  40  71 102 141 173 229 277 347 415
#     4  12  25  46  69 101 142 178 225 286 345 408
#
# _framework density 21.307507999999999
#
# number of rings (size 3 to 8) (size 9 to 14) (size 15 to 20)
#    0.000    1.429    1.429    3.857   12.000    0.000 
#    0.000    1.429    0.000    0.000    0.000    0.000 
#    0.000    0.000    0.000    0.000    0.000    0.000 
#
# Total GULP energy -78016.771968 kJ/mol
# GULP energy per Si atom -5572.626569 kJ/mol
# Density = 2.125901 g / cm^3
# Si number density = 21.307508 Si / 1000 Ang^3
#
#
#
# Elastic Constant Matrix: (Units=GPa)
#
#
# Indices 1 2 3 4 5 6 
#
# 1 103.8628 28.0660 43.2212 4.5651 -19.6293 3.1039
# 2 28.0660 139.8899 26.8336 -17.8273 -22.0198 3.3161
# 3 43.2212 26.8336 93.3010 -7.6323 -1.9519 24.6663
# 4 4.5651 -17.8273 -7.6323 21.5786 3.8325 1.6827
# 5 -19.6293 -22.0198 -1.9519 3.8325 38.4884 2.2995
# 6 3.1039 3.3161 24.6663 1.6827 2.2995 18.5531
#
#
#
# Elastic Compliance Matrix: (Units=1/GPa)
#
#
# Indices 1 2 3 4 5 6 
#
# 1 0.016086 -0.001699 -0.010959 -0.010890 0.007026 0.012299
# 2 -0.001699 0.009169 -0.000838 0.007083 0.003712 -0.001343
# 3 -0.010959 -0.000838 0.025873 0.014107 -0.004179 -0.033177
# 4 -0.010890 0.007083 0.014107 0.062288 -0.005605 -0.023154
# 5 0.007026 0.003712 -0.004179 -0.005605 0.032020 0.000257
# 6 0.012299 -0.001343 -0.033177 -0.023154 0.000257 0.098258
#
#
# Mechanical properties :
#
#
# Convention : Reuss Voigt Hill
#
# Bulk Modulus (GPa) = 41.42874 59.25504 50.34189
# Shear Modulus (GPa) = 17.93843 31.65287 24.79565
#
# Velocity S-wave (km/s) = 2.90467 3.85843 3.41501
# Velocity P-wave (km/s) = 5.54391 6.90796 6.26318
#
# Compressibility (1/GPa) = 0.02413783
#
# Stress axis : x y z
#
# Youngs Moduli (GPa) = 62.16433 109.06579 38.65020
#
# Poissons Ratio (x) = 0.18526 0.42355
# Poissons Ratio (y) = 0.10559 0.03239
# Poissons Ratio (z) = 0.68124 0.09139
#
# Static dielectric constant tensor:
#      x y z
#    x 1.760340 -0.059130 0.032020 
#    y -0.059130 1.973190 -0.013010 
#    z 0.032020 -0.013010 1.843060 
# 
# From -- ./inp_files/77931.got.cif
#   From: 2010.05.17/outbox.cif.g08.bks.cpg/sg2_39_cif.got.tgz:77931.got - 2010.06.03 11:33:40.
