data_PCOD9006158
_publ_section_title
;
Structure prediction by ZEFSAII (Michael W. Deem and Ramdas Pophale) SiO2 
 PCOD9006158
Probable space group: P -1
;
_chemical_formula_sum "Si O2"
_cell_formula_units_Z 13
_cell_length_a 12.088197
_cell_length_b 5.283234
_cell_length_c 10.026952
_cell_angle_alpha 114.569966
_cell_angle_beta 129.672512
_cell_angle_gamma 83.557044
_cell_volume 437.394201
_symmetry_space_group_name_H-M "P -1"
_symmetry_group_IT_number 2
_symmetry_cell_setting 'triclinic'
loop_
_space_group_symop_operation_xyz
x,y,z
-x,-y,-z
loop_
_atom_site_type_symbol
_atom_site_label
_atom_site_fract_x
_atom_site_fract_y
_atom_site_fract_z
Si Si1 0.078263 0.315913 0.177277
Si Si2 0.000000 0.000000 0.500000
Si Si3 0.329642 0.099177 0.225240
Si Si4 0.805237 0.513714 0.081493
Si Si5 0.642733 0.068030 0.491096
Si Si6 0.795834 0.347618 0.427138
Si Si7 0.502908 0.442809 0.145891
O O1 0.233857 0.337839 0.225451
O O2 0.128063 0.350654 0.380298
O O3 0.952929 0.501804 0.107439
O O4 0.000000 0.000000 0.000000
O O5 0.098740 0.804233 0.605232
O O6 0.872304 0.706109 0.300105
O O7 0.505725 0.211393 0.376499
O O8 0.317148 0.935418 0.325007
O O9 0.265100 0.823062 0.023574
O O10 0.665803 0.641604 0.954133
O O11 0.777510 0.172981 0.517714
O O12 0.572676 0.740245 0.334037
O O13 0.631681 0.276517 0.229986
O O14 0.500000 0.500000 0.000000
#
# Coordination Sequence:
#
# PCOD9006158 Si02
#       7
#     2   1   2   2   2   2   2
#     4   9  18  39  64  91 132 168 206 262 324 384
#     4  10  22  42  60  96 132 168 224 268 316 392
#     4   9  18  39  64  94 133 161 212 270 320 387
#     4   9  20  38  63  88 131 167 212 262 326 378
#     4  10  21  38  65 100 124 166 217 267 327 382
#     4  11  23  42  69  92 132 173 217 271 325 387
#     4  11  23  42  66  94 127 174 222 274 318 381
#
# _framework density 29.721475000000002
#
# number of rings (size 3 to 8) (size 9 to 14) (size 15 to 20)
#    0.000    2.154    1.538    0.923    0.000    3.077 
#    2.769    9.231    3.385    0.000    0.000    0.000 
#    0.000    0.000    0.000    0.000    0.000    0.000 
#
# Total GULP energy -72475.276701 kJ/mol
# GULP energy per Si atom -5575.021285 kJ/mol
# Density = 2.965383 g / cm^3
# Si number density = 29.721475 Si / 1000 Ang^3
#
#
#
# Elastic Constant Matrix: (Units=GPa)
#
#
# Indices 1 2 3 4 5 6 
#
# 1 106.8787 25.0677 43.4092 -14.1807 13.6792 -9.3857
# 2 25.0677 111.6403 45.7254 -12.1082 18.6406 -35.6544
# 3 43.4092 45.7254 202.8853 -8.8239 34.5354 -21.8989
# 4 -14.1807 -12.1082 -8.8239 54.0214 -17.2232 19.3116
# 5 13.6792 18.6406 34.5354 -17.2232 63.1503 -10.5755
# 6 -9.3857 -35.6544 -21.8989 19.3116 -10.5755 51.9803
#
#
#
# Elastic Compliance Matrix: (Units=1/GPa)
#
#
# Indices 1 2 3 4 5 6 
#
# 1 0.010779 -0.001630 -0.001878 0.002379 -0.000331 -0.000914
# 2 -0.001630 0.012537 -0.001415 -0.001145 -0.001578 0.007814
# 3 -0.001878 -0.001415 0.006179 -0.001056 -0.002650 0.001146
# 4 0.002379 -0.001145 -0.001056 0.023429 0.005382 -0.008410
# 5 -0.000331 -0.001578 -0.002650 0.005382 0.019232 -0.000345
# 6 -0.000914 0.007814 0.001146 -0.008410 -0.000345 0.027970
#
#
# Mechanical properties :
#
#
# Convention : Reuss Voigt Hill
#
# Bulk Modulus (GPa) = 50.88942 72.20098 61.54520
# Shear Modulus (GPa) = 42.91091 54.31054 48.61072
#
# Velocity S-wave (km/s) = 3.80382 4.27935 4.04857
# Velocity P-wave (km/s) = 6.03749 6.98301 6.52739
#
# Compressibility (1/GPa) = 0.01965045
#
# Stress axis : x y z
#
# Youngs Moduli (GPa) = 92.77255 79.76075 161.85151
#
# Poissons Ratio (x) = 0.12999 0.30392
# Poissons Ratio (y) = 0.15120 0.22898
# Poissons Ratio (z) = 0.17420 0.11284
#
# Static dielectric constant tensor:
#      x y z
#    x 2.443580 -0.183970 -0.076160 
#    y -0.183970 2.234390 -0.116220 
#    z -0.076160 -0.116220 2.288930 
# 
# From -- ./inp_files/408123.got.cif
#   From: 2010.05.17/outbox.cif.g08.bks.cpg/sg2_205_cif.got.tgz:408123.got - 2010.06.03 11:33:40.
