data_PCOD9006913
_publ_section_title
;
Structure prediction by ZEFSAII (Michael W. Deem and Ramdas Pophale) SiO2 
 PCOD9006913
Probable space group: P -1
;
_chemical_formula_sum "Si O2"
_cell_formula_units_Z 16
_cell_length_a 7.590041
_cell_length_b 8.930527
_cell_length_c 26.794125
_cell_angle_alpha 48.043929
_cell_angle_beta 76.473966
_cell_angle_gamma 112.093660
_cell_volume 888.316979
_symmetry_space_group_name_H-M "P -1"
_symmetry_group_IT_number 2
_symmetry_cell_setting 'triclinic'
loop_
_space_group_symop_operation_xyz
x,y,z
-x,-y,-z
loop_
_atom_site_type_symbol
_atom_site_label
_atom_site_fract_x
_atom_site_fract_y
_atom_site_fract_z
Si Si1 0.614346 0.205848 0.702057
Si Si2 0.400524 0.734241 0.416321
Si Si3 0.667610 0.449325 0.020116
Si Si4 0.429681 0.807476 0.179670
Si Si5 0.904966 0.158721 0.630276
Si Si6 0.966257 0.752507 0.733496
Si Si7 0.999316 0.606418 0.868858
Si Si8 0.059780 0.864990 0.990268
O O1 0.641830 0.373701 0.614544
O O2 0.619193 0.296068 0.736786
O O3 0.829476 0.205683 0.677065
O O4 0.319805 0.871079 0.788489
O O5 0.283374 0.867121 0.389556
O O6 0.208038 0.455905 0.527803
O O7 0.711890 0.985100 0.352359
O O8 0.500647 0.104167 0.110174
O O9 0.500000 0.500000 0.000000
O O10 0.898319 0.602437 0.929537
O O11 0.809779 0.613098 0.026531
O O12 0.173816 0.535136 0.225202
O O13 0.682082 0.907560 0.113447
O O14 0.860384 0.885825 0.695793
O O15 0.905712 0.659829 0.816323
O O16 0.895703 0.294345 0.942684
O O17 0.000000 0.000000 0.000000
#
# Coordination Sequence:
#
# PCOD9006913 Si02
#       8
#     2   2   2   2   2   2   2   2
#     4   9  17  38  61  78 114 155 190 237 290 348
#     4   8  19  39  65  84 117 149 200 239 294 360
#     4  11  24  39  58  80 120 159 199 238 298 345
#     4  11  23  38  54  86 122 150 193 250 288 338
#     4   9  19  38  66  85 111 160 194 237 305 351
#     4  11  23  34  62  91 119 147 204 245 285 353
#     4  10  21  39  56  83 117 156 197 242 283 348
#     4  11  24  39  60  80 118 158 197 244 292 345
#
# _framework density 18.011588
#
# number of rings (size 3 to 8) (size 9 to 14) (size 15 to 20)
#    0.750    1.250    2.500    1.125    7.000    1.000 
#    0.000    1.250    0.000    0.000    0.000    0.000 
#    0.000    0.000    0.000    0.000    0.000    0.000 
#
# Total GULP energy -89104.977088 kJ/mol
# GULP energy per Si atom -5569.061068 kJ/mol
# Density = 1.797059 g / cm^3
# Si number density = 18.011588 Si / 1000 Ang^3
#
#
#
# Elastic Constant Matrix: (Units=GPa)
#
#
# Indices 1 2 3 4 5 6 
#
# 1 59.5324 24.5766 22.3071 -4.2190 10.4746 -10.4664
# 2 24.5766 103.4716 41.7915 1.0625 5.7785 -7.2917
# 3 22.3071 41.7915 67.7831 13.4650 8.7660 -5.7339
# 4 -4.2190 1.0625 13.4650 21.4446 -3.0975 -3.6758
# 5 10.4746 5.7785 8.7660 -3.0975 17.8888 2.4845
# 6 -10.4664 -7.2917 -5.7339 -3.6758 2.4845 27.0303
#
#
#
# Elastic Compliance Matrix: (Units=1/GPa)
#
#
# Indices 1 2 3 4 5 6 
#
# 1 0.024125 -0.002006 -0.006375 0.009033 -0.010124 0.009607
# 2 -0.002006 0.013682 -0.008867 0.005015 0.001752 0.001554
# 3 -0.006375 -0.008867 0.027474 -0.019666 -0.010164 -0.000773
# 4 0.009033 0.005015 -0.019666 0.063736 0.012627 0.008185
# 5 -0.010124 0.001752 -0.010164 0.012627 0.069862 -0.010308
# 6 0.009607 0.001554 -0.000773 0.008185 -0.010308 0.043031
#
#
# Mechanical properties :
#
#
# Convention : Reuss Voigt Hill
#
# Bulk Modulus (GPa) = 32.48323 45.34860 38.91592
# Shear Modulus (GPa) = 17.44185 22.74687 20.09436
#
# Velocity S-wave (km/s) = 3.11524 3.55759 3.34374
# Velocity P-wave (km/s) = 5.56897 6.48902 6.04652
#
# Compressibility (1/GPa) = 0.03078511
#
# Stress axis : x y z
#
# Youngs Moduli (GPa) = 41.45094 73.08659 36.39857
#
# Poissons Ratio (x) = 0.14658 0.23205
# Poissons Ratio (y) = 0.08313 0.32275
# Poissons Ratio (z) = 0.26426 0.64806
#
# Static dielectric constant tensor:
#      x y z
#    x 1.643720 0.000230 -0.006050 
#    y 0.000230 1.612630 0.032080 
#    z -0.006050 0.032080 1.644680 
# 
# From -- ./inp_files/616645.got.cif
#   From: 2010.05.17/outbox.cif.g08.bks.cpg/sg2_309_cif.got.tgz:616645.got - 2010.06.03 11:33:40.
