data_PCOD9006827
_publ_section_title
;
Structure prediction by ZEFSAII (Michael W. Deem and Ramdas Pophale) SiO2 
 PCOD9006827
Probable space group: P -1
;
_chemical_formula_sum "Si O2"
_cell_formula_units_Z 13
_cell_length_a 7.693647
_cell_length_b 9.683340
_cell_length_c 8.353317
_cell_angle_alpha 60.875608
_cell_angle_beta 101.825002
_cell_angle_gamma 80.597811
_cell_volume 506.285468
_symmetry_space_group_name_H-M "P -1"
_symmetry_group_IT_number 2
_symmetry_cell_setting 'triclinic'
loop_
_space_group_symop_operation_xyz
x,y,z
-x,-y,-z
loop_
_atom_site_type_symbol
_atom_site_label
_atom_site_fract_x
_atom_site_fract_y
_atom_site_fract_z
Si Si1 0.349154 0.095528 0.784762
Si Si2 0.500000 0.500000 0.000000
Si Si3 0.228055 0.850638 0.712725
Si Si4 0.330488 0.435956 0.690703
Si Si5 0.027921 0.307575 0.081160
Si Si6 0.694475 0.023491 0.688361
Si Si7 0.233556 0.705080 0.258117
O O1 0.259180 0.279919 0.729142
O O2 0.476094 0.095429 0.650983
O O3 0.213410 0.995295 0.758595
O O4 0.500000 0.000000 0.000000
O O5 0.409542 0.700782 0.878431
O O6 0.339382 0.493566 0.839702
O O7 0.055062 0.781202 0.744157
O O8 0.260962 0.910692 0.510055
O O9 0.225355 0.588152 0.471758
O O10 0.551601 0.372902 0.718563
O O11 0.901883 0.304998 0.904102
O O12 0.231554 0.175402 0.173035
O O13 0.000000 0.500000 0.000000
O O14 0.790410 0.110358 0.789227
#
# Coordination Sequence:
#
# PCOD9006827 Si02
#       7
#     2   1   2   2   2   2   2
#     4  11  23  41  71 105 136 179 231 294 349 414
#     4  12  20  40  72 102 134 168 232 288 350 392
#     4  12  25  44  70 102 141 182 234 295 342 417
#     4  10  21  38  70 101 134 169 233 290 345 398
#     4  12  28  46  68  99 145 191 236 283 349 423
#     4  11  25  45  70 101 141 188 228 285 360 413
#     4  10  21  43  66  97 134 180 228 288 340 412
#
# _framework density 25.677212000000001
#
# number of rings (size 3 to 8) (size 9 to 14) (size 15 to 20)
#    0.000    0.923    4.615    2.308    4.308    0.000 
#    0.000    0.769    0.000    0.000    0.000    0.000 
#    0.000    0.000    0.000    0.000    0.000    0.000 
#
# Total GULP energy -72597.560260 kJ/mol
# GULP energy per Si atom -5584.427712 kJ/mol
# Density = 2.561877 g / cm^3
# Si number density = 25.677212 Si / 1000 Ang^3
#
#
#
# Elastic Constant Matrix: (Units=GPa)
#
#
# Indices 1 2 3 4 5 6 
#
# 1 66.3626 27.6195 15.2890 1.7818 -14.4731 -0.6131
# 2 27.6195 175.1947 25.0812 -6.7631 -14.3203 32.8655
# 3 15.2890 25.0812 104.2505 2.0559 -11.8661 -5.2504
# 4 1.7818 -6.7631 2.0559 41.0178 1.4673 1.8721
# 5 -14.4731 -14.3203 -11.8661 1.4673 31.1861 -9.0384
# 6 -0.6131 32.8655 -5.2504 1.8721 -9.0384 31.9347
#
#
#
# Elastic Compliance Matrix: (Units=1/GPa)
#
#
# Indices 1 2 3 4 5 6 
#
# 1 0.018653 -0.003416 -0.000549 -0.001954 0.008825 0.006396
# 2 -0.003416 0.008305 -0.002184 0.002113 -0.001458 -0.009508
# 3 -0.000549 -0.002184 0.011016 -0.001299 0.004565 0.005416
# 4 -0.001954 0.002113 -0.001299 0.025202 -0.002993 -0.004750
# 5 0.008825 -0.001458 0.004565 -0.002993 0.041528 0.014349
# 6 0.006396 -0.009508 0.005416 -0.004750 0.014349 0.046452
#
#
# Mechanical properties :
#
#
# Convention : Reuss Voigt Hill
#
# Bulk Modulus (GPa) = 38.94412 53.53193 46.23803
# Shear Modulus (GPa) = 29.06762 39.34892 34.20827
#
# Velocity S-wave (km/s) = 3.36823 3.91889 3.65395
# Velocity P-wave (km/s) = 5.50694 6.43197 5.98735
#
# Compressibility (1/GPa) = 0.02567782
#
# Stress axis : x y z
#
# Youngs Moduli (GPa) = 53.61074 120.40623 90.77638
#
# Poissons Ratio (x) = 0.41130 0.04980
# Poissons Ratio (y) = 0.18313 0.19822
# Poissons Ratio (z) = 0.02941 0.26292
#
# Static dielectric constant tensor:
#      x y z
#    x 2.122860 -0.022860 -0.079930 
#    y -0.022860 2.002080 0.019180 
#    z -0.079930 0.019180 1.994110 
# 
# From -- ./inp_files/152812.got.cif
#   From: 2010.05.17/outbox.cif.g08.bks.cpg/sg2_77_cif.got.tgz:152812.got - 2010.06.03 11:33:40.
