data_PCOD9006483
_publ_section_title
;
Structure prediction by ZEFSAII (Michael W. Deem and Ramdas Pophale) SiO2 
 PCOD9006483
Probable space group: P -1
;
_chemical_formula_sum "Si O2"
_cell_formula_units_Z 16
_cell_length_a 9.338259
_cell_length_b 14.491561
_cell_length_c 22.824162
_cell_angle_alpha 22.091802
_cell_angle_beta 134.787742
_cell_angle_gamma 136.148384
_cell_volume 796.928527
_symmetry_space_group_name_H-M "P -1"
_symmetry_group_IT_number 2
_symmetry_cell_setting 'triclinic'
loop_
_space_group_symop_operation_xyz
x,y,z
-x,-y,-z
loop_
_atom_site_type_symbol
_atom_site_label
_atom_site_fract_x
_atom_site_fract_y
_atom_site_fract_z
Si Si1 0.528995 0.754803 0.620335
Si Si2 0.225765 0.549302 0.903240
Si Si3 0.183818 0.138140 0.040191
Si Si4 0.751379 0.932637 0.458135
Si Si5 0.154019 0.534816 0.079892
Si Si6 0.903715 0.613696 0.250146
Si Si7 0.387871 0.874632 0.864914
Si Si8 0.725224 0.661716 0.491317
O O1 0.612254 0.830607 0.534358
O O2 0.714727 0.669590 0.756503
O O3 0.311241 0.541369 0.691023
O O4 0.500000 0.000000 0.500000
O O5 0.339249 0.631766 0.949550
O O6 0.982438 0.480239 0.892593
O O7 0.287879 0.804205 0.732311
O O8 0.252765 0.307315 0.018175
O O9 0.366983 0.022433 0.134910
O O10 0.135084 0.321350 0.867362
O O11 0.993794 0.892639 0.139994
O O12 0.708152 0.720123 0.520441
O O13 0.000000 0.000000 0.500000
O O14 0.324531 0.792283 0.960903
O O15 0.000000 0.500000 0.000000
O O16 0.080435 0.456044 0.396131
O O17 0.252995 0.062840 0.694142
O O18 0.500000 0.500000 0.500000
#
# Coordination Sequence:
#
# PCOD9006483 Si02
#       8
#     2   2   2   2   2   2   2   2
#     4  12  24  41  66  99 135 167 220 278 326 385
#     4  10  21  38  66  92 127 162 218 267 316 384
#     4  11  21  42  62  95 126 168 216 263 323 385
#     4  11  22  40  69  99 125 172 224 267 325 392
#     4  10  22  40  60  96 128 166 210 265 328 379
#     4  11  25  40  64  93 133 171 211 266 328 385
#     4  10  21  40  66  92 126 167 219 260 327 383
#     4  11  23  45  67  92 133 180 217 264 330 401
#
# _framework density 20.077082000000001
#
# number of rings (size 3 to 8) (size 9 to 14) (size 15 to 20)
#    0.000    1.250    3.750    2.625    3.500    0.000 
#    4.500    1.250    0.000    0.000    0.000    0.000 
#    0.000    0.000    0.000    0.000    0.000    0.000 
#
# Total GULP energy -89235.369595 kJ/mol
# GULP energy per Si atom -5577.210600 kJ/mol
# Density = 2.003139 g / cm^3
# Si number density = 20.077082 Si / 1000 Ang^3
#
#
#
# Elastic Constant Matrix: (Units=GPa)
#
#
# Indices 1 2 3 4 5 6 
#
# 1 146.2916 44.1953 72.2512 -4.0485 -11.8053 23.8737
# 2 44.1953 78.9495 12.2877 -11.5218 -6.7462 5.7174
# 3 72.2512 12.2877 88.3007 11.0208 -2.6659 3.0132
# 4 -4.0485 -11.5218 11.0208 33.9692 10.9854 0.4679
# 5 -11.8053 -6.7462 -2.6659 10.9854 39.0719 0.2882
# 6 23.8737 5.7174 3.0132 0.4679 0.2882 30.0757
#
#
#
# Elastic Compliance Matrix: (Units=1/GPa)
#
#
# Indices 1 2 3 4 5 6 
#
# 1 0.017510 -0.006120 -0.013487 0.003790 0.002332 -0.011466
# 2 -0.006120 0.016232 0.002190 0.004062 -0.000050 0.001490
# 3 -0.013487 0.002190 0.022837 -0.008443 0.000175 0.008131
# 4 0.003790 0.004062 -0.008443 0.036999 -0.009107 -0.003423
# 5 0.002332 -0.000050 0.000175 -0.009107 0.028877 -0.001995
# 6 -0.011466 0.001490 0.008131 -0.003423 -0.001995 0.041325
#
#
# Mechanical properties :
#
#
# Convention : Reuss Voigt Hill
#
# Bulk Modulus (GPa) = 45.98896 63.44557 54.71727
# Shear Modulus (GPa) = 24.28794 32.94387 28.61590
#
# Velocity S-wave (km/s) = 3.48190 4.05516 3.77941
# Velocity P-wave (km/s) = 6.25466 7.32088 6.80867
#
# Compressibility (1/GPa) = 0.02174435
#
# Stress axis : x y z
#
# Youngs Moduli (GPa) = 57.11097 61.60674 43.78784
#
# Poissons Ratio (x) = 0.37703 0.59057
# Poissons Ratio (y) = 0.34952 -0.09587
# Poissons Ratio (z) = 0.77025 -0.13489
#
# Static dielectric constant tensor:
#      x y z
#    x 1.755750 0.069040 -0.026950 
#    y 0.069040 1.764370 -0.017930 
#    z -0.026950 -0.017930 1.745170 
# 
# From -- ./inp_files/608165.got.cif
#   From: 2010.05.17/outbox.cif.g08.bks.cpg/sg2_305_cif.got.tgz:608165.got - 2010.06.03 11:33:40.
