data_PCOD9006403
_publ_section_title
;
Structure prediction by ZEFSAII (Michael W. Deem and Ramdas Pophale) SiO2 
 PCOD9006403
Probable space group: P -1
;
_chemical_formula_sum "Si O2"
_cell_formula_units_Z 16
_cell_length_a 14.483600
_cell_length_b 6.936821
_cell_length_c 13.227226
_cell_angle_alpha 43.280433
_cell_angle_beta 132.088060
_cell_angle_gamma 119.745483
_cell_volume 676.040563
_symmetry_space_group_name_H-M "P -1"
_symmetry_group_IT_number 2
_symmetry_cell_setting 'triclinic'
loop_
_space_group_symop_operation_xyz
x,y,z
-x,-y,-z
loop_
_atom_site_type_symbol
_atom_site_label
_atom_site_fract_x
_atom_site_fract_y
_atom_site_fract_z
Si Si1 0.605637 0.086630 0.637223
Si Si2 0.564810 0.227290 0.201235
Si Si3 0.709404 0.660209 0.727390
Si Si4 0.956669 0.937449 0.877621
Si Si5 0.815486 0.514260 0.284324
Si Si6 0.685494 0.699844 0.452916
Si Si7 0.228238 0.905770 0.061762
Si Si8 0.927214 0.576148 0.552783
O O1 0.381515 0.125875 0.365265
O O2 0.601906 0.417052 0.480205
O O3 0.735432 0.105504 0.789649
O O4 0.519150 0.933397 0.715968
O O5 0.697586 0.333262 0.302013
O O6 0.610498 0.974655 0.258470
O O7 0.500000 0.500000 0.000000
O O8 0.841412 0.736761 0.845724
O O9 0.705626 0.712753 0.584327
O O10 0.689941 0.323561 0.848454
O O11 0.924711 0.238227 0.691544
O O12 0.084778 0.825610 0.968328
O O13 0.000000 0.000000 0.000000
O O14 0.881582 0.644637 0.381081
O O15 0.924032 0.357253 0.360804
O O16 0.761149 0.771666 0.083867
O O17 0.822209 0.686271 0.508836
#
# Coordination Sequence:
#
# PCOD9006403 Si02
#       8
#     2   2   2   2   2   2   2   2
#     4  11  23  46  67 103 143 181 237 290 343 415
#     4  12  26  46  72 101 144 196 232 284 355 425
#     4  11  22  40  70 104 138 187 229 287 362 406
#     4  11  18  36  66 100 141 173 225 297 350 408
#     4  10  23  46  70 100 148 185 233 293 351 425
#     4  11  25  46  74 105 138 181 244 295 348 417
#     4  10  21  38  65  99 139 181 230 285 346 416
#     4  10  22  44  73 102 138 181 231 301 354 406
#
# _framework density 23.66722
#
# number of rings (size 3 to 8) (size 9 to 14) (size 15 to 20)
#    0.000    1.250    3.750    2.250    0.000    2.000 
#    4.500    1.250    0.000    0.000    0.000    0.000 
#    0.000    0.000    0.000    0.000    0.000    0.000 
#
# Total GULP energy -89310.160380 kJ/mol
# GULP energy per Si atom -5581.885024 kJ/mol
# Density = 2.361335 g / cm^3
# Si number density = 23.667220 Si / 1000 Ang^3
#
#
#
# Elastic Constant Matrix: (Units=GPa)
#
#
# Indices 1 2 3 4 5 6 
#
# 1 158.5839 44.6039 33.0158 -10.0768 34.8978 -7.5341
# 2 44.6039 102.8036 26.5743 2.2960 20.5703 -0.5446
# 3 33.0158 26.5743 99.8192 -20.6572 18.9984 -10.4741
# 4 -10.0768 2.2960 -20.6572 36.2623 -6.6522 10.6509
# 5 34.8978 20.5703 18.9984 -6.6522 38.2025 2.4214
# 6 -7.5341 -0.5446 -10.4741 10.6509 2.4214 44.0839
#
#
#
# Elastic Compliance Matrix: (Units=1/GPa)
#
#
# Indices 1 2 3 4 5 6 
#
# 1 0.008583 -0.002278 -0.000788 0.000506 -0.006227 0.001471
# 2 -0.002278 0.012221 -0.002475 -0.003611 -0.003914 0.000261
# 3 -0.000788 -0.002475 0.013062 0.006271 -0.003453 0.001613
# 4 0.000506 -0.003611 0.006271 0.034476 0.004815 -0.007062
# 5 -0.006227 -0.003914 -0.003453 0.004815 0.036853 -0.005121
# 6 0.001471 0.000261 0.001613 -0.007062 -0.005121 0.025309
#
#
# Mechanical properties :
#
#
# Convention : Reuss Voigt Hill
#
# Bulk Modulus (GPa) = 43.89093 63.28829 53.58961
# Shear Modulus (GPa) = 33.51647 40.84389 37.18018
#
# Velocity S-wave (km/s) = 3.76727 4.15873 3.96783
# Velocity P-wave (km/s) = 6.12441 7.06109 6.60936
#
# Compressibility (1/GPa) = 0.02278375
#
# Stress axis : x y z
#
# Youngs Moduli (GPa) = 116.51022 81.82961 76.55751
#
# Poissons Ratio (x) = 0.18638 0.06034
# Poissons Ratio (y) = 0.26537 0.18948
# Poissons Ratio (z) = 0.09184 0.20253
#
# Static dielectric constant tensor:
#      x y z
#    x 1.964980 0.031070 0.063520 
#    y 0.031070 1.913070 -0.003730 
#    z 0.063520 -0.003730 1.987090 
# 
# From -- ./inp_files/528135.got.cif
#   From: 2010.05.17/outbox.cif.g08.bks.cpg/sg2_265_cif.got.tgz:528135.got - 2010.06.03 11:33:40.
