data_PCOD9006263
_publ_section_title
;
Structure prediction by ZEFSAII (Michael W. Deem and Ramdas Pophale) SiO2 
 PCOD9006263
Probable space group: P -1
;
_chemical_formula_sum "Si O2"
_cell_formula_units_Z 15
_cell_length_a 9.284428
_cell_length_b 7.471285
_cell_length_c 18.245596
_cell_angle_alpha 44.650184
_cell_angle_beta 56.262928
_cell_angle_gamma 80.841128
_cell_volume 676.716954
_symmetry_space_group_name_H-M "P -1"
_symmetry_group_IT_number 2
_symmetry_cell_setting 'triclinic'
loop_
_space_group_symop_operation_xyz
x,y,z
-x,-y,-z
loop_
_atom_site_type_symbol
_atom_site_label
_atom_site_fract_x
_atom_site_fract_y
_atom_site_fract_z
Si Si1 0.678581 0.602923 0.864870
Si Si2 0.549662 0.848584 0.461026
Si Si3 0.499530 0.721535 0.739605
Si Si4 0.000000 0.500000 0.500000
Si Si5 0.975401 0.950048 0.276705
Si Si6 0.767880 0.132077 0.025245
Si Si7 0.560185 0.388662 0.678933
Si Si8 0.903913 0.746182 0.000065
O O1 0.626840 0.708107 0.774116
O O2 0.858898 0.841834 0.779670
O O3 0.500000 0.500000 0.000000
O O4 0.728395 0.336155 0.921556
O O5 0.484660 0.525406 0.594181
O O6 0.500000 0.000000 0.500000
O O7 0.471451 0.967251 0.381287
O O8 0.774459 0.949178 0.357720
O O9 0.544589 0.564822 0.703265
O O10 0.280363 0.537909 0.875549
O O11 0.775667 0.431286 0.598529
O O12 0.017573 0.343956 0.619328
O O13 0.021535 0.071487 0.146737
O O14 0.929195 0.296608 0.990741
O O15 0.577523 0.931399 0.178091
O O16 0.835675 0.929622 0.019745
#
# Coordination Sequence:
#
# PCOD9006263 Si02
#       8
#     2   2   2   1   2   2   2   2
#     4  12  24  37  61 100 126 155 201 258 306 369
#     4   9  20  41  62  86 120 165 207 245 299 360
#     4  10  21  38  65  92 125 160 200 253 316 354
#     4  10  22  42  60  88 124 164 206 248 300 366
#     4  11  23  41  66  88 125 163 204 253 306 361
#     4  10  23  40  64  95 126 152 210 251 309 369
#     4   9  20  40  65  86 125 168 200 251 302 366
#     4  10  22  41  65  93 119 165 198 258 311 360
#
# _framework density 22.165842000000001
#
# number of rings (size 3 to 8) (size 9 to 14) (size 15 to 20)
#    0.000    1.867    1.333    1.600    3.733    3.200 
#    2.400    7.333    0.000    0.000    0.000    0.000 
#    0.000    0.000    0.000    0.000    0.000    0.000 
#
# Total GULP energy -83599.087515 kJ/mol
# GULP energy per Si atom -5573.272501 kJ/mol
# Density = 2.211539 g / cm^3
# Si number density = 22.165842 Si / 1000 Ang^3
#
#
#
# Elastic Constant Matrix: (Units=GPa)
#
#
# Indices 1 2 3 4 5 6 
#
# 1 137.6087 20.4734 54.6111 -4.1247 32.4869 -19.1856
# 2 20.4734 33.8256 14.4258 -1.1920 0.3608 -15.3442
# 3 54.6111 14.4258 109.6822 14.7824 26.5577 -8.4605
# 4 -4.1247 -1.1920 14.7824 20.0761 -12.8898 0.0269
# 5 32.4869 0.3608 26.5577 -12.8898 56.3820 -3.9282
# 6 -19.1856 -15.3442 -8.4605 0.0269 -3.9282 31.6459
#
#
#
# Elastic Compliance Matrix: (Units=1/GPa)
#
#
# Indices 1 2 3 4 5 6 
#
# 1 0.010772 -0.002878 -0.004394 0.003267 -0.003123 0.003570
# 2 -0.002878 0.042678 -0.006452 0.012103 0.008464 0.018264
# 3 -0.004394 -0.006452 0.017304 -0.020762 -0.010495 -0.002451
# 4 0.003267 0.012103 -0.020762 0.084096 0.027438 0.005633
# 5 -0.003123 0.008464 -0.010495 0.027438 0.030922 0.003220
# 6 0.003570 0.018264 -0.002451 0.005633 0.003220 0.042359
#
#
# Mechanical properties :
#
#
# Convention : Reuss Voigt Hill
#
# Bulk Modulus (GPa) = 23.09120 51.12634 37.10877
# Shear Modulus (GPa) = 18.51760 34.39454 26.45607
#
# Velocity S-wave (km/s) = 2.89348 3.94342 3.45853
# Velocity P-wave (km/s) = 4.64791 6.62190 5.72069
#
# Compressibility (1/GPa) = 0.04330654
#
# Stress axis : x y z
#
# Youngs Moduli (GPa) = 92.83538 23.43119 57.79127
#
# Poissons Ratio (x) = 0.06744 0.25391
# Poissons Ratio (y) = 0.26719 0.37286
# Poissons Ratio (z) = 0.40788 0.15117
#
# Static dielectric constant tensor:
#      x y z
#    x 1.803820 -0.015460 0.041970 
#    y -0.015460 1.845540 -0.028230 
#    z 0.041970 -0.028230 1.848220 
# 
# From -- ./inp_files/181451.got.cif
#   From: 2010.05.17/outbox.cif.g08.bks.cpg/sg2_91_cif.got.tgz:181451.got - 2010.06.03 11:33:40.
