data_PCOD9006276
_publ_section_title
;
Structure prediction by ZEFSAII (Michael W. Deem and Ramdas Pophale) SiO2 
 PCOD9006276
Probable space group: P -1
;
_chemical_formula_sum "Si O2"
_cell_formula_units_Z 14
_cell_length_a 15.915838
_cell_length_b 7.646872
_cell_length_c 9.593435
_cell_angle_alpha 129.736943
_cell_angle_beta 141.599528
_cell_angle_gamma 48.341913
_cell_volume 523.932419
_symmetry_space_group_name_H-M "P -1"
_symmetry_group_IT_number 2
_symmetry_cell_setting 'triclinic'
loop_
_space_group_symop_operation_xyz
x,y,z
-x,-y,-z
loop_
_atom_site_type_symbol
_atom_site_label
_atom_site_fract_x
_atom_site_fract_y
_atom_site_fract_z
Si Si1 0.706843 0.115398 0.321011
Si Si2 0.753284 0.545833 0.507020
Si Si3 0.144112 0.771525 0.783206
Si Si4 0.473220 0.259690 0.302620
Si Si5 0.434741 0.835860 0.142130
Si Si6 0.167252 0.397572 0.854079
Si Si7 0.971682 0.807021 0.974054
O O1 0.743591 0.358056 0.516917
O O2 0.615223 0.088436 0.320488
O O3 0.834299 0.866556 0.323630
O O4 0.606991 0.167474 0.078128
O O5 0.593447 0.666569 0.299113
O O6 0.826416 0.745401 0.729163
O O7 0.849115 0.354521 0.420058
O O8 0.307150 0.775746 0.021228
O O9 0.047641 0.046829 0.832238
O O10 0.113883 0.588781 0.759186
O O11 0.500000 0.500000 0.500000
O O12 0.433813 0.109516 0.298771
O O13 0.337118 0.338614 0.064177
O O14 0.089735 0.543551 0.964027
O O15 0.000000 0.000000 0.000000
#
# Coordination Sequence:
#
# PCOD9006276 Si02
#       7
#     2   2   2   2   2   2   2
#     4  10  21  41  63  89 124 156 200 257 306 359
#     4  11  22  40  67  92 120 165 203 246 314 357
#     4  10  21  41  65  93 124 158 206 254 299 358
#     4  11  23  36  61  93 121 156 199 252 313 356
#     4  10  21  38  65  93 118 158 203 253 306 357
#     4  10  21  43  59  85 129 160 198 253 299 361
#     4  10  25  40  60  91 127 161 208 247 297 367
#
# _framework density 26.721001999999999
#
# number of rings (size 3 to 8) (size 9 to 14) (size 15 to 20)
#    0.000    1.714    0.000    6.000    6.000    3.429 
#    2.571    6.429    0.000    0.000    0.000    0.000 
#    0.000    0.000    0.000    0.000    0.000    0.000 
#
# Total GULP energy -78354.233339 kJ/mol
# GULP energy per Si atom -5596.730953 kJ/mol
# Density = 2.666018 g / cm^3
# Si number density = 26.721002 Si / 1000 Ang^3
#
#
#
# Elastic Constant Matrix: (Units=GPa)
#
#
# Indices 1 2 3 4 5 6 
#
# 1 70.8599 38.6731 37.7325 5.5272 8.9717 -7.8458
# 2 38.6731 144.8063 54.6384 31.8015 12.8461 -11.8319
# 3 37.7325 54.6384 153.2180 39.4324 26.6368 -2.3264
# 4 5.5272 31.8015 39.4324 49.0802 0.1485 4.8562
# 5 8.9717 12.8461 26.6368 0.1485 36.2586 18.9510
# 6 -7.8458 -11.8319 -2.3264 4.8562 18.9510 47.2420
#
#
#
# Elastic Compliance Matrix: (Units=1/GPa)
#
#
# Indices 1 2 3 4 5 6 
#
# 1 0.018387 -0.003901 -0.003615 0.003143 -0.001706 0.002260
# 2 -0.003901 0.010233 -0.000056 -0.006585 -0.004992 0.004592
# 3 -0.003615 -0.000056 0.011746 -0.009465 -0.010332 0.005082
# 4 0.003143 -0.006585 -0.009465 0.032894 0.013886 -0.010545
# 5 -0.001706 -0.004992 -0.010332 0.013886 0.049495 -0.023324
# 6 0.002260 0.004592 0.005082 -0.010545 -0.023324 0.033384
#
#
# Mechanical properties :
#
#
# Convention : Reuss Voigt Hill
#
# Bulk Modulus (GPa) = 39.64685 70.10804 54.87744
# Shear Modulus (GPa) = 27.82556 42.37218 35.09887
#
# Velocity S-wave (km/s) = 3.23048 3.98644 3.62820
# Velocity P-wave (km/s) = 5.36509 6.89079 6.17524
#
# Compressibility (1/GPa) = 0.02522268
#
# Stress axis : x y z
#
# Youngs Moduli (GPa) = 54.38506 97.72296 85.13266
#
# Poissons Ratio (x) = 0.38120 0.30776
# Poissons Ratio (y) = 0.21215 0.00478
# Poissons Ratio (z) = 0.19661 0.00548
#
# Static dielectric constant tensor:
#      x y z
#    x 2.121090 -0.039050 0.017210 
#    y -0.039050 2.073690 0.021040 
#    z 0.017210 0.021040 2.173110 
# 
# From -- ./inp_files/176245.got.cif
#   From: 2010.05.17/outbox.cif.g08.bks.cpg/sg2_89_cif.got.tgz:176245.got - 2010.06.03 11:33:40.
