data_PCOD9006488
_publ_section_title
;
Structure prediction by ZEFSAII (Michael W. Deem and Ramdas Pophale) SiO2 
 PCOD9006488
Probable space group: P -1
;
_chemical_formula_sum "Si O2"
_cell_formula_units_Z 16
_cell_length_a 14.348798
_cell_length_b 17.132229
_cell_length_c 11.654115
_cell_angle_alpha 133.458207
_cell_angle_beta 130.938329
_cell_angle_gamma 21.760276
_cell_volume 769.503677
_symmetry_space_group_name_H-M "P -1"
_symmetry_group_IT_number 2
_symmetry_cell_setting 'triclinic'
loop_
_space_group_symop_operation_xyz
x,y,z
-x,-y,-z
loop_
_atom_site_type_symbol
_atom_site_label
_atom_site_fract_x
_atom_site_fract_y
_atom_site_fract_z
Si Si1 0.531020 0.189257 0.276630
Si Si2 0.863273 0.554844 0.614876
Si Si3 0.913243 0.847913 0.656383
Si Si4 0.877028 0.005332 0.560117
Si Si5 0.321654 0.547181 0.345237
Si Si6 0.745823 0.387639 0.091790
Si Si7 0.645716 0.715027 0.349043
Si Si8 0.025959 0.819796 0.176564
O O1 0.317618 0.280212 0.257473
O O2 0.631369 0.182191 0.461301
O O3 0.404670 0.367374 0.267037
O O4 0.773822 0.961493 0.172720
O O5 0.717838 0.688997 0.513103
O O6 0.945215 0.366365 0.492383
O O7 0.127004 0.416348 0.679406
O O8 0.087100 0.759038 0.808703
O O9 0.863226 0.976267 0.649458
O O10 0.629236 0.032914 0.651877
O O11 0.988243 0.040014 0.675119
O O12 0.056338 0.781090 0.421401
O O13 0.500000 0.500000 0.500000
O O14 0.274260 0.595475 0.220877
O O15 0.653036 0.580758 0.214536
O O16 0.500000 0.500000 0.000000
O O17 0.923606 0.238253 0.973762
#
# Coordination Sequence:
#
# PCOD9006488 Si02
#       8
#     2   2   2   2   2   2   2   2
#     4  11  20  36  58  91 121 148 196 255 304 350
#     4  10  21  38  66  93 116 152 204 261 304 346
#     4  11  22  38  64  91 120 158 200 251 306 355
#     4  11  20  32  57  92 120 152 196 246 303 352
#     4  11  19  33  56  83 120 157 192 250 299 346
#     4  11  27  42  59  88 126 169 201 234 296 373
#     4  10  22  42  62  88 124 157 202 253 297 354
#     4  11  24  36  54  88 126 162 202 239 294 367
#
# _framework density 20.792624
#
# number of rings (size 3 to 8) (size 9 to 14) (size 15 to 20)
#    0.000    1.250    5.000    1.875    3.500    3.000 
#    0.000    0.625    0.000    1.500    0.000    0.000 
#    0.000    0.000    0.000    0.000    0.000    0.000 
#
# Total GULP energy -89293.248086 kJ/mol
# GULP energy per Si atom -5580.828005 kJ/mol
# Density = 2.074530 g / cm^3
# Si number density = 20.792624 Si / 1000 Ang^3
#
#
#
# Elastic Constant Matrix: (Units=GPa)
#
#
# Indices 1 2 3 4 5 6 
#
# 1 98.7592 29.0789 17.3948 -13.5358 -15.8808 -15.6511
# 2 29.0789 103.9316 19.4178 -11.1440 -4.8035 -11.1325
# 3 17.3948 19.4178 40.0829 -9.1912 -12.7991 -0.5825
# 4 -13.5358 -11.1440 -9.1912 22.6541 -4.6474 -5.9569
# 5 -15.8808 -4.8035 -12.7991 -4.6474 22.8927 -1.9693
# 6 -15.6511 -11.1325 -0.5825 -5.9569 -1.9693 44.5101
#
#
#
# Elastic Compliance Matrix: (Units=1/GPa)
#
#
# Indices 1 2 3 4 5 6 
#
# 1 0.016121 -0.001764 0.002580 0.015206 0.016031 0.008006
# 2 -0.001764 0.011541 -0.003930 0.003742 -0.000006 0.002715
# 3 0.002580 -0.003930 0.040189 0.023026 0.028522 0.004794
# 4 0.015206 0.003742 0.023026 0.077911 0.041645 0.018853
# 5 0.016031 -0.000006 0.028522 0.041645 0.080505 0.015144
# 6 0.008006 0.002715 0.004794 0.018853 0.015144 0.029217
#
#
# Mechanical properties :
#
#
# Convention : Reuss Voigt Hill
#
# Bulk Modulus (GPa) = 16.22719 41.61740 28.92230
# Shear Modulus (GPa) = 17.71461 29.80351 23.75906
#
# Velocity S-wave (km/s) = 2.92201 3.79009 3.38400
# Velocity P-wave (km/s) = 4.38240 6.26195 5.40451
#
# Compressibility (1/GPa) = 0.06162495
#
# Stress axis : x y z
#
# Youngs Moduli (GPa) = 62.03035 86.64562 24.88228
#
# Poissons Ratio (x) = 0.15282 -0.06421
# Poissons Ratio (y) = 0.10941 0.09779
# Poissons Ratio (z) = -0.16007 0.34052
#
# Static dielectric constant tensor:
#      x y z
#    x 1.803170 -0.049420 -0.023160 
#    y -0.049420 1.808760 -0.019580 
#    z -0.023160 -0.019580 1.753930 
# 
# From -- ./inp_files/70666.got.cif
#   From: 2010.05.17/outbox.cif.g08.bks.cpg/sg2_36_cif.got.tgz:70666.got - 2010.06.03 11:33:40.
