data_PCOD9006016
_publ_section_title
;
Structure prediction by ZEFSAII (Michael W. Deem and Ramdas Pophale) SiO2 
 PCOD9006016
Probable space group: P -1
;
_chemical_formula_sum "Si O2"
_cell_formula_units_Z 16
_cell_length_a 18.068170
_cell_length_b 7.719989
_cell_length_c 18.919577
_cell_angle_alpha 45.775673
_cell_angle_beta 28.545572
_cell_angle_gamma 35.700689
_cell_volume 734.705738
_symmetry_space_group_name_H-M "P -1"
_symmetry_group_IT_number 2
_symmetry_cell_setting 'triclinic'
loop_
_space_group_symop_operation_xyz
x,y,z
-x,-y,-z
loop_
_atom_site_type_symbol
_atom_site_label
_atom_site_fract_x
_atom_site_fract_y
_atom_site_fract_z
Si Si1 0.402101 0.642830 0.469064
Si Si2 0.609970 0.771715 0.702101
Si Si3 0.941670 0.403977 0.006701
Si Si4 0.758525 0.216904 0.016968
Si Si5 0.559461 0.567319 0.226033
Si Si6 0.181505 0.701910 0.462467
Si Si7 0.033254 0.698618 0.734058
Si Si8 0.722853 0.357048 0.851039
O O1 0.500000 0.500000 0.500000
O O2 0.523421 0.419311 0.365387
O O3 0.193242 0.725284 0.625273
O O4 0.391867 0.938992 0.381016
O O5 0.394908 0.855621 0.854095
O O6 0.716826 0.560034 0.605345
O O7 0.722686 0.576413 0.732898
O O8 0.718474 0.592719 0.122064
O O9 0.000000 0.500000 0.000000
O O10 0.030038 0.456060 0.849745
O O11 0.044505 0.059312 0.036867
O O12 0.656454 0.436071 0.106290
O O13 0.786529 0.331644 0.886613
O O14 0.335019 0.772332 0.334996
O O15 0.102387 0.620578 0.618047
O O16 0.000000 0.000000 0.500000
O O17 0.838002 0.025512 0.815934
O O18 0.500000 0.500000 0.000000
#
# Coordination Sequence:
#
# PCOD9006016 Si02
#       8
#     2   2   2   2   2   2   2   2
#     4  11  24  42  64  93 129 167 221 269 319 391
#     4  10  21  41  69  91 125 177 217 263 333 381
#     4  12  22  40  67  95 130 172 217 267 331 381
#     4  10  21  40  65  94 132 168 210 279 324 383
#     4  10  24  41  64  98 129 170 222 266 323 390
#     4  10  21  44  66  92 136 173 212 275 320 387
#     4  11  23  40  62  94 130 169 218 268 318 382
#     4  10  21  38  64  92 127 164 218 261 324 382
#
# _framework density 21.777428
#
# number of rings (size 3 to 8) (size 9 to 14) (size 15 to 20)
#    0.000    1.500    2.500    2.625    1.750    1.500 
#    2.250    5.000    0.000    0.000    0.000    0.000 
#    0.000    0.000    0.000    0.000    0.000    0.000 
#
# Total GULP energy -89091.838313 kJ/mol
# GULP energy per Si atom -5568.239895 kJ/mol
# Density = 2.172786 g / cm^3
# Si number density = 21.777428 Si / 1000 Ang^3
#
#
#
# Elastic Constant Matrix: (Units=GPa)
#
#
# Indices 1 2 3 4 5 6 
#
# 1 116.4334 52.3577 57.6675 3.0855 15.7063 -25.4335
# 2 52.3577 78.9282 46.0174 -11.0456 20.2030 -22.4809
# 3 57.6675 46.0174 103.3097 8.8335 16.8996 -19.5656
# 4 3.0855 -11.0456 8.8335 35.1796 -8.0154 14.6815
# 5 15.7063 20.2030 16.8996 -8.0154 49.7444 -0.1112
# 6 -25.4335 -22.4809 -19.5656 14.6815 -0.1112 24.2024
#
#
#
# Elastic Compliance Matrix: (Units=1/GPa)
#
#
# Indices 1 2 3 4 5 6 
#
# 1 0.016653 -0.005381 -0.001985 -0.010884 -0.004113 0.017481
# 2 -0.005381 0.024208 -0.005216 0.003781 -0.005729 0.010295
# 3 -0.001985 -0.005216 0.018448 -0.014378 -0.005802 0.016679
# 4 -0.010884 0.003781 -0.014378 0.061709 0.016602 -0.056907
# 5 -0.004113 -0.005729 -0.005802 0.016602 0.028320 -0.024275
# 6 0.017481 0.010295 0.016679 -0.056907 -0.024275 0.117144
#
#
# Mechanical properties :
#
#
# Convention : Reuss Voigt Hill
#
# Bulk Modulus (GPa) = 29.28590 67.86186 48.57388
# Shear Modulus (GPa) = 16.50013 31.33385 23.91699
#
# Velocity S-wave (km/s) = 2.75557 3.79730 3.31758
# Velocity P-wave (km/s) = 4.85811 7.10318 6.08508
#
# Compressibility (1/GPa) = 0.03414613
#
# Stress axis : x y z
#
# Youngs Moduli (GPa) = 60.04846 41.30860 54.20665
#
# Poissons Ratio (x) = 0.22229 0.10758
# Poissons Ratio (y) = 0.32314 0.28272
# Poissons Ratio (z) = 0.11917 0.21545
#
# Static dielectric constant tensor:
#      x y z
#    x 1.883100 0.035350 0.039900 
#    y 0.035350 1.792480 0.019120 
#    z 0.039900 0.019120 1.832750 
# 
# From -- ./inp_files/337555.got.cif
#   From: 2010.05.17/outbox.cif.g08.bks.cpg/sg2_169_cif.got.tgz:337555.got - 2010.06.03 11:33:40.
