data_PCOD9006894
_publ_section_title
;
Structure prediction by ZEFSAII (Michael W. Deem and Ramdas Pophale) SiO2 
 PCOD9006894
Probable space group: P -1
;
_chemical_formula_sum "Si O2"
_cell_formula_units_Z 12
_cell_length_a 15.254227
_cell_length_b 8.963149
_cell_length_c 5.023856
_cell_angle_alpha 109.032466
_cell_angle_beta 92.333478
_cell_angle_gamma 74.358879
_cell_volume 624.454801
_symmetry_space_group_name_H-M "P -1"
_symmetry_group_IT_number 2
_symmetry_cell_setting 'triclinic'
loop_
_space_group_symop_operation_xyz
x,y,z
-x,-y,-z
loop_
_atom_site_type_symbol
_atom_site_label
_atom_site_fract_x
_atom_site_fract_y
_atom_site_fract_z
Si Si1 0.450313 0.847082 0.620365
Si Si2 0.100928 0.415022 0.056301
Si Si3 0.804657 0.720331 0.506702
Si Si4 0.579918 0.338603 0.988927
Si Si5 0.358442 0.160885 0.121492
Si Si6 0.269032 0.489914 0.974656
O O1 0.433781 0.802705 0.291742
O O2 0.555042 0.841384 0.686070
O O3 0.428822 0.712215 0.738164
O O4 0.389541 0.019435 0.823679
O O5 0.114389 0.345821 0.313426
O O6 0.150590 0.270586 0.769245
O O7 0.167272 0.535985 0.111144
O O8 0.000000 0.500000 0.000000
O O9 0.726797 0.857554 0.722895
O O10 0.750030 0.583599 0.355464
O O11 0.500000 0.500000 0.000000
O O12 0.675004 0.379147 0.968378
O O13 0.326340 0.333163 0.059577
#
# Coordination Sequence:
#
# PCOD9006894 Si02
#       6
#     2   2   2   2   2   2
#     4  11  26  33  57  73 115 147 194 214 258 321
#     4   9  18  32  54  85 107 132 172 227 277 318
#     4   9  19  31  56  76 110 133 172 227 267 313
#     4  12  23  37  51  81 108 150 179 225 271 310
#     4  10  21  39  51  81 105 154 185 223 257 313
#     4   9  21  33  59  75 115 137 180 224 271 312
#
# _framework density 19.216763
#
# number of rings (size 3 to 8) (size 9 to 14) (size 15 to 20)
#    1.000    1.000    1.667    2.000    7.000    1.333 
#    0.000    0.000    0.000    0.000    0.000   16.333 
#    0.000    0.000    0.000    0.000    0.000    0.000 
#
# Total GULP energy -66877.118876 kJ/mol
# GULP energy per Si atom -5573.093240 kJ/mol
# Density = 1.917302 g / cm^3
# Si number density = 19.216763 Si / 1000 Ang^3
#
#
#
# Elastic Constant Matrix: (Units=GPa)
#
#
# Indices 1 2 3 4 5 6 
#
# 1 79.7285 17.1906 3.2861 9.6814 6.8248 -13.5687
# 2 17.1906 39.8538 3.7520 -4.6604 2.4083 1.5885
# 3 3.2861 3.7520 81.4644 -11.1841 4.7636 -14.4585
# 4 9.6814 -4.6604 -11.1841 25.5560 -0.2128 -3.5025
# 5 6.8248 2.4083 4.7636 -0.2128 25.5211 -4.6126
# 6 -13.5687 1.5885 -14.4585 -3.5025 -4.6126 25.3970
#
#
#
# Elastic Compliance Matrix: (Units=1/GPa)
#
#
# Indices 1 2 3 4 5 6 
#
# 1 0.016705 -0.008201 0.000430 -0.006508 -0.002316 0.008365
# 2 -0.008201 0.029909 -0.001051 0.007250 -0.001479 -0.006119
# 3 0.000430 -0.001051 0.015146 0.007606 -0.001011 0.009784
# 4 -0.006508 0.007250 0.007606 0.047238 0.001324 0.007155
# 5 -0.002316 -0.001479 -0.001011 0.001324 0.041217 0.005948
# 6 0.008365 -0.006119 0.009784 0.007155 0.005948 0.051863
#
#
# Mechanical properties :
#
#
# Convention : Reuss Voigt Hill
#
# Bulk Modulus (GPa) = 22.66662 27.72266 25.19464
# Shear Modulus (GPa) = 21.32866 27.08268 24.20567
#
# Velocity S-wave (km/s) = 3.33513 3.75817 3.55295
# Velocity P-wave (km/s) = 5.16252 5.76970 5.47453
#
# Compressibility (1/GPa) = 0.04411774
#
# Stress axis : x y z
#
# Youngs Moduli (GPa) = 59.86197 33.43486 66.02342
#
# Poissons Ratio (x) = 0.27419 -0.02841
# Poissons Ratio (y) = 0.49090 0.06939
# Poissons Ratio (z) = -0.02576 0.03514
#
# Static dielectric constant tensor:
#      x y z
#    x 1.687290 0.003980 -0.024160 
#    y 0.003980 1.696430 -0.004310 
#    z -0.024160 -0.004310 1.709960 
# 
# From -- ./inp_files/30358.got.cif
#   From: 2010.05.17/outbox.cif.g08.bks.cpg/sg2_16_cif.got.tgz:30358.got - 2010.06.03 11:33:40.
