data_PCOD9006418
_publ_section_title
;
Structure prediction by ZEFSAII (Michael W. Deem and Ramdas Pophale) SiO2 
 PCOD9006418
Probable space group: P -1
;
_chemical_formula_sum "Si O2"
_cell_formula_units_Z 14
_cell_length_a 15.001000
_cell_length_b 25.355107
_cell_length_c 15.012369
_cell_angle_alpha 22.564279
_cell_angle_beta 159.994064
_cell_angle_gamma 159.731180
_cell_volume 632.865376
_symmetry_space_group_name_H-M "P -1"
_symmetry_group_IT_number 2
_symmetry_cell_setting 'triclinic'
loop_
_space_group_symop_operation_xyz
x,y,z
-x,-y,-z
loop_
_atom_site_type_symbol
_atom_site_label
_atom_site_fract_x
_atom_site_fract_y
_atom_site_fract_z
Si Si1 0.747078 0.146124 0.276681
Si Si2 0.783834 0.809781 0.068791
Si Si3 0.396649 0.318642 0.705198
Si Si4 0.250516 0.197073 0.426512
Si Si5 0.335132 0.810679 0.508461
Si Si6 0.635106 0.386644 0.319465
Si Si7 0.669863 0.151884 0.991342
O O1 0.092868 0.203551 0.539340
O O2 0.522547 0.998542 0.360748
O O3 0.664178 0.282633 0.997104
O O4 0.668491 0.096730 0.176355
O O5 0.697467 0.716721 0.225252
O O6 0.986541 0.761929 0.274360
O O7 0.489621 0.787876 0.775873
O O8 0.000000 0.000000 0.000000
O O9 0.500000 0.500000 0.500000
O O10 0.450840 0.268526 0.414256
O O11 0.480104 0.236406 0.662991
O O12 0.000000 0.000000 0.500000
O O13 0.026304 0.263506 0.124006
O O14 0.393368 0.719206 0.627291
O O15 0.000000 0.500000 0.500000
O O16 0.500000 0.500000 0.000000
O O17 0.500000 0.000000 0.000000
#
# Coordination Sequence:
#
# PCOD9006418 Si02
#       7
#     2   2   2   2   2   2   2
#     4  12  23  44  74 103 134 188 236 281 352 423
#     4  12  23  46  75 102 134 177 244 296 337 428
#     4  12  27  47  67 104 144 175 225 304 359 405
#     4  10  21  42  67  92 135 181 230 277 331 403
#     4  12  24  44  77 102 134 192 239 277 355 424
#     4  12  27  48  68 106 153 184 231 298 359 417
#     4  10  21  38  66 102 132 171 230 288 324 398
#
# _framework density 22.121608999999999
#
# number of rings (size 3 to 8) (size 9 to 14) (size 15 to 20)
#    0.000    0.571    2.857    6.000    0.000    4.571 
#   15.429    0.000    0.000    0.000    0.000    0.000 
#    0.000    0.000    0.000    0.000    0.000    0.000 
#
# Total GULP energy -78289.469386 kJ/mol
# GULP energy per Si atom -5592.104956 kJ/mol
# Density = 2.207126 g / cm^3
# Si number density = 22.121609 Si / 1000 Ang^3
#
#
#
# Elastic Constant Matrix: (Units=GPa)
#
#
# Indices 1 2 3 4 5 6 
#
# 1 103.8490 18.7277 39.3437 -5.6815 -22.4837 25.0179
# 2 18.7277 51.0312 31.1992 -5.2908 -15.4453 20.5488
# 3 39.3437 31.1992 137.0076 13.9012 -5.6448 6.9126
# 4 -5.6815 -5.2908 13.9012 50.2977 4.5613 -1.5650
# 5 -22.4837 -15.4453 -5.6448 4.5613 52.2227 1.1912
# 6 25.0179 20.5488 6.9126 -1.5650 1.1912 29.1861
#
#
#
# Elastic Compliance Matrix: (Units=1/GPa)
#
#
# Indices 1 2 3 4 5 6 
#
# 1 0.017161 0.008085 -0.005708 0.002919 0.009347 -0.019276
# 2 0.008085 0.041662 -0.010038 0.005645 0.015005 -0.034195
# 3 -0.005708 -0.010038 0.011000 -0.004080 -0.004093 0.009303
# 4 0.002919 0.005645 -0.004080 0.021734 0.000687 -0.004373
# 5 0.009347 0.015005 -0.004093 0.000687 0.027535 -0.018694
# 6 -0.019276 -0.034195 0.009303 -0.004373 -0.018694 0.073186
#
#
# Mechanical properties :
#
#
# Convention : Reuss Voigt Hill
#
# Bulk Modulus (GPa) = 18.34827 52.26988 35.30908
# Shear Modulus (GPa) = 22.14679 39.84913 30.99796
#
# Velocity S-wave (km/s) = 3.16751 4.24886 3.74739
# Velocity P-wave (km/s) = 4.65723 6.91014 5.89236
#
# Compressibility (1/GPa) = 0.05450104
#
# Stress axis : x y z
#
# Youngs Moduli (GPa) = 58.27258 24.00273 90.91112
#
# Poissons Ratio (x) = -0.19407 0.51889
# Poissons Ratio (y) = -0.47115 0.91259
# Poissons Ratio (z) = 0.33260 0.24095
#
# Static dielectric constant tensor:
#      x y z
#    x 1.821380 -0.027550 -0.009170 
#    y -0.027550 1.811650 0.026590 
#    z -0.009170 0.026590 1.654310 
# 
# From -- ./inp_files/535713.got.cif
#   From: 2010.05.17/outbox.cif.g08.bks.cpg/sg2_268_cif.got.tgz:535713.got - 2010.06.03 11:33:40.
