data_PCOD9006005
_publ_section_title
;
Structure prediction by ZEFSAII (Michael W. Deem and Ramdas Pophale) SiO2 
 PCOD9006005
Probable space group: P -1
;
_chemical_formula_sum "Si O2"
_cell_formula_units_Z 12
_cell_length_a 12.044875
_cell_length_b 10.264638
_cell_length_c 9.045010
_cell_angle_alpha 73.645024
_cell_angle_beta 50.822219
_cell_angle_gamma 113.170488
_cell_volume 532.598048
_symmetry_space_group_name_H-M "P -1"
_symmetry_group_IT_number 2
_symmetry_cell_setting 'triclinic'
loop_
_space_group_symop_operation_xyz
x,y,z
-x,-y,-z
loop_
_atom_site_type_symbol
_atom_site_label
_atom_site_fract_x
_atom_site_fract_y
_atom_site_fract_z
Si Si1 0.694045 0.539319 0.376610
Si Si2 0.383684 0.721439 0.716606
Si Si3 0.990660 0.397331 0.331461
Si Si4 0.295629 0.590785 0.289807
Si Si5 0.581960 0.695336 0.792983
Si Si6 0.868864 0.092579 0.282793
O O1 0.500000 0.500000 0.500000
O O2 0.661056 0.367954 0.379112
O O3 0.690723 0.513137 0.562663
O O4 0.932374 0.766136 0.045964
O O5 0.422087 0.610390 0.815788
O O6 0.628945 0.963695 0.455454
O O7 0.170056 0.623416 0.016354
O O8 0.783445 0.331971 0.586575
O O9 0.926004 0.238848 0.317036
O O10 0.111089 0.430553 0.368180
O O11 0.522286 0.762479 0.949422
O O12 0.820059 0.910489 0.457829
O O13 0.500000 0.500000 0.000000
#
# Coordination Sequence:
#
# PCOD9006005 Si02
#       6
#     2   2   2   2   2   2
#     4  11  22  40  60  89 127 159 199 253 303 360
#     4   8  19  38  59  84 122 159 193 250 300 360
#     4   9  19  42  63  86 124 155 208 249 301 357
#     4  10  21  38  64  92 120 157 201 264 290 348
#     4   9  18  39  61  83 122 160 203 242 294 362
#     4   9  21  40  64  84 123 168 197 247 310 364
#
# _framework density 22.531063
#
# number of rings (size 3 to 8) (size 9 to 14) (size 15 to 20)
#    1.000    1.667    0.000    1.000    0.000    4.000 
#    3.000   13.333    0.000    0.000    0.000    0.000 
#    0.000    0.000    0.000    0.000    0.000    0.000 
#
# Total GULP energy -66820.231443 kJ/mol
# GULP energy per Si atom -5568.352620 kJ/mol
# Density = 2.247978 g / cm^3
# Si number density = 22.531063 Si / 1000 Ang^3
#
#
#
# Elastic Constant Matrix: (Units=GPa)
#
#
# Indices 1 2 3 4 5 6 
#
# 1 89.5800 10.3464 24.9371 0.5215 15.3472 20.6505
# 2 10.3464 59.4429 27.5204 1.8592 14.2088 22.4663
# 3 24.9371 27.5204 118.5541 -5.8162 14.5698 18.9371
# 4 0.5215 1.8592 -5.8162 37.3172 1.3810 4.7612
# 5 15.3472 14.2088 14.5698 1.3810 27.6329 10.1540
# 6 20.6505 22.4663 18.9371 4.7612 10.1540 23.1803
#
#
#
# Elastic Compliance Matrix: (Units=1/GPa)
#
#
# Indices 1 2 3 4 5 6 
#
# 1 0.015347 0.004891 -0.001205 0.001529 -0.004720 -0.015675
# 2 0.004891 0.029246 -0.002427 0.001951 -0.006123 -0.028439
# 3 -0.001205 -0.002427 0.010357 0.002421 -0.001945 -0.004681
# 4 0.001529 0.001951 0.002421 0.028458 -0.000573 -0.010825
# 5 -0.004720 -0.006123 -0.001945 -0.000573 0.046077 -0.008338
# 6 -0.015675 -0.028439 -0.004681 -0.010825 -0.008338 0.094367
#
#
# Mechanical properties :
#
#
# Convention : Reuss Voigt Hill
#
# Bulk Modulus (GPa) = 17.40067 43.68721 30.54394
# Shear Modulus (GPa) = 20.79089 31.27760 26.03424
#
# Velocity S-wave (km/s) = 3.04100 3.72990 3.40293
# Velocity P-wave (km/s) = 4.47995 6.16290 5.38755
#
# Compressibility (1/GPa) = 0.05746906
#
# Stress axis : x y z
#
# Youngs Moduli (GPa) = 65.16013 34.19269 96.55007
#
# Poissons Ratio (x) = -0.16724 0.11631
# Poissons Ratio (y) = -0.31871 0.23433
# Poissons Ratio (z) = 0.07850 0.08299
#
# Static dielectric constant tensor:
#      x y z
#    x 1.924120 -0.070130 -0.056530 
#    y -0.070130 1.858710 0.003350 
#    z -0.056530 0.003350 1.893380 
# 
# From -- ./inp_files/103345.got.cif
#   From: 2010.05.17/outbox.cif.g08.bks.cpg/sg2_52_cif.got.tgz:103345.got - 2010.06.03 11:33:40.
