data_PCOD9006297
_publ_section_title
;
Structure prediction by ZEFSAII (Michael W. Deem and Ramdas Pophale) SiO2 
 PCOD9006297
Probable space group: P -1
;
_chemical_formula_sum "Si O2"
_cell_formula_units_Z 16
_cell_length_a 12.421718
_cell_length_b 11.969658
_cell_length_c 9.133814
_cell_angle_alpha 58.059810
_cell_angle_beta 130.644357
_cell_angle_gamma 129.393475
_cell_volume 780.690518
_symmetry_space_group_name_H-M "P -1"
_symmetry_group_IT_number 2
_symmetry_cell_setting 'triclinic'
loop_
_space_group_symop_operation_xyz
x,y,z
-x,-y,-z
loop_
_atom_site_type_symbol
_atom_site_label
_atom_site_fract_x
_atom_site_fract_y
_atom_site_fract_z
Si Si1 0.790324 0.863074 0.781967
Si Si2 0.969586 0.638938 0.719004
Si Si3 0.504528 0.638509 0.311071
Si Si4 0.365023 0.455847 0.031161
Si Si5 0.863567 0.118931 0.862292
Si Si6 0.769540 0.301948 0.873732
Si Si7 0.154733 0.141108 0.479547
Si Si8 0.043089 0.366571 0.626749
O O1 0.667012 0.695345 0.812076
O O2 0.788294 0.908431 0.582133
O O3 0.762494 0.958632 0.816027
O O4 0.969577 0.878908 0.944349
O O5 0.875219 0.463815 0.783450
O O6 0.899310 0.730215 0.687967
O O7 0.950283 0.671342 0.510761
O O8 0.146578 0.690838 0.900503
O O9 0.500000 0.500000 0.500000
O O10 0.416543 0.573899 0.124631
O O11 0.403329 0.708287 0.255019
O O12 0.683249 0.765222 0.352145
O O13 0.500000 0.500000 0.000000
O O14 0.204854 0.419303 0.825219
O O15 0.787522 0.179020 0.876695
O O16 0.911633 0.229909 0.691355
O O17 0.000000 0.000000 0.500000
O O18 0.000000 0.500000 0.500000
#
# Coordination Sequence:
#
# PCOD9006297 Si02
#       8
#     2   2   2   2   2   2   2   2
#     4  10  21  42  65  93 133 175 227 270 331 407
#     4  11  21  38  67  99 132 174 226 278 330 402
#     4  12  24  43  69  98 135 173 225 287 333 398
#     4  11  24  41  67  99 128 175 226 279 339 392
#     4  10  21  38  65  93 131 176 216 273 336 396
#     4  11  22  39  68  96 132 180 226 276 342 390
#     4  12  24  42  71  99 132 179 228 277 344 405
#     4  11  21  36  61  97 134 167 220 274 324 404
#
# _framework density 20.494676999999999
#
# number of rings (size 3 to 8) (size 9 to 14) (size 15 to 20)
#    0.000    1.000    5.000    2.250    3.500    2.000 
#    0.000    1.250    2.750    0.000    0.000    0.000 
#    0.000    0.000    0.000    0.000    0.000    0.000 
#
# Total GULP energy -89308.818133 kJ/mol
# GULP energy per Si atom -5581.801133 kJ/mol
# Density = 2.044803 g / cm^3
# Si number density = 20.494677 Si / 1000 Ang^3
#
#
#
# Elastic Constant Matrix: (Units=GPa)
#
#
# Indices 1 2 3 4 5 6 
#
# 1 105.2433 45.7934 27.7199 13.6701 2.1164 -14.7289
# 2 45.7934 108.5206 19.6873 19.0526 0.2580 -9.3484
# 3 27.7199 19.6873 79.3071 14.0820 -9.8433 -0.8672
# 4 13.6701 19.0526 14.0820 15.4078 -7.9922 -0.2696
# 5 2.1164 0.2580 -9.8433 -7.9922 39.9407 -0.0181
# 6 -14.7289 -9.3484 -0.8672 -0.2696 -0.0181 43.0164
#
#
#
# Elastic Compliance Matrix: (Units=1/GPa)
#
#
# Indices 1 2 3 4 5 6 
#
# 1 0.013190 -0.003720 -0.002959 -0.005649 -0.002533 0.003612
# 2 -0.003720 0.013535 0.000295 -0.015156 -0.002850 0.001577
# 3 -0.002959 0.000295 0.015782 -0.011246 0.001794 -0.000700
# 4 -0.005649 -0.015156 -0.011246 0.108923 0.019419 -0.004764
# 5 -0.002533 -0.002850 0.001794 0.019419 0.029517 -0.001316
# 6 0.003612 0.001577 -0.000700 -0.004764 -0.001316 0.024782
#
#
# Mechanical properties :
#
#
# Convention : Reuss Voigt Hill
#
# Bulk Modulus (GPa) = 33.62577 53.27466 43.45021
# Shear Modulus (GPa) = 21.89063 32.99769 27.44416
#
# Velocity S-wave (km/s) = 3.27175 4.01691 3.66332
# Velocity P-wave (km/s) = 5.54212 6.89673 6.25620
#
# Compressibility (1/GPa) = 0.02973910
#
# Stress axis : x y z
#
# Youngs Moduli (GPa) = 75.81571 73.88404 63.36402
#
# Poissons Ratio (x) = 0.27487 0.18747
# Poissons Ratio (y) = 0.28206 -0.01870
# Poissons Ratio (z) = 0.22431 -0.02181
#
# Static dielectric constant tensor:
#      x y z
#    x 1.734940 -0.012130 -0.004210 
#    y -0.012130 1.776060 -0.026690 
#    z -0.004210 -0.026690 1.762920 
# 
# From -- ./inp_files/262185.got.cif
#   From: 2010.05.17/outbox.cif.g08.bks.cpg/sg2_132_cif.got.tgz:262185.got - 2010.06.03 11:33:40.
