data_PCOD9006738
_publ_section_title
;
Structure prediction by ZEFSAII (Michael W. Deem and Ramdas Pophale) SiO2 
 PCOD9006738
Probable space group: P -1
;
_chemical_formula_sum "Si O2"
_cell_formula_units_Z 16
_cell_length_a 19.511821
_cell_length_b 20.297327
_cell_length_c 7.588847
_cell_angle_alpha 145.238131
_cell_angle_beta 143.988983
_cell_angle_gamma 20.570290
_cell_volume 590.116971
_symmetry_space_group_name_H-M "P -1"
_symmetry_group_IT_number 2
_symmetry_cell_setting 'triclinic'
loop_
_space_group_symop_operation_xyz
x,y,z
-x,-y,-z
loop_
_atom_site_type_symbol
_atom_site_label
_atom_site_fract_x
_atom_site_fract_y
_atom_site_fract_z
Si Si1 0.262779 0.534249 0.269162
Si Si2 0.984045 0.038521 0.302905
Si Si3 0.369935 0.088803 0.251443
Si Si4 0.309377 0.413857 0.481860
Si Si5 0.659803 0.266085 0.351080
Si Si6 0.894344 0.476517 0.372390
Si Si7 0.760533 0.997619 0.442067
Si Si8 0.772480 0.775750 0.220885
O O1 0.268336 0.526590 0.475274
O O2 0.484522 0.326854 0.203506
O O3 0.150701 0.741934 0.437735
O O4 0.126895 0.550292 0.927298
O O5 0.094580 0.009620 0.300387
O O6 0.797415 0.104606 0.120201
O O7 0.173336 0.852114 0.407598
O O8 0.213092 0.315069 0.394855
O O9 0.500000 0.000000 0.500000
O O10 0.539270 0.974347 0.205952
O O11 0.279935 0.036129 0.902146
O O12 0.227922 0.508813 0.714076
O O13 0.546132 0.210766 0.530733
O O14 0.208511 0.370455 0.132179
O O15 0.500000 0.500000 0.500000
O O16 0.109508 0.308651 0.536367
O O17 0.838316 0.829828 0.355475
#
# Coordination Sequence:
#
# PCOD9006738 Si02
#       8
#     2   2   2   2   2   2   2   2
#     4  11  24  38  65  98 125 164 211 257 318 369
#     4  10  21  38  68  94 120 159 211 260 317 383
#     4  11  24  37  56  87 130 171 212 259 299 359
#     4  11  21  41  61  88 132 174 212 256 303 363
#     4   9  20  42  66  95 120 156 206 266 323 376
#     4  12  24  38  61  91 131 174 210 253 304 369
#     4  11  20  40  63  87 124 173 212 256 311 362
#     4  11  23  39  56  85 130 174 216 251 300 362
#
# _framework density 27.11327
#
# number of rings (size 3 to 8) (size 9 to 14) (size 15 to 20)
#    0.000    1.250    3.750    3.375    3.500    1.000 
#    0.000    0.000    0.000   12.750    0.000    0.000 
#    0.000    0.000    0.000    0.000    0.000    0.000 
#
# Total GULP energy -89347.522155 kJ/mol
# GULP energy per Si atom -5584.220135 kJ/mol
# Density = 2.705156 g / cm^3
# Si number density = 27.113270 Si / 1000 Ang^3
#
#
#
# Elastic Constant Matrix: (Units=GPa)
#
#
# Indices 1 2 3 4 5 6 
#
# 1 121.2344 45.5919 -16.5171 -18.9515 4.0500 -7.7584
# 2 45.5919 185.3470 20.6235 -17.2548 17.7704 -2.5584
# 3 -16.5171 20.6235 56.4520 -24.3844 15.1538 11.8009
# 4 -18.9515 -17.2548 -24.3844 29.9138 -1.4038 7.9276
# 5 4.0500 17.7704 15.1538 -1.4038 20.6133 -6.5368
# 6 -7.7584 -2.5584 11.8009 7.9276 -6.5368 86.6166
#
#
#
# Elastic Compliance Matrix: (Units=1/GPa)
#
#
# Indices 1 2 3 4 5 6 
#
# 1 0.019297 -0.002563 0.030178 0.036239 -0.023698 -0.007564
# 2 -0.002563 0.006650 -0.001916 0.000499 -0.003820 -0.000106
# 3 0.030178 -0.001916 0.095698 0.099139 -0.075867 -0.025191
# 4 0.036239 0.000499 0.099139 0.141481 -0.080068 -0.029238
# 5 -0.023698 -0.003820 -0.075867 -0.080068 0.114413 0.024064
# 6 -0.007564 -0.000106 -0.025191 -0.029238 0.024064 0.018789
#
#
# Mechanical properties :
#
#
# Convention : Reuss Voigt Hill
#
# Bulk Modulus (GPa) = 5.77890 51.38110 28.58000
# Shear Modulus (GPa) = 12.41894 48.31774 30.36834
#
# Velocity S-wave (km/s) = 2.14251 4.22604 3.35035
# Velocity P-wave (km/s) = 2.87341 6.54249 5.05275
#
# Compressibility (1/GPa) = 0.17304317
#
# Stress axis : x y z
#
# Youngs Moduli (GPa) = 51.82283 150.36990 10.44950
#
# Poissons Ratio (x) = 0.38543 -0.31535
# Poissons Ratio (y) = 0.13283 0.02002
# Poissons Ratio (z) = -1.56393 0.28815
#
# Static dielectric constant tensor:
#      x y z
#    x 2.693780 -0.058860 0.105500 
#    y -0.058860 2.037860 0.006710 
#    z 0.105500 0.006710 2.156950 
# 
# From -- ./inp_files/306279.got.cif
#   From: 2010.05.17/outbox.cif.g08.bks.cpg/sg2_154_cif.got.tgz:306279.got - 2010.06.03 11:33:40.
