data_PCOD9006109
_publ_section_title
;
Structure prediction by ZEFSAII (Michael W. Deem and Ramdas Pophale) SiO2 
 PCOD9006109
Probable space group: P -1
;
_chemical_formula_sum "Si O2"
_cell_formula_units_Z 14
_cell_length_a 8.416258
_cell_length_b 9.740772
_cell_length_c 14.325275
_cell_angle_alpha 45.945923
_cell_angle_beta 45.737172
_cell_angle_gamma 59.172291
_cell_volume 603.600639
_symmetry_space_group_name_H-M "P -1"
_symmetry_group_IT_number 2
_symmetry_cell_setting 'triclinic'
loop_
_space_group_symop_operation_xyz
x,y,z
-x,-y,-z
loop_
_atom_site_type_symbol
_atom_site_label
_atom_site_fract_x
_atom_site_fract_y
_atom_site_fract_z
Si Si1 0.299842 0.563678 0.116350
Si Si2 0.619533 0.198310 0.633606
Si Si3 0.086836 0.909692 0.103395
Si Si4 0.394040 0.841003 0.553168
Si Si5 0.174926 0.407994 0.700317
Si Si6 0.048475 0.023425 0.268029
Si Si7 0.203302 0.364436 0.442688
O O1 0.277018 0.434288 0.277694
O O2 0.307302 0.780622 0.049424
O O3 0.059192 0.559659 0.165600
O O4 0.500000 0.500000 0.000000
O O5 0.597604 0.105027 0.584419
O O6 0.380373 0.291269 0.719335
O O7 0.753697 0.390328 0.464855
O O8 0.738614 0.043468 0.726029
O O9 0.908341 0.744521 0.270571
O O10 0.099247 0.033531 0.132201
O O11 0.000000 0.000000 0.000000
O O12 0.564799 0.657944 0.584845
O O13 0.500000 0.000000 0.500000
O O14 0.136747 0.816436 0.697977
O O15 0.906073 0.836550 0.428304
O O16 0.000000 0.500000 0.500000
#
# Coordination Sequence:
#
# PCOD9006109 Si02
#       7
#     2   2   2   2   2   2   2
#     4  10  21  38  64  97 126 174 222 265 313 391
#     4  11  20  38  65  98 136 160 220 279 328 384
#     4  10  22  41  64  91 133 173 224 254 328 396
#     4  10  23  34  58  98 134 160 204 275 330 383
#     4   9  21  37  64  96 126 172 214 266 326 376
#     4  11  21  37  63  96 129 171 213 275 327 375
#     4  11  19  38  64  95 125 162 231 261 315 387
#
# _framework density 23.194143
#
# number of rings (size 3 to 8) (size 9 to 14) (size 15 to 20)
#    0.857    0.857    2.857    3.000    4.000    0.000 
#    0.000    0.714    0.000    6.000    0.000    0.000 
#    0.000    0.000    0.000    0.000    0.000    0.000 
#
# Total GULP energy -77997.002011 kJ/mol
# GULP energy per Si atom -5571.214429 kJ/mol
# Density = 2.314135 g / cm^3
# Si number density = 23.194143 Si / 1000 Ang^3
#
#
#
# Elastic Constant Matrix: (Units=GPa)
#
#
# Indices 1 2 3 4 5 6 
#
# 1 132.2006 48.3018 47.9597 19.8706 18.7379 -28.4212
# 2 48.3018 85.4080 53.2368 42.7825 -0.8690 -30.5813
# 3 47.9597 53.2368 112.3137 41.8771 13.8045 -23.9045
# 4 19.8706 42.7825 41.8771 53.0520 -6.6711 -16.0760
# 5 18.7379 -0.8690 13.8045 -6.6711 47.4701 2.5287
# 6 -28.4212 -30.5813 -23.9045 -16.0760 2.5287 51.3724
#
#
#
# Elastic Compliance Matrix: (Units=1/GPa)
#
#
# Indices 1 2 3 4 5 6 
#
# 1 0.010947 -0.004820 -0.001942 0.001763 -0.003758 0.003020
# 2 -0.004820 0.026401 -0.003841 -0.014267 0.001139 0.006741
# 3 -0.001942 -0.003841 0.015819 -0.008871 -0.005229 0.001481
# 4 0.001763 -0.014267 -0.008871 0.037487 0.006904 -0.000254
# 5 -0.003758 0.001139 -0.005229 0.006904 0.025216 -0.002915
# 6 0.003020 0.006741 0.001481 -0.000254 -0.002915 0.025902
#
#
# Mechanical properties :
#
#
# Convention : Reuss Voigt Hill
#
# Bulk Modulus (GPa) = 31.29024 69.87987 50.58505
# Shear Modulus (GPa) = 28.79610 42.40716 35.60163
#
# Velocity S-wave (km/s) = 3.52735 4.28057 3.92208
# Velocity P-wave (km/s) = 5.48721 7.39085 6.50900
#
# Compressibility (1/GPa) = 0.03195885
#
# Stress axis : x y z
#
# Youngs Moduli (GPa) = 91.35022 37.87759 63.21342
#
# Poissons Ratio (x) = 0.18258 0.12279
# Poissons Ratio (y) = 0.44033 0.24283
# Poissons Ratio (z) = 0.17745 0.14551
#
# Static dielectric constant tensor:
#      x y z
#    x 1.967550 -0.014100 -0.010390 
#    y -0.014100 2.153560 0.079090 
#    z -0.010390 0.079090 1.943920 
# 
# From -- ./inp_files/499961.got.cif
#   From: 2010.05.17/outbox.cif.g08.bks.cpg/sg2_250_cif.got.tgz:499961.got - 2010.06.03 11:33:40.
