data_PCOD9006884
_publ_section_title
;
Structure prediction by ZEFSAII (Michael W. Deem and Ramdas Pophale) SiO2 
 PCOD9006884
Probable space group: P -1
;
_chemical_formula_sum "Si O2"
_cell_formula_units_Z 13
_cell_length_a 9.297506
_cell_length_b 9.214787
_cell_length_c 13.650069
_cell_angle_alpha 38.955755
_cell_angle_beta 71.726586
_cell_angle_gamma 52.997430
_cell_volume 558.711949
_symmetry_space_group_name_H-M "P -1"
_symmetry_group_IT_number 2
_symmetry_cell_setting 'triclinic'
loop_
_space_group_symop_operation_xyz
x,y,z
-x,-y,-z
loop_
_atom_site_type_symbol
_atom_site_label
_atom_site_fract_x
_atom_site_fract_y
_atom_site_fract_z
Si Si1 0.590863 0.274127 0.737092
Si Si2 0.000000 0.500000 0.000000
Si Si3 0.453939 0.892857 0.356629
Si Si4 0.185168 0.175699 0.646324
Si Si5 0.172543 0.131550 0.451439
Si Si6 0.987558 0.939462 0.920436
Si Si7 0.188176 0.564797 0.740216
O O1 0.530370 0.575559 0.545822
O O2 0.662395 0.049519 0.748632
O O3 0.407695 0.319416 0.798323
O O4 0.763112 0.163458 0.828622
O O5 0.035378 0.655816 0.003904
O O6 0.117740 0.556392 0.866247
O O7 0.638216 0.875421 0.308677
O O8 0.314089 0.112884 0.353043
O O9 0.248186 0.096253 0.561985
O O10 0.000000 0.500000 0.500000
O O11 0.111179 0.014337 0.796929
O O12 0.957398 0.399212 0.330322
O O13 0.176409 0.852638 0.582425
O O14 0.000000 0.000000 0.000000
#
# Coordination Sequence:
#
# PCOD9006884 Si02
#       7
#     2   1   2   2   2   2   2
#     4  10  22  44  69 104 137 188 236 294 360 429
#     4  12  26  48  72  98 146 196 236 286 350 436
#     4  10  21  38  74 105 137 175 240 303 361 412
#     4  12  23  42  70 105 142 185 240 306 353 421
#     4  10  21  40  68 103 137 179 236 300 351 422
#     4  12  29  50  70 105 149 194 241 290 360 430
#     4  10  22  41  71  99 137 185 238 290 356 418
#
# _framework density 23.267804999999999
#
# number of rings (size 3 to 8) (size 9 to 14) (size 15 to 20)
#    0.000    1.231    3.077    2.308    8.615    0.615 
#    2.769    0.769    0.000    0.000    0.000    0.000 
#    0.000    0.000    0.000    0.000    0.000    0.000 
#
# Total GULP energy -72391.546480 kJ/mol
# GULP energy per Si atom -5568.580498 kJ/mol
# Density = 2.321485 g / cm^3
# Si number density = 23.267805 Si / 1000 Ang^3
#
#
#
# Elastic Constant Matrix: (Units=GPa)
#
#
# Indices 1 2 3 4 5 6 
#
# 1 167.1761 49.8298 54.6156 22.4990 9.3931 -10.7455
# 2 49.8298 94.0450 31.5606 35.6396 -1.1997 2.4715
# 3 54.6156 31.5606 78.0413 22.7941 10.3911 1.6062
# 4 22.4990 35.6396 22.7941 31.4627 15.7513 -4.2137
# 5 9.3931 -1.1997 10.3911 15.7513 47.0892 14.6700
# 6 -10.7455 2.4715 1.6062 -4.2137 14.6700 43.2510
#
#
#
# Elastic Compliance Matrix: (Units=1/GPa)
#
#
# Indices 1 2 3 4 5 6 
#
# 1 0.009230 -0.006010 -0.005663 0.007442 -0.004860 0.005221
# 2 -0.006010 0.030510 0.002359 -0.044411 0.020903 -0.014741
# 3 -0.005663 0.002359 0.019997 -0.015549 0.003535 -0.004998
# 4 0.007442 -0.044411 -0.015549 0.116653 -0.048407 0.032748
# 5 -0.004860 0.020903 0.003535 -0.048407 0.045183 -0.022575
# 6 0.005221 -0.014741 -0.004998 0.032748 -0.022575 0.036293
#
#
# Mechanical properties :
#
#
# Convention : Reuss Voigt Hill
#
# Bulk Modulus (GPa) = 24.32590 67.91940 46.12265
# Shear Modulus (GPa) = 17.22968 37.91103 27.57035
#
# Velocity S-wave (km/s) = 2.72415 4.04088 3.44599
# Velocity P-wave (km/s) = 4.51355 7.14320 5.97484
#
# Compressibility (1/GPa) = 0.04110845
#
# Stress axis : x y z
#
# Youngs Moduli (GPa) = 108.34012 32.77633 50.00829
#
# Poissons Ratio (x) = 0.19697 0.28321
# Poissons Ratio (y) = 0.65109 -0.11796
# Poissons Ratio (z) = 0.61355 -0.07731
#
# Static dielectric constant tensor:
#      x y z
#    x 2.196280 0.107110 0.501700 
#    y 0.107110 2.006640 0.044360 
#    z 0.501700 0.044360 2.468100 
# 
# From -- ./inp_files/172066.got.cif
#   From: 2010.05.17/outbox.cif.g08.bks.cpg/sg2_87_cif.got.tgz:172066.got - 2010.06.03 11:33:40.
