data_PCOD9006600
_publ_section_title
;
Structure prediction by ZEFSAII (Michael W. Deem and Ramdas Pophale) SiO2 
 PCOD9006600
Probable space group: P -1
;
_chemical_formula_sum "Si O2"
_cell_formula_units_Z 14
_cell_length_a 9.038919
_cell_length_b 12.487076
_cell_length_c 17.741898
_cell_angle_alpha 31.651876
_cell_angle_beta 116.511159
_cell_angle_gamma 138.189325
_cell_volume 590.668737
_symmetry_space_group_name_H-M "P -1"
_symmetry_group_IT_number 2
_symmetry_cell_setting 'triclinic'
loop_
_space_group_symop_operation_xyz
x,y,z
-x,-y,-z
loop_
_atom_site_type_symbol
_atom_site_label
_atom_site_fract_x
_atom_site_fract_y
_atom_site_fract_z
Si Si1 0.291017 0.121057 0.667423
Si Si2 0.254564 0.791175 0.470898
Si Si3 0.842779 0.964421 0.589815
Si Si4 0.856841 0.056088 0.791238
Si Si5 0.223801 0.838144 0.675449
Si Si6 0.306111 0.216698 0.930568
Si Si7 0.130652 0.885219 0.937068
O O1 0.500000 0.500000 0.500000
O O2 0.365464 0.045844 0.660242
O O3 0.255685 0.990534 0.819751
O O4 0.022294 0.963654 0.668710
O O5 0.255169 0.935419 0.310917
O O6 0.113238 0.438800 0.639423
O O7 0.102131 0.777952 0.504584
O O8 0.558817 0.043651 0.402194
O O9 0.539036 0.604265 0.746944
O O10 0.889893 0.081218 0.445080
O O11 0.942155 0.906531 0.880201
O O12 0.667058 0.875052 0.929077
O O13 0.021388 0.468234 0.870008
O O14 0.313332 0.103310 0.921025
O O15 0.000000 0.000000 0.000000
#
# Coordination Sequence:
#
# PCOD9006600 Si02
#       7
#     2   2   2   2   2   2   2
#     4  12  27  49  71  96 140 186 234 282 341 409
#     4  11  22  39  71 104 138 173 236 278 349 402
#     4  12  25  45  73 103 138 182 230 283 347 407
#     4  10  21  38  67 105 137 179 218 290 341 403
#     4  12  26  43  71 104 138 182 230 285 342 414
#     4  10  21  40  70 100 139 172 223 280 344 395
#     4  11  23  46  66 100 140 180 227 282 344 407
#
# _framework density 23.701947000000001
#
# number of rings (size 3 to 8) (size 9 to 14) (size 15 to 20)
#    0.000    0.857    1.429    7.286    4.000    1.143 
#    0.000    1.429    0.000    0.000    0.000    0.000 
#    0.000    0.000    0.000    0.000    0.000    0.000 
#
# Total GULP energy -78278.356414 kJ/mol
# GULP energy per Si atom -5591.311172 kJ/mol
# Density = 2.364800 g / cm^3
# Si number density = 23.701947 Si / 1000 Ang^3
#
#
#
# Elastic Constant Matrix: (Units=GPa)
#
#
# Indices 1 2 3 4 5 6 
#
# 1 42.1225 2.2096 13.2131 2.4212 -6.2783 -19.8364
# 2 2.2096 80.2595 40.5747 17.6559 -11.7884 -29.4243
# 3 13.2131 40.5747 173.4135 18.8370 -2.9101 -8.7101
# 4 2.4212 17.6559 18.8370 47.6559 -9.5406 -11.6703
# 5 -6.2783 -11.7884 -2.9101 -9.5406 13.4386 4.9378
# 6 -19.8364 -29.4243 -8.7101 -11.6703 4.9378 40.7437
#
#
#
# Elastic Compliance Matrix: (Units=1/GPa)
#
#
# Indices 1 2 3 4 5 6 
#
# 1 0.041075 0.013920 -0.005293 0.006610 0.024726 0.027816
# 2 0.013920 0.025851 -0.005823 0.001629 0.020945 0.022130
# 3 -0.005293 -0.005823 0.007496 -0.003076 -0.006190 -0.005311
# 4 0.006610 0.001629 -0.003076 0.027518 0.020009 0.009194
# 5 0.024726 0.020945 -0.006190 0.020009 0.110523 0.018177
# 6 0.027816 0.022130 -0.005311 0.009194 0.018177 0.053363
#
#
# Mechanical properties :
#
#
# Convention : Reuss Voigt Hill
#
# Bulk Modulus (GPa) = 12.49519 45.31004 28.90261
# Shear Modulus (GPa) = 17.42806 36.35416 26.89111
#
# Velocity S-wave (km/s) = 2.71458 3.92063 3.37197
# Velocity P-wave (km/s) = 3.88697 6.29708 5.23267
#
# Compressibility (1/GPa) = 0.08003079
#
# Stress axis : x y z
#
# Youngs Moduli (GPa) = 24.34582 38.68269 133.40656
#
# Poissons Ratio (x) = -0.53847 0.70607
# Poissons Ratio (y) = -0.33890 0.77686
# Poissons Ratio (z) = 0.12885 0.22526
#
# Static dielectric constant tensor:
#      x y z
#    x 1.913270 0.001520 0.008280 
#    y 0.001520 1.930520 0.033400 
#    z 0.008280 0.033400 1.829740 
# 
# From -- ./inp_files/402749.got.cif
#   From: 2010.05.17/outbox.cif.g08.bks.cpg/sg2_202_cif.got.tgz:402749.got - 2010.06.03 11:33:40.
