data_PCOD9006464
_publ_section_title
;
Structure prediction by ZEFSAII (Michael W. Deem and Ramdas Pophale) SiO2 
 PCOD9006464
Probable space group: P -1
;
_chemical_formula_sum "Si O2"
_cell_formula_units_Z 16
_cell_length_a 21.934092
_cell_length_b 5.110803
_cell_length_c 5.640812
_cell_angle_alpha 93.737679
_cell_angle_beta 82.139184
_cell_angle_gamma 103.870122
_cell_volume 607.787711
_symmetry_space_group_name_H-M "P -1"
_symmetry_group_IT_number 2
_symmetry_cell_setting 'triclinic'
loop_
_space_group_symop_operation_xyz
x,y,z
-x,-y,-z
loop_
_atom_site_type_symbol
_atom_site_label
_atom_site_fract_x
_atom_site_fract_y
_atom_site_fract_z
Si Si1 0.487116 0.286553 0.285399
Si Si2 0.400859 0.887016 0.632797
Si Si3 0.169241 0.546026 0.608366
Si Si4 0.131280 0.121069 0.228992
Si Si5 0.926680 0.434510 0.974580
Si Si6 0.254066 0.324518 0.885592
Si Si7 0.285793 0.913237 0.451239
Si Si8 0.371146 0.297374 0.042397
O O1 0.500000 0.500000 0.500000
O O2 0.557715 0.241289 0.212097
O O3 0.439257 0.383104 0.138771
O O4 0.446582 0.003509 0.394811
O O5 0.334706 0.750463 0.535779
O O6 0.386837 0.138706 0.795360
O O7 0.140396 0.258148 0.489542
O O8 0.113898 0.650683 0.768350
O O9 0.217634 0.524049 0.792042
O O10 0.218139 0.723862 0.407859
O O11 0.094327 0.306739 0.106813
O O12 0.201331 0.161393 0.083376
O O13 0.093635 0.814202 0.209726
O O14 0.000000 0.500000 0.000000
O O15 0.268274 0.121006 0.664789
O O16 0.319769 0.459580 0.990743
O O17 0.326789 0.086378 0.233609
#
# Coordination Sequence:
#
# PCOD9006464 Si02
#       8
#     2   2   2   2   2   2   2   2
#     4  10  21  39  59  86 124 170 217 282 343 416
#     4   9  21  38  58  88 124 164 222 277 344 415
#     4  11  25  42  72 101 142 183 236 290 351 429
#     4  11  25  42  76 104 144 193 238 291 363 416
#     4  11  26  48  72 110 150 189 241 296 350 425
#     4  10  22  41  61  97 137 171 233 287 350 418
#     4  10  21  40  63  91 133 173 224 291 349 421
#     4  10  21  38  66  90 129 172 222 280 350 414
#
# _framework density 26.324981999999999
#
# number of rings (size 3 to 8) (size 9 to 14) (size 15 to 20)
#    0.000    1.750    1.250    1.500    3.500    6.500 
#    0.000    6.250    0.000    0.000    0.000    0.000 
#    0.000    0.000    0.000    0.000    0.000    0.000 
#
# Total GULP energy -89541.067642 kJ/mol
# GULP energy per Si atom -5596.316728 kJ/mol
# Density = 2.626506 g / cm^3
# Si number density = 26.324982 Si / 1000 Ang^3
#
#
#
# Elastic Constant Matrix: (Units=GPa)
#
#
# Indices 1 2 3 4 5 6 
#
# 1 244.4028 38.0461 38.4678 -7.2178 -1.0620 16.1591
# 2 38.0461 71.1093 15.4522 5.7606 -2.6679 5.4260
# 3 38.4678 15.4522 62.4648 1.3041 10.8973 2.6504
# 4 -7.2178 5.7606 1.3041 47.4690 -3.0121 13.7360
# 5 -1.0620 -2.6679 10.8973 -3.0121 27.6303 0.6023
# 6 16.1591 5.4260 2.6504 13.7360 0.6023 44.7290
#
#
#
# Elastic Compliance Matrix: (Units=1/GPa)
#
#
# Indices 1 2 3 4 5 6 
#
# 1 0.005032 -0.002029 -0.002781 0.001739 0.001327 -0.001959
# 2 -0.002029 0.016109 -0.003113 -0.001876 0.002512 -0.000494
# 3 -0.002781 -0.003113 0.019962 -0.001339 -0.008442 0.000725
# 4 0.001739 -0.001876 -0.001339 0.024040 0.003203 -0.007747
# 5 0.001327 0.002512 -0.008442 0.003203 0.040204 -0.001809
# 6 -0.001959 -0.000494 0.000725 -0.007747 -0.001809 0.025485
#
#
# Mechanical properties :
#
#
# Convention : Reuss Voigt Hill
#
# Bulk Modulus (GPa) = 39.59632 62.43433 51.01533
# Shear Modulus (GPa) = 32.23756 43.03303 37.63530
#
# Velocity S-wave (km/s) = 3.50322 4.04751 3.78516
# Velocity P-wave (km/s) = 5.60691 6.75362 6.20680
#
# Compressibility (1/GPa) = 0.02525487
#
# Stress axis : x y z
#
# Youngs Moduli (GPa) = 198.73062 62.07664 50.09514
#
# Poissons Ratio (x) = 0.12598 0.13934
# Poissons Ratio (y) = 0.40332 0.15596
# Poissons Ratio (z) = 0.55275 0.19326
#
# Static dielectric constant tensor:
#      x y z
#    x 2.063280 -0.051300 0.050370 
#    y -0.051300 2.153400 -0.113290 
#    z 0.050370 -0.113290 2.110390 
# 
# From -- ./inp_files/11427.got.cif
#   From: 2010.05.17/outbox.cif.g08.bks.cpg/sg2_6_cif.got.tgz:11427.got - 2010.06.03 11:33:40.
