data_PCOD9006960
_publ_section_title
;
Structure prediction by ZEFSAII (Michael W. Deem and Ramdas Pophale) SiO2 
 PCOD9006960
Probable space group: P -1
;
_chemical_formula_sum "Si O2"
_cell_formula_units_Z 16
_cell_length_a 15.918458
_cell_length_b 19.332589
_cell_length_c 5.196451
_cell_angle_alpha 71.746283
_cell_angle_beta 62.247820
_cell_angle_gamma 33.940466
_cell_volume 781.474287
_symmetry_space_group_name_H-M "P -1"
_symmetry_group_IT_number 2
_symmetry_cell_setting 'triclinic'
loop_
_space_group_symop_operation_xyz
x,y,z
-x,-y,-z
loop_
_atom_site_type_symbol
_atom_site_label
_atom_site_fract_x
_atom_site_fract_y
_atom_site_fract_z
Si Si1 0.536028 0.571956 0.135150
Si Si2 0.384690 0.968725 0.817205
Si Si3 0.707076 0.404466 0.580234
Si Si4 0.235831 0.371752 0.888169
Si Si5 0.909636 0.655013 0.181965
Si Si6 0.427852 0.288708 0.215912
Si Si7 0.308336 0.148646 0.326367
Si Si8 0.925361 0.794895 0.786749
O O1 0.636083 0.501554 0.342265
O O2 0.375668 0.621869 0.329425
O O3 0.643809 0.470169 0.870819
O O4 0.500395 0.676001 0.972514
O O5 0.453575 0.852811 0.724867
O O6 0.517465 0.919699 0.887424
O O7 0.357722 0.051810 0.562528
O O8 0.206258 0.066885 0.076165
O O9 0.902548 0.281024 0.452032
O O10 0.209814 0.304741 0.911731
O O11 0.291015 0.375972 0.536110
O O12 0.362451 0.308921 0.002931
O O13 0.067780 0.507003 0.091757
O O14 0.799656 0.724439 0.510235
O O15 0.967272 0.702233 0.027883
O O16 0.184420 0.183263 0.279184
#
# Coordination Sequence:
#
# PCOD9006960 Si02
#       8
#     2   2   2   2   2   2   2   2
#     4  10  22  43  67  95 122 153 192 261 317 373
#     4  10  23  37  56  86 120 172 211 248 288 354
#     4  10  23  42  68  95 121 151 203 251 317 369
#     4  11  25  36  59  89 126 156 201 248 308 370
#     4  10  22  36  55  89 118 161 200 255 302 358
#     4  12  23  40  61  87 123 164 199 249 308 364
#     4  10  21  39  58  81 124 169 212 250 289 352
#     4  11  22  36  63  85 120 167 211 253 292 361
#
# _framework density 20.474119999999999
#
# number of rings (size 3 to 8) (size 9 to 14) (size 15 to 20)
#    0.000    1.500    1.250    3.375    8.750    1.000 
#    0.000    0.625    0.000    0.750    0.000    0.000 
#    0.000    0.000    0.000    0.000    0.000    0.000 
#
# Total GULP energy -89200.981519 kJ/mol
# GULP energy per Si atom -5575.061345 kJ/mol
# Density = 2.042752 g / cm^3
# Si number density = 20.474120 Si / 1000 Ang^3
#
#
#
# Elastic Constant Matrix: (Units=GPa)
#
#
# Indices 1 2 3 4 5 6 
#
# 1 56.9912 24.2684 30.7475 9.4885 -21.0000 -0.5982
# 2 24.2684 61.5503 26.2136 19.9126 -21.7219 8.9880
# 3 30.7475 26.2136 89.3800 10.5474 -14.9714 -4.8825
# 4 9.4885 19.9126 10.5474 32.0361 -7.6785 -3.8745
# 5 -21.0000 -21.7219 -14.9714 -7.6785 41.7538 2.0848
# 6 -0.5982 8.9880 -4.8825 -3.8745 2.0848 29.4741
#
#
#
# Elastic Compliance Matrix: (Units=1/GPa)
#
#
# Indices 1 2 3 4 5 6 
#
# 1 0.025971 -0.004388 -0.006123 -0.000917 0.008408 0.000135
# 2 -0.004388 0.030086 -0.004609 -0.015106 0.009648 -0.012695
# 3 -0.006123 -0.004609 0.014774 0.000191 -0.000333 0.003777
# 4 -0.000917 -0.015106 0.000191 0.041787 -0.001076 0.010189
# 5 0.008408 0.009648 -0.000333 -0.001076 0.033146 -0.005313
# 6 0.000135 -0.012695 0.003777 0.010189 -0.005313 0.040143
#
#
# Mechanical properties :
#
#
# Convention : Reuss Voigt Hill
#
# Bulk Modulus (GPa) = 24.63606 41.15340 32.89473
# Shear Modulus (GPa) = 21.76955 29.09892 25.43423
#
# Velocity S-wave (km/s) = 3.26432 3.77404 3.52840
# Velocity P-wave (km/s) = 5.12510 6.25580 5.71846
#
# Compressibility (1/GPa) = 0.04059090
#
# Stress axis : x y z
#
# Youngs Moduli (GPa) = 38.50439 33.23825 67.68489
#
# Poissons Ratio (x) = 0.14584 0.41446
# Poissons Ratio (y) = 0.16895 0.31196
# Poissons Ratio (z) = 0.23578 0.15319
#
# Static dielectric constant tensor:
#      x y z
#    x 1.753330 -0.042500 0.046970 
#    y -0.042500 1.816020 -0.067530 
#    z 0.046970 -0.067530 1.802570 
# 
# From -- ./inp_files/99652.got.cif
#   From: 2010.05.17/outbox.cif.g08.bks.cpg/sg2_50_cif.got.tgz:99652.got - 2010.06.03 11:33:40.
