data_PCOD9006903
_publ_section_title
;
Structure prediction by ZEFSAII (Michael W. Deem and Ramdas Pophale) SiO2 
 PCOD9006903
Probable space group: P -1
;
_chemical_formula_sum "Si O2"
_cell_formula_units_Z 16
_cell_length_a 17.391957
_cell_length_b 21.043917
_cell_length_c 5.169387
_cell_angle_alpha 93.364369
_cell_angle_beta 87.138975
_cell_angle_gamma 158.904445
_cell_volume 679.730674
_symmetry_space_group_name_H-M "P -1"
_symmetry_group_IT_number 2
_symmetry_cell_setting 'triclinic'
loop_
_space_group_symop_operation_xyz
x,y,z
-x,-y,-z
loop_
_atom_site_type_symbol
_atom_site_label
_atom_site_fract_x
_atom_site_fract_y
_atom_site_fract_z
Si Si1 0.633035 0.153633 0.728954
Si Si2 0.846809 0.036236 0.993258
Si Si3 0.466346 0.279699 0.428067
Si Si4 0.911821 0.968870 0.257100
Si Si5 0.036103 0.428666 0.013050
Si Si6 0.197757 0.819253 0.631780
Si Si7 0.438701 0.768280 0.280826
Si Si8 0.089337 0.332052 0.718671
O O1 0.668076 0.110080 0.601993
O O2 0.614062 0.204511 0.578619
O O3 0.853376 0.329084 0.890792
O O4 0.391796 0.972131 0.844141
O O5 0.708318 0.882615 0.787070
O O6 0.966485 0.083944 0.194809
O O7 0.670935 0.940362 0.156478
O O8 0.998874 0.200339 0.845926
O O9 0.337850 0.216127 0.664947
O O10 0.575912 0.302231 0.541436
O O11 0.656919 0.469886 0.329927
O O12 0.000000 0.000000 0.500000
O O13 0.000000 0.000000 0.000000
O O14 0.044414 0.361919 0.896189
O O15 0.275573 0.636252 0.038899
O O16 0.958867 0.358313 0.302454
O O17 0.052094 0.763470 0.537966
#
# Coordination Sequence:
#
# PCOD9006903 Si02
#       8
#     2   2   2   2   2   2   2   2
#     4  10  22  35  55  86 125 189 241 300 359 414
#     4  11  24  43  75 103 134 190 226 288 355 421
#     4  11  23  44  73 102 140 184 231 286 355 413
#     4  11  24  50  81 112 152 184 223 282 351 432
#     4  11  21  37  58  87 135 182 236 305 356 403
#     4  10  21  39  55  84 131 182 237 306 354 403
#     4  11  22  38  59  96 131 180 247 299 355 426
#     4  11  23  42  66 102 137 176 243 292 341 427
#
# _framework density 23.538734000000002
#
# number of rings (size 3 to 8) (size 9 to 14) (size 15 to 20)
#    0.000    1.250    3.750    2.250    0.000    4.500 
#    0.000    1.250    0.000    0.000    0.000    0.000 
#    0.000    0.000    0.000    0.000    0.000    0.000 
#
# Total GULP energy -89105.278796 kJ/mol
# GULP energy per Si atom -5569.079925 kJ/mol
# Density = 2.348516 g / cm^3
# Si number density = 23.538734 Si / 1000 Ang^3
#
#
#
# Elastic Constant Matrix: (Units=GPa)
#
#
# Indices 1 2 3 4 5 6 
#
# 1 134.5134 49.7829 44.4033 -2.0435 29.7697 3.5752
# 2 49.7829 117.4608 26.2611 -1.3823 8.6372 -13.7746
# 3 44.4033 26.2611 87.8112 -4.0714 17.6055 -3.2923
# 4 -2.0435 -1.3823 -4.0714 35.8996 -6.7963 2.5534
# 5 29.7697 8.6372 17.6055 -6.7963 38.0937 1.8272
# 6 3.5752 -13.7746 -3.2923 2.5534 1.8272 14.8867
#
#
#
# Elastic Compliance Matrix: (Units=1/GPa)
#
#
# Indices 1 2 3 4 5 6 
#
# 1 0.011937 -0.004604 -0.003678 -0.000617 -0.006357 -0.007054
# 2 -0.004604 0.012045 -0.000977 -0.000649 0.000624 0.012070
# 3 -0.003678 -0.000977 0.014428 0.000444 -0.003663 0.003544
# 4 -0.000617 -0.000649 0.000444 0.029411 0.005965 -0.006132
# 5 -0.006357 0.000624 -0.003663 0.005965 0.034022 -0.003906
# 6 -0.007054 0.012070 0.003544 -0.006132 -0.003906 0.082351
#
#
# Mechanical properties :
#
#
# Convention : Reuss Voigt Hill
#
# Bulk Modulus (GPa) = 50.26984 64.52002 57.39493
# Shear Modulus (GPa) = 23.88425 32.39855 28.14140
#
# Velocity S-wave (km/s) = 3.18886 3.71400 3.46140
# Velocity P-wave (km/s) = 5.91278 6.77210 6.35698
#
# Compressibility (1/GPa) = 0.01989264
#
# Stress axis : x y z
#
# Youngs Moduli (GPa) = 83.77156 83.02113 69.31037
#
# Poissons Ratio (x) = 0.38224 0.25492
# Poissons Ratio (y) = 0.38569 0.06770
# Poissons Ratio (z) = 0.30811 0.08109
#
# Static dielectric constant tensor:
#      x y z
#    x 1.904020 -0.052480 -0.062630 
#    y -0.052480 2.082470 0.033740 
#    z -0.062630 0.033740 2.152930 
# 
# From -- ./inp_files/112422.got.cif
#   From: 2010.05.17/outbox.cif.g08.bks.cpg/sg2_57_cif.got.tgz:112422.got - 2010.06.03 11:33:40.
