data_PCOD9006055
_publ_section_title
;
Structure prediction by ZEFSAII (Michael W. Deem and Ramdas Pophale) SiO2 
 PCOD9006055
Probable space group: P -1
;
_chemical_formula_sum "Si O2"
_cell_formula_units_Z 14
_cell_length_a 20.140031
_cell_length_b 10.105867
_cell_length_c 7.265084
_cell_angle_alpha 127.010123
_cell_angle_beta 43.738151
_cell_angle_gamma 147.242258
_cell_volume 553.094565
_symmetry_space_group_name_H-M "P -1"
_symmetry_group_IT_number 2
_symmetry_cell_setting 'triclinic'
loop_
_space_group_symop_operation_xyz
x,y,z
-x,-y,-z
loop_
_atom_site_type_symbol
_atom_site_label
_atom_site_fract_x
_atom_site_fract_y
_atom_site_fract_z
Si Si1 0.263370 0.527301 0.741842
Si Si2 0.766373 0.039494 0.220196
Si Si3 0.614732 0.064913 0.967504
Si Si4 0.489432 0.678476 0.672606
Si Si5 0.172461 0.217498 0.327202
Si Si6 0.025762 0.835498 0.814075
Si Si7 0.143590 0.524383 0.449076
O O1 0.337046 0.541720 0.787800
O O2 0.251583 0.371582 0.483753
O O3 0.357145 0.814723 0.792820
O O4 0.101887 0.378340 0.972762
O O5 0.604401 0.879106 0.454571
O O6 0.850661 0.322962 0.281586
O O7 0.784211 0.911541 0.933305
O O8 0.830416 0.031160 0.267067
O O9 0.758547 0.272115 0.736958
O O10 0.547195 0.800552 0.862716
O O11 0.500000 0.000000 0.000000
O O12 0.500000 0.500000 0.500000
O O13 0.201531 0.421472 0.318865
O O14 0.000000 0.000000 0.500000
O O15 0.999357 0.710587 0.568586
O O16 0.000000 0.000000 0.000000
#
# Coordination Sequence:
#
# PCOD9006055 Si02
#       7
#     2   2   2   2   2   2   2
#     4  10  21  39  59  88 124 162 201 247 311 370
#     4  11  23  39  62  94 121 160 212 252 305 368
#     4   8  18  37  61  85 115 155 204 248 301 358
#     4  10  21  38  64  94 120 151 209 265 301 358
#     4  12  24  42  60  90 132 168 200 250 312 373
#     4  11  18  37  66  88 117 163 210 256 305 354
#     4  10  22  38  62  91 123 159 207 263 302 357
#
# _framework density 25.312128000000001
#
# number of rings (size 3 to 8) (size 9 to 14) (size 15 to 20)
#    0.000    1.714    2.857    1.286    4.000    1.143 
#    2.571    6.429    0.000    0.000    0.000    0.000 
#    0.000    0.000    0.000    0.000    0.000    0.000 
#
# Total GULP energy -77942.001872 kJ/mol
# GULP energy per Si atom -5567.285848 kJ/mol
# Density = 2.525452 g / cm^3
# Si number density = 25.312128 Si / 1000 Ang^3
#
#
#
# Elastic Constant Matrix: (Units=GPa)
#
#
# Indices 1 2 3 4 5 6 
#
# 1 41.0338 24.3732 18.8694 9.8371 6.3231 11.0344
# 2 24.3732 104.2341 64.0510 49.5527 16.9066 20.3835
# 3 18.8694 64.0510 170.3188 60.8609 6.9452 13.0209
# 4 9.8371 49.5527 60.8609 77.6933 17.0899 4.7280
# 5 6.3231 16.9066 6.9452 17.0899 29.5251 9.9531
# 6 11.0344 20.3835 13.0209 4.7280 9.9531 32.2894
#
#
#
# Elastic Compliance Matrix: (Units=1/GPa)
#
#
# Indices 1 2 3 4 5 6 
#
# 1 0.029671 -0.005410 -0.001236 0.001416 -0.001804 -0.005877
# 2 -0.005410 0.017796 -0.002754 -0.007738 -0.001671 -0.006627
# 3 -0.001236 -0.002754 0.009169 -0.005987 0.003763 -0.001820
# 4 0.001416 -0.007738 -0.005987 0.024277 -0.010731 0.006568
# 5 -0.001804 -0.001671 0.003763 -0.010731 0.044591 -0.012019
# 6 -0.005877 -0.006627 -0.001820 0.006568 -0.012019 0.040639
#
#
# Mechanical properties :
#
#
# Convention : Reuss Voigt Hill
#
# Bulk Modulus (GPa) = 26.42908 58.90821 42.66864
# Shear Modulus (GPa) = 25.30959 41.78779 33.54869
#
# Velocity S-wave (km/s) = 3.16555 4.06753 3.64455
# Velocity P-wave (km/s) = 4.88107 6.73669 5.88251
#
# Compressibility (1/GPa) = 0.03783712
#
# Stress axis : x y z
#
# Youngs Moduli (GPa) = 33.70327 56.19154 109.06643
#
# Poissons Ratio (x) = 0.30399 0.13480
# Poissons Ratio (y) = 0.18233 0.30032
# Poissons Ratio (z) = 0.04166 0.15472
#
# Static dielectric constant tensor:
#      x y z
#    x 2.084680 -0.189350 -0.052230 
#    y -0.189350 2.267890 0.247490 
#    z -0.052230 0.247490 2.464730 
# 
# From -- ./inp_files/195807.got.cif
#   From: 2010.05.17/outbox.cif.g08.bks.cpg/sg2_98_cif.got.tgz:195807.got - 2010.06.03 11:33:40.
