data_PCOD9006499
_publ_section_title
;
Structure prediction by ZEFSAII (Michael W. Deem and Ramdas Pophale) SiO2 
 PCOD9006499
Probable space group: P -1
;
_chemical_formula_sum "Si O2"
_cell_formula_units_Z 16
_cell_length_a 20.055445
_cell_length_b 12.368633
_cell_length_c 8.784458
_cell_angle_alpha 44.550537
_cell_angle_beta 151.061386
_cell_angle_gamma 139.664552
_cell_volume 675.209876
_symmetry_space_group_name_H-M "P -1"
_symmetry_group_IT_number 2
_symmetry_cell_setting 'triclinic'
loop_
_space_group_symop_operation_xyz
x,y,z
-x,-y,-z
loop_
_atom_site_type_symbol
_atom_site_label
_atom_site_fract_x
_atom_site_fract_y
_atom_site_fract_z
Si Si1 0.588711 0.185723 0.430657
Si Si2 0.793458 0.454927 0.149822
Si Si3 0.843311 0.186228 0.735596
Si Si4 0.064235 0.703619 0.623004
Si Si5 0.360075 0.489335 0.633014
Si Si6 0.462334 0.329312 0.751368
Si Si7 0.049238 0.203581 0.381933
Si Si8 0.176483 0.035671 0.336289
O O1 0.739064 0.182861 0.667940
O O2 0.642196 0.331166 0.518165
O O3 0.500000 0.000000 0.500000
O O4 0.503427 0.232897 0.072346
O O5 0.834278 0.323021 0.465696
O O6 0.847595 0.414104 0.133392
O O7 0.909956 0.630182 0.283382
O O8 0.618903 0.409553 0.888861
O O9 0.783614 0.012475 0.701065
O O10 0.999461 0.226281 0.088511
O O11 0.016449 0.724431 0.679767
O O12 0.167277 0.891869 0.583535
O O13 0.404624 0.459201 0.583997
O O14 0.223811 0.328911 0.594248
O O15 0.500000 0.500000 0.000000
O O16 0.313971 0.204351 0.492214
O O17 0.000000 0.000000 0.500000
O O18 0.000000 0.000000 0.000000
#
# Coordination Sequence:
#
# PCOD9006499 Si02
#       8
#     2   2   2   2   2   2   2   2
#     4  10  23  40  64 102 136 164 217 278 334 393
#     4   9  21  43  65  93 129 172 216 276 335 394
#     4  10  23  40  62  92 133 170 220 273 326 388
#     4  10  21  38  66  93 128 169 222 269 332 397
#     4  10  22  40  65  97 135 174 212 276 334 391
#     4  10  21  43  70  92 129 182 216 268 339 391
#     4  12  24  39  66 102 132 178 222 273 338 396
#     4  11  23  43  64  91 131 177 222 268 327 397
#
# _framework density 23.696337
#
# number of rings (size 3 to 8) (size 9 to 14) (size 15 to 20)
#    0.000    1.750    0.000    4.500    5.250    6.500 
#    2.250    1.875    0.000    0.000    0.000    0.000 
#    0.000    0.000    0.000    0.000    0.000    0.000 
#
# Total GULP energy -89289.038333 kJ/mol
# GULP energy per Si atom -5580.564896 kJ/mol
# Density = 2.364240 g / cm^3
# Si number density = 23.696337 Si / 1000 Ang^3
#
#
#
# Elastic Constant Matrix: (Units=GPa)
#
#
# Indices 1 2 3 4 5 6 
#
# 1 157.5451 85.6424 62.8101 19.1500 7.9880 -30.3001
# 2 85.6424 161.2339 53.2896 33.5294 8.6962 -13.3683
# 3 62.8101 53.2896 80.7020 36.1390 7.1460 -4.7239
# 4 19.1500 33.5294 36.1390 42.1144 2.2759 -11.0068
# 5 7.9880 8.6962 7.1460 2.2759 40.5191 1.2041
# 6 -30.3001 -13.3683 -4.7239 -11.0068 1.2041 46.0655
#
#
#
# Elastic Compliance Matrix: (Units=1/GPa)
#
#
# Indices 1 2 3 4 5 6 
#
# 1 0.014319 -0.005020 -0.011704 0.009948 -0.000512 0.009152
# 2 -0.005020 0.010038 -0.000013 -0.006137 -0.000763 -0.001837
# 3 -0.011704 -0.000013 0.032207 -0.024909 -0.001665 -0.010307
# 4 0.009948 -0.006137 -0.024909 0.049090 0.000578 0.013923
# 5 -0.000512 -0.000763 -0.001665 0.000578 0.025243 -0.001251
# 6 0.009152 -0.001837 -0.010307 0.013923 -0.001251 0.029497
#
#
# Mechanical properties :
#
#
# Convention : Reuss Voigt Hill
#
# Bulk Modulus (GPa) = 43.30667 89.21835 66.26251
# Shear Modulus (GPa) = 24.80587 38.92238 31.86412
#
# Velocity S-wave (km/s) = 3.23897 4.05723 3.67097
# Velocity P-wave (km/s) = 5.68360 7.72532 6.78174
#
# Compressibility (1/GPa) = 0.02309113
#
# Stress axis : x y z
#
# Youngs Moduli (GPa) = 69.83614 99.62078 31.04869
#
# Poissons Ratio (x) = 0.50011 0.36338
# Poissons Ratio (y) = 0.35059 0.00041
# Poissons Ratio (z) = 0.81733 0.00131
#
# Static dielectric constant tensor:
#      x y z
#    x 1.967030 -0.021380 -0.017630 
#    y -0.021380 1.905510 -0.073410 
#    z -0.017630 -0.073410 2.022010 
# 
# From -- ./inp_files/346010.got.cif
#   From: 2010.05.17/outbox.cif.g08.bks.cpg/sg2_174_cif.got.tgz:346010.got - 2010.06.03 11:33:40.
