data_PCOD9006890
_publ_section_title
;
Structure prediction by ZEFSAII (Michael W. Deem and Ramdas Pophale) SiO2 
 PCOD9006890
Probable space group: P -1
;
_chemical_formula_sum "Si O2"
_cell_formula_units_Z 12
_cell_length_a 11.337045
_cell_length_b 8.735010
_cell_length_c 9.860861
_cell_angle_alpha 83.363469
_cell_angle_beta 111.280257
_cell_angle_gamma 137.843065
_cell_volume 592.038211
_symmetry_space_group_name_H-M "P -1"
_symmetry_group_IT_number 2
_symmetry_cell_setting 'triclinic'
loop_
_space_group_symop_operation_xyz
x,y,z
-x,-y,-z
loop_
_atom_site_type_symbol
_atom_site_label
_atom_site_fract_x
_atom_site_fract_y
_atom_site_fract_z
Si Si1 0.808618 0.733553 0.069572
Si Si2 0.039524 0.650341 0.123421
Si Si3 0.864262 0.317696 0.339746
Si Si4 0.868496 0.959781 0.336183
Si Si5 0.484895 0.075827 0.344087
Si Si6 0.525356 0.437233 0.217587
O O1 0.645683 0.503398 0.123599
O O2 0.948366 0.736203 0.063972
O O3 0.685341 0.709994 0.907922
O O4 0.911320 0.937502 0.203616
O O5 0.934103 0.479083 0.225509
O O6 0.267501 0.865289 0.222109
O O7 0.000000 0.500000 0.000000
O O8 0.643611 0.146911 0.305041
O O9 0.000000 0.500000 0.500000
O O10 0.889243 0.160224 0.338036
O O11 0.351498 0.303236 0.705797
O O12 0.000000 0.000000 0.500000
O O13 0.530352 0.300900 0.337931
O O14 0.500000 0.000000 0.500000
#
# Coordination Sequence:
#
# PCOD9006890 Si02
#       6
#     2   2   2   2   2   2
#     4   9  21  45  66  97 144 182 231 287 354 414
#     4  12  28  42  72 110 139 187 240 290 362 424
#     4  12  24  48  71 100 153 177 236 301 344 429
#     4  10  21  38  75  99 130 199 225 286 366 399
#     4  12  26  44  74 101 142 192 233 292 362 418
#     4   9  21  43  70  96 140 186 235 280 361 411
#
# _framework density 20.268962999999999
#
# number of rings (size 3 to 8) (size 9 to 14) (size 15 to 20)
#    1.000    0.333    3.333    2.000    4.667    1.333 
#    0.000    0.833    0.000    0.000    0.000    0.000 
#    0.000    0.000    0.000    0.000    0.000    0.000 
#
# Total GULP energy -66982.440127 kJ/mol
# GULP energy per Si atom -5581.870011 kJ/mol
# Density = 2.022283 g / cm^3
# Si number density = 20.268963 Si / 1000 Ang^3
#
#
#
# Elastic Constant Matrix: (Units=GPa)
#
#
# Indices 1 2 3 4 5 6 
#
# 1 145.2248 35.7669 50.2211 20.7253 11.0343 -4.5760
# 2 35.7669 83.2739 19.8261 -2.6893 0.5048 -4.0837
# 3 50.2211 19.8261 97.9314 9.5489 6.9629 -6.5779
# 4 20.7253 -2.6893 9.5489 38.2129 -0.2827 -2.1410
# 5 11.0343 0.5048 6.9629 -0.2827 33.9290 3.3568
# 6 -4.5760 -4.0837 -6.5779 -2.1410 3.3568 48.0131
#
#
#
# Elastic Compliance Matrix: (Units=1/GPa)
#
#
# Indices 1 2 3 4 5 6 
#
# 1 0.009895 -0.003494 -0.003729 -0.004693 -0.002450 0.000097
# 2 -0.003494 0.013975 -0.001391 0.003276 0.001169 0.000729
# 3 -0.003729 -0.001391 0.012718 -0.001191 -0.001517 0.001322
# 4 -0.004693 0.003276 -0.001191 0.029304 0.001883 0.000843
# 5 -0.002450 0.001169 -0.001517 0.001883 0.030818 -0.002413
# 6 0.000097 0.000729 0.001322 0.000843 -0.002413 0.021286
#
#
# Mechanical properties :
#
#
# Convention : Reuss Voigt Hill
#
# Bulk Modulus (GPa) = 51.65220 59.78426 55.71823
# Shear Modulus (GPa) = 35.29165 38.73875 37.01520
#
# Velocity S-wave (km/s) = 4.17726 4.37651 4.27804
# Velocity P-wave (km/s) = 6.98603 7.42280 7.20773
#
# Compressibility (1/GPa) = 0.01936026
#
# Stress axis : x y z
#
# Youngs Moduli (GPa) = 101.06294 71.55657 78.63097
#
# Poissons Ratio (x) = 0.25003 0.29318
# Poissons Ratio (y) = 0.35313 0.10936
# Poissons Ratio (z) = 0.37682 0.09952
#
# Static dielectric constant tensor:
#      x y z
#    x 1.694640 0.016940 0.007140 
#    y 0.016940 1.739680 -0.014810 
#    z 0.007140 -0.014810 1.694450 
# 
# From -- ./inp_files/183814.got.cif
#   From: 2010.05.17/outbox.cif.g08.bks.cpg/sg2_92_cif.got.tgz:183814.got - 2010.06.03 11:33:40.
