data_PCOD9006786
_publ_section_title
;
Structure prediction by ZEFSAII (Michael W. Deem and Ramdas Pophale) SiO2 
 PCOD9006786
Probable space group: P -1
;
_chemical_formula_sum "Si O2"
_cell_formula_units_Z 14
_cell_length_a 10.926672
_cell_length_b 9.144750
_cell_length_c 14.018339
_cell_angle_alpha 50.463461
_cell_angle_beta 144.871785
_cell_angle_gamma 109.100222
_cell_volume 559.455520
_symmetry_space_group_name_H-M "P -1"
_symmetry_group_IT_number 2
_symmetry_cell_setting 'triclinic'
loop_
_space_group_symop_operation_xyz
x,y,z
-x,-y,-z
loop_
_atom_site_type_symbol
_atom_site_label
_atom_site_fract_x
_atom_site_fract_y
_atom_site_fract_z
Si Si1 0.333707 0.345945 0.706664
Si Si2 0.353372 0.820696 0.690232
Si Si3 0.842665 0.773520 0.711911
Si Si4 0.297559 0.636030 0.924022
Si Si5 0.079566 0.980820 0.168235
Si Si6 0.956830 0.785744 0.321677
Si Si7 0.468970 0.452785 0.392301
O O1 0.246214 0.171059 0.748549
O O2 0.492549 0.369750 0.715551
O O3 0.078724 0.551686 0.451108
O O4 0.475974 0.356115 0.885850
O O5 0.250599 0.786296 0.740051
O O6 0.170417 0.804102 0.504320
O O7 0.605572 0.614163 0.933089
O O8 0.347376 0.039014 0.556518
O O9 0.081729 0.704525 0.831230
O O10 0.239824 0.410886 0.253022
O O11 0.867495 0.856953 0.798659
O O12 0.320470 0.766926 0.414361
O O13 0.886469 0.941015 0.123936
O O14 0.000000 0.000000 0.000000
O O15 0.500000 0.500000 0.500000
#
# Coordination Sequence:
#
# PCOD9006786 Si02
#       7
#     2   2   2   2   2   2   2
#     4   9  19  38  60  94 129 175 226 271 336 405
#     4   9  20  41  67 104 137 179 226 284 354 414
#     4  11  24  45  69  99 144 184 228 291 347 414
#     4  10  21  38  69 104 134 180 232 279 351 423
#     4  10  23  45  68 102 136 179 232 290 352 406
#     4   8  17  38  66  88 134 175 214 282 339 404
#     4  11  26  45  66  98 140 188 230 286 352 415
#
# _framework density 25.024332000000001
#
# number of rings (size 3 to 8) (size 9 to 14) (size 15 to 20)
#    0.000    2.286    0.000    1.714    4.000    1.714 
#    5.143    2.857    0.000    0.000    0.000    0.000 
#    0.000    0.000    0.000    0.000    0.000    0.000 
#
# Total GULP energy -78111.354471 kJ/mol
# GULP energy per Si atom -5579.382462 kJ/mol
# Density = 2.496738 g / cm^3
# Si number density = 25.024332 Si / 1000 Ang^3
#
#
#
# Elastic Constant Matrix: (Units=GPa)
#
#
# Indices 1 2 3 4 5 6 
#
# 1 186.1728 73.0937 52.6549 9.5359 -38.3212 1.0169
# 2 73.0937 80.6963 24.1929 6.2233 -2.6643 -10.0904
# 3 52.6549 24.1929 104.8981 -14.9574 -8.3686 -13.3278
# 4 9.5359 6.2233 -14.9574 35.2657 -18.9616 1.4405
# 5 -38.3212 -2.6643 -8.3686 -18.9616 50.9508 -1.7854
# 6 1.0169 -10.0904 -13.3278 1.4405 -1.7854 37.0300
#
#
#
# Elastic Compliance Matrix: (Units=1/GPa)
#
#
# Indices 1 2 3 4 5 6 
#
# 1 0.011979 -0.010259 -0.003183 0.001978 0.008549 -0.003935
# 2 -0.010259 0.022989 -0.001088 -0.006844 -0.009030 0.005985
# 3 -0.003183 -0.001088 0.013327 0.008085 0.002902 0.004413
# 4 0.001978 -0.006844 0.008085 0.042224 0.018180 0.000225
# 5 0.008549 -0.009030 0.002902 0.018180 0.032799 -0.000777
# 6 -0.003935 0.005985 0.004413 0.000225 -0.000777 0.030286
#
#
# Mechanical properties :
#
#
# Convention : Reuss Voigt Hill
#
# Bulk Modulus (GPa) = 51.98898 74.62781 63.30839
# Shear Modulus (GPa) = 26.44458 39.43766 32.94112
#
# Velocity S-wave (km/s) = 3.25430 3.97416 3.63211
# Velocity P-wave (km/s) = 5.91110 7.13761 6.55311
#
# Compressibility (1/GPa) = 0.01923485
#
# Stress axis : x y z
#
# Youngs Moduli (GPa) = 83.47927 43.49990 75.03741
#
# Poissons Ratio (x) = 0.44625 0.23883
# Poissons Ratio (y) = 0.85638 0.08166
# Poissons Ratio (z) = 0.26570 0.04734
#
# Static dielectric constant tensor:
#      x y z
#    x 1.794930 0.292790 -0.084690 
#    y 0.292790 1.774090 -0.062550 
#    z -0.084690 -0.062550 2.065680 
# 
# From -- ./inp_files/421504.got.cif
#   From: 2010.05.17/outbox.cif.g08.bks.cpg/sg2_211_cif.got.tgz:421504.got - 2010.06.03 11:33:40.
