data_PCOD9006781
_publ_section_title
;
Structure prediction by ZEFSAII (Michael W. Deem and Ramdas Pophale) SiO2 
 PCOD9006781
Probable space group: P -1
;
_chemical_formula_sum "Si O2"
_cell_formula_units_Z 14
_cell_length_a 5.910361
_cell_length_b 10.478657
_cell_length_c 12.283412
_cell_angle_alpha 103.190112
_cell_angle_beta 59.872489
_cell_angle_gamma 114.306644
_cell_volume 599.425004
_symmetry_space_group_name_H-M "P -1"
_symmetry_group_IT_number 2
_symmetry_cell_setting 'triclinic'
loop_
_space_group_symop_operation_xyz
x,y,z
-x,-y,-z
loop_
_atom_site_type_symbol
_atom_site_label
_atom_site_fract_x
_atom_site_fract_y
_atom_site_fract_z
Si Si1 0.132383 0.358075 0.434964
Si Si2 0.489601 0.789385 0.668848
Si Si3 0.633020 0.881212 0.968461
Si Si4 0.752322 0.970298 0.198174
Si Si5 0.982416 0.502825 0.314315
Si Si6 0.504509 0.846578 0.445403
Si Si7 0.263687 0.571299 0.034623
O O1 0.293821 0.261587 0.331794
O O2 0.192570 0.428485 0.553892
O O3 0.182733 0.476790 0.353788
O O4 0.809652 0.260208 0.502402
O O5 0.427595 0.926803 0.741791
O O6 0.208564 0.653438 0.707375
O O7 0.628057 0.811946 0.519218
O O8 0.928339 0.930597 0.845997
O O9 0.428562 0.722970 0.971729
O O10 0.500000 0.000000 0.000000
O O11 0.712775 0.891375 0.078862
O O12 0.660128 0.861033 0.297553
O O13 0.126265 0.583317 0.187723
O O14 0.500000 0.000000 0.500000
O O15 0.500000 0.500000 0.000000
O O16 0.000000 0.500000 0.000000
#
# Coordination Sequence:
#
# PCOD9006781 Si02
#       7
#     2   2   2   2   2   2   2
#     4  10  21  40  67  99 139 184 234 305 380 438
#     4  10  21  38  69 100 135 184 231 300 374 447
#     4  11  27  47  73 105 143 200 251 315 380 442
#     4  10  23  42  68  99 147 182 245 304 372 454
#     4  10  23  42  65 102 141 183 245 306 367 450
#     4   9  20  37  57  96 130 169 223 285 357 443
#     4  12  30  51  79 113 152 205 263 316 382 455
#
# _framework density 23.355716999999999
#
# number of rings (size 3 to 8) (size 9 to 14) (size 15 to 20)
#    0.000    1.714    0.000    2.143    8.000    8.000 
#    0.000    0.000    0.000    0.000    0.000    0.000 
#    0.000    0.000    0.000    0.000    0.000    0.000 
#
# Total GULP energy -78096.740196 kJ/mol
# GULP energy per Si atom -5578.338585 kJ/mol
# Density = 2.330256 g / cm^3
# Si number density = 23.355717 Si / 1000 Ang^3
#
#
#
# Elastic Constant Matrix: (Units=GPa)
#
#
# Indices 1 2 3 4 5 6 
#
# 1 76.7928 3.9953 -13.2181 5.6029 -48.6049 -8.9267
# 2 3.9953 -7.4350 -147.0717 -2.5988 -98.1549 -4.3605
# 3 -13.2181 -147.0717 -100.5748 -3.3254 -122.9393 -4.8808
# 4 5.6029 -2.5988 -3.3254 38.7244 9.8573 2.9558
# 5 -48.6049 -98.1549 -122.9393 9.8573 -65.8774 -0.8168
# 6 -8.9267 -4.3605 -4.8808 2.9558 -0.8168 40.5785
#
#
#
# Elastic Compliance Matrix: (Units=1/GPa)
#
#
# Indices 1 2 3 4 5 6 
#
# 1 0.029003 -0.013420 -0.015829 -0.013438 0.026068 0.004538
# 2 -0.013420 0.014196 0.005503 0.008648 -0.020205 -0.001801
# 3 -0.015829 0.005503 0.017598 0.011370 -0.027634 -0.002158
# 4 -0.013438 0.008648 0.011370 0.034430 -0.018992 -0.003550
# 5 0.026068 -0.020205 -0.027634 -0.018992 0.044389 0.002516
# 6 0.004538 -0.001801 -0.002158 -0.003550 0.002516 0.025498
#
#
# Mechanical properties :
#
#
# Convention : Reuss Voigt Hill
#
# Bulk Modulus (GPa) = 75.14621 -38.20065 18.47278
# Shear Modulus (GPa) = 23.03725 11.02361 17.03043
#
# Velocity S-wave (km/s) = 3.14405 2.17488 2.70326
# Velocity P-wave (km/s) = 6.73978 3.17564 4.20356
#
# Compressibility (1/GPa) = 0.01330739
#
# Stress axis : x y z
#
# Youngs Moduli (GPa) = 34.47898 70.44155 56.82481
#
# Poissons Ratio (x) = 0.94531 0.89945
# Poissons Ratio (y) = 0.46270 -0.31273
# Poissons Ratio (z) = 0.54575 -0.38767
#
# Static dielectric constant tensor:
#      x y z
#    x 1.985090 -0.001330 0.048950 
#    y -0.001330 1.923090 0.033560 
#    z 0.048950 0.033560 1.919960 
# 
# From -- ./inp_files/95486.got.cif
#   From: 2010.05.17/outbox.cif.g08.bks.cpg/sg2_48_cif.got.tgz:95486.got - 2010.06.03 11:33:40.
