data_PCOD9006833
_publ_section_title
;
Structure prediction by ZEFSAII (Michael W. Deem and Ramdas Pophale) SiO2 
 PCOD9006833
Probable space group: P -1
;
_chemical_formula_sum "Si O2"
_cell_formula_units_Z 11
_cell_length_a 15.382797
_cell_length_b 8.449344
_cell_length_c 20.901990
_cell_angle_alpha 30.858526
_cell_angle_beta 160.750070
_cell_angle_gamma 147.464934
_cell_volume 450.781000
_symmetry_space_group_name_H-M "P -1"
_symmetry_group_IT_number 2
_symmetry_cell_setting 'triclinic'
loop_
_space_group_symop_operation_xyz
x,y,z
-x,-y,-z
loop_
_atom_site_type_symbol
_atom_site_label
_atom_site_fract_x
_atom_site_fract_y
_atom_site_fract_z
Si Si1 0.742256 0.915128 0.396540
Si Si2 0.418324 0.301141 0.873477
Si Si3 0.500000 0.500000 0.000000
Si Si4 0.202265 0.247243 0.096229
Si Si5 0.902838 0.841403 0.678371
Si Si6 0.271937 0.354176 0.242486
O O1 0.798305 0.816570 0.542174
O O2 0.525043 0.634388 0.312575
O O3 0.610118 0.217932 0.209671
O O4 0.000000 0.000000 0.500000
O O5 0.517980 0.610225 0.793474
O O6 0.556775 0.348971 0.021786
O O7 0.103786 0.175433 0.709818
O O8 0.500000 0.000000 0.000000
O O9 0.241185 0.134774 0.234555
O O10 0.061975 0.552535 0.895622
O O11 0.000000 0.000000 0.000000
O O12 0.715461 0.794257 0.627284
O O13 0.000000 0.500000 0.000000
#
# Coordination Sequence:
#
# PCOD9006833 Si02
#       6
#     2   2   1   2   2   2
#     4  12  25  47  76 111 147 194 250 307 367 444
#     4  10  22  43  68 108 145 190 247 304 362 439
#     4  12  26  42  84 100 148 200 250 290 388 428
#     4  10  21  38  70 103 146 191 238 300 366 438
#     4  10  22  42  68 101 149 186 238 307 368 425
#     4  10  22  43  73 102 148 193 235 306 376 425
#
# _framework density 24.402096
#
# number of rings (size 3 to 8) (size 9 to 14) (size 15 to 20)
#    0.000    1.455    0.000    7.091    7.636    0.727 
#    0.000    0.909    0.000    0.000    0.000    0.000 
#    0.000    0.000    0.000    0.000    0.000    0.000 
#
# Total GULP energy -61266.477159 kJ/mol
# GULP energy per Si atom -5569.679742 kJ/mol
# Density = 2.434656 g / cm^3
# Si number density = 24.402096 Si / 1000 Ang^3
#
#
#
# Elastic Constant Matrix: (Units=GPa)
#
#
# Indices 1 2 3 4 5 6 
#
# 1 208.1360 63.1576 34.8258 12.3337 -27.4762 0.6957
# 2 63.1576 142.6933 23.7730 29.2282 11.0239 20.5489
# 3 34.8258 23.7730 55.9257 -8.4544 -13.4047 9.3347
# 4 12.3337 29.2282 -8.4544 36.4390 1.1631 7.8162
# 5 -27.4762 11.0239 -13.4047 1.1631 37.6051 3.4545
# 6 0.6957 20.5489 9.3347 7.8162 3.4545 20.5239
#
#
#
# Elastic Compliance Matrix: (Units=1/GPa)
#
#
# Indices 1 2 3 4 5 6 
#
# 1 0.006944 -0.003307 -0.002634 -0.001313 0.004780 0.003969
# 2 -0.003307 0.012512 -0.005429 -0.008791 -0.007253 -0.005376
# 3 -0.002634 -0.005429 0.029315 0.014994 0.011066 -0.015381
# 4 -0.001313 -0.008791 0.014994 0.041394 0.007053 -0.014924
# 5 0.004780 -0.007253 0.011066 0.007053 0.036560 -0.006773
# 6 0.003969 -0.005376 -0.015381 -0.014924 -0.006773 0.067791
#
#
# Mechanical properties :
#
#
# Convention : Reuss Voigt Hill
#
# Bulk Modulus (GPa) = 38.41563 72.25199 55.33381
# Shear Modulus (GPa) = 22.13045 37.91352 30.02199
#
# Velocity S-wave (km/s) = 3.01476 3.94598 3.51137
# Velocity P-wave (km/s) = 5.28160 7.10170 6.25817
#
# Compressibility (1/GPa) = 0.02603107
#
# Stress axis : x y z
#
# Youngs Moduli (GPa) = 144.00437 79.92626 34.11198
#
# Poissons Ratio (x) = 0.26429 0.08984
# Poissons Ratio (y) = 0.47617 0.18521
# Poissons Ratio (z) = 0.37928 0.43396
#
# Static dielectric constant tensor:
#      x y z
#    x 1.825880 -0.028570 -0.219140 
#    y -0.028570 1.923280 -0.055980 
#    z -0.219140 -0.055980 1.683220 
# 
# From -- ./inp_files/151779.got.cif
#   From: 2010.05.17/outbox.cif.g08.bks.cpg/sg2_76_cif.got.tgz:151779.got - 2010.06.03 11:33:40.
