data_PCOD9006813
_publ_section_title
;
Structure prediction by ZEFSAII (Michael W. Deem and Ramdas Pophale) SiO2 
 PCOD9006813
Probable space group: P -1
;
_chemical_formula_sum "Si O2"
_cell_formula_units_Z 14
_cell_length_a 13.044085
_cell_length_b 8.646776
_cell_length_c 12.286221
_cell_angle_alpha 117.410291
_cell_angle_beta 37.394633
_cell_angle_gamma 128.488387
_cell_volume 657.030441
_symmetry_space_group_name_H-M "P -1"
_symmetry_group_IT_number 2
_symmetry_cell_setting 'triclinic'
loop_
_space_group_symop_operation_xyz
x,y,z
-x,-y,-z
loop_
_atom_site_type_symbol
_atom_site_label
_atom_site_fract_x
_atom_site_fract_y
_atom_site_fract_z
Si Si1 0.163557 0.969350 0.256835
Si Si2 0.669119 0.113897 0.128088
Si Si3 0.001007 0.403049 0.328717
Si Si4 0.778915 0.657682 0.569720
Si Si5 0.264642 0.798611 0.328813
Si Si6 0.587410 0.482294 0.306292
Si Si7 0.014929 0.209383 0.027587
O O1 0.250107 0.921609 0.277824
O O2 0.935044 0.824859 0.411051
O O3 0.218367 0.199421 0.289227
O O4 0.241340 0.909798 0.067513
O O5 0.611702 0.286645 0.223404
O O6 0.825949 0.170184 0.107672
O O7 0.473183 0.909851 0.241213
O O8 0.867464 0.510910 0.466254
O O9 0.890838 0.235101 0.457336
O O10 0.198910 0.579743 0.265221
O O11 0.025871 0.323915 0.167256
O O12 0.569083 0.543282 0.660208
O O13 0.500000 0.500000 0.500000
O O14 0.794944 0.662174 0.161856
O O15 0.000000 0.000000 0.000000
#
# Coordination Sequence:
#
# PCOD9006813 Si02
#       7
#     2   2   2   2   2   2   2
#     4  10  21  41  69 106 135 171 228 283 345 403
#     4  12  25  44  73 101 140 180 231 290 342 407
#     4  10  24  46  67  99 145 177 227 278 356 403
#     4  10  21  38  69  98 133 174 218 283 336 410
#     4  10  22  41  74  99 133 184 220 289 338 410
#     4  12  25  43  70 101 136 186 235 276 342 409
#     4  12  30  47  68  99 145 186 231 286 342 415
#
# _framework density 21.307993
#
# number of rings (size 3 to 8) (size 9 to 14) (size 15 to 20)
#    0.000    1.143    1.429    4.286    6.000    5.143 
#    0.000    1.429    0.000    0.000    0.000    0.000 
#    0.000    0.000    0.000    0.000    0.000    0.000 
#
# Total GULP energy -78292.373613 kJ/mol
# GULP energy per Si atom -5592.312401 kJ/mol
# Density = 2.125949 g / cm^3
# Si number density = 21.307993 Si / 1000 Ang^3
#
#
#
# Elastic Constant Matrix: (Units=GPa)
#
#
# Indices 1 2 3 4 5 6 
#
# 1 64.6991 47.9500 32.2172 -10.1378 -2.1682 20.3534
# 2 47.9500 109.9714 62.1924 0.7832 -0.3940 24.4036
# 3 32.2172 62.1924 125.0211 19.1059 22.7527 22.4616
# 4 -10.1378 0.7832 19.1059 46.7049 9.7676 -18.3520
# 5 -2.1682 -0.3940 22.7527 9.7676 38.5589 -6.7202
# 6 20.3534 24.4036 22.4616 -18.3520 -6.7202 32.8051
#
#
#
# Elastic Compliance Matrix: (Units=1/GPa)
#
#
# Indices 1 2 3 4 5 6 
#
# 1 0.025281 -0.008776 -0.001894 0.004183 0.000444 -0.005429
# 2 -0.008776 0.017047 -0.005789 -0.001904 0.002927 -0.003738
# 3 -0.001894 -0.005789 0.017692 -0.011309 -0.010369 -0.015083
# 4 0.004183 -0.001904 -0.011309 0.037510 0.002269 0.028013
# 5 0.000444 0.002927 -0.010369 0.002269 0.033770 0.012834
# 6 -0.005429 -0.003738 -0.015083 0.028013 0.012834 0.065260
#
#
# Mechanical properties :
#
#
# Convention : Reuss Voigt Hill
#
# Bulk Modulus (GPa) = 36.89614 64.93452 50.91533
# Shear Modulus (GPa) = 20.96338 34.10258 27.53298
#
# Velocity S-wave (km/s) = 3.14000 4.00491 3.59854
# Velocity P-wave (km/s) = 5.52263 7.20598 6.41972
#
# Compressibility (1/GPa) = 0.02710311
#
# Stress axis : x y z
#
# Youngs Moduli (GPa) = 39.55472 58.66127 56.52382
#
# Poissons Ratio (x) = 0.51478 0.10706
# Poissons Ratio (y) = 0.34711 0.32722
# Poissons Ratio (z) = 0.07492 0.33959
#
# Static dielectric constant tensor:
#      x y z
#    x 1.802910 -0.017030 -0.005690 
#    y -0.017030 1.789710 -0.013590 
#    z -0.005690 -0.013590 1.761080 
# 
# From -- ./inp_files/419638.got.cif
#   From: 2010.05.17/outbox.cif.g08.bks.cpg/sg2_210_cif.got.tgz:419638.got - 2010.06.03 11:33:40.
