data_PCOD9006976
_publ_section_title
;
Structure prediction by ZEFSAII (Michael W. Deem and Ramdas Pophale) SiO2 
 PCOD9006976
Probable space group: P -1
;
_chemical_formula_sum "Si O2"
_cell_formula_units_Z 10
_cell_length_a 8.494554
_cell_length_b 5.840808
_cell_length_c 8.133147
_cell_angle_alpha 93.162839
_cell_angle_beta 107.263927
_cell_angle_gamma 72.798858
_cell_volume 367.876222
_symmetry_space_group_name_H-M "P -1"
_symmetry_group_IT_number 2
_symmetry_cell_setting 'triclinic'
loop_
_space_group_symop_operation_xyz
x,y,z
-x,-y,-z
loop_
_atom_site_type_symbol
_atom_site_label
_atom_site_fract_x
_atom_site_fract_y
_atom_site_fract_z
Si Si1 0.768060 0.067301 0.597019
Si Si2 0.087772 0.363664 0.183483
Si Si3 0.093534 0.232478 0.657106
Si Si4 0.361157 0.855510 0.915809
Si Si5 0.418077 0.537717 0.245307
O O1 0.857881 0.917872 0.779768
O O2 0.777066 0.861196 0.457585
O O3 0.594207 0.261316 0.610102
O O4 0.906876 0.191919 0.576037
O O5 0.952825 0.494169 0.289399
O O6 0.269005 0.422933 0.245112
O O7 0.000000 0.500000 0.000000
O O8 0.188079 0.059114 0.826680
O O9 0.418674 0.677202 0.769551
O O10 0.361694 0.688469 0.065079
O O11 0.500000 0.000000 0.000000
#
# Coordination Sequence:
#
# PCOD9006976 Si02
#       5
#     2   2   2   2   2
#     4  10  21  39  58  85 115 145 187 233 281 331
#     4  11  20  36  61  85 112 148 188 234 278 328
#     4  10  22  37  59  85 114 148 186 231 280 333
#     4  11  22  39  58  83 114 149 190 231 276 332
#     4  10  22  37  57  83 112 147 191 230 276 334
#
# _framework density 27.183056000000001
#
# number of rings (size 3 to 8) (size 9 to 14) (size 15 to 20)
#    0.000    1.600    0.000    5.400    0.000    5.600 
#    0.000    4.000    0.000    0.000    0.000    0.000 
#    0.000    0.000    0.000    0.000    0.000    0.000 
#
# Total GULP energy -55951.139209 kJ/mol
# GULP energy per Si atom -5595.113921 kJ/mol
# Density = 2.712119 g / cm^3
# Si number density = 27.183056 Si / 1000 Ang^3
#
#
#
# Elastic Constant Matrix: (Units=GPa)
#
#
# Indices 1 2 3 4 5 6 
#
# 1 114.2358 39.8533 22.6398 7.3593 -10.6123 0.4146
# 2 39.8533 159.9279 21.8336 6.1999 -21.6656 -47.0094
# 3 22.6398 21.8336 75.6971 4.6627 -23.7647 -5.5152
# 4 7.3593 6.1999 4.6627 54.0265 -17.2838 -23.1286
# 5 -10.6123 -21.6656 -23.7647 -17.2838 43.3852 2.5869
# 6 0.4146 -47.0094 -5.5152 -23.1286 2.5869 48.8984
#
#
#
# Elastic Compliance Matrix: (Units=1/GPa)
#
#
# Indices 1 2 3 4 5 6 
#
# 1 0.010975 -0.004454 -0.003009 -0.004384 -0.002538 -0.006654
# 2 -0.004454 0.012710 0.000871 0.008517 0.008177 0.015951
# 3 -0.003009 0.000871 0.017192 0.003921 0.010433 0.004104
# 4 -0.004384 0.008517 0.003921 0.033380 0.017223 0.023545
# 5 -0.002538 0.008177 0.010433 0.017223 0.038183 0.015185
# 6 -0.006654 0.015951 0.004104 0.023545 0.015185 0.046638
#
#
# Mechanical properties :
#
#
# Convention : Reuss Voigt Hill
#
# Bulk Modulus (GPa) = 36.11079 57.61267 46.86173
# Shear Modulus (GPa) = 27.54919 46.96431 37.25675
#
# Velocity S-wave (km/s) = 3.18696 4.16108 3.70616
# Velocity P-wave (km/s) = 5.18222 6.65781 5.96581
#
# Compressibility (1/GPa) = 0.02769255
#
# Stress axis : x y z
#
# Youngs Moduli (GPa) = 91.11797 78.67873 58.16496
#
# Poissons Ratio (x) = 0.35041 0.17503
# Poissons Ratio (y) = 0.40581 -0.05064
# Poissons Ratio (z) = 0.27420 -0.06849
#
# Static dielectric constant tensor:
#      x y z
#    x 2.006790 -0.010690 -0.025850 
#    y -0.010690 2.141600 0.088530 
#    z -0.025850 0.088530 2.309660 
# 
# From -- ./inp_files/132721.got.cif
#   From: 2010.05.17/outbox.cif.g08.bks.cpg/sg2_67_cif.got.tgz:132721.got - 2010.06.03 11:33:40.
