data_PCOD9006671
_publ_section_title
;
Structure prediction by ZEFSAII (Michael W. Deem and Ramdas Pophale) SiO2 
 PCOD9006671
Probable space group: P -1
;
_chemical_formula_sum "Si O2"
_cell_formula_units_Z 11
_cell_length_a 7.024399
_cell_length_b 12.865116
_cell_length_c 8.803388
_cell_angle_alpha 52.229934
_cell_angle_beta 72.170964
_cell_angle_gamma 39.600655
_cell_volume 378.552514
_symmetry_space_group_name_H-M "P -1"
_symmetry_group_IT_number 2
_symmetry_cell_setting 'triclinic'
loop_
_space_group_symop_operation_xyz
x,y,z
-x,-y,-z
loop_
_atom_site_type_symbol
_atom_site_label
_atom_site_fract_x
_atom_site_fract_y
_atom_site_fract_z
Si Si1 0.500000 0.000000 0.500000
Si Si2 0.990437 0.332015 0.049442
Si Si3 0.373367 0.694299 0.054303
Si Si4 0.291749 0.931588 0.431792
Si Si5 0.049732 0.142861 0.740453
Si Si6 0.745931 0.709360 0.276244
O O1 0.539621 0.814935 0.610250
O O2 0.150977 0.146111 0.551508
O O3 0.813779 0.306832 0.017086
O O4 0.250622 0.115234 0.277744
O O5 0.726490 0.516090 0.063747
O O6 0.166578 0.332617 0.883461
O O7 0.203251 0.920825 0.900211
O O8 0.298999 0.678003 0.257149
O O9 0.420341 0.828646 0.328556
O O10 0.000000 0.000000 0.500000
O O11 0.227958 0.151065 0.806510
O O12 0.000000 0.500000 0.500000
#
# Coordination Sequence:
#
# PCOD9006671 Si02
#       6
#     1   2   2   2   2   2
#     4  10  22  40  62  94 136 170 216 278 330 388
#     4  10  21  38  67  97 130 175 229 272 335 409
#     4   9  19  36  65  97 128 169 223 277 335 398
#     4  11  24  41  70  98 135 178 227 277 339 403
#     4   9  19  36  61  86 135 174 205 273 342 380
#     4  10  23  40  66  97 133 177 223 278 340 400
#
# _framework density 29.058053999999998
#
# number of rings (size 3 to 8) (size 9 to 14) (size 15 to 20)
#    0.000    2.182    0.000    1.636   12.727    0.000 
#    0.000    4.545   24.000    0.000    0.000    0.000 
#    0.000    0.000    0.000    0.000    0.000    0.000 
#
# Total GULP energy -61380.282321 kJ/mol
# GULP energy per Si atom -5580.025666 kJ/mol
# Density = 2.899192 g / cm^3
# Si number density = 29.058054 Si / 1000 Ang^3
#
#
#
# Elastic Constant Matrix: (Units=GPa)
#
#
# Indices 1 2 3 4 5 6 
#
# 1 142.1047 71.1035 36.8058 13.1310 -12.4645 30.5885
# 2 71.1035 338.5330 127.4817 72.9262 -7.0302 -28.2839
# 3 36.8058 127.4817 144.9371 52.0925 5.7886 -27.5945
# 4 13.1310 72.9262 52.0925 73.3294 -5.9144 -19.7101
# 5 -12.4645 -7.0302 5.7886 -5.9144 40.6335 3.9873
# 6 30.5885 -28.2839 -27.5945 -19.7101 3.9873 70.2368
#
#
#
# Elastic Compliance Matrix: (Units=1/GPa)
#
#
# Indices 1 2 3 4 5 6 
#
# 1 0.010204 -0.001685 -0.002563 0.000297 0.003862 -0.006265
# 2 -0.001685 0.005013 -0.003004 -0.002275 0.000357 0.000914
# 3 -0.002563 -0.003004 0.012896 -0.005036 -0.004249 0.003801
# 4 0.000297 -0.002275 -0.005036 0.020351 0.003131 0.002509
# 5 0.003862 0.000357 -0.004249 0.003131 0.027298 -0.003878
# 6 -0.006265 0.000914 0.003801 0.002509 -0.003878 0.019752
#
#
# Mechanical properties :
#
#
# Convention : Reuss Voigt Hill
#
# Bulk Modulus (GPa) = 73.47995 121.81741 97.64868
# Shear Modulus (GPa) = 43.64784 62.85220 53.25002
#
# Velocity S-wave (km/s) = 3.87989 4.65584 4.28546
# Velocity P-wave (km/s) = 6.73896 8.42114 7.62657
#
# Compressibility (1/GPa) = 0.01360915
#
# Stress axis : x y z
#
# Youngs Moduli (GPa) = 98.00072 199.48370 77.54619
#
# Poissons Ratio (x) = 0.33621 0.19872
# Poissons Ratio (y) = 0.16517 0.23293
# Poissons Ratio (z) = 0.25113 0.59920
#
# Static dielectric constant tensor:
#      x y z
#    x 2.503780 0.036240 0.058780 
#    y 0.036240 2.270350 -0.053230 
#    z 0.058780 -0.053230 2.382850 
# 
# From -- ./inp_files/145762.got.cif
#   From: 2010.05.17/outbox.cif.g08.bks.cpg/sg2_73_cif.got.tgz:145762.got - 2010.06.03 11:33:40.
