data_PCOD9006908
_publ_section_title
;
Structure prediction by ZEFSAII (Michael W. Deem and Ramdas Pophale) SiO2 
 PCOD9006908
Probable space group: P -1
;
_chemical_formula_sum "Si O2"
_cell_formula_units_Z 14
_cell_length_a 5.060751
_cell_length_b 17.015363
_cell_length_c 23.758986
_cell_angle_alpha 163.378014
_cell_angle_beta 91.330698
_cell_angle_gamma 89.954710
_cell_volume 583.433909
_symmetry_space_group_name_H-M "P -1"
_symmetry_group_IT_number 2
_symmetry_cell_setting 'triclinic'
loop_
_space_group_symop_operation_xyz
x,y,z
-x,-y,-z
loop_
_atom_site_type_symbol
_atom_site_label
_atom_site_fract_x
_atom_site_fract_y
_atom_site_fract_z
Si Si1 0.859861 0.764095 0.575329
Si Si2 0.034421 0.596452 0.779303
Si Si3 0.554184 0.761212 0.257773
Si Si4 0.749736 0.740780 0.359704
Si Si5 0.642093 0.268420 0.375098
Si Si6 0.179002 0.285723 0.884709
Si Si7 0.450509 0.217573 0.045058
O O1 0.876023 0.560703 0.382894
O O2 0.564941 0.793026 0.616527
O O3 0.064151 0.659004 0.550330
O O4 0.994678 0.062628 0.763720
O O5 0.029079 0.371812 0.676370
O O6 0.757120 0.727104 0.869351
O O7 0.265116 0.826159 0.956205
O O8 0.778832 0.753069 0.301285
O O9 0.668849 0.850848 0.259329
O O10 0.352508 0.977239 0.425552
O O11 0.395926 0.465245 0.045277
O O12 0.516858 0.500370 0.205040
O O13 0.500000 0.500000 0.500000
O O14 0.649292 0.014129 0.157865
O O15 0.000000 0.500000 0.000000
#
# Coordination Sequence:
#
# PCOD9006908 Si02
#       7
#     2   2   2   2   2   2   2
#     4  12  26  46  76 102 149 187 230 301 359 411
#     4  10  22  42  70 101 134 187 231 277 356 418
#     4  10  21  39  56 101 134 192 232 286 315 432
#     4   9  21  37  66  87 144 179 240 268 351 387
#     4  12  28  50  76 106 136 182 243 300 367 429
#     4  11  25  36  66 100 151 180 245 265 359 399
#     4  10  22  42  70  97 137 177 234 280 354 413
#
# _framework density 23.995863
#
# number of rings (size 3 to 8) (size 9 to 14) (size 15 to 20)
#    0.857    0.571    0.000    4.714    8.000    1.143 
#    0.000    7.857    0.000    0.000    0.000    0.000 
#    0.000    0.000    0.000    0.000    0.000    0.000 
#
# Total GULP energy -78333.412859 kJ/mol
# GULP energy per Si atom -5595.243776 kJ/mol
# Density = 2.394125 g / cm^3
# Si number density = 23.995863 Si / 1000 Ang^3
#
#
#
# Elastic Constant Matrix: (Units=GPa)
#
#
# Indices 1 2 3 4 5 6 
#
# 1 61.5243 -4.0622 9.8917 17.2828 -5.4429 -1.5162
# 2 -4.0622 56.8623 22.9637 -2.9585 3.8464 -5.1652
# 3 9.8917 22.9637 57.8404 -51.2973 -10.2264 7.0331
# 4 17.2828 -2.9585 -51.2973 -14.5950 -9.9545 7.2428
# 5 -5.4429 3.8464 -10.2264 -9.9545 16.7184 -4.6332
# 6 -1.5162 -5.1652 7.0331 7.2428 -4.6332 31.9535
#
#
#
# Elastic Compliance Matrix: (Units=1/GPa)
#
#
# Indices 1 2 3 4 5 6 
#
# 1 0.015563 -0.000238 0.002454 0.003924 0.009123 0.000593
# 2 -0.000238 0.019164 -0.002417 0.006395 -0.001621 0.001934
# 3 0.002454 -0.002417 0.005448 -0.013234 -0.002885 0.001108
# 4 0.003924 0.006395 -0.013234 -0.008313 -0.012055 0.004269
# 5 0.009123 -0.001621 -0.002885 -0.012055 0.057506 0.011877
# 6 0.000593 0.001934 0.001108 0.004269 0.011877 0.032147
#
#
# Mechanical properties :
#
#
# Convention : Reuss Voigt Hill
#
# Bulk Modulus (GPa) = 25.14411 25.97928 25.56169
# Shear Modulus (GPa) = 36.98923 16.64429 26.81676
#
# Velocity S-wave (km/s) = 3.93043 2.63655 3.34662
# Velocity P-wave (km/s) = 5.57665 4.48537 5.06051
#
# Compressibility (1/GPa) = 0.03977075
#
# Stress axis : x y z
#
# Youngs Moduli (GPa) = 64.25517 52.18196 183.56351
#
# Poissons Ratio (x) = 0.01244 -0.45047
# Poissons Ratio (y) = 0.01532 0.44376
# Poissons Ratio (z) = -0.15768 0.12615
#
# Static dielectric constant tensor:
#      x y z
#    x 1.933410 -0.002610 0.004100 
#    y -0.002610 1.971670 0.034350 
#    z 0.004100 0.034350 1.880810 
# 
# From -- ./inp_files/583703.got.cif
#   From: 2010.05.17/outbox.cif.g08.bks.cpg/sg2_292_cif.got.tgz:583703.got - 2010.06.03 11:33:40.
