data_PCOD9006067
_publ_section_title
;
Structure prediction by ZEFSAII (Michael W. Deem and Ramdas Pophale) SiO2 
 PCOD9006067
Probable space group: P -1
;
_chemical_formula_sum "Si O2"
_cell_formula_units_Z 12
_cell_length_a 13.995558
_cell_length_b 9.375510
_cell_length_c 7.342137
_cell_angle_alpha 63.968242
_cell_angle_beta 40.136879
_cell_angle_gamma 54.678484
_cell_volume 506.697426
_symmetry_space_group_name_H-M "P -1"
_symmetry_group_IT_number 2
_symmetry_cell_setting 'triclinic'
loop_
_space_group_symop_operation_xyz
x,y,z
-x,-y,-z
loop_
_atom_site_type_symbol
_atom_site_label
_atom_site_fract_x
_atom_site_fract_y
_atom_site_fract_z
Si Si1 0.771822 0.337667 0.707334
Si Si2 0.531539 0.511596 0.662651
Si Si3 0.996187 0.880585 0.237477
Si Si4 0.648977 0.820921 0.328713
Si Si5 0.879544 0.631166 0.405825
Si Si6 0.687354 0.881024 0.830819
O O1 0.677571 0.352592 0.645149
O O2 0.888357 0.441777 0.454188
O O3 0.879516 0.157088 0.754769
O O4 0.627312 0.436652 0.008020
O O5 0.500000 0.500000 0.500000
O O6 0.583826 0.671415 0.513379
O O7 0.022413 0.685937 0.231629
O O8 0.812187 0.958202 0.537583
O O9 0.000000 0.000000 0.000000
O O10 0.796791 0.759807 0.287646
O O11 0.500000 0.000000 0.500000
O O12 0.707748 0.837835 0.034881
O O13 0.749006 0.706335 0.718018
O O14 0.500000 0.000000 0.000000
#
# Coordination Sequence:
#
# PCOD9006067 Si02
#       6
#     2   2   2   2   2   2
#     4  10  21  43  65  96 134 180 219 277 339 401
#     4  10  23  41  68  99 133 175 230 276 335 402
#     4  10  23  42  66  97 140 176 218 285 338 397
#     4  11  20  38  67  97 130 175 225 278 331 399
#     4   9  21  39  64  92 132 174 223 269 338 394
#     4  10  21  38  64  94 132 175 224 268 333 395
#
# _framework density 23.682770000000001
#
# number of rings (size 3 to 8) (size 9 to 14) (size 15 to 20)
#    1.000    1.000    1.667    1.500    4.667    0.000 
#    3.000    2.500    0.000    0.000    0.000    0.000 
#    0.000    0.000    0.000    0.000    0.000    0.000 
#
# Total GULP energy -66984.363366 kJ/mol
# GULP energy per Si atom -5582.030281 kJ/mol
# Density = 2.362887 g / cm^3
# Si number density = 23.682770 Si / 1000 Ang^3
#
#
#
# Elastic Constant Matrix: (Units=GPa)
#
#
# Indices 1 2 3 4 5 6 
#
# 1 158.3764 44.4390 37.8674 -6.9906 23.1118 -49.9649
# 2 44.4390 80.5364 34.0178 -8.1814 1.9155 -32.5932
# 3 37.8674 34.0178 119.2208 -23.7873 11.8409 -22.0919
# 4 -6.9906 -8.1814 -23.7873 20.9660 -6.6897 6.2034
# 5 23.1118 1.9155 11.8409 -6.6897 44.8556 -9.0576
# 6 -49.9649 -32.5932 -22.0919 6.2034 -9.0576 51.9117
#
#
#
# Elastic Compliance Matrix: (Units=1/GPa)
#
#
# Indices 1 2 3 4 5 6 
#
# 1 0.009956 -0.002117 -0.001300 -0.002291 -0.003553 0.007355
# 2 -0.002117 0.018409 -0.002987 0.001519 0.003056 0.008602
# 3 -0.001300 -0.002987 0.012178 0.011887 -0.000535 0.000542
# 4 -0.002291 0.001519 0.011887 0.064020 0.006996 -0.002622
# 5 -0.003553 0.003056 -0.000535 0.006996 0.025561 0.001895
# 6 0.007355 0.008602 0.000542 -0.002622 0.001895 0.032618
#
#
# Mechanical properties :
#
#
# Convention : Reuss Voigt Hill
#
# Bulk Modulus (GPa) = 36.05275 65.64248 50.84761
# Shear Modulus (GPa) = 27.05697 39.66729 33.36213
#
# Velocity S-wave (km/s) = 3.38372 4.09705 3.75735
# Velocity P-wave (km/s) = 5.52470 7.08228 6.35141
#
# Compressibility (1/GPa) = 0.02773714
#
# Stress axis : x y z
#
# Youngs Moduli (GPa) = 100.43782 54.32107 82.11317
#
# Poissons Ratio (x) = 0.11497 0.10673
# Poissons Ratio (y) = 0.21258 0.24527
# Poissons Ratio (z) = 0.13055 0.16226
#
# Static dielectric constant tensor:
#      x y z
#    x 2.062370 -0.049930 0.002170 
#    y -0.049930 1.998940 -0.026270 
#    z 0.002170 -0.026270 1.862690 
# 
# From -- ./inp_files/300327.got.cif
#   From: 2010.05.17/outbox.cif.g08.bks.cpg/sg2_151_cif.got.tgz:300327.got - 2010.06.03 11:33:40.
