data_PCOD9006408
_publ_section_title
;
Structure prediction by ZEFSAII (Michael W. Deem and Ramdas Pophale) SiO2 
 PCOD9006408
Probable space group: P -1
;
_chemical_formula_sum "Si O2"
_cell_formula_units_Z 13
_cell_length_a 11.490470
_cell_length_b 9.774141
_cell_length_c 7.429924
_cell_angle_alpha 93.698352
_cell_angle_beta 35.435947
_cell_angle_gamma 79.082791
_cell_volume 438.561655
_symmetry_space_group_name_H-M "P -1"
_symmetry_group_IT_number 2
_symmetry_cell_setting 'triclinic'
loop_
_space_group_symop_operation_xyz
x,y,z
-x,-y,-z
loop_
_atom_site_type_symbol
_atom_site_label
_atom_site_fract_x
_atom_site_fract_y
_atom_site_fract_z
Si Si1 0.599021 0.338482 0.459501
Si Si2 0.140321 0.380029 0.660063
Si Si3 0.151911 0.091199 0.805296
Si Si4 0.335591 0.785771 0.994936
Si Si5 0.500000 0.000000 0.000000
Si Si6 0.644639 0.832718 0.094123
Si Si7 0.758653 0.400564 0.630465
O O1 0.500000 0.500000 0.500000
O O2 0.749882 0.327398 0.441632
O O3 0.402611 0.303602 0.785195
O O4 0.711673 0.210754 0.155807
O O5 0.093860 0.236374 0.763171
O O6 0.107790 0.497116 0.545598
O O7 0.000000 0.500000 0.000000
O O8 0.396611 0.978560 0.401706
O O9 0.000000 0.000000 0.000000
O O10 0.215444 0.130295 0.928043
O O11 0.597117 0.675604 0.643723
O O12 0.334683 0.930409 0.107205
O O13 0.190555 0.719101 0.283658
O O14 0.324267 0.172970 0.157449
O O15 0.500000 0.500000 0.000000
#
# Coordination Sequence:
#
# PCOD9006408 Si02
#       7
#     2   2   2   2   1   2   2
#     4  12  20  37  70 106 139 181 254 310 374 443
#     4  11  23  41  65 106 153 193 239 314 396 451
#     4  11  24  44  71 103 145 196 252 309 383 459
#     4  11  22  40  68 106 137 198 252 309 370 450
#     4  12  22  42  74 102 154 196 264 318 360 462
#     4  11  23  43  70 107 140 197 255 309 377 453
#     4  10  21  38  66 100 137 183 249 303 363 453
#
# _framework density 29.642353
#
# number of rings (size 3 to 8) (size 9 to 14) (size 15 to 20)
#    0.000    0.923    7.692    0.923    2.154    0.000 
#    0.000    0.769    0.000   16.615    0.000    0.000 
#    0.000    0.000    0.000    0.000    0.000    0.000 
#
# Total GULP energy -72572.131251 kJ/mol
# GULP energy per Si atom -5582.471635 kJ/mol
# Density = 2.957489 g / cm^3
# Si number density = 29.642353 Si / 1000 Ang^3
#
#
#
# Elastic Constant Matrix: (Units=GPa)
#
#
# Indices 1 2 3 4 5 6 
#
# 1 223.5247 70.6462 45.9804 -24.6207 8.9154 4.2385
# 2 70.6462 203.2287 61.3972 -68.9092 -8.8126 -1.2001
# 3 45.9804 61.3972 141.6768 -42.7265 -1.2248 -8.1857
# 4 -24.6207 -68.9092 -42.7265 57.1300 -3.9486 4.3937
# 5 8.9154 -8.8126 -1.2248 -3.9486 55.1346 -8.9325
# 6 4.2385 -1.2001 -8.1857 4.3937 -8.9325 41.0005
#
#
#
# Elastic Compliance Matrix: (Units=1/GPa)
#
#
# Indices 1 2 3 4 5 6 
#
# 1 0.005290 -0.001822 -0.001267 -0.000881 -0.001411 -0.001066
# 2 -0.001822 0.009257 -0.000287 0.010350 0.002482 -0.000166
# 3 -0.001267 -0.000287 0.009570 0.006217 0.001076 0.001602
# 4 -0.000881 0.010350 0.006217 0.034638 0.004228 -0.001155
# 5 -0.001411 0.002482 0.001076 0.004228 0.019784 0.004290
# 6 -0.001066 -0.000166 0.001602 -0.001155 0.004290 0.025874
#
#
# Mechanical properties :
#
#
# Convention : Reuss Voigt Hill
#
# Bulk Modulus (GPa) = 57.58751 102.71976 80.15363
# Shear Modulus (GPa) = 42.75225 56.68010 49.71618
#
# Velocity S-wave (km/s) = 3.80184 4.37754 4.09981
# Velocity P-wave (km/s) = 6.22428 7.76394 7.03635
#
# Compressibility (1/GPa) = 0.01736488
#
# Stress axis : x y z
#
# Youngs Moduli (GPa) = 189.04614 108.02982 104.48887
#
# Poissons Ratio (x) = 0.19688 0.13234
# Poissons Ratio (y) = 0.34453 0.02999
# Poissons Ratio (z) = 0.23943 0.03100
#
# Static dielectric constant tensor:
#      x y z
#    x 1.772940 0.056960 -0.426720 
#    y 0.056960 2.729740 0.053600 
#    z -0.426720 0.053600 2.120240 
# 
# From -- ./inp_files/442861.got.cif
#   From: 2010.05.17/outbox.cif.g08.bks.cpg/sg2_222_cif.got.tgz:442861.got - 2010.06.03 11:33:40.
