data_PCOD9006216
_publ_section_title
;
Structure prediction by ZEFSAII (Michael W. Deem and Ramdas Pophale) SiO2 
 PCOD9006216
Probable space group: P -1
;
_chemical_formula_sum "Si O2"
_cell_formula_units_Z 14
_cell_length_a 9.816433
_cell_length_b 23.621231
_cell_length_c 5.633204
_cell_angle_alpha 69.422200
_cell_angle_beta 88.516402
_cell_angle_gamma 31.803645
_cell_volume 536.974908
_symmetry_space_group_name_H-M "P -1"
_symmetry_group_IT_number 2
_symmetry_cell_setting 'triclinic'
loop_
_space_group_symop_operation_xyz
x,y,z
-x,-y,-z
loop_
_atom_site_type_symbol
_atom_site_label
_atom_site_fract_x
_atom_site_fract_y
_atom_site_fract_z
Si Si1 0.232355 0.352246 0.223476
Si Si2 0.783783 0.001798 0.980102
Si Si3 0.349564 0.629776 0.309744
Si Si4 0.806241 0.759990 0.676822
Si Si5 0.390194 0.806725 0.061050
Si Si6 0.366783 0.620566 0.816817
Si Si7 0.369128 0.094029 0.157227
O O1 0.043641 0.364029 0.196527
O O2 0.393083 0.288285 0.572759
O O3 0.453827 0.262126 0.106497
O O4 0.000000 0.500000 0.000000
O O5 0.659075 0.991514 0.127668
O O6 0.510588 0.118324 0.630623
O O7 0.774244 0.062025 0.075936
O O8 0.106710 0.873303 0.018301
O O9 0.500000 0.500000 0.500000
O O10 0.453966 0.616224 0.573014
O O11 0.430496 0.625455 0.058107
O O12 0.974984 0.783671 0.096035
O O13 0.717464 0.804588 0.886494
O O14 0.009155 0.738231 0.646227
O O15 0.500000 0.500000 0.000000
O O16 0.500000 0.000000 0.500000
#
# Coordination Sequence:
#
# PCOD9006216 Si02
#       7
#     2   2   2   2   2   2   2
#     4  11  23  42  68  99 134 168 224 281 345 407
#     4  10  21  39  67  95 134 175 225 272 353 404
#     4   9  18  35  56  82 118 166 214 262 317 382
#     4  10  21  38  65  89 132 175 217 269 346 397
#     4  10  23  40  70  99 131 173 220 284 339 410
#     4   9  17  32  57  83 115 163 215 252 308 385
#     4  11  22  38  64  97 137 179 231 280 339 407
#
# _framework density 26.071982999999999
#
# number of rings (size 3 to 8) (size 9 to 14) (size 15 to 20)
#    0.000    2.000    2.857    0.429    2.000    2.286 
#    0.000    4.286    6.286    0.000    0.000    0.000 
#    0.000    0.000    0.000    0.000    0.000    0.000 
#
# Total GULP energy -78036.924475 kJ/mol
# GULP energy per Si atom -5574.066034 kJ/mol
# Density = 2.601264 g / cm^3
# Si number density = 26.071983 Si / 1000 Ang^3
#
#
#
# Elastic Constant Matrix: (Units=GPa)
#
#
# Indices 1 2 3 4 5 6 
#
# 1 59.5603 27.2421 17.1664 -6.0201 -5.7497 -3.1766
# 2 27.2421 156.4715 51.9435 24.1183 -10.5452 -9.8627
# 3 17.1664 51.9435 146.5508 25.4834 -2.5127 -7.8062
# 4 -6.0201 24.1183 25.4834 64.2448 2.0708 -9.2386
# 5 -5.7497 -10.5452 -2.5127 2.0708 24.5122 -3.6268
# 6 -3.1766 -9.8627 -7.8062 -9.2386 -3.6268 41.3833
#
#
#
# Elastic Compliance Matrix: (Units=1/GPa)
#
#
# Indices 1 2 3 4 5 6 
#
# 1 0.019454 -0.003110 -0.001703 0.003792 0.002958 0.001536
# 2 -0.003110 0.008260 -0.002015 -0.002539 0.002986 0.001045
# 3 -0.001703 -0.002015 0.008206 -0.002604 -0.000155 0.000342
# 4 0.003792 -0.002539 -0.002604 0.018413 -0.001556 0.003169
# 5 0.002958 0.002986 -0.000155 -0.001556 0.043538 0.004378
# 6 0.001536 0.001045 0.000342 0.003169 0.004378 0.025687
#
#
# Mechanical properties :
#
#
# Convention : Reuss Voigt Hill
#
# Bulk Modulus (GPa) = 44.91747 61.69852 53.30799
# Shear Modulus (GPa) = 34.57013 43.77675 39.17344
#
# Velocity S-wave (km/s) = 3.64531 4.10209 3.88043
# Velocity P-wave (km/s) = 5.91467 6.79355 6.36929
#
# Compressibility (1/GPa) = 0.02226306
#
# Stress axis : x y z
#
# Youngs Moduli (GPa) = 51.40409 121.06933 121.86777
#
# Poissons Ratio (x) = 0.37650 0.20757
# Poissons Ratio (y) = 0.15985 0.24556
# Poissons Ratio (z) = 0.08755 0.24395
#
# Static dielectric constant tensor:
#      x y z
#    x 2.193860 -0.106240 0.121390 
#    y -0.106240 2.351850 -0.093860 
#    z 0.121390 -0.093860 2.592730 
# 
# From -- ./inp_files/84809.got.cif
#   From: 2010.05.17/outbox.cif.g08.bks.cpg/sg2_43_cif.got.tgz:84809.got - 2010.06.03 11:33:40.
