data_PCOD9006084
_publ_section_title
;
Structure prediction by ZEFSAII (Michael W. Deem and Ramdas Pophale) SiO2 
 PCOD9006084
Probable space group: P -1
;
_chemical_formula_sum "Si O2"
_cell_formula_units_Z 16
_cell_length_a 5.305652
_cell_length_b 25.075172
_cell_length_c 11.097560
_cell_angle_alpha 148.896059
_cell_angle_beta 99.148779
_cell_angle_gamma 72.253257
_cell_volume 710.634408
_symmetry_space_group_name_H-M "P -1"
_symmetry_group_IT_number 2
_symmetry_cell_setting 'triclinic'
loop_
_space_group_symop_operation_xyz
x,y,z
-x,-y,-z
loop_
_atom_site_type_symbol
_atom_site_label
_atom_site_fract_x
_atom_site_fract_y
_atom_site_fract_z
Si Si1 0.232878 0.988663 0.396482
Si Si2 0.889572 0.679017 0.538227
Si Si3 0.331780 0.423987 0.457116
Si Si4 0.973315 0.341798 0.095762
Si Si5 0.144570 0.774267 0.918158
Si Si6 0.484740 0.255198 0.595687
Si Si7 0.717636 0.506015 0.929892
Si Si8 0.916760 0.814406 0.419623
O O1 0.500000 0.000000 0.500000
O O2 0.275390 0.868700 0.113609
O O3 0.000000 0.000000 0.500000
O O4 0.136923 0.079132 0.460679
O O5 0.804927 0.608034 0.496652
O O6 0.661881 0.716153 0.489547
O O7 0.931117 0.781113 0.809418
O O8 0.171910 0.600649 0.350380
O O9 0.294142 0.551318 0.712178
O O10 0.630109 0.341864 0.311785
O O11 0.185962 0.393816 0.270368
O O12 0.970540 0.244407 0.997124
O O13 0.033641 0.288064 0.866410
O O14 0.807873 0.207329 0.525858
O O15 0.339721 0.180938 0.509906
O O16 0.406012 0.370195 0.886275
O O17 0.500000 0.500000 0.000000
O O18 0.000000 0.500000 0.000000
#
# Coordination Sequence:
#
# PCOD9006084 Si02
#       8
#     2   2   2   2   2   2   2   2
#     4  12  26  49  75 101 135 174 242 294 352 414
#     4  10  24  41  64 102 140 187 233 270 344 423
#     4  10  22  39  67  97 143 178 221 281 356 417
#     4  10  22  40  62 105 133 174 227 287 353 413
#     4  11  24  41  72  96 134 182 228 292 351 410
#     4  11  25  42  66 100 143 183 231 275 339 412
#     4  10  21  38  64  95 136 187 227 269 322 399
#     4  12  25  43  71  99 136 181 231 291 346 399
#
# _framework density 22.515091999999999
#
# number of rings (size 3 to 8) (size 9 to 14) (size 15 to 20)
#    0.000    1.250    1.250    4.125   10.500    0.000 
#    0.000    1.250    0.000    0.000    0.000    0.000 
#    0.000    0.000    0.000    0.000    0.000    0.000 
#
# Total GULP energy -89444.797502 kJ/mol
# GULP energy per Si atom -5590.299844 kJ/mol
# Density = 2.246385 g / cm^3
# Si number density = 22.515092 Si / 1000 Ang^3
#
#
#
# Elastic Constant Matrix: (Units=GPa)
#
#
# Indices 1 2 3 4 5 6 
#
# 1 113.0058 30.8321 9.7031 -14.1743 12.1004 11.2459
# 2 30.8321 92.0363 35.6602 -6.4293 19.5976 -3.9600
# 3 9.7031 35.6602 66.6668 -12.1174 32.3401 -1.6269
# 4 -14.1743 -6.4293 -12.1174 36.0416 3.0543 7.6734
# 5 12.1004 19.5976 32.3401 3.0543 36.0607 -1.2315
# 6 11.2459 -3.9600 -1.6269 7.6734 -1.2315 40.6456
#
#
#
# Elastic Compliance Matrix: (Units=1/GPa)
#
#
# Indices 1 2 3 4 5 6 
#
# 1 0.011696 -0.004105 0.005121 0.007256 -0.007072 -0.005015
# 2 -0.004105 0.015240 -0.008335 -0.002359 0.000864 0.002758
# 3 0.005121 -0.008335 0.037281 0.016832 -0.032216 -0.004890
# 4 0.007256 -0.002359 0.016832 0.039579 -0.019930 -0.009640
# 5 -0.007072 0.000864 -0.032216 -0.019930 0.060431 0.006345
# 6 -0.005015 0.002758 -0.004890 -0.009640 0.006345 0.028076
#
#
# Mechanical properties :
#
#
# Convention : Reuss Voigt Hill
#
# Bulk Modulus (GPa) = 20.17044 47.12218 33.64631
# Shear Modulus (GPa) = 22.37461 35.58381 28.97921
#
# Velocity S-wave (km/s) = 3.15582 3.97979 3.59151
# Velocity P-wave (km/s) = 4.71773 6.48790 5.67230
#
# Compressibility (1/GPa) = 0.04957751
#
# Stress axis : x y z
#
# Youngs Moduli (GPa) = 85.49996 65.61732 26.82321
#
# Poissons Ratio (x) = 0.26937 -0.13735
# Poissons Ratio (y) = 0.35100 0.22357
# Poissons Ratio (z) = -0.43781 0.54692
#
# Static dielectric constant tensor:
#      x y z
#    x 1.860480 -0.014640 -0.021580 
#    y -0.014640 1.867500 -0.025280 
#    z -0.021580 -0.025280 1.873420 
# 
# From -- ./inp_files/371360.got.cif
#   From: 2010.05.17/outbox.cif.g08.bks.cpg/sg2_186_cif.got.tgz:371360.got - 2010.06.03 11:33:40.
