data_PCOD9006388
_publ_section_title
;
Structure prediction by ZEFSAII (Michael W. Deem and Ramdas Pophale) SiO2 
 PCOD9006388
Probable space group: P -1
;
_chemical_formula_sum "Si O2"
_cell_formula_units_Z 16
_cell_length_a 12.975344
_cell_length_b 15.504596
_cell_length_c 25.034615
_cell_angle_alpha 17.608017
_cell_angle_beta 23.700540
_cell_angle_gamma 27.354025
_cell_volume 607.443673
_symmetry_space_group_name_H-M "P -1"
_symmetry_group_IT_number 2
_symmetry_cell_setting 'triclinic'
loop_
_space_group_symop_operation_xyz
x,y,z
-x,-y,-z
loop_
_atom_site_type_symbol
_atom_site_label
_atom_site_fract_x
_atom_site_fract_y
_atom_site_fract_z
Si Si1 0.329405 0.396876 0.251354
Si Si2 0.598031 0.943827 0.316138
Si Si3 0.209375 0.417948 0.904017
Si Si4 0.010573 0.460541 0.581465
Si Si5 0.535942 0.002096 0.812410
Si Si6 0.005224 0.650803 0.155467
Si Si7 0.933551 0.217846 0.348936
Si Si8 0.651850 0.087549 0.939001
O O1 0.517771 0.132066 0.295814
O O2 0.178186 0.326697 0.418051
O O3 0.119404 0.497359 0.245759
O O4 0.486361 0.667775 0.026520
O O5 0.326129 0.915446 0.433619
O O6 0.790270 0.120802 0.087600
O O7 0.724419 0.630437 0.460262
O O8 0.486419 0.379384 0.824463
O O9 0.146575 0.621693 0.763424
O O10 0.000000 0.500000 0.000000
O O11 0.230902 0.099413 0.055649
O O12 0.885475 0.160518 0.821261
O O13 0.000000 0.500000 0.500000
O O14 0.818810 0.007476 0.651234
O O15 0.523881 0.057028 0.849922
O O16 0.291892 0.202759 0.785017
O O17 0.004590 0.440899 0.228323
#
# Coordination Sequence:
#
# PCOD9006388 Si02
#       8
#     2   2   2   2   2   2   2   2
#     4  11  26  46  78 103 140 201 241 296 372 432
#     4  12  26  45  73 112 147 188 244 304 359 435
#     4  11  21  37  63  98 143 188 241 297 356 432
#     4  11  25  46  72 104 148 187 243 303 362 432
#     4  11  22  44  73 100 139 195 241 293 367 427
#     4  12  25  51  75 101 151 194 245 301 362 439
#     4  12  26  42  70 109 146 189 245 302 368 424
#     4  10  21  38  65  98 134 196 239 286 362 428
#
# _framework density 26.339891000000001
#
# number of rings (size 3 to 8) (size 9 to 14) (size 15 to 20)
#    0.000    0.750    6.250    1.500    0.000    3.000 
#    0.000    1.250    0.000    0.000    0.000    0.000 
#    0.000    0.000    0.000    0.000    0.000    0.000 
#
# Total GULP energy -89561.876816 kJ/mol
# GULP energy per Si atom -5597.617301 kJ/mol
# Density = 2.627994 g / cm^3
# Si number density = 26.339891 Si / 1000 Ang^3
#
#
#
# Elastic Constant Matrix: (Units=GPa)
#
#
# Indices 1 2 3 4 5 6 
#
# 1 119.7910 36.2912 50.5018 24.1508 9.6985 5.5911
# 2 36.2912 161.6547 27.9144 24.1183 0.2949 -7.7391
# 3 50.5018 27.9144 79.0448 14.9247 10.6552 -17.4734
# 4 24.1508 24.1183 14.9247 29.7204 -4.1096 -6.3390
# 5 9.6985 0.2949 10.6552 -4.1096 53.7299 -0.6266
# 6 5.5911 -7.7391 -17.4734 -6.3390 -0.6266 43.6865
#
#
#
# Elastic Compliance Matrix: (Units=1/GPa)
#
#
# Indices 1 2 3 4 5 6 
#
# 1 0.014304 -0.000812 -0.008529 -0.008313 -0.001599 -0.006615
# 2 -0.000812 0.007263 -0.001109 -0.004621 -0.000024 0.000276
# 3 -0.008529 -0.001109 0.021083 -0.001173 -0.002619 0.009120
# 4 -0.008313 -0.004621 -0.001173 0.046913 0.005424 0.006661
# 5 -0.001599 -0.000024 -0.002619 0.005424 0.019837 0.000225
# 6 -0.006615 0.000276 0.009120 0.006661 0.000225 0.028403
#
#
# Mechanical properties :
#
#
# Convention : Reuss Voigt Hill
#
# Bulk Modulus (GPa) = 45.98053 65.54504 55.76279
# Shear Modulus (GPa) = 30.12923 41.81290 35.97107
#
# Velocity S-wave (km/s) = 3.38577 3.98859 3.69948
# Velocity P-wave (km/s) = 5.72531 6.79339 6.28209
#
# Compressibility (1/GPa) = 0.02174834
#
# Stress axis : x y z
#
# Youngs Moduli (GPa) = 69.91149 137.69232 47.43266
#
# Poissons Ratio (x) = 0.11178 0.40456
# Poissons Ratio (y) = 0.05675 0.05262
# Poissons Ratio (z) = 0.59628 0.15275
#
# Static dielectric constant tensor:
#      x y z
#    x 2.080970 -0.008180 -0.050500 
#    y -0.008180 2.071410 0.070250 
#    z -0.050500 0.070250 2.223760 
# 
# From -- ./inp_files/431351.got.cif
#   From: 2010.05.17/outbox.cif.g08.bks.cpg/sg2_216_cif.got.tgz:431351.got - 2010.06.03 11:33:40.
