data_PCOD9006584
_publ_section_title
;
Structure prediction by ZEFSAII (Michael W. Deem and Ramdas Pophale) SiO2 
 PCOD9006584
Probable space group: P -1
;
_chemical_formula_sum "Si O2"
_cell_formula_units_Z 16
_cell_length_a 15.024490
_cell_length_b 14.268354
_cell_length_c 5.193344
_cell_angle_alpha 115.410147
_cell_angle_beta 79.242095
_cell_angle_gamma 135.950951
_cell_volume 685.915316
_symmetry_space_group_name_H-M "P -1"
_symmetry_group_IT_number 2
_symmetry_cell_setting 'triclinic'
loop_
_space_group_symop_operation_xyz
x,y,z
-x,-y,-z
loop_
_atom_site_type_symbol
_atom_site_label
_atom_site_fract_x
_atom_site_fract_y
_atom_site_fract_z
Si Si1 0.315445 0.695544 0.840137
Si Si2 0.714427 0.817699 0.279369
Si Si3 0.654458 0.635090 0.600452
Si Si4 0.925475 0.607709 0.654228
Si Si5 0.772237 0.595650 0.117921
Si Si6 0.100458 0.664701 0.003760
Si Si7 0.556977 0.295310 0.710506
Si Si8 0.034079 0.836328 0.466479
O O1 0.251000 0.752892 0.014098
O O2 0.403643 0.743771 0.599219
O O3 0.177164 0.525711 0.643816
O O4 0.393041 0.716737 0.068145
O O5 0.699706 0.747417 0.475463
O O6 0.593631 0.798164 0.305160
O O7 0.850345 0.988217 0.384088
O O8 0.700783 0.723143 0.944793
O O9 0.500000 0.500000 0.500000
O O10 0.711500 0.571967 0.401666
O O11 0.047966 0.640820 0.713577
O O12 0.976829 0.757095 0.682670
O O13 0.841670 0.553799 0.895893
O O14 0.910093 0.771039 0.285357
O O15 0.637960 0.472325 0.878727
O O16 0.086865 0.767547 0.259210
O O17 0.000000 0.500000 0.000000
#
# Coordination Sequence:
#
# PCOD9006584 Si02
#       8
#     2   2   2   2   2   2   2   2
#     4  11  21  38  68 100 127 180 231 279 314 402
#     4  12  29  47  69 102 140 179 224 286 355 391
#     4  12  27  48  76 101 131 180 237 281 328 424
#     4  10  21  38  67 100 142 173 221 286 341 394
#     4  10  23  41  69  99 133 177 229 275 340 406
#     4  11  21  39  64 105 136 179 232 277 331 404
#     4  11  23  42  67  96 136 175 228 279 336 396
#     4  11  25  43  67  99 145 179 215 287 350 401
#
# _framework density 23.326494
#
# number of rings (size 3 to 8) (size 9 to 14) (size 15 to 20)
#    0.000    1.000    3.750    3.000    7.000    1.000 
#    0.000    1.250    0.000    0.000    0.000    0.000 
#    0.000    0.000    0.000    0.000    0.000    0.000 
#
# Total GULP energy -89135.422555 kJ/mol
# GULP energy per Si atom -5570.963910 kJ/mol
# Density = 2.327340 g / cm^3
# Si number density = 23.326494 Si / 1000 Ang^3
#
#
#
# Elastic Constant Matrix: (Units=GPa)
#
#
# Indices 1 2 3 4 5 6 
#
# 1 82.2424 -8.8655 -6.9700 -7.9375 -4.1261 18.5915
# 2 -8.8655 60.4698 3.5655 9.4881 2.7734 12.8953
# 3 -6.9700 3.5655 71.4813 -22.1718 -24.1092 11.3688
# 4 -7.9375 9.4881 -22.1718 42.9247 5.3068 3.5943
# 5 -4.1261 2.7734 -24.1092 5.3068 44.6354 -10.3725
# 6 18.5915 12.8953 11.3688 3.5943 -10.3725 40.0638
#
#
#
# Elastic Compliance Matrix: (Units=1/GPa)
#
#
# Indices 1 2 3 4 5 6 
#
# 1 0.015783 0.003249 0.005010 0.005508 0.000977 -0.010032
# 2 0.003249 0.019463 -0.001541 -0.003451 -0.003153 -0.007842
# 3 0.005010 -0.001541 0.022804 0.012410 0.009803 -0.006876
# 4 0.005508 -0.003451 0.012410 0.031862 0.001936 -0.007324
# 5 0.000977 -0.003153 0.009803 0.001936 0.028940 0.005098
# 6 -0.010032 -0.007842 -0.006876 -0.007324 0.005098 0.036068
#
#
# Mechanical properties :
#
#
# Convention : Reuss Voigt Hill
#
# Bulk Modulus (GPa) = 13.98859 21.07260 17.53059
# Shear Modulus (GPa) = 30.24625 40.62235 35.43430
#
# Velocity S-wave (km/s) = 3.60481 4.17762 3.90174
# Velocity P-wave (km/s) = 4.83074 5.68536 5.27539
#
# Compressibility (1/GPa) = 0.07148684
#
# Stress axis : x y z
#
# Youngs Moduli (GPa) = 63.36128 51.38048 43.85152
#
# Poissons Ratio (x) = -0.16693 -0.21971
# Poissons Ratio (y) = -0.20586 0.06756
# Poissons Ratio (z) = -0.31747 0.07916
#
# Static dielectric constant tensor:
#      x y z
#    x 2.077960 -0.127040 -0.042560 
#    y -0.127040 1.966240 -0.011710 
#    z -0.042560 -0.011710 1.930440 
# 
# From -- ./inp_files/94767.got.cif
#   From: 2010.05.17/outbox.cif.g08.bks.cpg/sg2_48_cif.got.tgz:94767.got - 2010.06.03 11:33:40.
