data_PCOD9006752
_publ_section_title
;
Structure prediction by ZEFSAII (Michael W. Deem and Ramdas Pophale) SiO2 
 PCOD9006752
Probable space group: P -1
;
_chemical_formula_sum "Si O2"
_cell_formula_units_Z 16
_cell_length_a 24.205549
_cell_length_b 9.083064
_cell_length_c 12.300716
_cell_angle_alpha 130.473318
_cell_angle_beta 151.811264
_cell_angle_gamma 68.572410
_cell_volume 794.787379
_symmetry_space_group_name_H-M "P -1"
_symmetry_group_IT_number 2
_symmetry_cell_setting 'triclinic'
loop_
_space_group_symop_operation_xyz
x,y,z
-x,-y,-z
loop_
_atom_site_type_symbol
_atom_site_label
_atom_site_fract_x
_atom_site_fract_y
_atom_site_fract_z
Si Si1 0.902686 0.945327 0.906138
Si Si2 0.507412 0.969626 0.371019
Si Si3 0.738195 0.138162 0.257309
Si Si4 0.104490 0.411498 0.135643
Si Si5 0.026238 0.249864 0.695117
Si Si6 0.203549 0.745773 0.133809
Si Si7 0.373869 0.038206 0.787862
Si Si8 0.404207 0.441446 0.908357
O O1 0.951197 0.839515 0.030012
O O2 0.751203 0.741446 0.496620
O O3 0.891244 0.158851 0.020095
O O4 0.000000 0.000000 0.000000
O O5 0.500000 0.000000 0.500000
O O6 0.662898 0.138648 0.663303
O O7 0.398545 0.992306 0.120080
O O8 0.443716 0.693404 0.128973
O O9 0.769394 0.386720 0.473450
O O10 0.874554 0.188559 0.449996
O O11 0.705145 0.011110 0.256656
O O12 0.131646 0.379058 0.043579
O O13 0.000000 0.500000 0.000000
O O14 0.101912 0.460881 0.837868
O O15 0.000000 0.000000 0.500000
O O16 0.271592 0.868319 0.429556
O O17 0.431617 0.301965 0.978026
O O18 0.500000 0.000000 0.000000
O O19 0.500000 0.500000 0.000000
#
# Coordination Sequence:
#
# PCOD9006752 Si02
#       8
#     2   2   2   2   2   2   2   2
#     4  11  22  37  68 101 132 171 232 276 329 395
#     4  12  26  47  67  98 141 180 226 280 344 409
#     4  11  22  44  71 102 129 182 228 278 337 402
#     4  10  21  38  68  96 132 172 228 273 325 393
#     4  11  26  45  66 101 144 174 220 281 354 411
#     4  11  24  44  66 102 135 180 226 284 340 406
#     4  11  21  38  74 103 131 170 238 287 323 392
#     4  11  22  41  66  99 134 178 230 275 330 399
#
# _framework density 20.131170999999998
#
# number of rings (size 3 to 8) (size 9 to 14) (size 15 to 20)
#    0.000    1.000    6.250    1.500    5.250    2.000 
#    2.250    2.500    0.000    0.000    0.000    0.000 
#    0.000    0.000    0.000    0.000    0.000    0.000 
#
# Total GULP energy -89133.510704 kJ/mol
# GULP energy per Si atom -5570.844419 kJ/mol
# Density = 2.008535 g / cm^3
# Si number density = 20.131171 Si / 1000 Ang^3
#
#
#
# Elastic Constant Matrix: (Units=GPa)
#
#
# Indices 1 2 3 4 5 6 
#
# 1 107.6183 36.3064 43.0109 9.5972 9.1949 14.3146
# 2 36.3064 146.8239 29.1790 20.4668 9.6706 18.0129
# 3 43.0109 29.1790 57.4097 12.2289 13.0912 -6.1140
# 4 9.5972 20.4668 12.2289 39.4822 0.4645 -0.4002
# 5 9.1949 9.6706 13.0912 0.4645 45.5672 8.1721
# 6 14.3146 18.0129 -6.1140 -0.4002 8.1721 37.0417
#
#
#
# Elastic Compliance Matrix: (Units=1/GPa)
#
#
# Indices 1 2 3 4 5 6 
#
# 1 0.015454 -0.000441 -0.012801 0.000327 0.002145 -0.008340
# 2 -0.000441 0.008742 -0.004003 -0.003237 0.000285 -0.004839
# 3 -0.012801 -0.004003 0.033623 -0.004979 -0.008744 0.014319
# 4 0.000327 -0.003237 -0.004979 0.028455 0.001660 0.000567
# 5 0.002145 0.000285 -0.008744 0.001660 0.025381 -0.007992
# 6 -0.008340 -0.004839 0.014319 0.000567 -0.007992 0.036706
#
#
# Mechanical properties :
#
#
# Convention : Reuss Voigt Hill
#
# Bulk Modulus (GPa) = 42.86674 58.76050 50.81362
# Shear Modulus (GPa) = 26.22938 37.97527 32.10232
#
# Velocity S-wave (km/s) = 3.61352 4.34797 3.99765
# Velocity P-wave (km/s) = 6.22495 7.37961 6.82674
#
# Compressibility (1/GPa) = 0.02332811
#
# Stress axis : x y z
#
# Youngs Moduli (GPa) = 64.70932 114.39447 29.74152
#
# Poissons Ratio (x) = 0.05047 0.38071
# Poissons Ratio (y) = 0.02855 0.11907
# Poissons Ratio (z) = 0.82832 0.45796
#
# Static dielectric constant tensor:
#      x y z
#    x 1.704030 0.048670 0.008430 
#    y 0.048670 1.775620 -0.033030 
#    z 0.008430 -0.033030 1.765450 
# 
# From -- ./inp_files/474332.got.cif
#   From: 2010.05.17/outbox.cif.g08.bks.cpg/sg2_238_cif.got.tgz:474332.got - 2010.06.03 11:33:40.
