data_PCOD9006751
_publ_section_title
;
Structure prediction by ZEFSAII (Michael W. Deem and Ramdas Pophale) SiO2 
 PCOD9006751
Probable space group: P -1
;
_chemical_formula_sum "Si O2"
_cell_formula_units_Z 16
_cell_length_a 7.458053
_cell_length_b 13.775527
_cell_length_c 8.129944
_cell_angle_alpha 67.550372
_cell_angle_beta 67.592803
_cell_angle_gamma 58.602238
_cell_volume 641.099314
_symmetry_space_group_name_H-M "P -1"
_symmetry_group_IT_number 2
_symmetry_cell_setting 'triclinic'
loop_
_space_group_symop_operation_xyz
x,y,z
-x,-y,-z
loop_
_atom_site_type_symbol
_atom_site_label
_atom_site_fract_x
_atom_site_fract_y
_atom_site_fract_z
Si Si1 0.872444 0.726247 0.100608
Si Si2 0.687255 0.846026 0.412747
Si Si3 0.640910 0.426013 0.653285
Si Si4 0.762754 0.412897 0.144040
Si Si5 0.058634 0.362530 0.379822
Si Si6 0.802211 0.974829 0.029472
Si Si7 0.436559 0.775213 0.088698
Si Si8 0.450211 0.744037 0.722335
O O1 0.776849 0.745435 0.304382
O O2 0.692312 0.713337 0.063345
O O3 0.874680 0.852124 0.989130
O O4 0.103585 0.622564 0.048712
O O5 0.465645 0.849959 0.551058
O O6 0.858509 0.779811 0.539840
O O7 0.691588 0.953636 0.247196
O O8 0.500000 0.500000 0.500000
O O9 0.470426 0.478147 0.829572
O O10 0.872265 0.423800 0.542184
O O11 0.674914 0.292289 0.731059
O O12 0.929757 0.412066 0.224400
O O13 0.700644 0.306641 0.270819
O O14 0.297588 0.356429 0.305127
O O15 0.642647 0.090601 0.915946
O O16 0.000000 0.000000 0.000000
O O17 0.389662 0.775684 0.911860
#
# Coordination Sequence:
#
# PCOD9006751 Si02
#       8
#     2   2   2   2   2   2   2   2
#     4  10  22  41  65  99 129 173 214 270 323 394
#     4   8  21  40  62  97 130 165 212 266 325 386
#     4  10  25  40  69  95 127 177 219 271 320 392
#     4  11  22  43  65  96 135 170 228 262 324 385
#     4   9  20  44  59  94 133 168 209 269 325 376
#     4  10  21  38  68  96 129 173 214 266 327 391
#     4  12  23  43  68  94 135 172 221 266 330 384
#     4  10  23  40  65  97 132 174 211 274 315 393
#
# _framework density 24.957132000000001
#
# number of rings (size 3 to 8) (size 9 to 14) (size 15 to 20)
#    1.500    0.500    1.250    1.875    5.250    2.000 
#    0.000    0.000    0.000    6.000    0.000    0.000 
#    0.000    0.000    0.000    0.000    0.000    0.000 
#
# Total GULP energy -89194.298275 kJ/mol
# GULP energy per Si atom -5574.643642 kJ/mol
# Density = 2.490033 g / cm^3
# Si number density = 24.957132 Si / 1000 Ang^3
#
#
#
# Elastic Constant Matrix: (Units=GPa)
#
#
# Indices 1 2 3 4 5 6 
#
# 1 76.2886 2.1411 3.4166 1.3622 -20.6719 -5.8734
# 2 2.1411 73.6550 29.9716 0.5939 -5.7463 -7.3884
# 3 3.4166 29.9716 90.7601 -9.8369 -10.4892 4.6896
# 4 1.3622 0.5939 -9.8369 46.6684 -3.7708 -9.4872
# 5 -20.6719 -5.7463 -10.4892 -3.7708 30.7324 -4.1816
# 6 -5.8734 -7.3884 4.6896 -9.4872 -4.1816 34.7002
#
#
#
# Elastic Compliance Matrix: (Units=1/GPa)
#
#
# Indices 1 2 3 4 5 6 
#
# 1 0.016788 0.000767 0.000476 0.001599 0.012458 0.004879
# 2 0.000767 0.016411 -0.005445 -0.000264 0.002315 0.004567
# 3 0.000476 -0.005445 0.013676 0.002939 0.004109 -0.001628
# 4 0.001599 -0.000264 0.002939 0.023920 0.005927 0.007071
# 5 0.012458 0.002315 0.004109 0.005927 0.044713 0.009055
# 6 0.004879 0.004567 -0.001628 0.007071 0.009055 0.033861
#
#
# Mechanical properties :
#
#
# Convention : Reuss Voigt Hill
#
# Bulk Modulus (GPa) = 25.99439 34.64025 30.31732
# Shear Modulus (GPa) = 29.30858 36.09851 32.70355
#
# Velocity S-wave (km/s) = 3.43061 3.80731 3.62386
# Velocity P-wave (km/s) = 5.11178 5.76520 5.44829
#
# Compressibility (1/GPa) = 0.03846984
#
# Stress axis : x y z
#
# Youngs Moduli (GPa) = 59.56569 60.93424 73.12159
#
# Poissons Ratio (x) = -0.04673 -0.03479
# Poissons Ratio (y) = -0.04568 0.39817
# Poissons Ratio (z) = -0.02834 0.33181
#
# Static dielectric constant tensor:
#      x y z
#    x 1.964800 -0.022670 0.013590 
#    y -0.022670 2.084590 -0.005530 
#    z 0.013590 -0.005530 2.068330 
# 
# From -- ./inp_files/176037.got.cif
#   From: 2010.05.17/outbox.cif.g08.bks.cpg/sg2_89_cif.got.tgz:176037.got - 2010.06.03 11:33:40.
