data_PCOD9006878
_publ_section_title
;
Structure prediction by ZEFSAII (Michael W. Deem and Ramdas Pophale) SiO2 
 PCOD9006878
Probable space group: P -1
;
_chemical_formula_sum "Si O2"
_cell_formula_units_Z 12
_cell_length_a 23.643754
_cell_length_b 5.570726
_cell_length_c 17.270981
_cell_angle_alpha 52.660657
_cell_angle_beta 163.370781
_cell_angle_gamma 125.520100
_cell_volume 517.580923
_symmetry_space_group_name_H-M "P -1"
_symmetry_group_IT_number 2
_symmetry_cell_setting 'triclinic'
loop_
_space_group_symop_operation_xyz
x,y,z
-x,-y,-z
loop_
_atom_site_type_symbol
_atom_site_label
_atom_site_fract_x
_atom_site_fract_y
_atom_site_fract_z
Si Si1 0.643859 0.632257 0.318177
Si Si2 0.023002 0.510616 0.937332
Si Si3 0.729115 0.000163 0.210228
Si Si4 0.241964 0.333948 0.842911
Si Si5 0.342992 0.245441 0.321935
Si Si6 0.276036 0.097200 0.104062
O O1 0.814428 0.529171 0.618385
O O2 0.736501 0.756051 0.335909
O O3 0.503022 0.896245 0.118178
O O4 0.480556 0.379224 0.137495
O O5 0.161810 0.240741 0.142762
O O6 0.147859 0.807950 0.017511
O O7 0.000000 0.500000 0.000000
O O8 0.827897 0.313997 0.308990
O O9 0.804624 0.864783 0.254903
O O10 0.215508 0.194038 0.920590
O O11 0.500000 0.500000 0.500000
O O12 0.485733 0.956830 0.570566
O O13 0.255226 0.315694 0.107944
#
# Coordination Sequence:
#
# PCOD9006878 Si02
#       6
#     2   2   2   2   2   2
#     4   9  22  38  64  95 132 164 215 267 319 381
#     4  11  25  40  61  98 130 166 210 277 323 376
#     4   9  21  40  68  95 125 170 219 258 325 382
#     4  10  21  38  72  91 120 175 218 260 316 385
#     4   9  22  40  61  83 132 166 221 251 328 381
#     4  10  23  40  63  90 125 176 213 265 316 399
#
# _framework density 23.184781000000001
#
# number of rings (size 3 to 8) (size 9 to 14) (size 15 to 20)
#    1.000    1.333    0.000    0.500   14.000    2.000 
#    0.000    1.667    0.000    0.000    0.000    0.000 
#    0.000    0.000    0.000    0.000    0.000    0.000 
#
# Total GULP energy -66956.197178 kJ/mol
# GULP energy per Si atom -5579.683098 kJ/mol
# Density = 2.313201 g / cm^3
# Si number density = 23.184781 Si / 1000 Ang^3
#
#
#
# Elastic Constant Matrix: (Units=GPa)
#
#
# Indices 1 2 3 4 5 6 
#
# 1 201.9437 60.8782 49.6666 -0.3033 -16.2912 -14.2492
# 2 60.8782 60.5215 27.9485 27.2568 -5.9111 -0.9181
# 3 49.6666 27.9485 115.0749 2.8044 -11.4696 -12.0470
# 4 -0.3033 27.2568 2.8044 32.1823 -3.5697 1.1087
# 5 -16.2912 -5.9111 -11.4696 -3.5697 25.1947 0.0809
# 6 -14.2492 -0.9181 -12.0470 1.1087 0.0809 50.8919
#
#
#
# Elastic Compliance Matrix: (Units=1/GPa)
#
#
# Indices 1 2 3 4 5 6 
#
# 1 0.010622 -0.016754 -0.000139 0.014772 0.004960 0.002309
# 2 -0.016754 0.057951 -0.006807 -0.049313 -0.007309 -0.004171
# 3 -0.000139 -0.006807 0.010918 0.005178 0.004009 0.002303
# 4 0.014772 -0.049313 0.005178 0.073622 0.010762 0.002851
# 5 0.004960 -0.007309 0.004009 0.010762 0.044527 0.001901
# 6 0.002309 -0.004171 0.002303 0.002851 0.001901 0.020701
#
#
# Mechanical properties :
#
#
# Convention : Reuss Voigt Hill
#
# Bulk Modulus (GPa) = 31.16204 72.72519 51.94361
# Shear Modulus (GPa) = 18.08722 37.59024 27.83873
#
# Velocity S-wave (km/s) = 2.79612 4.03095 3.46892
# Velocity P-wave (km/s) = 4.88818 7.28700 6.20462
#
# Compressibility (1/GPa) = 0.03209033
#
# Stress axis : x y z
#
# Youngs Moduli (GPa) = 94.14411 17.25599 91.59214
#
# Poissons Ratio (x) = 0.28910 0.01277
# Poissons Ratio (y) = 1.57727 0.62347
# Poissons Ratio (z) = 0.01312 0.11746
#
# Static dielectric constant tensor:
#      x y z
#    x 1.863680 -0.040390 0.047060 
#    y -0.040390 2.001750 -0.001880 
#    z 0.047060 -0.001880 1.899420 
# 
# From -- ./inp_files/100849.got.cif
#   From: 2010.05.17/outbox.cif.g08.bks.cpg/sg2_51_cif.got.tgz:100849.got - 2010.06.03 11:33:40.
