data_PCOD9006620
_publ_section_title
;
Structure prediction by ZEFSAII (Michael W. Deem and Ramdas Pophale) SiO2 
 PCOD9006620
Probable space group: P -1
;
_chemical_formula_sum "Si O2"
_cell_formula_units_Z 16
_cell_length_a 18.793711
_cell_length_b 15.036227
_cell_length_c 11.537260
_cell_angle_alpha 147.426191
_cell_angle_beta 49.657225
_cell_angle_gamma 151.856599
_cell_volume 766.882357
_symmetry_space_group_name_H-M "P -1"
_symmetry_group_IT_number 2
_symmetry_cell_setting 'triclinic'
loop_
_space_group_symop_operation_xyz
x,y,z
-x,-y,-z
loop_
_atom_site_type_symbol
_atom_site_label
_atom_site_fract_x
_atom_site_fract_y
_atom_site_fract_z
Si Si1 0.350428 0.179319 0.247757
Si Si2 0.066203 0.931715 0.416923
Si Si3 0.164750 0.755037 0.534399
Si Si4 0.468636 0.122325 0.326557
Si Si5 0.736736 0.883837 0.379172
Si Si6 0.440052 0.254125 0.977865
Si Si7 0.720044 0.296948 0.120346
Si Si8 0.586332 0.124978 0.668706
O O1 0.500000 0.500000 0.500000
O O2 0.186492 0.019229 0.295740
O O3 0.364474 0.215177 0.133352
O O4 0.340564 0.967007 0.052997
O O5 0.911615 0.593920 0.240557
O O6 0.163624 0.088537 0.608300
O O7 0.000000 0.000000 0.500000
O O8 0.231745 0.677483 0.327613
O O9 0.000000 0.500000 0.500000
O O10 0.157101 0.865527 0.552789
O O11 0.303552 0.019188 0.768242
O O12 0.357230 0.122623 0.444600
O O13 0.634834 0.328249 0.309176
O O14 0.496084 0.127233 0.437172
O O15 0.350119 0.811834 0.055219
O O16 0.587084 0.581265 0.138922
O O17 0.538726 0.232329 0.886344
O O18 0.500000 0.000000 0.500000
#
# Coordination Sequence:
#
# PCOD9006620 Si02
#       8
#     2   2   2   2   2   2   2   2
#     4  12  24  44  69 101 138 180 228 274 341 417
#     4  12  29  41  62 101 144 180 227 286 331 399
#     4  10  24  44  70 101 130 169 225 281 334 400
#     4  10  21  38  67  92 124 178 223 267 331 410
#     4  11  24  44  67  93 137 173 227 273 337 403
#     4  11  22  42  71  95 133 177 219 271 337 401
#     4  11  24  40  65  95 134 177 228 274 346 387
#     4   9  20  38  64  96 124 168 220 265 323 408
#
# _framework density 20.863693999999999
#
# number of rings (size 3 to 8) (size 9 to 14) (size 15 to 20)
#    0.000    1.250    3.750    0.750    8.750    1.000 
#    0.000    0.625    0.000    0.000    0.000    0.000 
#    0.000    0.000    0.000    0.000    0.000    0.000 
#
# Total GULP energy -89193.166818 kJ/mol
# GULP energy per Si atom -5574.572926 kJ/mol
# Density = 2.081621 g / cm^3
# Si number density = 20.863694 Si / 1000 Ang^3
#
#
#
# Elastic Constant Matrix: (Units=GPa)
#
#
# Indices 1 2 3 4 5 6 
#
# 1 121.7812 39.3270 21.9470 -3.4856 -0.9678 -6.5004
# 2 39.3270 141.1879 36.1565 6.1636 -0.8446 10.7031
# 3 21.9470 36.1565 51.4694 8.2930 5.1404 5.0870
# 4 -3.4856 6.1636 8.2930 31.3297 -0.5536 -1.8843
# 5 -0.9678 -0.8446 5.1404 -0.5536 29.6173 -4.0726
# 6 -6.5004 10.7031 5.0870 -1.8843 -4.0726 34.5344
#
#
#
# Elastic Compliance Matrix: (Units=1/GPa)
#
#
# Indices 1 2 3 4 5 6 
#
# 1 0.009828 -0.002191 -0.003556 0.002693 0.001389 0.003363
# 2 -0.002191 0.009272 -0.005282 -0.000805 0.000756 -0.002463
# 3 -0.003556 -0.005282 0.026697 -0.006762 -0.005576 -0.003991
# 4 0.002693 -0.000805 -0.006762 0.034445 0.002421 0.003917
# 5 0.001389 0.000756 -0.005576 0.002421 0.035555 0.005174
# 6 0.003363 -0.002463 -0.003991 0.003917 0.005174 0.031765
#
#
# Mechanical properties :
#
#
# Convention : Reuss Voigt Hill
#
# Bulk Modulus (GPa) = 42.12625 56.58883 49.35754
# Shear Modulus (GPa) = 28.16404 33.56349 30.86376
#
# Velocity S-wave (km/s) = 3.67809 4.01522 3.85035
# Velocity P-wave (km/s) = 6.18650 6.97696 6.59359
#
# Compressibility (1/GPa) = 0.02373817
#
# Stress axis : x y z
#
# Youngs Moduli (GPa) = 101.75521 107.85269 37.45794
#
# Poissons Ratio (x) = 0.23629 0.13322
# Poissons Ratio (y) = 0.22293 0.19784
# Poissons Ratio (z) = 0.36189 0.56964
#
# Static dielectric constant tensor:
#      x y z
#    x 1.841180 -0.016370 -0.026410 
#    y -0.016370 1.742820 -0.018560 
#    z -0.026410 -0.018560 1.805650 
# 
# From -- ./inp_files/466153.got.cif
#   From: 2010.05.17/outbox.cif.g08.bks.cpg/sg2_234_cif.got.tgz:466153.got - 2010.06.03 11:33:40.
