data_PCOD9006000
_publ_section_title
;
Structure prediction by ZEFSAII (Michael W. Deem and Ramdas Pophale) SiO2 
 PCOD9006000
Probable space group: P -1
;
_chemical_formula_sum "Si O2"
_cell_formula_units_Z 16
_cell_length_a 8.135972
_cell_length_b 11.470781
_cell_length_c 13.301369
_cell_angle_alpha 98.195841
_cell_angle_beta 64.300608
_cell_angle_gamma 54.132621
_cell_volume 761.079974
_symmetry_space_group_name_H-M "P -1"
_symmetry_group_IT_number 2
_symmetry_cell_setting 'triclinic'
loop_
_space_group_symop_operation_xyz
x,y,z
-x,-y,-z
loop_
_atom_site_type_symbol
_atom_site_label
_atom_site_fract_x
_atom_site_fract_y
_atom_site_fract_z
Si Si1 0.644315 0.488352 0.648373
Si Si2 0.399526 0.043734 0.886052
Si Si3 0.393972 0.361886 0.623695
Si Si4 0.766900 0.186177 0.328646
Si Si5 0.284123 0.917675 0.056957
Si Si6 0.874837 0.643901 0.136503
Si Si7 0.622589 0.531575 0.890356
Si Si8 0.974737 0.687822 0.646679
O O1 0.519392 0.427633 0.629901
O O2 0.442088 0.683446 0.686984
O O3 0.660840 0.468152 0.759931
O O4 0.919046 0.379940 0.502707
O O5 0.518998 0.096508 0.926771
O O6 0.233302 0.185983 0.862602
O O7 0.660003 0.848382 0.759639
O O8 0.221873 0.040290 0.000257
O O9 0.597853 0.213652 0.469285
O O10 0.351120 0.311915 0.731369
O O11 0.118330 0.523591 0.658995
O O12 0.901245 0.245965 0.339116
O O13 0.019813 0.001434 0.194900
O O14 0.438283 0.732442 0.956373
O O15 0.101458 0.562521 0.146003
O O16 0.000000 0.500000 0.000000
O O17 0.500000 0.500000 0.000000
#
# Coordination Sequence:
#
# PCOD9006000 Si02
#       8
#     2   2   2   2   2   2   2   2
#     4   9  19  37  62  89 124 159 194 247 304 364
#     4  10  21  38  64  92 116 154 213 255 284 349
#     4   9  18  38  67  92 116 153 205 251 298 352
#     4   8  17  35  64  91 114 155 206 250 290 351
#     4  10  21  39  64  90 119 158 208 248 292 356
#     4  12  24  39  61  89 122 162 202 250 303 350
#     4  12  26  41  58  91 128 163 195 243 316 364
#     4   8  16  36  63  90 115 155 205 249 295 351
#
# _framework density 21.022756999999999
#
# number of rings (size 3 to 8) (size 9 to 14) (size 15 to 20)
#    0.000    2.250    1.250    3.000    7.000    0.500 
#    2.250    8.125    0.000    0.000    0.000    0.000 
#    0.000    0.000    0.000    0.000    0.000    0.000 
#
# Total GULP energy -89350.423511 kJ/mol
# GULP energy per Si atom -5584.401469 kJ/mol
# Density = 2.097491 g / cm^3
# Si number density = 21.022757 Si / 1000 Ang^3
#
#
#
# Elastic Constant Matrix: (Units=GPa)
#
#
# Indices 1 2 3 4 5 6 
#
# 1 25.1812 6.9662 27.7611 -1.3693 3.9236 -5.6180
# 2 6.9662 74.8194 51.3636 -9.1292 4.7454 -3.4355
# 3 27.7611 51.3636 134.6259 -14.5486 3.6031 -13.2599
# 4 -1.3693 -9.1292 -14.5486 38.1976 -4.8604 -3.3505
# 5 3.9236 4.7454 3.6031 -4.8604 22.9152 -9.5789
# 6 -5.6180 -3.4355 -13.2599 -3.3505 -9.5789 21.2122
#
#
#
# Elastic Compliance Matrix: (Units=1/GPa)
#
#
# Indices 1 2 3 4 5 6 
#
# 1 0.053989 0.003711 -0.012262 -0.002426 -0.007069 0.003660
# 2 0.003711 0.018744 -0.007991 0.000785 -0.004253 -0.002773
# 3 -0.012262 -0.007991 0.014064 0.004373 0.005591 0.007465
# 4 -0.002426 0.000785 0.004373 0.030402 0.011030 0.012001
# 5 -0.007069 -0.004253 0.005591 0.011030 0.059550 0.029567
# 6 0.003660 -0.002773 0.007465 0.012001 0.029567 0.067576
#
#
# Mechanical properties :
#
#
# Convention : Reuss Voigt Hill
#
# Bulk Modulus (GPa) = 18.61720 45.20092 31.90906
# Shear Modulus (GPa) = 16.93116 26.36739 21.64928
#
# Velocity S-wave (km/s) = 2.84099 3.54535 3.21253
# Velocity P-wave (km/s) = 4.43132 6.18927 5.38255
#
# Compressibility (1/GPa) = 0.05371376
#
# Stress axis : x y z
#
# Youngs Moduli (GPa) = 18.52220 53.34997 71.10582
#
# Poissons Ratio (x) = -0.19799 0.87187
# Poissons Ratio (y) = -0.06874 0.56822
# Poissons Ratio (z) = 0.22711 0.42633
#
# Static dielectric constant tensor:
#      x y z
#    x 1.789470 0.017220 -0.026770 
#    y 0.017220 1.729310 -0.007320 
#    z -0.026770 -0.007320 1.816130 
# 
# From -- ./inp_files/262669.got.cif
#   From: 2010.05.17/outbox.cif.g08.bks.cpg/sg2_132_cif.got.tgz:262669.got - 2010.06.03 11:33:40.
