data_PCOD9006872
_publ_section_title
;
Structure prediction by ZEFSAII (Michael W. Deem and Ramdas Pophale) SiO2 
 PCOD9006872
Probable space group: P -1
;
_chemical_formula_sum "Si O2"
_cell_formula_units_Z 13
_cell_length_a 8.118752
_cell_length_b 9.747773
_cell_length_c 11.206352
_cell_angle_alpha 94.364021
_cell_angle_beta 134.659438
_cell_angle_gamma 112.162133
_cell_volume 499.724607
_symmetry_space_group_name_H-M "P -1"
_symmetry_group_IT_number 2
_symmetry_cell_setting 'triclinic'
loop_
_space_group_symop_operation_xyz
x,y,z
-x,-y,-z
loop_
_atom_site_type_symbol
_atom_site_label
_atom_site_fract_x
_atom_site_fract_y
_atom_site_fract_z
Si Si1 0.171245 0.254675 0.799006
Si Si2 0.839011 0.913771 0.727555
Si Si3 0.465772 0.124836 0.190973
Si Si4 0.595115 0.468280 0.235939
Si Si5 0.278805 0.577905 0.228754
Si Si6 0.337602 0.101585 0.705345
Si Si7 0.500000 0.500000 0.500000
O O1 0.151895 0.359601 0.691544
O O2 0.399771 0.229830 0.853586
O O3 0.314966 0.373011 0.996968
O O4 0.894997 0.064304 0.679091
O O5 0.630215 0.893977 0.722753
O O6 0.725459 0.721873 0.622075
O O7 0.163358 0.015774 0.955847
O O8 0.644863 0.326891 0.269024
O O9 0.613313 0.034052 0.239366
O O10 0.477672 0.507561 0.296902
O O11 0.471121 0.775748 0.299381
O O12 0.225343 0.512648 0.331123
O O13 0.000000 0.500000 0.000000
O O14 0.000000 0.000000 0.500000
#
# Coordination Sequence:
#
# PCOD9006872 Si02
#       7
#     2   2   2   2   2   2   1
#     4   9  20  39  65  95 138 180 232 284 361 434
#     4  10  21  38  72 104 139 180 248 299 362 428
#     4  10  21  42  73  97 141 191 236 306 364 429
#     4   9  19  41  67  98 136 184 241 292 356 440
#     4  11  24  43  71 105 146 193 240 306 367 438
#     4  11  24  43  65  99 145 189 238 302 368 436
#     4  12  22  42  68 110 142 182 240 308 356 436
#
# _framework density 26.014327999999999
#
# number of rings (size 3 to 8) (size 9 to 14) (size 15 to 20)
#    0.000    1.846    1.538    1.846    4.308    2.462 
#    2.769   13.846    3.385    0.000    0.000    0.000 
#    0.000    0.000    0.000    0.000    0.000    0.000 
#
# Total GULP energy -72447.542048 kJ/mol
# GULP energy per Si atom -5572.887850 kJ/mol
# Density = 2.595512 g / cm^3
# Si number density = 26.014328 Si / 1000 Ang^3
#
#
#
# Elastic Constant Matrix: (Units=GPa)
#
#
# Indices 1 2 3 4 5 6 
#
# 1 51.3976 52.0599 11.1495 5.0504 -9.1604 -12.7672
# 2 52.0599 261.3556 36.9144 18.9102 12.1280 13.7963
# 3 11.1495 36.9144 75.5897 22.6307 14.0348 -4.9016
# 4 5.0504 18.9102 22.6307 51.4970 -14.2133 2.5427
# 5 -9.1604 12.1280 14.0348 -14.2133 25.9914 5.6298
# 6 -12.7672 13.7963 -4.9016 2.5427 5.6298 57.6164
#
#
#
# Elastic Compliance Matrix: (Units=1/GPa)
#
#
# Indices 1 2 3 4 5 6 
#
# 1 0.033690 -0.007654 -0.007963 0.009198 0.023493 0.005919
# 2 -0.007654 0.005994 0.000438 -0.003510 -0.007165 -0.002239
# 3 -0.007963 0.000438 0.024801 -0.017910 -0.026992 0.003668
# 4 0.009198 -0.003510 -0.017910 0.037819 0.036063 -0.003838
# 5 0.023493 -0.007165 -0.026992 0.036063 0.085546 -0.005325
# 6 0.005919 -0.002239 0.003668 -0.003838 -0.005325 0.020206
#
#
# Mechanical properties :
#
#
# Convention : Reuss Voigt Hill
#
# Bulk Modulus (GPa) = 29.30308 65.39895 47.35101
# Shear Modulus (GPa) = 20.01676 46.23557 33.12616
#
# Velocity S-wave (km/s) = 2.77691 4.22039 3.57232
# Velocity P-wave (km/s) = 4.64438 6.99593 5.93773
#
# Compressibility (1/GPa) = 0.03412611
#
# Stress axis : x y z
#
# Youngs Moduli (GPa) = 29.68229 166.84363 40.32024
#
# Poissons Ratio (x) = 1.27706 0.32108
# Poissons Ratio (y) = 0.22719 -0.01766
# Poissons Ratio (z) = 0.23637 -0.07307
#
# Static dielectric constant tensor:
#      x y z
#    x 1.842950 -0.185840 0.113010 
#    y -0.185840 1.896480 0.152680 
#    z 0.113010 0.152680 1.985240 
# 
# From -- ./inp_files/154453.got.cif
#   From: 2010.05.17/outbox.cif.g08.bks.cpg/sg2_78_cif.got.tgz:154453.got - 2010.06.03 11:33:40.
