data_PCOD9006540
_publ_section_title
;
Structure prediction by ZEFSAII (Michael W. Deem and Ramdas Pophale) SiO2 
 PCOD9006540
Probable space group: P -1
;
_chemical_formula_sum "Si O2"
_cell_formula_units_Z 14
_cell_length_a 21.729217
_cell_length_b 15.521077
_cell_length_c 8.941636
_cell_angle_alpha 49.389559
_cell_angle_beta 29.205027
_cell_angle_gamma 31.231586
_cell_volume 706.540923
_symmetry_space_group_name_H-M "P -1"
_symmetry_group_IT_number 2
_symmetry_cell_setting 'triclinic'
loop_
_space_group_symop_operation_xyz
x,y,z
-x,-y,-z
loop_
_atom_site_type_symbol
_atom_site_label
_atom_site_fract_x
_atom_site_fract_y
_atom_site_fract_z
Si Si1 0.492219 0.237445 0.731472
Si Si2 0.503004 0.676725 0.061765
Si Si3 0.845951 0.904772 0.183027
Si Si4 0.925326 0.294074 0.637343
Si Si5 0.263890 0.633011 0.740064
Si Si6 0.851998 0.004388 0.748499
Si Si7 0.836031 0.709415 0.648913
O O1 0.512787 0.220600 0.886794
O O2 0.366024 0.438405 0.736207
O O3 0.703380 0.088593 0.370556
O O4 0.365791 0.216687 0.972162
O O5 0.416452 0.623618 0.383524
O O6 0.356911 0.804812 0.090578
O O7 0.735653 0.492225 0.744724
O O8 0.813125 0.806713 0.443567
O O9 0.805811 0.950747 0.042675
O O10 0.077578 0.769883 0.870059
O O11 0.034091 0.139762 0.462894
O O12 0.076772 0.275090 0.419410
O O13 0.831771 0.288972 0.980518
O O14 0.000000 0.000000 0.500000
O O15 0.000000 0.500000 0.500000
#
# Coordination Sequence:
#
# PCOD9006540 Si02
#       7
#     2   2   2   2   2   2   2
#     4  11  22  40  72  93 119 166 213 270 313 351
#     4  11  22  39  66  95 126 165 215 257 315 371
#     4  11  24  40  61  94 128 166 207 254 317 377
#     4  10  23  41  65  93 126 160 218 261 309 365
#     4  10  21  38  66  97 122 158 222 267 303 362
#     4  12  27  41  58  93 142 172 195 248 324 390
#     4  11  20  46  71  92 119 159 222 274 303 356
#
# _framework density 19.814845999999999
#
# number of rings (size 3 to 8) (size 9 to 14) (size 15 to 20)
#    0.000    1.143    5.714    3.857    4.000    2.857 
#    0.000    3.571    0.000    0.000    0.000    0.000 
#    0.000    0.000    0.000    0.000    0.000    0.000 
#
# Total GULP energy -78206.252300 kJ/mol
# GULP energy per Si atom -5586.160879 kJ/mol
# Density = 1.976975 g / cm^3
# Si number density = 19.814846 Si / 1000 Ang^3
#
#
#
# Elastic Constant Matrix: (Units=GPa)
#
#
# Indices 1 2 3 4 5 6 
#
# 1 97.9480 66.6391 21.7072 -14.5419 -19.1013 -12.0295
# 2 66.6391 94.9734 43.8986 0.8831 3.9012 -14.2299
# 3 21.7072 43.8986 45.1047 -10.9194 -24.4915 -1.7700
# 4 -14.5419 0.8831 -10.9194 9.3314 -1.7223 -6.9991
# 5 -19.1013 3.9012 -24.4915 -1.7223 37.6484 4.1250
# 6 -12.0295 -14.2299 -1.7700 -6.9991 4.1250 41.7229
#
#
#
# Elastic Compliance Matrix: (Units=1/GPa)
#
#
# Indices 1 2 3 4 5 6 
#
# 1 0.004763 0.007090 -0.020734 -0.019149 -0.012788 0.000964
# 2 0.007090 -0.001746 0.015953 0.037917 0.015125 0.006991
# 3 -0.020734 0.015953 -0.002937 -0.045136 -0.015413 -0.006709
# 4 -0.019149 0.037917 -0.045136 0.023156 -0.043446 0.013676
# 5 -0.012788 0.015125 -0.015413 -0.043446 0.007280 -0.007190
# 6 0.000964 0.006991 -0.006709 0.013676 -0.007190 0.029350
#
#
# Mechanical properties :
#
#
# Convention : Reuss Voigt Hill
#
# Bulk Modulus (GPa) = 212.85989 55.83508 134.34749
# Shear Modulus (GPa) = 88.00719 24.79262 56.39990
#
# Velocity S-wave (km/s) = 6.67167 3.54109 5.34090
# Velocity P-wave (km/s) = 12.92308 6.70512 10.29477
#
# Compressibility (1/GPa) = 0.00469793
#
# Stress axis : x y z
#
# Youngs Moduli (GPa) = 209.97025 -572.85107 -340.45670
#
# Poissons Ratio (x) = 4.06130 -7.05900
# Poissons Ratio (y) = -1.48861 5.43144
# Poissons Ratio (z) = 4.35351 9.13892
#
# Static dielectric constant tensor:
#      x y z
#    x 1.699190 -0.017280 -0.031800 
#    y -0.017280 1.727310 0.007260 
#    z -0.031800 0.007260 1.705200 
# 
# From -- ./inp_files/274232.got.cif
#   From: 2010.05.17/outbox.cif.g08.bks.cpg/sg2_138_cif.got.tgz:274232.got - 2010.06.03 11:33:40.
