data_PCOD9006437
_publ_section_title
;
Structure prediction by ZEFSAII (Michael W. Deem and Ramdas Pophale) SiO2 
 PCOD9006437
Probable space group: P -1
;
_chemical_formula_sum "Si O2"
_cell_formula_units_Z 16
_cell_length_a 9.629136
_cell_length_b 14.574416
_cell_length_c 12.082753
_cell_angle_alpha 64.156059
_cell_angle_beta 68.496017
_cell_angle_gamma 122.861042
_cell_volume 772.929633
_symmetry_space_group_name_H-M "P -1"
_symmetry_group_IT_number 2
_symmetry_cell_setting 'triclinic'
loop_
_space_group_symop_operation_xyz
x,y,z
-x,-y,-z
loop_
_atom_site_type_symbol
_atom_site_label
_atom_site_fract_x
_atom_site_fract_y
_atom_site_fract_z
Si Si1 0.480707 0.609423 0.431665
Si Si2 0.003719 0.995143 0.174893
Si Si3 0.785072 0.911341 0.519884
Si Si4 0.938330 0.370490 0.797550
Si Si5 0.801977 0.440371 0.003201
Si Si6 0.809207 0.151843 0.300318
Si Si7 0.435004 0.746967 0.211712
Si Si8 0.799205 0.081540 0.092721
O O1 0.500000 0.500000 0.500000
O O2 0.382044 0.601981 0.348413
O O3 0.792121 0.819870 0.247893
O O4 0.269578 0.547916 0.607692
O O5 0.859210 0.902319 0.385273
O O6 0.002359 0.109437 0.066097
O O7 0.299680 0.113812 0.018390
O O8 0.844222 0.062110 0.392160
O O9 0.490198 0.723851 0.762225
O O10 0.000000 0.000000 0.500000
O O11 0.822176 0.381269 0.918907
O O12 0.808791 0.339857 0.738026
O O13 0.861228 0.207429 0.922421
O O14 0.950920 0.635047 0.841467
O O15 0.000000 0.500000 0.000000
O O16 0.782982 0.133998 0.184467
O O17 0.500000 0.000000 0.500000
O O18 0.544653 0.875504 0.218190
#
# Coordination Sequence:
#
# PCOD9006437 Si02
#       8
#     2   2   2   2   2   2   2   2
#     4  11  23  41  62  90 125 166 211 254 318 393
#     4  10  22  41  64  85 124 169 216 253 317 398
#     4  11  24  44  65  98 135 171 218 278 333 379
#     4  12  23  39  65  96 130 158 209 280 324 379
#     4  12  23  42  69  99 130 173 230 262 327 402
#     4  11  23  41  68  97 128 178 223 268 323 396
#     4  11  23  41  61  96 126 165 211 268 331 381
#     4  10  21  38  66  87 123 168 215 256 324 388
#
# _framework density 20.700461000000001
#
# number of rings (size 3 to 8) (size 9 to 14) (size 15 to 20)
#    0.000    1.000    2.500    5.250    3.500    0.500 
#    2.250    0.000    0.000    0.000    0.000    0.000 
#    0.000    0.000    0.000    0.000    0.000    0.000 
#
# Total GULP energy -89079.408218 kJ/mol
# GULP energy per Si atom -5567.463014 kJ/mol
# Density = 2.065335 g / cm^3
# Si number density = 20.700461 Si / 1000 Ang^3
#
#
#
# Elastic Constant Matrix: (Units=GPa)
#
#
# Indices 1 2 3 4 5 6 
#
# 1 94.1943 17.6404 40.2618 -0.5440 1.6368 24.6690
# 2 17.6404 66.0200 27.6272 8.6634 -0.8885 1.9721
# 3 40.2618 27.6272 119.1480 1.2778 -10.6507 -8.2435
# 4 -0.5440 8.6634 1.2778 30.4647 -5.1266 5.0144
# 5 1.6368 -0.8885 -10.6507 -5.1266 43.9683 -3.2114
# 6 24.6690 1.9721 -8.2435 5.0144 -3.2114 35.3806
#
#
#
# Elastic Compliance Matrix: (Units=1/GPa)
#
#
# Indices 1 2 3 4 5 6 
#
# 1 0.017829 -0.001873 -0.006913 0.003032 -0.003093 -0.014648
# 2 -0.001873 0.017774 -0.003515 -0.005132 -0.001011 0.000132
# 3 -0.006913 -0.003515 0.012460 -0.000381 0.003767 0.008315
# 4 0.003032 -0.005132 -0.000381 0.036032 0.003402 -0.006715
# 5 -0.003093 -0.001011 0.003767 0.003402 0.024501 0.004832
# 6 -0.014648 0.000132 0.008315 -0.006715 0.004832 0.041798
#
#
# Mechanical properties :
#
#
# Convention : Reuss Voigt Hill
#
# Bulk Modulus (GPa) = 42.62143 50.04678 46.33410
# Shear Modulus (GPa) = 27.34989 34.88492 31.11741
#
# Velocity S-wave (km/s) = 3.63880 4.10960 3.88135
# Velocity P-wave (km/s) = 6.18780 6.83722 6.52060
#
# Compressibility (1/GPa) = 0.02346238
#
# Stress axis : x y z
#
# Youngs Moduli (GPa) = 56.08687 56.26162 80.25682
#
# Poissons Ratio (x) = 0.10538 0.55481
# Poissons Ratio (y) = 0.10505 0.28207
# Poissons Ratio (z) = 0.38773 0.19774
#
# Static dielectric constant tensor:
#      x y z
#    x 1.728690 -0.056570 0.131260 
#    y -0.056570 1.802410 -0.054960 
#    z 0.131260 -0.054960 2.385580 
# 
# From -- ./inp_files/398775.got.cif
#   From: 2010.05.17/outbox.cif.g08.bks.cpg/sg2_200_cif.got.tgz:398775.got - 2010.06.03 11:33:40.
