data_PCOD9006258
_publ_section_title
;
Structure prediction by ZEFSAII (Michael W. Deem and Ramdas Pophale) SiO2 
 PCOD9006258
Probable space group: P -1
;
_chemical_formula_sum "Si O2"
_cell_formula_units_Z 14
_cell_length_a 12.036339
_cell_length_b 26.503892
_cell_length_c 9.319982
_cell_angle_alpha 153.806982
_cell_angle_beta 36.975353
_cell_angle_gamma 152.336381
_cell_volume 609.169976
_symmetry_space_group_name_H-M "P -1"
_symmetry_group_IT_number 2
_symmetry_cell_setting 'triclinic'
loop_
_space_group_symop_operation_xyz
x,y,z
-x,-y,-z
loop_
_atom_site_type_symbol
_atom_site_label
_atom_site_fract_x
_atom_site_fract_y
_atom_site_fract_z
Si Si1 0.769434 0.990039 0.203262
Si Si2 0.303121 0.338722 0.219789
Si Si3 0.128337 0.649346 0.651449
Si Si4 0.548251 0.314469 0.135036
Si Si5 0.186987 0.714509 0.440992
Si Si6 0.659993 0.574422 0.884570
Si Si7 0.511641 0.029290 0.801697
O O1 0.720803 0.039689 0.235172
O O2 0.718947 0.053335 0.550668
O O3 0.538908 0.817634 0.007926
O O4 0.000000 0.000000 0.000000
O O5 0.500000 0.500000 0.500000
O O6 0.332286 0.249528 0.076827
O O7 0.368401 0.339022 0.986658
O O8 0.053023 0.306312 0.388774
O O9 0.162209 0.634685 0.410839
O O10 0.000000 0.500000 0.500000
O O11 0.930382 0.672285 0.908300
O O12 0.374217 0.807049 0.846019
O O13 0.606203 0.442666 0.504440
O O14 0.759246 0.349732 0.908986
O O15 0.408241 0.893075 0.670324
O O16 0.500000 0.500000 0.000000
#
# Coordination Sequence:
#
# PCOD9006258 Si02
#       7
#     2   2   2   2   2   2   2
#     4  10  21  38  65  92 123 171 218 266 319 394
#     4   9  20  38  61  92 124 170 214 267 323 377
#     4  11  24  41  64  96 130 173 214 274 331 384
#     4  10  21  40  63  92 124 172 221 261 323 386
#     4  10  22  42  67  91 132 169 221 265 324 394
#     4  10  23  39  57  91 131 170 211 270 329 380
#     4  10  22  42  63  95 130 171 215 270 328 382
#
# _framework density 22.982088999999998
#
# number of rings (size 3 to 8) (size 9 to 14) (size 15 to 20)
#    0.000    2.000    0.000    2.143    4.000    5.143 
#    7.714    0.000    0.000    6.857    0.000    0.000 
#    0.000    0.000    0.000    0.000    0.000    0.000 
#
# Total GULP energy -78009.411520 kJ/mol
# GULP energy per Si atom -5572.100823 kJ/mol
# Density = 2.292978 g / cm^3
# Si number density = 22.982089 Si / 1000 Ang^3
#
#
#
# Elastic Constant Matrix: (Units=GPa)
#
#
# Indices 1 2 3 4 5 6 
#
# 1 121.8429 49.7737 29.1427 -15.9751 6.4604 -13.0003
# 2 49.7737 112.1633 45.4144 -16.8090 18.2415 -21.7962
# 3 29.1427 45.4144 79.1071 -7.2215 9.6573 1.7795
# 4 -15.9751 -16.8090 -7.2215 45.9013 3.9907 -10.2950
# 5 6.4604 18.2415 9.6573 3.9907 30.7262 -5.3467
# 6 -13.0003 -21.7962 1.7795 -10.2950 -5.3467 51.4142
#
#
#
# Elastic Compliance Matrix: (Units=1/GPa)
#
#
# Indices 1 2 3 4 5 6 
#
# 1 0.010484 -0.003172 -0.001880 0.002599 0.000266 0.001919
# 2 -0.003172 0.016502 -0.007132 0.005938 -0.006449 0.006959
# 3 -0.001880 -0.007132 0.017588 -0.001386 -0.001509 -0.004542
# 4 0.002599 0.005938 -0.001386 0.026945 -0.005740 0.008021
# 5 0.000266 -0.006449 -0.001509 -0.005740 0.037563 0.000143
# 6 0.001919 0.006959 -0.004542 0.008021 0.000143 0.024663
#
#
# Mechanical properties :
#
#
# Convention : Reuss Voigt Hill
#
# Bulk Modulus (GPa) = 49.49044 62.41945 55.95494
# Shear Modulus (GPa) = 30.33090 38.19383 34.26236
#
# Velocity S-wave (km/s) = 3.63679 4.08106 3.86531
# Velocity P-wave (km/s) = 6.26228 7.03034 6.65740
#
# Compressibility (1/GPa) = 0.02020592
#
# Stress axis : x y z
#
# Youngs Moduli (GPa) = 95.38212 60.59817 56.85752
#
# Poissons Ratio (x) = 0.19224 0.10687
# Poissons Ratio (y) = 0.30258 0.40552
# Poissons Ratio (z) = 0.17928 0.43220
#
# Static dielectric constant tensor:
#      x y z
#    x 2.593290 -0.676070 -0.509830 
#    y -0.676070 2.551140 0.477360 
#    z -0.509830 0.477360 2.234860 
# 
# From -- ./inp_files/285728.got.cif
#   From: 2010.05.17/outbox.cif.g08.bks.cpg/sg2_143_cif.got.tgz:285728.got - 2010.06.03 11:33:40.
