data_PCOD9006238
_publ_section_title
;
Structure prediction by ZEFSAII (Michael W. Deem and Ramdas Pophale) SiO2 
 PCOD9006238
Probable space group: P -1
;
_chemical_formula_sum "Si O2"
_cell_formula_units_Z 16
_cell_length_a 15.541468
_cell_length_b 23.688090
_cell_length_c 8.398889
_cell_angle_alpha 126.215977
_cell_angle_beta 118.230278
_cell_angle_gamma 16.792330
_cell_volume 661.367254
_symmetry_space_group_name_H-M "P -1"
_symmetry_group_IT_number 2
_symmetry_cell_setting 'triclinic'
loop_
_space_group_symop_operation_xyz
x,y,z
-x,-y,-z
loop_
_atom_site_type_symbol
_atom_site_label
_atom_site_fract_x
_atom_site_fract_y
_atom_site_fract_z
Si Si1 0.183015 0.912831 0.291534
Si Si2 0.176164 0.538892 0.686841
Si Si3 0.492387 0.415199 0.179628
Si Si4 0.193838 0.169058 0.851379
Si Si5 0.894575 0.534269 0.750726
Si Si6 0.497010 0.575254 0.415753
Si Si7 0.594165 0.851639 0.196825
Si Si8 0.574113 0.108143 0.587300
O O1 0.491606 0.697342 0.317702
O O2 0.230833 0.955340 0.318563
O O3 0.219376 0.824559 0.052603
O O4 0.839904 0.157146 0.483296
O O5 0.151438 0.491007 0.466050
O O6 0.217678 0.580830 0.688548
O O7 0.886038 0.746000 0.904193
O O8 0.163425 0.600030 0.150721
O O9 0.488492 0.497939 0.252845
O O10 0.495815 0.415994 0.374229
O O11 0.411989 0.072380 0.775653
O O12 0.345119 0.988546 0.663827
O O13 0.054526 0.388771 0.804520
O O14 0.189166 0.384514 0.708526
O O15 0.601683 0.782001 0.964848
O O16 0.367337 0.984955 0.367848
#
# Coordination Sequence:
#
# PCOD9006238 Si02
#       8
#     2   2   2   2   2   2   2   2
#     4  11  23  42  66  95 126 170 211 263 322 375
#     4  11  25  38  64  91 136 171 201 261 319 389
#     4  10  23  41  71  89 126 164 217 275 306 372
#     4  11  21  39  61  93 128 170 204 260 323 374
#     4   9  20  39  61  92 122 166 209 257 314 374
#     4  11  23  45  64  96 124 168 218 262 320 373
#     4   9  20  38  65  88 123 168 209 268 304 368
#     4  10  21  38  65  91 125 164 213 261 305 381
#
# _framework density 24.192309000000002
#
# number of rings (size 3 to 8) (size 9 to 14) (size 15 to 20)
#    0.750    1.000    1.250    3.375    1.750    4.500 
#    2.250    0.000    0.000    0.000    0.000    0.000 
#    0.000    0.000    0.000    0.000    0.000    0.000 
#
# Total GULP energy -89424.781093 kJ/mol
# GULP energy per Si atom -5589.048818 kJ/mol
# Density = 2.413725 g / cm^3
# Si number density = 24.192309 Si / 1000 Ang^3
#
#
#
# Elastic Constant Matrix: (Units=GPa)
#
#
# Indices 1 2 3 4 5 6 
#
# 1 116.7383 0.0692 48.0361 -8.5383 -1.3414 11.1645
# 2 0.0692 51.3670 15.8454 -11.1076 7.0745 4.4689
# 3 48.0361 15.8454 178.8510 -7.3083 23.1812 8.7295
# 4 -8.5383 -11.1076 -7.3083 31.4670 -6.5231 4.8668
# 5 -1.3414 7.0745 23.1812 -6.5231 32.4933 2.4949
# 6 11.1645 4.4689 8.7295 4.8668 2.4949 17.3787
#
#
#
# Elastic Compliance Matrix: (Units=1/GPa)
#
#
# Indices 1 2 3 4 5 6 
#
# 1 0.011004 0.002206 -0.003039 0.005093 0.003785 -0.008079
# 2 0.002206 0.022961 -0.001654 0.009473 -0.001137 -0.008980
# 3 -0.003039 -0.001654 0.007190 -0.000731 -0.005018 -0.000309
# 4 0.005093 0.009473 -0.000731 0.040821 0.008243 -0.017955
# 5 0.003785 -0.001137 -0.005018 0.008243 0.036969 -0.007235
# 6 -0.008079 -0.008980 -0.000309 -0.017955 -0.007235 0.071263
#
#
# Mechanical properties :
#
#
# Convention : Reuss Voigt Hill
#
# Bulk Modulus (GPa) = 27.63957 52.76197 40.20077
# Shear Modulus (GPa) = 24.12627 35.13484 29.63055
#
# Velocity S-wave (km/s) = 3.16138 3.81506 3.50350
# Velocity P-wave (km/s) = 4.97750 6.42363 5.74624
#
# Compressibility (1/GPa) = 0.03618001
#
# Stress axis : x y z
#
# Youngs Moduli (GPa) = 90.87576 43.55183 139.09136
#
# Poissons Ratio (x) = -0.09605 0.42270
# Poissons Ratio (y) = -0.20043 0.23004
# Poissons Ratio (z) = 0.27617 0.07203
#
# Static dielectric constant tensor:
#      x y z
#    x 1.922520 0.029820 -0.020870 
#    y 0.029820 2.004100 0.018530 
#    z -0.020870 0.018530 1.901750 
# 
# From -- ./inp_files/318764.got.cif
#   From: 2010.05.17/outbox.cif.g08.bks.cpg/sg2_160_cif.got.tgz:318764.got - 2010.06.03 11:33:40.
