data_PCOD9006037
_publ_section_title
;
Structure prediction by ZEFSAII (Michael W. Deem and Ramdas Pophale) SiO2 
 PCOD9006037
Probable space group: P -1
;
_chemical_formula_sum "Si O2"
_cell_formula_units_Z 16
_cell_length_a 12.565623
_cell_length_b 18.638406
_cell_length_c 7.773802
_cell_angle_alpha 32.019211
_cell_angle_beta 131.721689
_cell_angle_gamma 130.123749
_cell_volume 705.557330
_symmetry_space_group_name_H-M "P -1"
_symmetry_group_IT_number 2
_symmetry_cell_setting 'triclinic'
loop_
_space_group_symop_operation_xyz
x,y,z
-x,-y,-z
loop_
_atom_site_type_symbol
_atom_site_label
_atom_site_fract_x
_atom_site_fract_y
_atom_site_fract_z
Si Si1 0.599450 0.196674 0.371800
Si Si2 0.909622 0.021963 0.686948
Si Si3 0.568999 0.567450 0.257397
Si Si4 0.899328 0.721275 0.234057
Si Si5 0.309160 0.644794 0.370031
Si Si6 0.409134 0.918376 0.779144
Si Si7 0.983409 0.325830 0.170075
Si Si8 0.137266 0.604388 0.612367
O O1 0.565491 0.165048 0.197269
O O2 0.764879 0.267382 0.440874
O O3 0.538961 0.046784 0.690721
O O4 0.517948 0.313140 0.116931
O O5 0.740201 0.027139 0.527366
O O6 0.976978 0.176235 0.377752
O O7 0.909739 0.881006 0.872230
O O8 0.000000 0.000000 0.000000
O O9 0.500000 0.500000 0.500000
O O10 0.736261 0.648280 0.257626
O O11 0.573636 0.442107 0.387283
O O12 0.983088 0.700464 0.543414
O O13 0.981747 0.647335 0.331541
O O14 0.225978 0.595341 0.554180
O O15 0.381678 0.806134 0.127510
O O16 0.176437 0.639061 0.100795
O O17 0.101488 0.456634 0.967439
#
# Coordination Sequence:
#
# PCOD9006037 Si02
#       8
#     2   2   2   2   2   2   2   2
#     4  11  23  40  66  92 128 166 217 260 315 377
#     4   9  18  35  61  92 121 157 206 266 305 364
#     4  12  23  39  65  96 123 162 212 269 313 371
#     4  11  22  39  66  94 124 161 222 259 314 374
#     4  11  24  41  64  92 133 168 212 259 322 375
#     4  10  21  42  63  92 127 168 211 265 313 374
#     4  10  21  38  64  93 125 163 213 263 307 372
#     4  12  24  41  64  94 129 175 206 259 323 382
#
# _framework density 22.677109999999999
#
# number of rings (size 3 to 8) (size 9 to 14) (size 15 to 20)
#    0.000    1.250    3.750    3.750    0.000    1.000 
#    0.000    3.750    0.000    0.000    0.000    0.000 
#    0.000    0.000    0.000    0.000    0.000    0.000 
#
# Total GULP energy -89313.376649 kJ/mol
# GULP energy per Si atom -5582.086041 kJ/mol
# Density = 2.262550 g / cm^3
# Si number density = 22.677110 Si / 1000 Ang^3
#
#
#
# Elastic Constant Matrix: (Units=GPa)
#
#
# Indices 1 2 3 4 5 6 
#
# 1 134.7875 27.0640 51.6187 -24.7390 7.6451 12.3414
# 2 27.0640 107.4767 42.2035 -36.0611 -11.8177 28.6154
# 3 51.6187 42.2035 107.2807 -46.6125 9.8564 7.3141
# 4 -24.7390 -36.0611 -46.6125 46.9076 11.1587 -6.9636
# 5 7.6451 -11.8177 9.8564 11.1587 33.5811 -9.9981
# 6 12.3414 28.6154 7.3141 -6.9636 -9.9981 34.5091
#
#
#
# Elastic Compliance Matrix: (Units=1/GPa)
#
#
# Indices 1 2 3 4 5 6 
#
# 1 0.009461 0.000121 -0.003224 0.002072 -0.002805 -0.003195
# 2 0.000121 0.015882 -0.001514 0.009203 -0.000369 -0.011142
# 3 -0.003224 -0.001514 0.023162 0.023406 -0.015007 -0.002125
# 4 0.002072 0.009203 0.023406 0.057553 -0.025980 -0.009247
# 5 -0.002805 -0.000369 -0.015007 -0.025980 0.047170 0.012914
# 6 -0.003195 -0.011142 -0.002125 -0.009247 0.012914 0.041686
#
#
# Mechanical properties :
#
#
# Convention : Reuss Voigt Hill
#
# Bulk Modulus (GPa) = 25.46415 65.70194 45.58304
# Shear Modulus (GPa) = 23.01613 38.24346 30.62980
#
# Velocity S-wave (km/s) = 3.18928 4.11108 3.67916
# Velocity P-wave (km/s) = 4.98151 7.18125 6.18004
#
# Compressibility (1/GPa) = 0.03927090
#
# Stress axis : x y z
#
# Youngs Moduli (GPa) = 105.69150 62.96397 43.17432
#
# Poissons Ratio (x) = -0.00762 0.13921
# Poissons Ratio (y) = -0.01280 0.06537
# Poissons Ratio (z) = 0.34078 0.09533
#
# Static dielectric constant tensor:
#      x y z
#    x 1.876080 -0.019070 -0.003280 
#    y -0.019070 1.940360 -0.006060 
#    z -0.003280 -0.006060 1.852330 
# 
# From -- ./inp_files/281425.got.cif
#   From: 2010.05.17/outbox.cif.g08.bks.cpg/sg2_141_cif.got.tgz:281425.got - 2010.06.03 11:33:40.
