data_PCOD9006561
_publ_section_title
;
Structure prediction by ZEFSAII (Michael W. Deem and Ramdas Pophale) SiO2 
 PCOD9006561
Probable space group: P -1
;
_chemical_formula_sum "Si O2"
_cell_formula_units_Z 16
_cell_length_a 10.673612
_cell_length_b 7.910187
_cell_length_c 19.962145
_cell_angle_alpha 33.043919
_cell_angle_beta 131.727724
_cell_angle_gamma 122.373277
_cell_volume 684.832441
_symmetry_space_group_name_H-M "P -1"
_symmetry_group_IT_number 2
_symmetry_cell_setting 'triclinic'
loop_
_space_group_symop_operation_xyz
x,y,z
-x,-y,-z
loop_
_atom_site_type_symbol
_atom_site_label
_atom_site_fract_x
_atom_site_fract_y
_atom_site_fract_z
Si Si1 0.911649 0.400524 0.111649
Si Si2 0.192810 0.768209 0.632101
Si Si3 0.017875 0.847770 0.413910
Si Si4 0.518295 0.442378 0.290385
Si Si5 0.672819 0.170499 0.553618
Si Si6 0.025316 0.318539 0.822250
Si Si7 0.298685 0.454760 0.440165
Si Si8 0.190809 0.681582 0.039880
O O1 0.921898 0.657773 0.088546
O O2 0.788638 0.405345 0.002400
O O3 0.893215 0.085226 0.251649
O O4 0.087282 0.418115 0.127393
O O5 0.036435 0.844180 0.500895
O O6 0.325839 0.557832 0.704435
O O7 0.132388 0.568400 0.738161
O O8 0.276809 0.092870 0.565686
O O9 0.198352 0.950999 0.417149
O O10 0.000000 0.500000 0.500000
O O11 0.569779 0.446125 0.385273
O O12 0.440975 0.099866 0.372779
O O13 0.371803 0.686999 0.136191
O O14 0.767949 0.324901 0.596113
O O15 0.827392 0.427109 0.704226
O O16 0.079490 0.994470 0.913337
O O17 0.500000 0.500000 0.500000
#
# Coordination Sequence:
#
# PCOD9006561 Si02
#       8
#     2   2   2   2   2   2   2   2
#     4  11  24  42  69  98 139 184 231 286 347 413
#     4  11  24  44  68 104 143 173 229 298 349 413
#     4  11  21  39  69 101 133 177 228 289 358 407
#     4  10  22  43  68  96 136 182 233 287 340 407
#     4  10  21  38  66  98 132 178 228 288 348 399
#     4  12  27  46  69 104 144 184 229 289 355 415
#     4  12  24  39  69 105 139 174 228 291 354 412
#     4  11  25  46  69  98 138 189 240 280 338 428
#
# _framework density 23.363378999999998
#
# number of rings (size 3 to 8) (size 9 to 14) (size 15 to 20)
#    0.000    1.000    3.750    3.000    5.250    0.500 
#    2.250    0.625    0.000    0.000    0.000    0.000 
#    0.000    0.000    0.000    0.000    0.000    0.000 
#
# Total GULP energy -89329.797226 kJ/mol
# GULP energy per Si atom -5583.112327 kJ/mol
# Density = 2.331020 g / cm^3
# Si number density = 23.363379 Si / 1000 Ang^3
#
#
#
# Elastic Constant Matrix: (Units=GPa)
#
#
# Indices 1 2 3 4 5 6 
#
# 1 92.1351 15.3762 24.9889 7.4392 -10.3552 1.0050
# 2 15.3762 106.7348 26.5970 -1.8826 -14.5765 -17.1560
# 3 24.9889 26.5970 95.4132 10.9771 -3.6164 -3.8567
# 4 7.4392 -1.8826 10.9771 33.9971 -3.8844 -6.9825
# 5 -10.3552 -14.5765 -3.6164 -3.8844 41.5298 11.7360
# 6 1.0050 -17.1560 -3.8567 -6.9825 11.7360 42.8604
#
#
#
# Elastic Compliance Matrix: (Units=1/GPa)
#
#
# Indices 1 2 3 4 5 6 
#
# 1 0.012256 -0.001082 -0.002656 -0.001983 0.002842 -0.002061
# 2 -0.001082 0.011316 -0.002948 0.002944 0.002572 0.004065
# 3 -0.002656 -0.002948 0.012382 -0.003757 -0.000863 -0.000379
# 4 -0.001983 0.002944 -0.003757 0.032592 0.001636 0.005749
# 5 0.002842 0.002572 -0.000863 0.001636 0.027577 -0.006399
# 6 -0.002061 0.004065 -0.000379 0.005749 -0.006399 0.027662
#
#
# Mechanical properties :
#
#
# Convention : Reuss Voigt Hill
#
# Bulk Modulus (GPa) = 44.28062 47.57858 45.92960
# Shear Modulus (GPa) = 34.55807 38.83218 36.69513
#
# Velocity S-wave (km/s) = 3.85015 4.08130 3.96741
# Velocity P-wave (km/s) = 6.22568 6.52826 6.37876
#
# Compressibility (1/GPa) = 0.02258325
#
# Stress axis : x y z
#
# Youngs Moduli (GPa) = 81.58938 88.37020 80.76099
#
# Poissons Ratio (x) = 0.09561 0.21449
# Poissons Ratio (y) = 0.08827 0.23808
# Poissons Ratio (z) = 0.21669 0.26051
#
# Static dielectric constant tensor:
#      x y z
#    x 1.921380 -0.019030 0.032220 
#    y -0.019030 1.915370 0.016540 
#    z 0.032220 0.016540 1.951070 
# 
# From -- ./inp_files/593928.got.cif
#   From: 2010.05.17/outbox.cif.g08.bks.cpg/sg2_297_cif.got.tgz:593928.got - 2010.06.03 11:33:40.
