data_PCOD9006381
_publ_section_title
;
Structure prediction by ZEFSAII (Michael W. Deem and Ramdas Pophale) SiO2 
 PCOD9006381
Probable space group: P -1
;
_chemical_formula_sum "Si O2"
_cell_formula_units_Z 12
_cell_length_a 19.154983
_cell_length_b 5.409565
_cell_length_c 9.597515
_cell_angle_alpha 105.396022
_cell_angle_beta 139.630226
_cell_angle_gamma 96.671576
_cell_volume 534.219164
_symmetry_space_group_name_H-M "P -1"
_symmetry_group_IT_number 2
_symmetry_cell_setting 'triclinic'
loop_
_space_group_symop_operation_xyz
x,y,z
-x,-y,-z
loop_
_atom_site_type_symbol
_atom_site_label
_atom_site_fract_x
_atom_site_fract_y
_atom_site_fract_z
Si Si1 0.939686 0.203958 0.955926
Si Si2 0.364800 0.221424 0.205434
Si Si3 0.073819 0.514215 0.475053
Si Si4 0.660723 0.845641 0.532035
Si Si5 0.517600 0.126018 0.202182
Si Si6 0.144019 0.140588 0.683257
O O1 0.792921 0.009231 0.681295
O O2 0.000000 0.500000 0.000000
O O3 0.971407 0.312210 0.178419
O O4 0.000000 0.000000 0.000000
O O5 0.500000 0.500000 0.500000
O O6 0.318530 0.059247 0.258820
O O7 0.400057 0.074845 0.110699
O O8 0.255135 0.274152 0.986849
O O9 0.159940 0.379999 0.629032
O O10 0.000000 0.500000 0.500000
O O11 0.142786 0.851914 0.578099
O O12 0.601958 0.488720 0.378621
O O13 0.577120 0.964371 0.354791
O O14 0.500000 0.000000 0.000000
O O15 0.000000 0.000000 0.500000
#
# Coordination Sequence:
#
# PCOD9006381 Si02
#       6
#     2   2   2   2   2   2
#     4  12  26  44  67 101 139 182 229 285 351 413
#     4  10  24  44  71 102 136 181 232 282 341 415
#     4  10  22  40  64  93 128 170 219 271 329 402
#     4  11  24  46  69  96 138 184 230 285 345 413
#     4  11  25  44  69 102 136 178 230 289 347 409
#     4  10  21  38  65  98 131 171 222 280 334 396
#
# _framework density 22.462691
#
# number of rings (size 3 to 8) (size 9 to 14) (size 15 to 20)
#    0.000    1.333    0.000    5.000    0.000   16.000 
#    0.000    0.000    0.000    0.000    0.000    0.000 
#    0.000    0.000    0.000    0.000    0.000    0.000 
#
# Total GULP energy -66986.568881 kJ/mol
# GULP energy per Si atom -5582.214073 kJ/mol
# Density = 2.241157 g / cm^3
# Si number density = 22.462691 Si / 1000 Ang^3
#
#
#
# Elastic Constant Matrix: (Units=GPa)
#
#
# Indices 1 2 3 4 5 6 
#
# 1 110.6342 20.1332 33.9090 5.7673 -18.8873 -0.5241
# 2 20.1332 156.2612 27.5400 -4.3157 -11.9809 -0.7106
# 3 33.9090 27.5400 114.6461 -13.1781 -5.2604 -6.8159
# 4 5.7673 -4.3157 -13.1781 45.4889 2.3075 -1.6279
# 5 -18.8873 -11.9809 -5.2604 2.3075 44.5235 1.0813
# 6 -0.5241 -0.7106 -6.8159 -1.6279 1.0813 25.7986
#
#
#
# Elastic Compliance Matrix: (Units=1/GPa)
#
#
# Indices 1 2 3 4 5 6 
#
# 1 0.011020 -0.000590 -0.003286 -0.002659 0.004290 -0.001008
# 2 -0.000590 0.006835 -0.001389 0.000241 0.001418 -0.000235
# 3 -0.003286 -0.001389 0.010569 0.003491 -0.000771 0.002940
# 4 -0.002659 0.000241 0.003491 0.023540 -0.001930 0.002441
# 5 0.004290 0.001418 -0.000771 -0.001930 0.024700 -0.001235
# 6 -0.001008 -0.000235 0.002940 0.002441 -0.001235 0.039717
#
#
# Mechanical properties :
#
#
# Convention : Reuss Voigt Hill
#
# Bulk Modulus (GPa) = 55.88598 60.52287 58.20442
# Shear Modulus (GPa) = 37.62961 43.15949 40.39455
#
# Velocity S-wave (km/s) = 4.09737 4.38812 4.24523
# Velocity P-wave (km/s) = 6.87881 7.25785 7.07087
#
# Compressibility (1/GPa) = 0.01789358
#
# Stress axis : x y z
#
# Youngs Moduli (GPa) = 90.74780 146.31522 94.61890
#
# Poissons Ratio (x) = 0.08628 0.31095
# Poissons Ratio (y) = 0.05351 0.13139
# Poissons Ratio (z) = 0.29823 0.20317
#
# Static dielectric constant tensor:
#      x y z
#    x 1.821080 -0.014830 -0.000780 
#    y -0.014830 1.862950 0.020170 
#    z -0.000780 0.020170 1.840480 
# 
# From -- ./inp_files/25847.got.cif
#   From: 2010.05.17/outbox.cif.g08.bks.cpg/sg2_13_cif.got.tgz:25847.got - 2010.06.03 11:33:40.
