data_PCOD9006110
_publ_section_title
;
Structure prediction by ZEFSAII (Michael W. Deem and Ramdas Pophale) SiO2 
 PCOD9006110
Probable space group: P -1
;
_chemical_formula_sum "Si O2"
_cell_formula_units_Z 16
_cell_length_a 11.534984
_cell_length_b 15.381509
_cell_length_c 12.045712
_cell_angle_alpha 68.692414
_cell_angle_beta 40.285059
_cell_angle_gamma 41.035995
_cell_volume 785.990100
_symmetry_space_group_name_H-M "P -1"
_symmetry_group_IT_number 2
_symmetry_cell_setting 'triclinic'
loop_
_space_group_symop_operation_xyz
x,y,z
-x,-y,-z
loop_
_atom_site_type_symbol
_atom_site_label
_atom_site_fract_x
_atom_site_fract_y
_atom_site_fract_z
Si Si1 0.693037 0.231220 0.679161
Si Si2 0.238678 0.088737 0.007204
Si Si3 0.179245 0.654962 0.618561
Si Si4 0.397430 0.938829 0.586355
Si Si5 0.368879 0.903609 0.373745
Si Si6 0.075159 0.858955 0.009554
Si Si7 0.647644 0.745050 0.910230
Si Si8 0.324181 0.327603 0.330111
O O1 0.755549 0.309788 0.554906
O O2 0.575185 0.218715 0.666998
O O3 0.473180 0.289864 0.910044
O O4 0.019532 0.062143 0.548984
O O5 0.998600 0.214697 0.216636
O O6 0.453736 0.087497 0.823750
O O7 0.092305 0.119011 0.981884
O O8 0.425730 0.925104 0.994301
O O9 0.500000 0.500000 0.500000
O O10 0.967924 0.653723 0.749836
O O11 0.445052 0.878563 0.458506
O O12 0.579138 0.797668 0.602867
O O13 0.500000 0.000000 0.500000
O O14 0.056095 0.100959 0.791095
O O15 0.419964 0.702262 0.820066
O O16 0.000000 0.000000 0.000000
O O17 0.645373 0.716941 0.797538
O O18 0.000000 0.500000 0.500000
#
# Coordination Sequence:
#
# PCOD9006110 Si02
#       8
#     2   2   2   2   2   2   2   2
#     4  11  25  40  70 101 130 179 230 286 339 403
#     4  12  21  44  69  96 136 176 232 287 335 402
#     4  12  29  45  66 100 142 184 221 286 356 407
#     4  11  21  40  67  98 131 175 231 279 326 410
#     4  11  21  39  69 105 129 170 239 287 331 399
#     4  10  21  38  64  97 126 180 230 268 329 409
#     4  12  23  48  71  98 140 177 235 280 335 422
#     4  11  26  44  66 101 142 183 217 285 354 401
#
# _framework density 20.356491999999999
#
# number of rings (size 3 to 8) (size 9 to 14) (size 15 to 20)
#    0.000    0.750    6.250    2.625    7.000    0.500 
#    2.250    0.625    0.000    0.000    0.000    0.000 
#    0.000    0.000    0.000    0.000    0.000    0.000 
#
# Total GULP energy -89215.125424 kJ/mol
# GULP energy per Si atom -5575.945339 kJ/mol
# Density = 2.031016 g / cm^3
# Si number density = 20.356492 Si / 1000 Ang^3
#
#
#
# Elastic Constant Matrix: (Units=GPa)
#
#
# Indices 1 2 3 4 5 6 
#
# 1 101.8779 10.9388 39.3522 -2.1739 4.3858 -17.4058
# 2 10.9388 51.7557 57.8670 -0.0285 0.6388 -16.9378
# 3 39.3522 57.8670 144.9538 -8.4079 -10.0100 -10.8835
# 4 -2.1739 -0.0285 -8.4079 34.0647 -11.0554 -5.5036
# 5 4.3858 0.6388 -10.0100 -11.0554 37.7250 -9.0248
# 6 -17.4058 -16.9378 -10.8835 -5.5036 -9.0248 22.5930
#
#
#
# Elastic Compliance Matrix: (Units=1/GPa)
#
#
# Indices 1 2 3 4 5 6 
#
# 1 0.013721 0.008498 -0.005789 0.002209 0.000980 0.015082
# 2 0.008498 0.052161 -0.019968 0.002598 0.002613 0.037709
# 3 -0.005789 -0.019968 0.016254 0.003518 0.004185 -0.009071
# 4 0.002209 0.002598 0.003518 0.039596 0.017494 0.021977
# 5 0.000980 0.002613 0.004185 0.017494 0.038408 0.024333
# 6 0.015082 0.037709 -0.009071 0.021977 0.024333 0.094855
#
#
# Mechanical properties :
#
#
# Convention : Reuss Voigt Hill
#
# Bulk Modulus (GPa) = 21.00069 57.21148 39.10609
# Shear Modulus (GPa) = 16.37278 31.57183 23.97230
#
# Velocity S-wave (km/s) = 2.83910 3.94248 3.43538
# Velocity P-wave (km/s) = 4.59197 6.99214 5.91507
#
# Compressibility (1/GPa) = 0.04761748
#
# Stress axis : x y z
#
# Youngs Moduli (GPa) = 72.87997 19.17141 61.52440
#
# Poissons Ratio (x) = -0.16291 0.35618
# Poissons Ratio (y) = -0.61932 1.22851
# Poissons Ratio (z) = 0.42192 0.38281
#
# Static dielectric constant tensor:
#      x y z
#    x 1.732180 0.005030 -0.045850 
#    y 0.005030 1.734820 -0.078530 
#    z -0.045850 -0.078530 1.942350 
# 
# From -- ./inp_files/437287.got.cif
#   From: 2010.05.17/outbox.cif.g08.bks.cpg/sg2_219_cif.got.tgz:437287.got - 2010.06.03 11:33:40.
