data_PCOD9006002
_publ_section_title
;
Structure prediction by ZEFSAII (Michael W. Deem and Ramdas Pophale) SiO2 
 PCOD9006002
Probable space group: P -1
;
_chemical_formula_sum "Si O2"
_cell_formula_units_Z 16
_cell_length_a 25.042290
_cell_length_b 9.470772
_cell_length_c 9.870774
_cell_angle_alpha 30.693875
_cell_angle_beta 122.374048
_cell_angle_gamma 135.681390
_cell_volume 813.713636
_symmetry_space_group_name_H-M "P -1"
_symmetry_group_IT_number 2
_symmetry_cell_setting 'triclinic'
loop_
_space_group_symop_operation_xyz
x,y,z
-x,-y,-z
loop_
_atom_site_type_symbol
_atom_site_label
_atom_site_fract_x
_atom_site_fract_y
_atom_site_fract_z
Si Si1 0.712298 0.253457 0.165976
Si Si2 0.485578 0.735657 0.936445
Si Si3 0.547725 0.749087 0.480372
Si Si4 0.157899 0.239264 0.859199
Si Si5 0.633971 0.810354 0.996355
Si Si6 0.219943 0.162317 0.437577
Si Si7 0.911406 0.350928 0.535230
Si Si8 0.745280 0.598581 0.414588
O O1 0.769584 0.489090 0.170717
O O2 0.627117 0.068944 0.261578
O O3 0.728323 0.979217 0.376972
O O4 0.733515 0.487374 0.871983
O O5 0.573269 0.835339 0.981686
O O6 0.493281 0.084942 0.652785
O O7 0.441322 0.471352 0.218218
O O8 0.429613 0.503701 0.927880
O O9 0.500000 0.500000 0.500000
O O10 0.100897 0.356320 0.694991
O O11 0.193379 0.269473 0.734856
O O12 0.117995 0.881595 0.177853
O O13 0.691821 0.182410 0.696002
O O14 0.687621 0.711026 0.216542
O O15 0.211135 0.239537 0.516138
O O16 0.142986 0.887708 0.469460
O O17 0.000000 0.500000 0.500000
#
# Coordination Sequence:
#
# PCOD9006002 Si02
#       8
#     2   2   2   2   2   2   2   2
#     4  10  21  39  58  82 118 160 203 250 303 364
#     4  11  24  42  54  86 112 158 217 250 325 364
#     4  12  25  37  60  83 120 157 210 265 309 352
#     4  10  21  38  64  92 117 159 202 240 290 365
#     4  11  24  39  64  78 120 163 198 266 307 369
#     4  10  23  38  62  90 121 156 201 245 306 361
#     4  10  21  42  66  93 126 160 191 235 298 371
#     4  12  23  39  63  91 120 155 209 254 304 348
#
# _framework density 19.662936999999999
#
# number of rings (size 3 to 8) (size 9 to 14) (size 15 to 20)
#    0.000    1.250    0.000    6.000    5.250    4.000 
#    0.000    1.250    0.000    0.000    0.000    0.000 
#    0.000    0.000    0.000    0.000    0.000    0.000 
#
# Total GULP energy -89370.732010 kJ/mol
# GULP energy per Si atom -5585.670751 kJ/mol
# Density = 1.961818 g / cm^3
# Si number density = 19.662937 Si / 1000 Ang^3
#
#
#
# Elastic Constant Matrix: (Units=GPa)
#
#
# Indices 1 2 3 4 5 6 
#
# 1 85.6594 27.0731 9.0583 25.8820 1.1434 6.9625
# 2 27.0731 12.4145 -0.9355 27.0742 -3.4643 5.7107
# 3 9.0583 -0.9355 74.9893 21.2892 20.9443 -2.4151
# 4 25.8820 27.0742 21.2892 24.3820 -3.2494 -7.4657
# 5 1.1434 -3.4643 20.9443 -3.2494 27.2459 18.1914
# 6 6.9625 5.7107 -2.4151 -7.4657 18.1914 19.5224
#
#
#
# Elastic Compliance Matrix: (Units=1/GPa)
#
#
# Indices 1 2 3 4 5 6 
#
# 1 0.019951 -0.011655 -0.004793 -0.008540 0.014286 -0.020877
# 2 -0.011655 -0.013676 0.003171 0.037660 -0.038428 0.058759
# 3 -0.004793 0.003171 0.066569 -0.037463 -0.136276 0.121676
# 4 -0.008540 0.037660 -0.037463 0.024230 0.103385 -0.099675
# 5 0.014286 -0.038428 -0.136276 0.103385 0.341566 -0.289455
# 6 -0.020877 0.058759 0.121676 -0.099675 -0.289455 0.288136
#
#
# Mechanical properties :
#
#
# Convention : Reuss Voigt Hill
#
# Bulk Modulus (GPa) = 21.60284 27.05057 24.32670
# Shear Modulus (GPa) = 6.50397 23.42121 14.96259
#
# Velocity S-wave (km/s) = 1.82069 3.45503 2.76153
# Velocity P-wave (km/s) = 3.92814 5.45007 4.75045
#
# Compressibility (1/GPa) = 0.04629022
#
# Stress axis : x y z
#
# Youngs Moduli (GPa) = 50.12195 -73.12169 15.02193
#
# Poissons Ratio (x) = -0.85222 0.07200
# Poissons Ratio (y) = 0.58417 -0.04763
# Poissons Ratio (z) = 0.24025 0.23186
#
# Static dielectric constant tensor:
#      x y z
#    x 1.706620 -0.022440 0.010180 
#    y -0.022440 1.703570 0.017770 
#    z 0.010180 0.017770 1.683440 
# 
# From -- ./inp_files/116954.got.cif
#   From: 2010.05.17/outbox.cif.g08.bks.cpg/sg2_59_cif.got.tgz:116954.got - 2010.06.03 11:33:40.
