data_PCOD9006236
_publ_section_title
;
Structure prediction by ZEFSAII (Michael W. Deem and Ramdas Pophale) SiO2 
 PCOD9006236
Probable space group: P -1
;
_chemical_formula_sum "Si O2"
_cell_formula_units_Z 12
_cell_length_a 14.596319
_cell_length_b 9.426300
_cell_length_c 7.265397
_cell_angle_alpha 99.774121
_cell_angle_beta 143.972386
_cell_angle_gamma 68.609122
_cell_volume 532.962561
_symmetry_space_group_name_H-M "P -1"
_symmetry_group_IT_number 2
_symmetry_cell_setting 'triclinic'
loop_
_space_group_symop_operation_xyz
x,y,z
-x,-y,-z
loop_
_atom_site_type_symbol
_atom_site_label
_atom_site_fract_x
_atom_site_fract_y
_atom_site_fract_z
Si Si1 0.522408 0.279690 0.904637
Si Si2 0.919304 0.631972 0.060562
Si Si3 0.724531 0.198149 0.552207
Si Si4 0.377134 0.057875 0.487740
Si Si5 0.329935 0.503153 0.321871
Si Si6 0.105631 0.836333 0.540231
O O1 0.564523 0.307898 0.187732
O O2 0.703129 0.232200 0.086936
O O3 0.473646 0.129899 0.798351
O O4 0.387779 0.411551 0.591557
O O5 0.793935 0.796172 0.806406
O O6 0.796743 0.574373 0.973407
O O7 0.000000 0.500000 0.000000
O O8 0.043471 0.693238 0.390118
O O9 0.777631 0.314385 0.782477
O O10 0.866655 0.118298 0.614388
O O11 0.667049 0.081713 0.541934
O O12 0.500000 0.000000 0.500000
O O13 0.500000 0.500000 0.500000
O O14 0.000000 0.000000 0.500000
#
# Coordination Sequence:
#
# PCOD9006236 Si02
#       6
#     2   2   2   2   2   2
#     4   9  21  39  61  86 129 163 212 258 317 378
#     4  11  22  43  63  94 131 166 213 275 322 378
#     4  10  21  38  65  91 123 168 218 256 321 376
#     4  11  22  39  66  94 128 170 219 266 318 391
#     4  11  22  41  66  93 125 171 217 263 320 389
#     4  10  22  39  63  89 133 165 213 264 325 374
#
# _framework density 22.515651999999999
#
# number of rings (size 3 to 8) (size 9 to 14) (size 15 to 20)
#    1.000    0.667    1.667    4.000    0.000    0.667 
#    3.000    0.833    0.000    0.000    0.000    0.000 
#    0.000    0.000    0.000    0.000    0.000    0.000 
#
# Total GULP energy -66849.410164 kJ/mol
# GULP energy per Si atom -5570.784180 kJ/mol
# Density = 2.246441 g / cm^3
# Si number density = 22.515652 Si / 1000 Ang^3
#
#
#
# Elastic Constant Matrix: (Units=GPa)
#
#
# Indices 1 2 3 4 5 6 
#
# 1 111.1172 58.0918 -4.8487 1.2374 19.6275 17.1780
# 2 58.0918 151.1089 28.0381 23.2878 12.5708 21.6327
# 3 -4.8487 28.0381 52.8961 9.1606 24.2168 12.4567
# 4 1.2374 23.2878 9.1606 38.1607 6.9907 17.4412
# 5 19.6275 12.5708 24.2168 6.9907 28.2117 1.6737
# 6 17.1780 21.6327 12.4567 17.4412 1.6737 52.8520
#
#
#
# Elastic Compliance Matrix: (Units=1/GPa)
#
#
# Indices 1 2 3 4 5 6 
#
# 1 0.023672 -0.010895 0.024754 0.011778 -0.035079 -0.011845
# 2 -0.010895 0.012971 -0.014879 -0.008920 0.016536 0.004159
# 3 0.024754 -0.014879 0.060969 0.014281 -0.065341 -0.018969
# 4 0.011778 -0.008920 0.014281 0.039733 -0.025384 -0.015851
# 5 -0.035079 0.016536 -0.065341 -0.025384 0.113389 0.024819
# 6 -0.011845 0.004159 -0.018969 -0.015851 0.024819 0.029984
#
#
# Mechanical properties :
#
#
# Convention : Reuss Voigt Hill
#
# Bulk Modulus (GPa) = 10.46324 53.07605 31.76965
# Shear Modulus (GPa) = 15.89251 39.43427 27.66339
#
# Velocity S-wave (km/s) = 2.65965 4.18953 3.50898
# Velocity P-wave (km/s) = 3.75351 6.85763 5.52792
#
# Compressibility (1/GPa) = 0.09557267
#
# Stress axis : x y z
#
# Youngs Moduli (GPa) = 42.24469 77.09803 16.40182
#
# Poissons Ratio (x) = 0.83995 -0.40601
# Poissons Ratio (y) = 0.46024 0.24404
# Poissons Ratio (z) = -1.04573 1.14711
#
# Static dielectric constant tensor:
#      x y z
#    x 1.893960 -0.063060 0.024430 
#    y -0.063060 1.921200 0.005040 
#    z 0.024430 0.005040 2.011860 
# 
# From -- ./inp_files/326354.got.cif
#   From: 2010.05.17/outbox.cif.g08.bks.cpg/sg2_164_cif.got.tgz:326354.got - 2010.06.03 11:33:40.
