data_PCOD9006619
_publ_section_title
;
Structure prediction by ZEFSAII (Michael W. Deem and Ramdas Pophale) SiO2 
 PCOD9006619
Probable space group: P -1
;
_chemical_formula_sum "Si O2"
_cell_formula_units_Z 15
_cell_length_a 20.095782
_cell_length_b 11.507146
_cell_length_c 16.618791
_cell_angle_alpha 149.812794
_cell_angle_beta 21.777803
_cell_angle_gamma 149.992119
_cell_volume 674.446219
_symmetry_space_group_name_H-M "P -1"
_symmetry_group_IT_number 2
_symmetry_cell_setting 'triclinic'
loop_
_space_group_symop_operation_xyz
x,y,z
-x,-y,-z
loop_
_atom_site_type_symbol
_atom_site_label
_atom_site_fract_x
_atom_site_fract_y
_atom_site_fract_z
Si Si1 0.837094 0.991620 0.574645
Si Si2 0.864706 0.522768 0.860532
Si Si3 0.000000 0.000000 0.000000
Si Si4 0.558029 0.373288 0.242024
Si Si5 0.645441 0.917521 0.459304
Si Si6 0.787458 0.077474 0.868395
Si Si7 0.979103 0.756431 0.701917
Si Si8 0.379571 0.214809 0.969163
O O1 0.641579 0.844071 0.662855
O O2 0.998772 0.870493 0.309449
O O3 0.919685 0.284195 0.635945
O O4 0.789796 0.986596 0.719925
O O5 0.906996 0.718804 0.854897
O O6 0.655580 0.403947 0.061298
O O7 0.991728 0.736682 0.904061
O O8 0.774128 0.945582 0.251970
O O9 0.544751 0.637685 0.430544
O O10 0.708004 0.301066 0.085233
O O11 0.497900 0.060575 0.704023
O O12 0.809919 0.050823 0.419323
O O13 0.652951 0.872448 0.954538
O O14 0.000000 0.500000 0.500000
O O15 0.822588 0.821800 0.866943
O O16 0.500000 0.500000 0.000000
#
# Coordination Sequence:
#
# PCOD9006619 Si02
#       8
#     2   2   1   2   2   2   2   2
#     4  10  21  38  67  92 124 166 214 270 306 372
#     4   9  18  36  62  89 122 163 213 258 314 366
#     4   8  18  38  62  88 128 162 204 262 314 370
#     4  10  22  41  65  88 122 167 214 264 316 371
#     4  10  23  44  62  94 128 171 212 262 325 374
#     4  10  23  40  60  98 123 166 215 259 313 374
#     4  11  22  39  62  92 130 169 206 262 318 380
#     4  12  26  39  65  97 129 167 215 261 318 388
#
# _framework density 22.240468
#
# number of rings (size 3 to 8) (size 9 to 14) (size 15 to 20)
#    0.000    1.867    1.333    2.400    5.600    2.667 
#    0.000    8.667    0.000    0.000    0.000    0.000 
#    0.000    0.000    0.000    0.000    0.000    0.000 
#
# Total GULP energy -83503.973940 kJ/mol
# GULP energy per Si atom -5566.931596 kJ/mol
# Density = 2.218985 g / cm^3
# Si number density = 22.240468 Si / 1000 Ang^3
#
#
#
# Elastic Constant Matrix: (Units=GPa)
#
#
# Indices 1 2 3 4 5 6 
#
# 1 54.8746 24.6853 29.8437 -1.7453 -6.0238 -19.9329
# 2 24.6853 123.6930 49.7607 15.5243 -15.2692 -17.0946
# 3 29.8437 49.7607 159.8110 22.0882 -22.8647 -3.1297
# 4 -1.7453 15.5243 22.0882 35.8457 -10.6654 3.5278
# 5 -6.0238 -15.2692 -22.8647 -10.6654 40.0816 -9.6782
# 6 -19.9329 -17.0946 -3.1297 3.5278 -9.6782 37.4188
#
#
#
# Elastic Compliance Matrix: (Units=1/GPa)
#
#
# Indices 1 2 3 4 5 6 
#
# 1 0.027292 -0.001671 -0.004127 0.004931 0.005924 0.014498
# 2 -0.001671 0.010674 -0.002069 -0.003013 0.003011 0.004876
# 3 -0.004127 -0.002069 0.008452 -0.003753 0.002039 -0.001555
# 4 0.004931 -0.003013 -0.003753 0.033680 0.006264 -0.000619
# 5 0.005924 0.003011 0.002039 0.006264 0.032861 0.012610
# 6 0.014498 0.004876 -0.001555 -0.000619 0.012610 0.039865
#
#
# Mechanical properties :
#
#
# Convention : Reuss Voigt Hill
#
# Bulk Modulus (GPa) = 32.58760 60.77310 46.68035
# Shear Modulus (GPa) = 27.96638 38.27514 33.12076
#
# Velocity S-wave (km/s) = 3.54991 4.15296 3.86322
# Velocity P-wave (km/s) = 5.61130 7.09795 6.39795
#
# Compressibility (1/GPa) = 0.03068652
#
# Stress axis : x y z
#
# Youngs Moduli (GPa) = 36.64022 93.68595 118.31171
#
# Poissons Ratio (x) = 0.15651 0.48822
# Poissons Ratio (y) = 0.06121 0.24477
# Poissons Ratio (z) = 0.15120 0.19382
#
# Static dielectric constant tensor:
#      x y z
#    x -3.519250 -3.860880 -2.468120 
#    y -3.860880 -0.924770 -1.747840 
#    z -2.468120 -1.747840 0.759780 
# 
# From -- ./inp_files/578025.got.cif
#   From: 2010.05.17/outbox.cif.g08.bks.cpg/sg2_290_cif.got.tgz:578025.got - 2010.06.03 11:33:40.
