data_PCOD9006576
_publ_section_title
;
Structure prediction by ZEFSAII (Michael W. Deem and Ramdas Pophale) SiO2 
 PCOD9006576
Probable space group: P -1
;
_chemical_formula_sum "Si O2"
_cell_formula_units_Z 14
_cell_length_a 11.767754
_cell_length_b 11.172609
_cell_length_c 7.354820
_cell_angle_alpha 85.749882
_cell_angle_beta 106.552477
_cell_angle_gamma 140.613523
_cell_volume 570.957096
_symmetry_space_group_name_H-M "P -1"
_symmetry_group_IT_number 2
_symmetry_cell_setting 'triclinic'
loop_
_space_group_symop_operation_xyz
x,y,z
-x,-y,-z
loop_
_atom_site_type_symbol
_atom_site_label
_atom_site_fract_x
_atom_site_fract_y
_atom_site_fract_z
Si Si1 0.084606 0.726637 0.366332
Si Si2 0.251843 0.259760 0.344418
Si Si3 0.575725 0.847202 0.418579
Si Si4 0.966687 0.175788 0.010482
Si Si5 0.590542 0.773924 0.029478
Si Si6 0.357968 0.426259 0.732535
Si Si7 0.867079 0.501129 0.666137
O O1 0.091398 0.606900 0.275871
O O2 0.298727 0.937415 0.499092
O O3 0.002006 0.762110 0.189773
O O4 0.964227 0.611181 0.506341
O O5 0.298243 0.164190 0.447226
O O6 0.219905 0.310478 0.509120
O O7 0.439683 0.446134 0.293072
O O8 0.079476 0.152043 0.145536
O O9 0.551208 0.811412 0.194462
O O10 0.363591 0.670925 0.422876
O O11 0.042849 0.344808 0.152920
O O12 0.742388 0.970447 0.962111
O O13 0.679783 0.716307 0.138359
O O14 0.410045 0.587060 0.848787
#
# Coordination Sequence:
#
# PCOD9006576 Si02
#       7
#     2   2   2   2   2   2   2
#     4  11  26  49  77 102 140 188 243 298 353 411
#     4  10  22  42  67 101 149 183 233 287 355 426
#     4  11  23  48  72 105 144 190 231 296 355 428
#     4  12  24  45  69 108 146 185 230 300 354 427
#     4  10  21  38  66  99 144 184 239 279 354 420
#     4   9  19  39  60  95 141 193 230 276 335 437
#     4  11  25  51  75 102 140 186 247 301 345 414
#
# _framework density 24.520230999999999
#
# number of rings (size 3 to 8) (size 9 to 14) (size 15 to 20)
#    0.000    1.429    1.429    4.286    0.000    4.571 
#   25.714    0.714    0.000    0.000    0.000    0.000 
#    0.000    0.000    0.000    0.000    0.000    0.000 
#
# Total GULP energy -78393.397632 kJ/mol
# GULP energy per Si atom -5599.528402 kJ/mol
# Density = 2.446442 g / cm^3
# Si number density = 24.520231 Si / 1000 Ang^3
#
#
#
# Elastic Constant Matrix: (Units=GPa)
#
#
# Indices 1 2 3 4 5 6 
#
# 1 46.9398 19.1037 16.4497 14.6598 -3.5093 -1.9895
# 2 19.1037 150.1196 48.4934 14.6915 -9.3555 10.4212
# 3 16.4497 48.4934 153.8985 0.5797 -22.3127 0.9100
# 4 14.6598 14.6915 0.5797 45.8886 -10.6109 -9.0231
# 5 -3.5093 -9.3555 -22.3127 -10.6109 31.3773 3.1838
# 6 -1.9895 10.4212 0.9100 -9.0231 3.1838 26.3701
#
#
#
# Elastic Compliance Matrix: (Units=1/GPa)
#
#
# Indices 1 2 3 4 5 6 
#
# 1 0.025195 -0.001809 -0.002402 -0.007879 -0.002120 0.000259
# 2 -0.001809 0.008235 -0.002359 -0.002863 0.000043 -0.004294
# 3 -0.002402 -0.002359 0.008333 0.002922 0.005865 0.000755
# 4 -0.007879 -0.002863 0.002922 0.029157 0.009260 0.009295
# 5 -0.002120 0.000043 0.005865 0.009260 0.039144 -0.001937
# 6 0.000259 -0.004294 0.000755 0.009295 -0.001937 0.043026
#
#
# Mechanical properties :
#
#
# Convention : Reuss Voigt Hill
#
# Bulk Modulus (GPa) = 34.93873 57.67242 46.30557
# Shear Modulus (GPa) = 28.44592 38.52129 33.48360
#
# Velocity S-wave (km/s) = 3.40972 3.96788 3.69934
# Velocity P-wave (km/s) = 5.45724 6.67559 6.09693
#
# Compressibility (1/GPa) = 0.02862154
#
# Stress axis : x y z
#
# Youngs Moduli (GPa) = 39.69023 121.43936 120.00927
#
# Poissons Ratio (x) = 0.21972 0.28828
# Poissons Ratio (y) = 0.07181 0.28309
# Poissons Ratio (z) = 0.09534 0.28646
#
# Static dielectric constant tensor:
#      x y z
#    x 1.986280 -0.024210 0.004740 
#    y -0.024210 1.914010 0.006040 
#    z 0.004740 0.006040 1.977490 
# 
# From -- ./inp_files/258632.got.cif
#   From: 2010.05.17/outbox.cif.g08.bks.cpg/sg2_130_cif.got.tgz:258632.got - 2010.06.03 11:33:40.
