data_PCOD9006482
_publ_section_title
;
Structure prediction by ZEFSAII (Michael W. Deem and Ramdas Pophale) SiO2 
 PCOD9006482
Probable space group: P -1
;
_chemical_formula_sum "Si O2"
_cell_formula_units_Z 16
_cell_length_a 10.153332
_cell_length_b 7.324347
_cell_length_c 14.573806
_cell_angle_alpha 61.144532
_cell_angle_beta 102.083074
_cell_angle_gamma 64.439524
_cell_volume 726.989234
_symmetry_space_group_name_H-M "P -1"
_symmetry_group_IT_number 2
_symmetry_cell_setting 'triclinic'
loop_
_space_group_symop_operation_xyz
x,y,z
-x,-y,-z
loop_
_atom_site_type_symbol
_atom_site_label
_atom_site_fract_x
_atom_site_fract_y
_atom_site_fract_z
Si Si1 0.883146 0.883498 0.577810
Si Si2 0.456132 0.030079 0.847752
Si Si3 0.338341 0.452396 0.886526
Si Si4 0.398964 0.059785 0.376677
Si Si5 0.018599 0.987567 0.269673
Si Si6 0.370745 0.794923 0.282202
Si Si7 0.431446 0.706701 0.693817
Si Si8 0.099859 0.359885 0.642213
O O1 0.792833 0.803421 0.652061
O O2 0.917639 0.049076 0.606022
O O3 0.051436 0.609691 0.633422
O O4 0.752144 0.049460 0.435028
O O5 0.559754 0.774174 0.714147
O O6 0.362243 0.236636 0.870232
O O7 0.602488 0.042043 0.825691
O O8 0.540447 0.737504 0.966890
O O9 0.403727 0.585555 0.805057
O O10 0.148342 0.700735 0.832883
O O11 0.480167 0.506089 0.324492
O O12 0.500000 0.000000 0.500000
O O13 0.448432 0.811213 0.384434
O O14 0.176654 0.910351 0.247953
O O15 0.968031 0.796550 0.291779
O O16 0.304893 0.147724 0.722850
O O17 0.000000 0.500000 0.500000
#
# Coordination Sequence:
#
# PCOD9006482 Si02
#       8
#     2   2   2   2   2   2   2   2
#     4  10  22  39  60  93 136 167 205 264 321 375
#     4  10  24  45  68  92 128 171 216 267 313 379
#     4  10  22  44  69  90 128 170 218 264 320 370
#     4   9  20  35  59  89 128 165 205 258 311 375
#     4  11  24  41  65  95 129 168 208 263 321 380
#     4  10  23  41  62  94 127 168 213 257 318 380
#     4  10  21  38  66  92 126 171 215 257 316 380
#     4  12  26  39  66  98 132 163 213 263 320 379
#
# _framework density 22.008579999999998
#
# number of rings (size 3 to 8) (size 9 to 14) (size 15 to 20)
#    0.000    1.750    1.250    1.500    8.750    6.500 
#    0.000    0.000    0.000    3.000    0.000    0.000 
#    0.000    0.000    0.000    0.000    0.000    0.000 
#
# Total GULP energy -89357.747814 kJ/mol
# GULP energy per Si atom -5584.859238 kJ/mol
# Density = 2.195849 g / cm^3
# Si number density = 22.008580 Si / 1000 Ang^3
#
#
#
# Elastic Constant Matrix: (Units=GPa)
#
#
# Indices 1 2 3 4 5 6 
#
# 1 133.5307 28.7255 54.9127 -23.6246 -10.7170 -11.3065
# 2 28.7255 92.5906 19.4483 -9.9043 -1.9739 -13.6075
# 3 54.9127 19.4483 109.2950 -25.4446 -0.5308 -13.5867
# 4 -23.6246 -9.9043 -25.4446 28.7908 5.0752 -2.5750
# 5 -10.7170 -1.9739 -0.5308 5.0752 20.6435 -2.7586
# 6 -11.3065 -13.6075 -13.5867 -2.5750 -2.7586 32.8586
#
#
#
# Elastic Compliance Matrix: (Units=1/GPa)
#
#
# Indices 1 2 3 4 5 6 
#
# 1 0.010708 -0.001657 -0.003811 0.004238 0.004546 0.002136
# 2 -0.001657 0.012381 0.000000 0.003303 0.000157 0.004829
# 3 -0.003811 0.000000 0.014094 0.010396 -0.003499 0.005037
# 4 0.004238 0.003303 0.010396 0.050938 -0.008348 0.010416
# 5 0.004546 0.000157 -0.003499 -0.008348 0.053314 0.004004
# 6 0.002136 0.004829 0.005037 0.010416 0.004004 0.036403
#
#
# Mechanical properties :
#
#
# Convention : Reuss Voigt Hill
#
# Bulk Modulus (GPa) = 38.10174 60.17660 49.13917
# Shear Modulus (GPa) = 25.31339 31.94723 28.63031
#
# Velocity S-wave (km/s) = 3.39508 3.81409 3.61067
# Velocity P-wave (km/s) = 5.72001 6.84092 6.30542
#
# Compressibility (1/GPa) = 0.02624552
#
# Stress axis : x y z
#
# Youngs Moduli (GPa) = 93.38614 80.77008 70.95404
#
# Poissons Ratio (x) = 0.13387 0.27039
# Poissons Ratio (y) = 0.15478 0.00002
# Poissons Ratio (z) = 0.35588 0.00003
#
# Static dielectric constant tensor:
#      x y z
#    x 1.819220 0.023320 -0.019730 
#    y 0.023320 1.863440 0.054650 
#    z -0.019730 0.054650 1.813400 
# 
# From -- ./inp_files/510273.got.cif
#   From: 2010.05.17/outbox.cif.g08.bks.cpg/sg2_256_cif.got.tgz:510273.got - 2010.06.03 11:33:40.
