data_PCOD9006010
_publ_section_title
;
Structure prediction by ZEFSAII (Michael W. Deem and Ramdas Pophale) SiO2 
 PCOD9006010
Probable space group: P -1
;
_chemical_formula_sum "Si O2"
_cell_formula_units_Z 16
_cell_length_a 11.908787
_cell_length_b 25.121840
_cell_length_c 25.765446
_cell_angle_alpha 168.618424
_cell_angle_beta 150.459009
_cell_angle_gamma 29.995198
_cell_volume 743.099167
_symmetry_space_group_name_H-M "P -1"
_symmetry_group_IT_number 2
_symmetry_cell_setting 'triclinic'
loop_
_space_group_symop_operation_xyz
x,y,z
-x,-y,-z
loop_
_atom_site_type_symbol
_atom_site_label
_atom_site_fract_x
_atom_site_fract_y
_atom_site_fract_z
Si Si1 0.762586 0.409713 0.450009
Si Si2 0.385914 0.054549 0.223996
Si Si3 0.178292 0.535316 0.666980
Si Si4 0.688858 0.502572 0.122546
Si Si5 0.761624 0.887197 0.304977
Si Si6 0.999551 0.931884 0.684572
Si Si7 0.430914 0.632590 0.250608
Si Si8 0.518213 0.028618 0.132171
O O1 0.899018 0.244931 0.394032
O O2 0.614209 0.690970 0.676824
O O3 0.946732 0.486786 0.555920
O O4 0.596984 0.219018 0.174380
O O5 0.252467 0.340765 0.462550
O O6 0.478007 0.047825 0.196192
O O7 0.595841 0.972176 0.270197
O O8 0.208987 0.838534 0.953989
O O9 0.374262 0.454342 0.711562
O O10 0.549644 0.571750 0.185552
O O11 0.848656 0.741182 0.409503
O O12 0.500000 0.500000 0.000000
O O13 0.846825 0.209797 0.907039
O O14 0.654943 0.054435 0.472223
O O15 0.761616 0.567320 0.009053
O O16 0.000000 0.000000 0.500000
O O17 0.216179 0.998837 0.802586
#
# Coordination Sequence:
#
# PCOD9006010 Si02
#       8
#     2   2   2   2   2   2   2   2
#     4  12  24  42  71  94 130 184 228 263 338 396
#     4  10  23  39  60  95 134 167 214 274 332 377
#     4  10  21  39  65  90 125 174 214 267 318 393
#     4  12  26  44  71 102 127 172 224 279 342 382
#     4  10  21  38  64  92 123 173 215 257 329 400
#     4  12  26  47  68  96 138 174 225 277 328 401
#     4  10  21  39  62  90 126 162 211 271 317 385
#     4  12  26  42  64 100 138 177 219 278 332 399
#
# _framework density 21.531447
#
# number of rings (size 3 to 8) (size 9 to 14) (size 15 to 20)
#    0.000    1.000    1.250    5.250    3.500    5.000 
#    0.000    0.000    0.000    0.000    0.000    0.000 
#    0.000    0.000    0.000    0.000    0.000    0.000 
#
# Total GULP energy -89585.432823 kJ/mol
# GULP energy per Si atom -5599.089551 kJ/mol
# Density = 2.148244 g / cm^3
# Si number density = 21.531447 Si / 1000 Ang^3
#
#
#
# Elastic Constant Matrix: (Units=GPa)
#
#
# Indices 1 2 3 4 5 6 
#
# 1 114.0000 37.3589 26.1160 -23.3210 2.5594 -5.8989
# 2 37.3589 53.9640 36.1381 -20.5585 6.7141 -12.8545
# 3 26.1160 36.1381 126.7709 -29.2501 10.2353 -5.7118
# 4 -23.3210 -20.5585 -29.2501 39.3466 -12.3259 7.1196
# 5 2.5594 6.7141 10.2353 -12.3259 28.7748 -9.7241
# 6 -5.8989 -12.8545 -5.7118 7.1196 -9.7241 25.6412
#
#
#
# Elastic Compliance Matrix: (Units=1/GPa)
#
#
# Indices 1 2 3 4 5 6 
#
# 1 0.011880 -0.007445 0.000460 0.004342 0.001911 -0.001377
# 2 -0.007445 0.032923 -0.005888 0.006858 0.002207 0.012414
# 3 0.000460 -0.005888 0.010653 0.005219 -0.000998 -0.002301
# 4 0.004342 0.006858 0.005219 0.039598 0.012956 -0.000482
# 5 0.001911 0.002207 -0.000998 0.012956 0.044967 0.014780
# 6 -0.001377 0.012414 -0.002301 -0.000482 0.014780 0.050132
#
#
# Mechanical properties :
#
#
# Convention : Reuss Voigt Hill
#
# Bulk Modulus (GPa) = 33.65754 54.88453 44.27104
# Shear Modulus (GPa) = 22.14333 31.76063 26.95198
#
# Velocity S-wave (km/s) = 3.21037 3.84485 3.54185
# Velocity P-wave (km/s) = 5.42289 6.72727 6.10999
#
# Compressibility (1/GPa) = 0.02971102
#
# Stress axis : x y z
#
# Youngs Moduli (GPa) = 84.17400 30.37423 93.86894
#
# Poissons Ratio (x) = 0.22612 -0.04320
# Poissons Ratio (y) = 0.62663 0.55271
# Poissons Ratio (z) = -0.03873 0.17885
#
# Static dielectric constant tensor:
#      x y z
#    x 1.756660 0.012070 -0.004010 
#    y 0.012070 1.799030 -0.010730 
#    z -0.004010 -0.010730 1.768640 
# 
# From -- ./inp_files/618877.got.cif
#   From: 2010.05.17/outbox.cif.g08.bks.cpg/sg2_310_cif.got.tgz:618877.got - 2010.06.03 11:33:40.
