data_PCOD9006857
_publ_section_title
;
Structure prediction by ZEFSAII (Michael W. Deem and Ramdas Pophale) SiO2 
 PCOD9006857
Probable space group: P -1
;
_chemical_formula_sum "Si O2"
_cell_formula_units_Z 16
_cell_length_a 15.818276
_cell_length_b 8.662307
_cell_length_c 9.273963
_cell_angle_alpha 130.117324
_cell_angle_beta 49.437335
_cell_angle_gamma 134.310180
_cell_volume 647.176229
_symmetry_space_group_name_H-M "P -1"
_symmetry_group_IT_number 2
_symmetry_cell_setting 'triclinic'
loop_
_space_group_symop_operation_xyz
x,y,z
-x,-y,-z
loop_
_atom_site_type_symbol
_atom_site_label
_atom_site_fract_x
_atom_site_fract_y
_atom_site_fract_z
Si Si1 0.626427 0.076600 0.497846
Si Si2 0.790585 0.264259 0.156426
Si Si3 0.574193 0.599696 0.227348
Si Si4 0.625688 0.213827 0.048465
Si Si5 0.039356 0.227165 0.825832
Si Si6 0.103932 0.489119 0.192273
Si Si7 0.667562 0.550272 0.791327
Si Si8 0.053611 0.273163 0.435256
O O1 0.743931 0.188462 0.324054
O O2 0.638096 0.288994 0.705742
O O3 0.500000 0.000000 0.500000
O O4 0.610474 0.832296 0.415936
O O5 0.668106 0.164300 0.127026
O O6 0.858780 0.537930 0.219670
O O7 0.897497 0.196235 0.952497
O O8 0.597795 0.427931 0.196863
O O9 0.434195 0.479447 0.236627
O O10 0.655334 0.658026 0.021359
O O11 0.755238 0.304714 0.867506
O O12 0.500000 0.000000 0.000000
O O13 0.075422 0.286860 0.989282
O O14 0.037258 0.998860 0.635649
O O15 0.079068 0.381193 0.311730
O O16 0.011210 0.597541 0.334294
O O17 0.807111 0.681112 0.650185
#
# Coordination Sequence:
#
# PCOD9006857 Si02
#       8
#     2   2   2   2   2   2   2   2
#     4  10  22  41  66  92 129 167 222 269 306 390
#     4  10  23  43  65  97 132 174 216 265 333 385
#     4  10  22  42  66  97 128 180 216 257 335 390
#     4  11  25  43  67  97 140 171 212 276 330 390
#     4  10  22  43  66  90 134 174 213 267 325 390
#     4  10  23  43  62 102 127 171 221 267 326 385
#     4  10  21  38  70  99 126 164 230 267 313 382
#     4  11  21  39  70  98 128 168 221 274 323 383
#
# _framework density 24.722785999999999
#
# number of rings (size 3 to 8) (size 9 to 14) (size 15 to 20)
#    0.000    1.750    1.250    1.875    7.000    0.000 
#   13.500    8.750    0.000    0.000    0.000    0.000 
#    0.000    0.000    0.000    0.000    0.000    0.000 
#
# Total GULP energy -89531.040220 kJ/mol
# GULP energy per Si atom -5595.690014 kJ/mol
# Density = 2.466652 g / cm^3
# Si number density = 24.722786 Si / 1000 Ang^3
#
#
#
# Elastic Constant Matrix: (Units=GPa)
#
#
# Indices 1 2 3 4 5 6 
#
# 1 84.7398 -1.2970 1.5222 -21.4522 -6.4221 19.2535
# 2 -1.2970 84.1826 10.6742 2.7453 -15.5171 22.8212
# 3 1.5222 10.6742 44.5726 7.2615 -8.5593 9.8094
# 4 -21.4522 2.7453 7.2615 32.8515 -3.2055 5.4795
# 5 -6.4221 -15.5171 -8.5593 -3.2055 29.5500 -6.4770
# 6 19.2535 22.8212 9.8094 5.4795 -6.4770 36.1940
#
#
#
# Elastic Compliance Matrix: (Units=1/GPa)
#
#
# Indices 1 2 3 4 5 6 
#
# 1 0.019489 0.004754 -0.000065 0.015304 0.005141 -0.014744
# 2 0.004754 0.016543 -0.000802 0.004638 0.007332 -0.012133
# 3 -0.000065 -0.000802 0.025408 -0.004274 0.005424 -0.004728
# 4 0.015304 0.004638 -0.004274 0.044159 0.005909 -0.015535
# 5 0.005141 0.007332 0.005424 0.005909 0.040477 -0.002479
# 6 -0.014744 -0.012133 -0.004728 -0.015535 -0.002479 0.046311
#
#
# Mechanical properties :
#
#
# Convention : Reuss Voigt Hill
#
# Bulk Modulus (GPa) = 14.44795 26.14375 20.29585
# Shear Modulus (GPa) = 24.07504 33.22546 28.65025
#
# Velocity S-wave (km/s) = 3.12396 3.66993 3.40790
# Velocity P-wave (km/s) = 4.34383 5.34374 4.86952
#
# Compressibility (1/GPa) = 0.06921398
#
# Stress axis : x y z
#
# Youngs Moduli (GPa) = 51.31204 60.44821 39.35763
#
# Poissons Ratio (x) = -0.28738 0.00257
# Poissons Ratio (y) = -0.24394 0.03155
# Poissons Ratio (z) = 0.00335 0.04846
#
# Static dielectric constant tensor:
#      x y z
#    x 1.992660 0.012710 0.025970 
#    y 0.012710 1.943120 0.002880 
#    z 0.025970 0.002880 2.005550 
# 
# From -- ./inp_files/462557.got.cif
#   From: 2010.05.17/outbox.cif.g08.bks.cpg/sg2_232_cif.got.tgz:462557.got - 2010.06.03 11:33:40.
