data_PCOD9006478
_publ_section_title
;
Structure prediction by ZEFSAII (Michael W. Deem and Ramdas Pophale) SiO2 
 PCOD9006478
Probable space group: P -1
;
_chemical_formula_sum "Si O2"
_cell_formula_units_Z 16
_cell_length_a 11.462379
_cell_length_b 14.810108
_cell_length_c 14.450428
_cell_angle_alpha 41.250801
_cell_angle_beta 149.757638
_cell_angle_gamma 137.241753
_cell_volume 787.695667
_symmetry_space_group_name_H-M "P -1"
_symmetry_group_IT_number 2
_symmetry_cell_setting 'triclinic'
loop_
_space_group_symop_operation_xyz
x,y,z
-x,-y,-z
loop_
_atom_site_type_symbol
_atom_site_label
_atom_site_fract_x
_atom_site_fract_y
_atom_site_fract_z
Si Si1 0.198241 0.324911 0.929813
Si Si2 0.713897 0.477809 0.818437
Si Si3 0.243163 0.195587 0.427294
Si Si4 0.560158 0.802857 0.248613
Si Si5 0.500949 0.491186 0.163430
Si Si6 0.841777 0.037702 0.134971
Si Si7 0.161764 0.027581 0.182217
Si Si8 0.671112 0.227057 0.568871
O O1 0.312390 0.398310 0.856892
O O2 0.914865 0.281645 0.752401
O O3 0.278379 0.429508 0.989948
O O4 0.299006 0.190166 0.130941
O O5 0.690970 0.634461 0.661911
O O6 0.571914 0.358293 0.743177
O O7 0.593734 0.441695 0.864601
O O8 0.000000 0.500000 0.000000
O O9 0.248084 0.166624 0.561066
O O10 0.456581 0.158154 0.544537
O O11 0.005548 0.122249 0.265094
O O12 0.693060 0.885445 0.187024
O O13 0.352541 0.874540 0.084407
O O14 0.608762 0.360848 0.371903
O O15 0.004732 0.028530 0.165542
O O16 0.290226 0.900128 0.371269
O O17 0.000000 0.000000 0.000000
#
# Coordination Sequence:
#
# PCOD9006478 Si02
#       8
#     2   2   2   2   2   2   2   2
#     4  10  21  40  62  91 126 165 207 255 314 379
#     4  11  23  41  67  92 127 164 214 260 316 375
#     4  11  23  43  65  92 125 170 215 259 317 381
#     4  11  24  42  66  92 127 171 209 267 314 370
#     4  10  23  40  62  91 129 162 206 262 313 375
#     4  11  24  43  65  92 132 166 212 264 316 375
#     4  10  21  38  66  92 124 163 211 255 315 384
#     4  10  22  38  65  88 127 163 207 259 319 372
#
# _framework density 20.312414
#
# number of rings (size 3 to 8) (size 9 to 14) (size 15 to 20)
#    0.000    1.500    1.250    4.125    5.250    2.000 
#    0.000    1.250    0.000    0.000    0.000    0.000 
#    0.000    0.000    0.000    0.000    0.000    0.000 
#
# Total GULP energy -89284.673522 kJ/mol
# GULP energy per Si atom -5580.292095 kJ/mol
# Density = 2.026618 g / cm^3
# Si number density = 20.312414 Si / 1000 Ang^3
#
#
#
# Elastic Constant Matrix: (Units=GPa)
#
#
# Indices 1 2 3 4 5 6 
#
# 1 74.2287 8.0717 21.9046 -30.2084 -22.6662 -17.4580
# 2 8.0717 64.3769 1.9048 -7.1141 -2.3590 -3.1391
# 3 21.9046 1.9048 52.8304 -3.7589 -8.8067 -3.3022
# 4 -30.2084 -7.1141 -3.7589 28.5553 -6.8406 -4.2621
# 5 -22.6662 -2.3590 -8.8067 -6.8406 2.0597 -0.0878
# 6 -17.4580 -3.1391 -3.3022 -4.2621 -0.0878 19.0840
#
#
#
# Elastic Compliance Matrix: (Units=1/GPa)
#
#
# Indices 1 2 3 4 5 6 
#
# 1 0.002161 -0.002186 -0.007037 -0.007447 -0.033604 -0.001418
# 2 -0.002186 0.015822 -0.000125 0.000903 -0.003440 0.000767
# 3 -0.007037 -0.000125 0.022373 -0.003611 0.005936 -0.003366
# 4 -0.007447 0.000903 -0.003611 0.015488 -0.045088 -0.004037
# 5 -0.033604 -0.003440 0.005936 -0.045088 -0.014318 -0.040415
# 6 -0.001418 0.000767 -0.003366 -0.004037 -0.040415 0.049559
#
#
# Mechanical properties :
#
#
# Convention : Reuss Voigt Hill
#
# Bulk Modulus (GPa) = 46.17069 28.35535 37.26302
# Shear Modulus (GPa) = 42.73410 20.57679 31.65545
#
# Velocity S-wave (km/s) = 4.59174 3.18624 3.95198
# Velocity P-wave (km/s) = 7.13385 5.24653 6.26170
#
# Compressibility (1/GPa) = 0.02165876
#
# Stress axis : x y z
#
# Youngs Moduli (GPa) = 462.72861 63.20127 44.69666
#
# Poissons Ratio (x) = 0.13817 0.31455
# Poissons Ratio (y) = 1.01161 0.00560
# Poissons Ratio (z) = 3.25641 0.00792
#
# Static dielectric constant tensor:
#      x y z
#    x 1.747400 -0.044790 -0.023740 
#    y -0.044790 1.802590 0.009030 
#    z -0.023740 0.009030 1.763800 
# 
# From -- ./inp_files/521513.got.cif
#   From: 2010.05.17/outbox.cif.g08.bks.cpg/sg2_261_cif.got.tgz:521513.got - 2010.06.03 11:33:40.
