data_PCOD9006030
_publ_section_title
;
Structure prediction by ZEFSAII (Michael W. Deem and Ramdas Pophale) SiO2 
 PCOD9006030
Probable space group: P -1
;
_chemical_formula_sum "Si O2"
_cell_formula_units_Z 16
_cell_length_a 14.463700
_cell_length_b 7.389115
_cell_length_c 8.757154
_cell_angle_alpha 91.194448
_cell_angle_beta 120.613825
_cell_angle_gamma 64.425488
_cell_volume 702.273305
_symmetry_space_group_name_H-M "P -1"
_symmetry_group_IT_number 2
_symmetry_cell_setting 'triclinic'
loop_
_space_group_symop_operation_xyz
x,y,z
-x,-y,-z
loop_
_atom_site_type_symbol
_atom_site_label
_atom_site_fract_x
_atom_site_fract_y
_atom_site_fract_z
Si Si1 0.542466 0.809278 0.915607
Si Si2 0.287385 0.861523 0.625477
Si Si3 0.174507 0.005271 0.227192
Si Si4 0.976368 0.204752 0.844665
Si Si5 0.633785 0.605093 0.282659
Si Si6 0.887623 0.479245 0.470990
Si Si7 0.886706 0.121902 0.291463
Si Si8 0.420678 0.969863 0.299513
O O1 0.595427 0.617513 0.072644
O O2 0.419764 0.840499 0.733009
O O3 0.500000 0.000000 0.000000
O O4 0.622639 0.838769 0.853430
O O5 0.194415 0.016892 0.425020
O O6 0.312517 0.627063 0.612671
O O7 0.223610 0.911723 0.738368
O O8 0.303884 0.954724 0.260824
O O9 0.135059 0.825752 0.186712
O O10 0.062828 0.203786 0.054094
O O11 0.932620 0.367398 0.672285
O O12 0.067328 0.985375 0.832157
O O13 0.746317 0.657600 0.382290
O O14 0.517613 0.764428 0.285942
O O15 0.862491 0.350021 0.313560
O O16 0.000000 0.500000 0.500000
O O17 0.000000 0.000000 0.500000
O O18 0.500000 0.000000 0.500000
#
# Coordination Sequence:
#
# PCOD9006030 Si02
#       8
#     2   2   2   2   2   2   2   2
#     4  10  23  39  61  90 119 160 203 255 306 363
#     4  11  20  41  62  91 123 157 207 258 308 362
#     4  11  22  39  63  87 127 162 208 245 305 377
#     4  10  22  40  63  89 120 165 212 246 298 376
#     4  10  23  41  61  92 122 159 207 255 310 360
#     4  10  21  38  64  93 120 153 203 265 310 343
#     4   9  18  35  61  89 109 159 209 242 296 354
#     4  11  24  41  61  91 123 168 202 249 317 369
#
# _framework density 22.783152000000001
#
# number of rings (size 3 to 8) (size 9 to 14) (size 15 to 20)
#    0.000    1.750    5.000    0.375    5.250    4.500 
#    0.000    0.000    0.000    2.250    0.000    0.000 
#    0.000    0.000    0.000    0.000    0.000    0.000 
#
# Total GULP energy -89192.134350 kJ/mol
# GULP energy per Si atom -5574.508397 kJ/mol
# Density = 2.273130 g / cm^3
# Si number density = 22.783152 Si / 1000 Ang^3
#
#
#
# Elastic Constant Matrix: (Units=GPa)
#
#
# Indices 1 2 3 4 5 6 
#
# 1 194.6513 7.9736 36.7848 -3.7409 13.3811 15.8615
# 2 7.9736 16.9525 6.8081 -1.7057 -0.2629 -2.3261
# 3 36.7848 6.8081 128.3079 -14.0439 -7.3379 12.1305
# 4 -3.7409 -1.7057 -14.0439 20.1851 1.7915 1.8327
# 5 13.3811 -0.2629 -7.3379 1.7915 44.0309 -2.9734
# 6 15.8615 -2.3261 12.1305 1.8327 -2.9734 19.9756
#
#
#
# Elastic Compliance Matrix: (Units=1/GPa)
#
#
# Indices 1 2 3 4 5 6 
#
# 1 0.006060 -0.003012 -0.001178 0.000706 -0.002413 -0.004871
# 2 -0.003012 0.063570 -0.003425 0.001211 0.001484 0.011984
# 3 -0.001178 -0.003425 0.009654 0.006616 0.001289 -0.005741
# 4 0.000706 0.001211 0.006616 0.055449 -0.002024 -0.009825
# 5 -0.002413 0.001484 0.001289 -0.002024 0.024094 0.005078
# 6 -0.004871 0.011984 -0.005741 -0.009825 0.005078 0.060468
#
#
# Mechanical properties :
#
#
# Convention : Reuss Voigt Hill
#
# Bulk Modulus (GPa) = 15.61195 49.22717 32.41956
# Shear Modulus (GPa) = 19.54075 36.06133 27.80104
#
# Velocity S-wave (km/s) = 2.93180 3.98277 3.49699
# Velocity P-wave (km/s) = 4.28111 6.54245 5.52863
#
# Compressibility (1/GPa) = 0.06405348
#
# Stress axis : x y z
#
# Youngs Moduli (GPa) = 165.02323 15.73078 103.58637
#
# Poissons Ratio (x) = 0.04738 0.12200
# Poissons Ratio (y) = 0.49706 0.35479
# Poissons Ratio (z) = 0.19435 0.05388
#
# Static dielectric constant tensor:
#      x y z
#    x 1.888250 0.011590 0.002800 
#    y 0.011590 1.975680 -0.014270 
#    z 0.002800 -0.014270 1.915200 
# 
# From -- ./inp_files/295651.got.cif
#   From: 2010.05.17/outbox.cif.g08.bks.cpg/sg2_148_cif.got.tgz:295651.got - 2010.06.03 11:33:40.
