data_PCOD9006688
_publ_section_title
;
Structure prediction by ZEFSAII (Michael W. Deem and Ramdas Pophale) SiO2 
 PCOD9006688
Probable space group: P -1
;
_chemical_formula_sum "Si O2"
_cell_formula_units_Z 16
_cell_length_a 17.514582
_cell_length_b 5.915427
_cell_length_c 7.952680
_cell_angle_alpha 59.376119
_cell_angle_beta 92.347493
_cell_angle_gamma 85.674702
_cell_volume 703.980083
_symmetry_space_group_name_H-M "P -1"
_symmetry_group_IT_number 2
_symmetry_cell_setting 'triclinic'
loop_
_space_group_symop_operation_xyz
x,y,z
-x,-y,-z
loop_
_atom_site_type_symbol
_atom_site_label
_atom_site_fract_x
_atom_site_fract_y
_atom_site_fract_z
Si Si1 0.233189 0.337387 0.472289
Si Si2 0.799405 0.572805 0.198038
Si Si3 0.605746 0.134314 0.877223
Si Si4 0.236163 0.894690 0.180280
Si Si5 0.891934 0.886232 0.644534
Si Si6 0.678357 0.200660 0.227351
Si Si7 0.459578 0.419477 0.856289
Si Si8 0.967620 0.404540 0.355109
O O1 0.223951 0.484500 0.592402
O O2 0.228433 0.588592 0.251627
O O3 0.158270 0.194521 0.484959
O O4 0.299897 0.095827 0.586426
O O5 0.752487 0.368799 0.169620
O O6 0.891868 0.558160 0.206038
O O7 0.769746 0.877755 0.047087
O O8 0.674104 0.124320 0.752099
O O9 0.530112 0.340809 0.765031
O O10 0.643422 0.199359 0.036283
O O11 0.577797 0.848032 0.005480
O O12 0.170586 0.026944 0.250918
O O13 0.961973 0.652238 0.748010
O O14 0.933261 0.138050 0.506934
O O15 0.610486 0.359426 0.270930
O O16 0.500000 0.500000 0.000000
O O17 0.000000 0.500000 0.500000
#
# Coordination Sequence:
#
# PCOD9006688 Si02
#       8
#     2   2   2   2   2   2   2   2
#     4  12  23  43  64  99 136 176 219 283 329 398
#     4  12  24  43  70  96 131 181 222 273 340 396
#     4  10  21  38  67  99 139 170 222 277 329 395
#     4  12  25  40  66 106 131 172 225 275 334 398
#     4  11  24  41  68  94 135 175 220 277 338 396
#     4  11  20  40  68  97 130 181 226 267 334 397
#     4   9  19  37  64 100 133 179 218 269 332 396
#     4  11  22  45  69  93 133 180 221 276 337 396
#
# _framework density 22.727916
#
# number of rings (size 3 to 8) (size 9 to 14) (size 15 to 20)
#    0.000    1.000    6.250    0.000    1.750    0.500 
#    0.000    3.125    0.000   12.750    0.000    0.000 
#    0.000    0.000    0.000    0.000    0.000    0.000 
#
# Total GULP energy -89142.993158 kJ/mol
# GULP energy per Si atom -5571.437072 kJ/mol
# Density = 2.267619 g / cm^3
# Si number density = 22.727916 Si / 1000 Ang^3
#
#
#
# Elastic Constant Matrix: (Units=GPa)
#
#
# Indices 1 2 3 4 5 6 
#
# 1 186.3187 62.2909 26.8074 -2.8528 2.1576 -40.5896
# 2 62.2909 102.3613 30.6602 -15.5866 12.5012 7.3270
# 3 26.8074 30.6602 41.8381 -12.7734 11.7173 -2.7256
# 4 -2.8528 -15.5866 -12.7734 22.0318 -7.0690 12.4819
# 5 2.1576 12.5012 11.7173 -7.0690 28.0864 -3.2784
# 6 -40.5896 7.3270 -2.7256 12.4819 -3.2784 77.1217
#
#
#
# Elastic Compliance Matrix: (Units=1/GPa)
#
#
# Indices 1 2 3 4 5 6 
#
# 1 0.009675 -0.006860 -0.004276 -0.009337 0.002586 0.007214
# 2 -0.006860 0.018219 -0.004679 0.012561 -0.003366 -0.007683
# 3 -0.004276 -0.004679 0.037671 0.017000 -0.009450 -0.003628
# 4 -0.009337 0.012561 0.017000 0.074244 0.004698 -0.017323
# 5 0.002586 -0.003366 -0.009450 0.004698 0.042307 0.002385
# 6 0.007214 -0.007683 -0.003628 -0.017323 0.002385 0.020270
#
#
# Mechanical properties :
#
#
# Convention : Reuss Voigt Hill
#
# Bulk Modulus (GPa) = 29.46937 63.33723 46.40330
# Shear Modulus (GPa) = 20.38083 39.49863 29.93973
#
# Velocity S-wave (km/s) = 2.99780 4.17332 3.63342
# Velocity P-wave (km/s) = 4.99767 7.15194 6.16956
#
# Compressibility (1/GPa) = 0.03393354
#
# Stress axis : x y z
#
# Youngs Moduli (GPa) = 103.36346 54.88685 26.54566
#
# Poissons Ratio (x) = 0.37655 0.11352
# Poissons Ratio (y) = 0.70912 0.12420
# Poissons Ratio (z) = 0.44203 0.25680
#
# Static dielectric constant tensor:
#      x y z
#    x 1.933670 -0.062330 0.027380 
#    y -0.062330 1.880800 0.013220 
#    z 0.027380 0.013220 1.879130 
# 
# From -- ./inp_files/322214.got.cif
#   From: 2010.05.17/outbox.cif.g08.bks.cpg/sg2_162_cif.got.tgz:322214.got - 2010.06.03 11:33:40.
