data_PCOD9006596
_publ_section_title
;
Structure prediction by ZEFSAII (Michael W. Deem and Ramdas Pophale) SiO2 
 PCOD9006596
Probable space group: P -1
;
_chemical_formula_sum "Si O2"
_cell_formula_units_Z 16
_cell_length_a 14.297590
_cell_length_b 11.698613
_cell_length_c 8.034623
_cell_angle_alpha 59.203604
_cell_angle_beta 82.816716
_cell_angle_gamma 38.360213
_cell_volume 612.583988
_symmetry_space_group_name_H-M "P -1"
_symmetry_group_IT_number 2
_symmetry_cell_setting 'triclinic'
loop_
_space_group_symop_operation_xyz
x,y,z
-x,-y,-z
loop_
_atom_site_type_symbol
_atom_site_label
_atom_site_fract_x
_atom_site_fract_y
_atom_site_fract_z
Si Si1 0.806042 0.288589 0.362985
Si Si2 0.451315 0.649917 0.678276
Si Si3 0.288168 0.164586 0.761620
Si Si4 0.082008 0.364072 0.317725
Si Si5 0.048507 0.660979 0.896129
Si Si6 0.641434 0.629409 0.458531
Si Si7 0.323445 0.851253 0.921258
Si Si8 0.987214 0.171962 0.891747
O O1 0.685395 0.304950 0.354643
O O2 0.752401 0.418281 0.451891
O O3 0.800921 0.418222 0.139360
O O4 0.000000 0.000000 0.500000
O O5 0.479086 0.736357 0.480167
O O6 0.414797 0.744290 0.801907
O O7 0.628491 0.348516 0.861852
O O8 0.116230 0.385167 0.751256
O O9 0.393264 0.177043 0.728928
O O10 0.214061 0.225049 0.545715
O O11 0.380430 0.913415 0.966078
O O12 0.073849 0.238166 0.306419
O O13 0.116522 0.442781 0.122928
O O14 0.948761 0.855460 0.921759
O O15 0.787204 0.459344 0.700895
O O16 0.110901 0.098107 0.785423
O O17 0.000000 0.000000 0.000000
#
# Coordination Sequence:
#
# PCOD9006596 Si02
#       8
#     2   2   2   2   2   2   2   2
#     4  12  27  44  72 101 135 179 236 289 346 416
#     4  11  27  46  66  99 143 181 232 290 349 417
#     4  11  21  42  70  99 139 185 230 286 345 409
#     4  10  21  38  67 104 141 171 228 293 336 402
#     4  11  22  38  66 106 138 173 229 291 339 397
#     4  12  24  45  69 103 143 183 230 288 343 410
#     4  11  24  43  70  99 138 183 234 282 349 410
#     4  12  21  40  71 102 134 186 230 274 341 411
#
# _framework density 26.118867000000002
#
# number of rings (size 3 to 8) (size 9 to 14) (size 15 to 20)
#    0.000    0.750    5.000    3.375    3.500    0.500 
#    0.000    0.625    0.000    0.000    0.000    0.000 
#    0.000    0.000    0.000    0.000    0.000    0.000 
#
# Total GULP energy -89623.266771 kJ/mol
# GULP energy per Si atom -5601.454173 kJ/mol
# Density = 2.605942 g / cm^3
# Si number density = 26.118867 Si / 1000 Ang^3
#
#
#
# Elastic Constant Matrix: (Units=GPa)
#
#
# Indices 1 2 3 4 5 6 
#
# 1 200.0901 76.5887 37.2702 5.6754 -44.1129 7.4991
# 2 76.5887 115.9821 18.2483 19.3236 -6.8963 23.6798
# 3 37.2702 18.2483 66.3657 18.9493 -21.7398 -2.0235
# 4 5.6754 19.3236 18.9493 32.1485 1.7655 -3.5189
# 5 -44.1129 -6.8963 -21.7398 1.7655 52.4563 1.7015
# 6 7.4991 23.6798 -2.0235 -3.5189 1.7015 64.8990
#
#
#
# Elastic Compliance Matrix: (Units=1/GPa)
#
#
# Indices 1 2 3 4 5 6 
#
# 1 0.008745 -0.005822 -0.002403 0.003190 0.005451 0.001069
# 2 -0.005822 0.014699 0.000873 -0.008760 -0.002143 -0.005082
# 3 -0.002403 0.000873 0.022797 -0.014011 0.008023 -0.000300
# 4 0.003190 -0.008760 -0.014011 0.044939 -0.005950 0.004984
# 5 0.005451 -0.002143 0.008023 -0.005950 0.026911 -0.000626
# 6 0.001069 -0.005082 -0.000300 0.004984 -0.000626 0.017417
#
#
# Mechanical properties :
#
#
# Convention : Reuss Voigt Hill
#
# Bulk Modulus (GPa) = 31.70956 71.85027 51.77991
# Shear Modulus (GPa) = 31.10880 46.58947 38.84914
#
# Velocity S-wave (km/s) = 3.45490 4.22803 3.86086
# Velocity P-wave (km/s) = 5.29924 7.16963 6.30419
#
# Compressibility (1/GPa) = 0.03153623
#
# Stress axis : x y z
#
# Youngs Moduli (GPa) = 114.34896 68.03019 43.86514
#
# Poissons Ratio (x) = 0.39610 0.10540
# Poissons Ratio (y) = 0.66579 -0.03827
# Poissons Ratio (z) = 0.27476 -0.05936
#
# Static dielectric constant tensor:
#      x y z
#    x 2.036760 0.007160 0.022680 
#    y 0.007160 2.035680 -0.061770 
#    z 0.022680 -0.061770 2.207250 
# 
# From -- ./inp_files/306746.got.cif
#   From: 2010.05.17/outbox.cif.g08.bks.cpg/sg2_154_cif.got.tgz:306746.got - 2010.06.03 11:33:40.
