data_PCOD9006511
_publ_section_title
;
Structure prediction by ZEFSAII (Michael W. Deem and Ramdas Pophale) SiO2 
 PCOD9006511
Probable space group: P -1
;
_chemical_formula_sum "Si O2"
_cell_formula_units_Z 14
_cell_length_a 7.613104
_cell_length_b 18.520972
_cell_length_c 7.060184
_cell_angle_alpha 122.053652
_cell_angle_beta 140.493870
_cell_angle_gamma 57.971826
_cell_volume 523.094285
_symmetry_space_group_name_H-M "P -1"
_symmetry_group_IT_number 2
_symmetry_cell_setting 'triclinic'
loop_
_space_group_symop_operation_xyz
x,y,z
-x,-y,-z
loop_
_atom_site_type_symbol
_atom_site_label
_atom_site_fract_x
_atom_site_fract_y
_atom_site_fract_z
Si Si1 0.371349 0.622846 0.267896
Si Si2 0.206922 0.281005 0.626686
Si Si3 0.896803 0.885209 0.558629
Si Si4 0.671689 0.124242 0.798902
Si Si5 0.788171 0.733234 0.839736
Si Si6 0.621684 0.084406 0.261549
Si Si7 0.805687 0.538786 0.207420
O O1 0.606149 0.659850 0.628946
O O2 0.519108 0.593516 0.145427
O O3 0.261290 0.534750 0.089098
O O4 0.102563 0.701143 0.130437
O O5 0.535116 0.228546 0.854856
O O6 0.171954 0.267209 0.354804
O O7 0.097879 0.383211 0.712297
O O8 0.053473 0.220093 0.537504
O O9 0.026348 0.904069 0.894806
O O10 0.440171 0.084508 0.665925
O O11 0.083694 0.917066 0.601759
O O12 0.667905 0.099408 0.543170
O O13 0.608073 0.828429 0.874871
O O14 0.500000 0.000000 0.000000
O O15 0.000000 0.500000 0.500000
#
# Coordination Sequence:
#
# PCOD9006511 Si02
#       7
#     2   2   2   2   2   2   2
#     4  10  19  32  53  91 130 171 214 272 324 398
#     4   8  19  34  59  91 134 172 216 271 330 395
#     4  10  23  44  68 100 137 182 224 281 347 409
#     4   9  23  43  67  98 139 180 222 279 347 403
#     4  10  21  37  58  86 133 172 216 270 345 388
#     4  11  26  46  74 103 133 182 237 287 346 415
#     4  10  17  28  57  99 128 166 233 263 318 411
#
# _framework density 26.763817
#
# number of rings (size 3 to 8) (size 9 to 14) (size 15 to 20)
#    0.857    1.429    2.857    0.000    6.000    3.429 
#    0.000    5.000    0.000    1.714    0.000    0.000 
#    0.000    0.000    0.000    0.000    0.000    0.000 
#
# Total GULP energy -78312.563218 kJ/mol
# GULP energy per Si atom -5593.754516 kJ/mol
# Density = 2.670290 g / cm^3
# Si number density = 26.763817 Si / 1000 Ang^3
#
#
#
# Elastic Constant Matrix: (Units=GPa)
#
#
# Indices 1 2 3 4 5 6 
#
# 1 78.0006 32.7330 36.6108 17.4854 -6.7896 6.6722
# 2 32.7330 132.2029 32.5799 43.1543 7.8295 -5.2330
# 3 36.6108 32.5799 72.8687 10.0814 16.7071 -1.3109
# 4 17.4854 43.1543 10.0814 54.6610 2.2750 13.5355
# 5 -6.7896 7.8295 16.7071 2.2750 43.9484 3.9566
# 6 6.6722 -5.2330 -1.3109 13.5355 3.9566 42.0294
#
#
#
# Elastic Compliance Matrix: (Units=1/GPa)
#
#
# Indices 1 2 3 4 5 6 
#
# 1 0.020417 -0.002362 -0.010869 -0.002013 0.008171 -0.003995
# 2 -0.002362 0.012184 -0.002489 -0.009591 -0.001548 0.005049
# 3 -0.010869 -0.002489 0.022518 0.001031 -0.010096 0.002736
# 4 -0.002013 -0.009591 0.001031 0.028819 0.000429 -0.010164
# 5 0.008171 -0.001548 -0.010096 0.000429 0.028524 -0.004628
# 6 -0.003995 0.005049 0.002736 -0.010164 -0.004628 0.028850
#
#
# Mechanical properties :
#
#
# Convention : Reuss Voigt Hill
#
# Bulk Modulus (GPa) = 42.22750 54.10216 48.16483
# Shear Modulus (GPa) = 27.67866 40.20435 33.94150
#
# Velocity S-wave (km/s) = 3.21936 3.88001 3.56502
# Velocity P-wave (km/s) = 5.44345 6.35069 5.91449
#
# Compressibility (1/GPa) = 0.02368125
#
# Stress axis : x y z
#
# Youngs Moduli (GPa) = 48.97853 82.07287 44.40895
#
# Poissons Ratio (x) = 0.19383 0.48267
# Poissons Ratio (y) = 0.11567 0.11051
# Poissons Ratio (z) = 0.53234 0.20424
#
# Static dielectric constant tensor:
#      x y z
#    x 2.105740 0.083620 0.026400 
#    y 0.083620 2.197490 0.092680 
#    z 0.026400 0.092680 2.181610 
# 
# From -- ./inp_files/216059.got.cif
#   From: 2010.05.17/outbox.cif.g08.bks.cpg/sg2_109_cif.got.tgz:216059.got - 2010.06.03 11:33:40.
