data_PCOD9006355
_publ_section_title
;
Structure prediction by ZEFSAII (Michael W. Deem and Ramdas Pophale) SiO2 
 PCOD9006355
Probable space group: P -1
;
_chemical_formula_sum "Si O2"
_cell_formula_units_Z 12
_cell_length_a 9.734943
_cell_length_b 9.872768
_cell_length_c 22.122168
_cell_angle_alpha 145.079043
_cell_angle_beta 148.453559
_cell_angle_gamma 30.958202
_cell_volume 539.939002
_symmetry_space_group_name_H-M "P -1"
_symmetry_group_IT_number 2
_symmetry_cell_setting 'triclinic'
loop_
_space_group_symop_operation_xyz
x,y,z
-x,-y,-z
loop_
_atom_site_type_symbol
_atom_site_label
_atom_site_fract_x
_atom_site_fract_y
_atom_site_fract_z
Si Si1 0.683873 0.952259 0.835930
Si Si2 0.557443 0.326802 0.275762
Si Si3 0.699246 0.463315 0.142097
Si Si4 0.286918 0.944274 0.442451
Si Si5 0.371553 0.326978 0.073012
Si Si6 0.257081 0.073392 0.614458
O O1 0.614456 0.830289 0.823881
O O2 0.031677 0.805214 0.889083
O O3 0.501324 0.284934 0.887418
O O4 0.516222 0.895590 0.696555
O O5 0.505218 0.378643 0.203494
O O6 0.921378 0.140546 0.361057
O O7 0.392828 0.623246 0.356115
O O8 0.491624 0.406378 0.087870
O O9 0.838534 0.611671 0.290144
O O10 0.353695 0.004063 0.556488
O O11 0.500000 0.000000 0.500000
O O12 0.000000 0.500000 0.000000
O O13 0.500000 0.000000 0.000000
O O14 0.000000 0.000000 0.500000
#
# Coordination Sequence:
#
# PCOD9006355 Si02
#       6
#     2   2   2   2   2   2
#     4  10  22  40  66  94 139 169 209 264 320 386
#     4  12  25  44  64  98 132 169 228 275 323 393
#     4  10  23  41  67  97 132 171 222 261 324 398
#     4  12  25  37  63 101 140 177 213 260 321 401
#     4  12  27  49  72  91 125 178 227 287 344 372
#     4  10  21  38  65  96 143 174 207 242 336 390
#
# _framework density 22.224733000000001
#
# number of rings (size 3 to 8) (size 9 to 14) (size 15 to 20)
#    1.000    0.000    1.667    5.500    4.667    1.333 
#    0.000    5.000    0.000    0.000    0.000    0.000 
#    0.000    0.000    0.000    0.000    0.000    0.000 
#
# Total GULP energy -67102.547312 kJ/mol
# GULP energy per Si atom -5591.878943 kJ/mol
# Density = 2.217415 g / cm^3
# Si number density = 22.224733 Si / 1000 Ang^3
#
#
#
# Elastic Constant Matrix: (Units=GPa)
#
#
# Indices 1 2 3 4 5 6 
#
# 1 106.6713 6.2378 -16.9790 -3.8915 24.8383 2.0134
# 2 6.2378 127.1288 11.0943 9.3735 13.1322 -21.9298
# 3 -16.9790 11.0943 66.8626 -0.4314 -3.8681 -7.9837
# 4 -3.8915 9.3735 -0.4314 48.7435 -0.1042 2.4691
# 5 24.8383 13.1322 -3.8681 -0.1042 47.6340 3.7224
# 6 2.0134 -21.9298 -7.9837 2.4691 3.7224 40.4377
#
#
#
# Elastic Compliance Matrix: (Units=1/GPa)
#
#
# Indices 1 2 3 4 5 6 
#
# 1 0.011118 -0.000215 0.002579 0.000925 -0.005550 0.000293
# 2 -0.000215 0.009346 -0.001164 -0.002097 -0.002974 0.005251
# 3 0.002579 -0.001164 0.016097 0.000452 0.000098 0.002382
# 4 0.000925 -0.002097 0.000452 0.021120 0.000368 -0.002417
# 5 -0.005550 -0.002974 0.000098 0.000368 0.025000 -0.003641
# 6 0.000293 0.005251 0.002382 -0.002417 -0.003641 0.028515
#
#
# Mechanical properties :
#
#
# Convention : Reuss Voigt Hill
#
# Bulk Modulus (GPa) = 25.66655 33.48543 29.57599
# Shear Modulus (GPa) = 41.05647 47.38369 44.22008
#
# Velocity S-wave (km/s) = 4.30272 4.62239 4.46542
# Velocity P-wave (km/s) = 6.02149 6.60213 6.31848
#
# Compressibility (1/GPa) = 0.03896122
#
# Stress axis : x y z
#
# Youngs Moduli (GPa) = 89.94345 107.00026 62.12318
#
# Poissons Ratio (x) = 0.02299 -0.16021
# Poissons Ratio (y) = 0.01933 0.07230
# Poissons Ratio (z) = -0.23196 0.12453
#
# Static dielectric constant tensor:
#      x y z
#    x 1.884510 0.029940 0.113760 
#    y 0.029940 1.788560 0.010480 
#    z 0.113760 0.010480 1.902400 
# 
# From -- ./inp_files/491386.got.cif
#   From: 2010.05.17/outbox.cif.g08.bks.cpg/sg2_246_cif.got.tgz:491386.got - 2010.06.03 11:33:40.
