data_PCOD9006627
_publ_section_title
;
Structure prediction by ZEFSAII (Michael W. Deem and Ramdas Pophale) SiO2 
 PCOD9006627
Probable space group: P -1
;
_chemical_formula_sum "Si O2"
_cell_formula_units_Z 12
_cell_length_a 5.018205
_cell_length_b 21.400394
_cell_length_c 15.813778
_cell_angle_alpha 155.778231
_cell_angle_beta 41.949883
_cell_angle_gamma 135.878202
_cell_volume 460.879265
_symmetry_space_group_name_H-M "P -1"
_symmetry_group_IT_number 2
_symmetry_cell_setting 'triclinic'
loop_
_space_group_symop_operation_xyz
x,y,z
-x,-y,-z
loop_
_atom_site_type_symbol
_atom_site_label
_atom_site_fract_x
_atom_site_fract_y
_atom_site_fract_z
Si Si1 0.407695 0.548752 0.216413
Si Si2 0.665373 0.466387 0.607716
Si Si3 0.271402 0.702799 0.266466
Si Si4 0.662611 0.139057 0.194438
Si Si5 0.929719 0.007022 0.713996
Si Si6 0.423645 0.201894 0.983258
O O1 0.138105 0.541466 0.354915
O O2 0.369196 0.667889 0.297329
O O3 0.838137 0.604812 0.227883
O O4 0.432378 0.382990 0.965533
O O5 0.467196 0.294273 0.418278
O O6 0.000000 0.500000 0.500000
O O7 0.447522 0.617715 0.843479
O O8 0.215921 0.876609 0.472584
O O9 0.487715 0.082723 0.257249
O O10 0.132241 0.183335 0.113024
O O11 0.500000 0.000000 0.000000
O O12 0.780444 0.101625 0.789030
O O13 0.146066 0.126954 0.879626
#
# Coordination Sequence:
#
# PCOD9006627 Si02
#       6
#     2   2   2   2   2   2
#     4  10  21  40  63  97 123 163 214 264 316 363
#     4  10  21  42  63  94 134 168 204 261 327 384
#     4  10  21  38  67  93 123 162 219 268 300 366
#     4   9  19  38  61  89 120 165 212 259 300 370
#     4  11  20  39  60  88 122 163 215 254 303 367
#     4  10  23  37  56  91 129 163 199 255 320 376
#
# _framework density 26.037185000000001
#
# number of rings (size 3 to 8) (size 9 to 14) (size 15 to 20)
#    0.000    2.000    1.667    1.500    0.000    1.333 
#    6.000    9.167    0.000    0.000    0.000    0.000 
#    0.000    0.000    0.000    0.000    0.000    0.000 
#
# Total GULP energy -67084.666330 kJ/mol
# GULP energy per Si atom -5590.388861 kJ/mol
# Density = 2.597792 g / cm^3
# Si number density = 26.037185 Si / 1000 Ang^3
#
#
#
# Elastic Constant Matrix: (Units=GPa)
#
#
# Indices 1 2 3 4 5 6 
#
# 1 109.1969 34.2408 32.3780 7.5558 -13.8900 -22.8291
# 2 34.2408 74.0630 45.4654 16.5921 4.4319 -16.8062
# 3 32.3780 45.4654 202.0258 34.9907 -19.6858 -15.6084
# 4 7.5558 16.5921 34.9907 56.4436 -16.6148 -3.0482
# 5 -13.8900 4.4319 -19.6858 -16.6148 39.5701 -0.2145
# 6 -22.8291 -16.8062 -15.6084 -3.0482 -0.2145 33.0332
#
#
#
# Elastic Compliance Matrix: (Units=1/GPa)
#
#
# Indices 1 2 3 4 5 6 
#
# 1 0.012750 -0.005143 -0.000170 0.001968 0.005828 0.006334
# 2 -0.005143 0.020712 -0.003298 -0.005456 -0.008030 0.004870
# 3 -0.000170 -0.003298 0.006431 -0.002171 0.002603 0.001060
# 4 0.001968 -0.005456 -0.002171 0.023341 0.010021 -0.000223
# 5 0.005828 -0.008030 0.002603 0.010021 0.033732 0.002316
# 6 0.006334 0.004870 0.001060 -0.000223 0.002316 0.037623
#
#
# Mechanical properties :
#
#
# Convention : Reuss Voigt Hill
#
# Bulk Modulus (GPa) = 44.10718 67.71712 55.91215
# Shear Modulus (GPa) = 31.37406 44.02280 37.69843
#
# Velocity S-wave (km/s) = 3.47504 4.11635 3.80922
# Velocity P-wave (km/s) = 5.75135 6.97544 6.39276
#
# Compressibility (1/GPa) = 0.02267205
#
# Stress axis : x y z
#
# Youngs Moduli (GPa) = 78.43097 48.28082 155.49993
#
# Poissons Ratio (x) = 0.24829 0.02638
# Poissons Ratio (y) = 0.40334 0.51288
# Poissons Ratio (z) = 0.01330 0.15924
#
# Static dielectric constant tensor:
#      x y z
#    x 2.015660 0.065710 -0.058270 
#    y 0.065710 2.194220 -0.073520 
#    z -0.058270 -0.073520 2.065910 
# 
# From -- ./inp_files/403059.got.cif
#   From: 2010.05.17/outbox.cif.g08.bks.cpg/sg2_202_cif.got.tgz:403059.got - 2010.06.03 11:33:40.
