data_PCOD9006805
_publ_section_title
;
Structure prediction by ZEFSAII (Michael W. Deem and Ramdas Pophale) SiO2 
 PCOD9006805
Probable space group: P -1
;
_chemical_formula_sum "Si O2"
_cell_formula_units_Z 14
_cell_length_a 9.315237
_cell_length_b 7.389769
_cell_length_c 8.267999
_cell_angle_alpha 114.595928
_cell_angle_beta 94.418129
_cell_angle_gamma 78.630736
_cell_volume 507.343689
_symmetry_space_group_name_H-M "P -1"
_symmetry_group_IT_number 2
_symmetry_cell_setting 'triclinic'
loop_
_space_group_symop_operation_xyz
x,y,z
-x,-y,-z
loop_
_atom_site_type_symbol
_atom_site_label
_atom_site_fract_x
_atom_site_fract_y
_atom_site_fract_z
Si Si1 0.268587 0.988624 0.689366
Si Si2 0.715605 0.444968 0.307546
Si Si3 0.384609 0.201565 0.032210
Si Si4 0.166132 0.418187 0.329057
Si Si5 0.512160 0.233549 0.740268
Si Si6 0.855151 0.143551 0.662005
Si Si7 0.044520 0.684384 0.969138
O O1 0.294962 0.762214 0.677565
O O2 0.145891 0.010231 0.547024
O O3 0.248190 0.138266 0.897403
O O4 0.416694 0.052135 0.656170
O O5 0.815341 0.564744 0.472707
O O6 0.563062 0.594438 0.324429
O O7 0.795315 0.392110 0.124188
O O8 0.468351 0.308278 0.946985
O O9 0.321405 0.318750 0.227073
O O10 0.500000 0.000000 0.000000
O O11 0.128331 0.644982 0.341287
O O12 0.053421 0.292438 0.193535
O O13 0.683688 0.170095 0.709807
O O14 0.941026 0.137847 0.836623
O O15 0.000000 0.500000 0.000000
#
# Coordination Sequence:
#
# PCOD9006805 Si02
#       7
#     2   2   2   2   2   2   2
#     4   9  24  41  61 104 137 166 221 276 326 395
#     4  11  23  42  74  96 130 179 217 271 338 388
#     4  10  24  41  65  95 143 162 217 279 322 384
#     4  10  23  42  66  97 132 180 223 269 326 392
#     4  10  23  38  69  99 136 166 221 265 342 375
#     4  10  21  38  69  96 134 178 218 270 332 390
#     4  10  22  42  70  96 129 175 231 267 320 399
#
# _framework density 27.594705000000001
#
# number of rings (size 3 to 8) (size 9 to 14) (size 15 to 20)
#    0.857    1.143    0.000    2.571    6.000    2.286 
#    0.000    1.429    3.143    0.000    0.000    0.000 
#    0.000    0.000    0.000    0.000    0.000    0.000 
#
# Total GULP energy -78328.375487 kJ/mol
# GULP energy per Si atom -5594.883963 kJ/mol
# Density = 2.753190 g / cm^3
# Si number density = 27.594705 Si / 1000 Ang^3
#
#
#
# Elastic Constant Matrix: (Units=GPa)
#
#
# Indices 1 2 3 4 5 6 
#
# 1 78.9156 19.1757 37.0593 1.4944 28.5766 16.7094
# 2 19.1757 148.7484 13.7189 -1.4502 10.7002 17.2228
# 3 37.0593 13.7189 200.5971 16.7665 9.6834 11.5310
# 4 1.4944 -1.4502 16.7665 21.0580 -0.5176 1.3632
# 5 28.5766 10.7002 9.6834 -0.5176 56.9989 12.5722
# 6 16.7094 17.2228 11.5310 1.3632 12.5722 27.6625
#
#
#
# Elastic Compliance Matrix: (Units=1/GPa)
#
#
# Indices 1 2 3 4 5 6 
#
# 1 0.017934 -0.000851 -0.002651 0.000998 -0.007038 -0.006048
# 2 -0.000851 0.007325 -0.000194 0.000978 -0.000024 -0.004003
# 3 -0.002651 -0.000194 0.005878 -0.004446 0.000488 -0.000731
# 4 0.000998 0.000978 -0.004446 0.051204 0.001057 -0.002362
# 5 -0.007038 -0.000024 0.000488 0.001057 0.022361 -0.006152
# 6 -0.006048 -0.004003 -0.000731 -0.002362 -0.006152 0.045513
#
#
# Mechanical properties :
#
#
# Convention : Reuss Voigt Hill
#
# Bulk Modulus (GPa) = 42.11486 63.12987 52.62236
# Shear Modulus (GPa) = 30.20751 45.03103 37.61927
#
# Velocity S-wave (km/s) = 3.31219 4.04403 3.69627
# Velocity P-wave (km/s) = 5.47015 6.68825 6.10963
#
# Compressibility (1/GPa) = 0.02374459
#
# Stress axis : x y z
#
# Youngs Moduli (GPa) = 55.76068 136.51657 170.11895
#
# Poissons Ratio (x) = 0.11619 0.45098
# Poissons Ratio (y) = 0.04746 0.03304
# Poissons Ratio (z) = 0.14782 0.02652
#
# Static dielectric constant tensor:
#      x y z
#    x 2.204190 -0.014820 0.050960 
#    y -0.014820 2.066900 0.036140 
#    z 0.050960 0.036140 2.256180 
# 
# From -- ./inp_files/152083.got.cif
#   From: 2010.05.17/outbox.cif.g08.bks.cpg/sg2_77_cif.got.tgz:152083.got - 2010.06.03 11:33:40.
