data_PCOD9006163
_publ_section_title
;
Structure prediction by ZEFSAII (Michael W. Deem and Ramdas Pophale) SiO2 
 PCOD9006163
Probable space group: P -1
;
_chemical_formula_sum "Si O2"
_cell_formula_units_Z 16
_cell_length_a 21.566897
_cell_length_b 12.738119
_cell_length_c 6.238253
_cell_angle_alpha 92.731711
_cell_angle_beta 88.511242
_cell_angle_gamma 23.176300
_cell_volume 663.010063
_symmetry_space_group_name_H-M "P -1"
_symmetry_group_IT_number 2
_symmetry_cell_setting 'triclinic'
loop_
_space_group_symop_operation_xyz
x,y,z
-x,-y,-z
loop_
_atom_site_type_symbol
_atom_site_label
_atom_site_fract_x
_atom_site_fract_y
_atom_site_fract_z
Si Si1 0.784064 0.416352 0.528610
Si Si2 0.544659 0.144602 0.352596
Si Si3 0.969755 0.839773 0.788934
Si Si4 0.053532 0.021661 0.776759
Si Si5 0.121521 0.409376 0.981675
Si Si6 0.190935 0.005655 0.551813
Si Si7 0.577128 0.290361 0.118841
Si Si8 0.253408 0.104463 0.307835
O O1 0.596173 0.719702 0.611331
O O2 0.878871 0.356803 0.381762
O O3 0.880196 0.260533 0.727252
O O4 0.821510 0.250762 0.376488
O O5 0.480738 0.345382 0.244040
O O6 0.595885 0.096311 0.583294
O O7 0.711975 0.856119 0.192530
O O8 0.028548 0.647049 0.895202
O O9 0.819120 0.042405 0.676396
O O10 0.930550 0.993049 0.973575
O O11 0.080927 0.098082 0.701756
O O12 0.000000 0.500000 0.000000
O O13 0.170822 0.332485 0.221880
O O14 0.334858 0.796916 0.688634
O O15 0.157787 0.176082 0.485157
O O16 0.500000 0.500000 0.000000
O O17 0.691204 0.052057 0.914977
#
# Coordination Sequence:
#
# PCOD9006163 Si02
#       8
#     2   2   2   2   2   2   2   2
#     4  10  24  46  66 101 138 180 236 284 340 411
#     4  10  25  44  65 100 141 180 228 283 343 412
#     4  11  23  43  72  97 135 186 232 287 337 409
#     4  10  23  42  70 101 131 183 234 287 339 408
#     4  11  24  44  68 103 136 182 230 288 343 401
#     4  10  21  38  65 100 132 173 230 274 347 408
#     4  10  23  39  62  99 139 177 219 283 351 414
#     4  10  22  40  61  99 135 177 224 280 347 402
#
# _framework density 24.132363999999999
#
# number of rings (size 3 to 8) (size 9 to 14) (size 15 to 20)
#    0.000    1.750    1.250    1.125    7.000    6.000 
#    2.250    1.250    0.000    0.000    0.000    0.000 
#    0.000    0.000    0.000    0.000    0.000    0.000 
#
# Total GULP energy -89218.547281 kJ/mol
# GULP energy per Si atom -5576.159205 kJ/mol
# Density = 2.407744 g / cm^3
# Si number density = 24.132364 Si / 1000 Ang^3
#
#
#
# Elastic Constant Matrix: (Units=GPa)
#
#
# Indices 1 2 3 4 5 6 
#
# 1 75.7401 5.9720 34.4857 -5.4808 -26.8049 -3.1326
# 2 5.9720 47.9654 24.6602 -0.5857 -7.5101 5.4801
# 3 34.4857 24.6602 126.9670 -31.8240 -6.6945 -3.9249
# 4 -5.4808 -0.5857 -31.8240 40.0413 7.7919 -19.3310
# 5 -26.8049 -7.5101 -6.6945 7.7919 39.7736 -7.7955
# 6 -3.1326 5.4801 -3.9249 -19.3310 -7.7955 42.3810
#
#
#
# Elastic Compliance Matrix: (Units=1/GPa)
#
#
# Indices 1 2 3 4 5 6 
#
# 1 0.020860 0.002890 -0.006582 -0.004631 0.014626 0.001137
# 2 0.002890 0.026706 -0.008703 -0.011201 0.006147 -0.008024
# 3 -0.006582 -0.008703 0.015471 0.016410 -0.004997 0.008638
# 4 -0.004631 -0.011201 0.016410 0.050386 -0.007600 0.024210
# 5 0.014626 0.006147 -0.004997 -0.007600 0.037444 0.003245
# 6 0.001137 -0.008024 0.008638 0.024210 0.003245 0.037157
#
#
# Mechanical properties :
#
#
# Convention : Reuss Voigt Hill
#
# Bulk Modulus (GPa) = 26.14578 42.32316 34.23447
# Shear Modulus (GPa) = 22.16691 36.80948 29.48820
#
# Velocity S-wave (km/s) = 3.03406 3.90977 3.49941
# Velocity P-wave (km/s) = 4.80956 6.16098 5.52673
#
# Compressibility (1/GPa) = 0.03824710
#
# Stress axis : x y z
#
# Youngs Moduli (GPa) = 47.93838 37.44537 64.63798
#
# Poissons Ratio (x) = -0.10822 0.42542
# Poissons Ratio (y) = -0.13855 0.56257
# Poissons Ratio (z) = 0.31551 0.32590
#
# Static dielectric constant tensor:
#      x y z
#    x 1.945810 0.058440 0.008470 
#    y 0.058440 1.991250 0.040400 
#    z 0.008470 0.040400 2.003470 
# 
# From -- ./inp_files/124255.got.cif
#   From: 2010.05.17/outbox.cif.g08.bks.cpg/sg2_63_cif.got.tgz:124255.got - 2010.06.03 11:33:40.
