data_PCOD9006501
_publ_section_title
;
Structure prediction by ZEFSAII (Michael W. Deem and Ramdas Pophale) SiO2 
 PCOD9006501
Probable space group: P -1
;
_chemical_formula_sum "Si O2"
_cell_formula_units_Z 11
_cell_length_a 12.087695
_cell_length_b 6.929916
_cell_length_c 7.118267
_cell_angle_alpha 85.323929
_cell_angle_beta 56.214412
_cell_angle_gamma 111.562050
_cell_volume 428.213610
_symmetry_space_group_name_H-M "P -1"
_symmetry_group_IT_number 2
_symmetry_cell_setting 'triclinic'
loop_
_space_group_symop_operation_xyz
x,y,z
-x,-y,-z
loop_
_atom_site_type_symbol
_atom_site_label
_atom_site_fract_x
_atom_site_fract_y
_atom_site_fract_z
Si Si1 0.500000 0.000000 0.500000
Si Si2 0.251662 0.138790 0.174613
Si Si3 0.435673 0.765378 0.193756
Si Si4 0.843157 0.366765 0.770955
Si Si5 0.901159 0.699048 0.982356
Si Si6 0.766774 0.899592 0.359055
O O1 0.413755 0.828749 0.417148
O O2 0.616975 0.897462 0.424072
O O3 0.138120 0.198609 0.171225
O O4 0.242621 0.132144 0.406730
O O5 0.204872 0.891147 0.165248
O O6 0.429585 0.294130 0.936629
O O7 0.284668 0.610320 0.230449
O O8 0.500000 0.000000 0.000000
O O9 0.857312 0.458894 0.960686
O O10 0.000000 0.500000 0.500000
O O11 0.800135 0.718148 0.241271
O O12 0.079108 0.863109 0.844314
#
# Coordination Sequence:
#
# PCOD9006501 Si02
#       6
#     1   2   2   2   2   2
#     4  12  18  40  66  94 130 178 210 266 328 394
#     4  11  22  44  69  93 132 179 212 272 334 384
#     4  10  21  38  66  93 128 174 218 256 331 387
#     4  11  22  41  68 100 128 174 225 265 327 394
#     4  11  24  44  66 100 133 170 222 277 319 391
#     4  11  23  39  68  98 132 175 219 267 333 388
#
# _framework density 25.688116999999998
#
# number of rings (size 3 to 8) (size 9 to 14) (size 15 to 20)
#    0.000    1.091    7.273    0.545    0.000    0.727 
#    0.000   10.000    0.000    0.000    0.000    0.000 
#    0.000    0.000    0.000    0.000    0.000    0.000 
#
# Total GULP energy -61412.537856 kJ/mol
# GULP energy per Si atom -5582.957987 kJ/mol
# Density = 2.562965 g / cm^3
# Si number density = 25.688117 Si / 1000 Ang^3
#
#
#
# Elastic Constant Matrix: (Units=GPa)
#
#
# Indices 1 2 3 4 5 6 
#
# 1 108.5454 23.1043 12.6271 -14.2180 -6.4035 5.5026
# 2 23.1043 137.9037 46.5862 41.9079 6.5904 12.4235
# 3 12.6271 46.5862 119.9410 46.0299 -6.3679 4.9914
# 4 -14.2180 41.9079 46.0299 51.2399 17.2141 -1.9160
# 5 -6.4035 6.5904 -6.3679 17.2141 31.4034 1.0857
# 6 5.5026 12.4235 4.9914 -1.9160 1.0857 35.7965
#
#
#
# Elastic Compliance Matrix: (Units=1/GPa)
#
#
# Indices 1 2 3 4 5 6 
#
# 1 0.011942 -0.004062 -0.004749 0.012469 -0.004546 0.001042
# 2 -0.004062 0.011850 0.001755 -0.014254 0.005015 -0.004648
# 3 -0.004749 0.001755 0.019101 -0.025717 0.016786 -0.004428
# 4 0.012469 -0.014254 -0.025717 0.071335 -0.039185 0.011623
# 5 -0.004546 0.005015 0.016786 -0.039185 0.054995 -0.007148
# 6 0.001042 -0.004648 -0.004428 0.011623 -0.007148 0.030845
#
#
# Mechanical properties :
#
#
# Convention : Reuss Voigt Hill
#
# Bulk Modulus (GPa) = 34.74673 59.00281 46.87477
# Shear Modulus (GPa) = 22.34406 42.62611 32.48509
#
# Velocity S-wave (km/s) = 2.95247 4.07796 3.55997
# Velocity P-wave (km/s) = 5.01782 6.72248 5.93171
#
# Compressibility (1/GPa) = 0.02877969
#
# Stress axis : x y z
#
# Youngs Moduli (GPa) = 83.73753 84.38916 52.35449
#
# Poissons Ratio (x) = 0.34279 0.24865
# Poissons Ratio (y) = 0.34015 -0.09188
# Poissons Ratio (z) = 0.39770 -0.14810
#
# Static dielectric constant tensor:
#      x y z
#    x 2.049820 -0.017710 -0.052590 
#    y -0.017710 2.062760 -0.027720 
#    z -0.052590 -0.027720 2.066360 
# 
# From -- ./inp_files/296355.got.cif
#   From: 2010.05.17/outbox.cif.g08.bks.cpg/sg2_149_cif.got.tgz:296355.got - 2010.06.03 11:33:40.
