data_PCOD9006538
_publ_section_title
;
Structure prediction by ZEFSAII (Michael W. Deem and Ramdas Pophale) SiO2 
 PCOD9006538
Probable space group: P -1
;
_chemical_formula_sum "Si O2"
_cell_formula_units_Z 14
_cell_length_a 7.945208
_cell_length_b 11.059312
_cell_length_c 12.034896
_cell_angle_alpha 65.700010
_cell_angle_beta 53.984953
_cell_angle_gamma 45.886344
_cell_volume 614.112318
_symmetry_space_group_name_H-M "P -1"
_symmetry_group_IT_number 2
_symmetry_cell_setting 'triclinic'
loop_
_space_group_symop_operation_xyz
x,y,z
-x,-y,-z
loop_
_atom_site_type_symbol
_atom_site_label
_atom_site_fract_x
_atom_site_fract_y
_atom_site_fract_z
Si Si1 0.622938 0.854146 0.884947
Si Si2 0.873718 0.780525 0.027525
Si Si3 0.160821 0.072303 0.410229
Si Si4 0.271851 0.552578 0.483063
Si Si5 0.265509 0.250102 0.663616
Si Si6 0.577088 0.299940 0.084400
Si Si7 0.275255 0.629423 0.210292
O O1 0.786606 0.908382 0.745066
O O2 0.532951 0.804123 0.830664
O O3 0.341958 0.017814 0.973786
O O4 0.815548 0.725705 0.956218
O O5 0.791385 0.729521 0.188278
O O6 0.154221 0.744387 0.951932
O O7 0.986464 0.257929 0.461346
O O8 0.446675 0.922139 0.405453
O O9 0.000000 0.000000 0.500000
O O10 0.500000 0.500000 0.500000
O O11 0.229177 0.410947 0.565143
O O12 0.373916 0.557899 0.320472
O O13 0.039256 0.241350 0.709798
O O14 0.350027 0.477257 0.158943
O O15 0.607282 0.301072 0.937585
#
# Coordination Sequence:
#
# PCOD9006538 Si02
#       7
#     2   2   2   2   2   2   2
#     4  10  21  38  66  96 134 176 222 274 335 393
#     4   9  21  38  66  99 134 174 220 279 327 399
#     4  11  24  43  63  99 133 173 225 270 333 399
#     4  12  25  40  68  95 131 180 218 270 334 392
#     4  10  22  45  64  95 138 167 222 278 323 399
#     4  10  21  42  65  95 134 172 225 273 334 396
#     4  10  24  42  63  98 131 172 224 277 328 399
#
# _framework density 22.797134
#
# number of rings (size 3 to 8) (size 9 to 14) (size 15 to 20)
#    0.000    1.714    1.429    1.714    4.000    1.714 
#    0.000    5.714    0.000    0.000    0.000    0.000 
#    0.000    0.000    0.000    0.000    0.000    0.000 
#
# Total GULP energy -78027.664879 kJ/mol
# GULP energy per Si atom -5573.404634 kJ/mol
# Density = 2.274525 g / cm^3
# Si number density = 22.797134 Si / 1000 Ang^3
#
#
#
# Elastic Constant Matrix: (Units=GPa)
#
#
# Indices 1 2 3 4 5 6 
#
# 1 94.8494 22.8911 34.4989 3.4428 -3.7699 -29.1710
# 2 22.8911 114.4607 27.5946 7.9344 -0.4060 -13.1208
# 3 34.4989 27.5946 84.5708 5.6509 4.2613 -24.4935
# 4 3.4428 7.9344 5.6509 21.5153 -6.7232 -1.1633
# 5 -3.7699 -0.4060 4.2613 -6.7232 28.8629 -7.1523
# 6 -29.1710 -13.1208 -24.4935 -1.1633 -7.1523 27.0215
#
#
#
# Elastic Compliance Matrix: (Units=1/GPa)
#
#
# Indices 1 2 3 4 5 6 
#
# 1 0.017467 -0.000968 -0.001849 0.001411 0.007519 0.018761
# 2 -0.000968 0.009834 -0.002142 -0.002787 0.000099 0.001695
# 3 -0.001849 -0.002142 0.017007 -0.002863 -0.000441 0.012140
# 4 0.001411 -0.002787 -0.002863 0.052483 0.013647 0.003448
# 5 0.007519 0.000099 -0.000441 0.013647 0.043818 0.019950
# 6 0.018761 0.001695 0.012140 0.003448 0.019950 0.074517
#
#
# Mechanical properties :
#
#
# Convention : Reuss Voigt Hill
#
# Bulk Modulus (GPa) = 29.07776 51.53892 40.30834
# Shear Modulus (GPa) = 21.14101 29.40637 25.27369
#
# Velocity S-wave (km/s) = 3.04855 3.59544 3.33323
# Velocity P-wave (km/s) = 5.01740 6.31608 5.70382
#
# Compressibility (1/GPa) = 0.03439054
#
# Stress axis : x y z
#
# Youngs Moduli (GPa) = 57.25185 101.68381 58.79940
#
# Poissons Ratio (x) = 0.09843 0.10871
# Poissons Ratio (y) = 0.05542 0.12594
# Poissons Ratio (z) = 0.10585 0.21779
#
# Static dielectric constant tensor:
#      x y z
#    x 2.016170 0.121480 -0.004450 
#    y 0.121480 1.980700 -0.069060 
#    z -0.004450 -0.069060 1.930370 
# 
# From -- ./inp_files/158691.got.cif
#   From: 2010.05.17/outbox.cif.g08.bks.cpg/sg2_80_cif.got.tgz:158691.got - 2010.06.03 11:33:40.
