data_PCOD9006448
_publ_section_title
;
Structure prediction by ZEFSAII (Michael W. Deem and Ramdas Pophale) SiO2 
 PCOD9006448
Probable space group: P -1
;
_chemical_formula_sum "Si O2"
_cell_formula_units_Z 16
_cell_length_a 9.264902
_cell_length_b 12.151675
_cell_length_c 7.588351
_cell_angle_alpha 78.560305
_cell_angle_beta 64.063146
_cell_angle_gamma 85.561259
_cell_volume 752.971755
_symmetry_space_group_name_H-M "P -1"
_symmetry_group_IT_number 2
_symmetry_cell_setting 'triclinic'
loop_
_space_group_symop_operation_xyz
x,y,z
-x,-y,-z
loop_
_atom_site_type_symbol
_atom_site_label
_atom_site_fract_x
_atom_site_fract_y
_atom_site_fract_z
Si Si1 0.268975 0.185802 0.419047
Si Si2 0.456503 0.193863 0.659043
Si Si3 0.149840 0.418679 0.918172
Si Si4 0.004989 0.726276 0.672449
Si Si5 0.337961 0.070108 0.072543
Si Si6 0.784811 0.058747 0.528966
Si Si7 0.500018 0.562125 0.291371
Si Si8 0.162854 0.511597 0.516836
O O1 0.385397 0.224769 0.497911
O O2 0.121176 0.264044 0.423817
O O3 0.353909 0.161904 0.192248
O O4 0.209674 0.058849 0.539471
O O5 0.612077 0.116405 0.575218
O O6 0.501760 0.305179 0.708898
O O7 0.327658 0.126626 0.870457
O O8 0.325412 0.459388 0.879435
O O9 0.168995 0.418023 0.697144
O O10 0.093822 0.310336 0.090571
O O11 0.000000 0.500000 0.000000
O O12 0.084776 0.847658 0.611878
O O13 0.137413 0.632362 0.590326
O O14 0.209570 0.983847 0.255663
O O15 0.500000 0.000000 0.000000
O O16 0.500000 0.500000 0.500000
O O17 0.329258 0.521270 0.317785
O O18 0.000000 0.500000 0.500000
#
# Coordination Sequence:
#
# PCOD9006448 Si02
#       8
#     2   2   2   2   2   2   2   2
#     4  10  22  34  62  92 119 164 212 253 311 378
#     4  11  19  39  64  89 121 168 208 259 320 370
#     4   9  21  40  64  87 123 166 200 258 321 372
#     4  11  20  40  60  86 127 164 198 260 324 362
#     4   8  19  35  58  85 126 160 203 260 305 368
#     4   9  20  38  58  84 124 166 202 254 314 366
#     4  10  21  38  66  89 121 162 211 256 320 378
#     4  10  22  41  63  91 123 161 208 260 312 385
#
# _framework density 21.249136
#
# number of rings (size 3 to 8) (size 9 to 14) (size 15 to 20)
#    0.750    1.500    1.250    1.500    3.500    0.000 
#    0.000    6.875    0.000    0.000    0.000    0.000 
#    0.000    0.000    0.000    0.000    0.000    0.000 
#
# Total GULP energy -89072.172566 kJ/mol
# GULP energy per Si atom -5567.010785 kJ/mol
# Density = 2.120077 g / cm^3
# Si number density = 21.249136 Si / 1000 Ang^3
#
#
#
# Elastic Constant Matrix: (Units=GPa)
#
#
# Indices 1 2 3 4 5 6 
#
# 1 114.6552 13.3111 53.5162 -2.3846 -14.0894 -5.1264
# 2 13.3111 53.3260 24.9122 -7.2307 -5.5395 -16.5453
# 3 53.5162 24.9122 117.2321 -24.4588 -15.9044 4.1536
# 4 -2.3846 -7.2307 -24.4588 36.5811 -0.5224 -6.6778
# 5 -14.0894 -5.5395 -15.9044 -0.5224 40.9554 -0.2537
# 6 -5.1264 -16.5453 4.1536 -6.6778 -0.2537 32.6805
#
#
#
# Elastic Compliance Matrix: (Units=1/GPa)
#
#
# Indices 1 2 3 4 5 6 
#
# 1 0.011636 0.000294 -0.005753 -0.002605 0.001789 0.002187
# 2 0.000294 0.026571 -0.005092 0.004652 0.001871 0.015111
# 3 -0.005753 -0.005092 0.014356 0.007578 0.002981 -0.003733
# 4 -0.002605 0.004652 0.007578 0.034676 0.003168 0.008093
# 5 0.001789 0.001871 0.002981 0.003168 0.026494 0.001702
# 6 0.002187 0.015111 -0.003733 0.008093 0.001702 0.040734
#
#
# Mechanical properties :
#
#
# Convention : Reuss Voigt Hill
#
# Bulk Modulus (GPa) = 31.78355 52.07692 41.93024
# Shear Modulus (GPa) = 26.87371 34.94167 30.90769
#
# Velocity S-wave (km/s) = 3.56012 4.05950 3.81798
# Velocity P-wave (km/s) = 5.64706 6.82156 6.26191
#
# Compressibility (1/GPa) = 0.03146281
#
# Stress axis : x y z
#
# Youngs Moduli (GPa) = 85.93858 37.63454 69.65768
#
# Poissons Ratio (x) = -0.01107 0.40071
# Poissons Ratio (y) = -0.02527 0.35468
# Poissons Ratio (z) = 0.49437 0.19163
#
# Static dielectric constant tensor:
#      x y z
#    x 1.816440 -0.025790 -0.019510 
#    y -0.025790 1.816370 -0.002400 
#    z -0.019510 -0.002400 1.796940 
# 
# From -- ./inp_files/196141.got.cif
#   From: 2010.05.17/outbox.cif.g08.bks.cpg/sg2_99_cif.got.tgz:196141.got - 2010.06.03 11:33:40.
