data_PCOD9006470
_publ_section_title
;
Structure prediction by ZEFSAII (Michael W. Deem and Ramdas Pophale) SiO2 
 PCOD9006470
Probable space group: P -1
;
_chemical_formula_sum "Si O2"
_cell_formula_units_Z 16
_cell_length_a 20.561373
_cell_length_b 17.944000
_cell_length_c 8.229855
_cell_angle_alpha 148.484901
_cell_angle_beta 150.092735
_cell_angle_gamma 29.918355
_cell_volume 689.776955
_symmetry_space_group_name_H-M "P -1"
_symmetry_group_IT_number 2
_symmetry_cell_setting 'triclinic'
loop_
_space_group_symop_operation_xyz
x,y,z
-x,-y,-z
loop_
_atom_site_type_symbol
_atom_site_label
_atom_site_fract_x
_atom_site_fract_y
_atom_site_fract_z
Si Si1 0.950753 0.951723 0.135911
Si Si2 0.895772 0.522651 0.162618
Si Si3 0.181408 0.693174 0.599854
Si Si4 0.542181 0.420269 0.202051
Si Si5 0.598625 0.819675 0.554960
Si Si6 0.314531 0.139416 0.548197
Si Si7 0.735154 0.349462 0.813791
Si Si8 0.858887 0.507619 0.580584
O O1 0.107631 0.815106 0.146206
O O2 0.879574 0.115331 0.178085
O O3 0.823422 0.898700 0.792820
O O4 0.000000 0.000000 0.500000
O O5 0.740466 0.686124 0.161215
O O6 0.000000 0.500000 0.500000
O O7 0.977857 0.539473 0.211603
O O8 0.886365 0.361539 0.800149
O O9 0.357447 0.600010 0.772418
O O10 0.146181 0.620135 0.545148
O O11 0.651795 0.374916 0.510522
O O12 0.400560 0.599212 0.257109
O O13 0.490233 0.283442 0.836380
O O14 0.655283 0.848868 0.556897
O O15 0.751702 0.695495 0.747054
O O16 0.475091 0.993199 0.681884
O O17 0.782691 0.485732 0.209721
#
# Coordination Sequence:
#
# PCOD9006470 Si02
#       8
#     2   2   2   2   2   2   2   2
#     4  12  22  41  65 100 126 166 221 272 320 371
#     4  12  23  43  69  96 126 171 219 265 316 386
#     4  12  26  41  66  96 135 172 206 271 328 389
#     4  10  21  40  62  98 127 165 223 259 316 379
#     4  10  22  39  66  96 127 167 214 272 316 376
#     4  11  22  40  67  96 125 164 222 271 310 372
#     4  10  21  38  66  91 128 166 218 268 304 382
#     4  11  24  43  64  96 134 171 212 258 339 389
#
# _framework density 23.195903999999999
#
# number of rings (size 3 to 8) (size 9 to 14) (size 15 to 20)
#    0.000    1.000    5.000    1.875    3.500    2.500 
#    0.000    0.625    0.000    0.000    0.000    0.000 
#    0.000    0.000    0.000    0.000    0.000    0.000 
#
# Total GULP energy -89336.267024 kJ/mol
# GULP energy per Si atom -5583.516689 kJ/mol
# Density = 2.314311 g / cm^3
# Si number density = 23.195904 Si / 1000 Ang^3
#
#
#
# Elastic Constant Matrix: (Units=GPa)
#
#
# Indices 1 2 3 4 5 6 
#
# 1 134.2065 63.4596 17.5658 3.4909 37.3148 -22.8524
# 2 63.4596 152.1498 16.9527 9.3428 5.1119 -41.5199
# 3 17.5658 16.9527 56.7978 -1.5648 7.8256 -0.3431
# 4 3.4909 9.3428 -1.5648 33.5565 1.6964 -0.6025
# 5 37.3148 5.1119 7.8256 1.6964 32.9700 -0.8491
# 6 -22.8524 -41.5199 -0.3431 -0.6025 -0.8491 48.9335
#
#
#
# Elastic Compliance Matrix: (Units=1/GPa)
#
#
# Indices 1 2 3 4 5 6 
#
# 1 0.014551 -0.004822 -0.000897 0.000613 -0.015476 0.002437
# 2 -0.004822 0.010740 -0.002392 -0.002713 0.004677 0.006892
# 3 -0.000897 -0.002392 0.019086 0.001774 -0.003296 -0.002350
# 4 0.000613 -0.002713 0.001774 0.030662 -0.002315 -0.001666
# 5 -0.015476 0.004677 -0.003296 -0.002315 0.047959 -0.002479
# 6 0.002437 0.006892 -0.002350 -0.001666 -0.002479 0.027342
#
#
# Mechanical properties :
#
#
# Convention : Reuss Voigt Hill
#
# Bulk Modulus (GPa) = 35.51608 59.90115 47.70862
# Shear Modulus (GPa) = 28.41769 39.43706 33.92738
#
# Velocity S-wave (km/s) = 3.50396 4.12779 3.82860
# Velocity P-wave (km/s) = 5.63160 6.97125 6.33692
#
# Compressibility (1/GPa) = 0.02815626
#
# Stress axis : x y z
#
# Youngs Moduli (GPa) = 68.72611 93.10718 52.39306
#
# Poissons Ratio (x) = 0.44892 0.04699
# Poissons Ratio (y) = 0.33137 0.12532
# Poissons Ratio (z) = 0.06165 0.22271
#
# Static dielectric constant tensor:
#      x y z
#    x 1.927180 -0.013240 -0.027120 
#    y -0.013240 1.934490 -0.042540 
#    z -0.027120 -0.042540 1.914900 
# 
# From -- ./inp_files/348999.got.cif
#   From: 2010.05.17/outbox.cif.g08.bks.cpg/sg2_175_cif.got.tgz:348999.got - 2010.06.03 11:33:40.
