data_PCOD9006880
_publ_section_title
;
Structure prediction by ZEFSAII (Michael W. Deem and Ramdas Pophale) SiO2 
 PCOD9006880
Probable space group: P -1
;
_chemical_formula_sum "Si O2"
_cell_formula_units_Z 16
_cell_length_a 9.421325
_cell_length_b 16.624493
_cell_length_c 5.469162
_cell_angle_alpha 117.476310
_cell_angle_beta 78.630478
_cell_angle_gamma 92.790797
_cell_volume 744.188474
_symmetry_space_group_name_H-M "P -1"
_symmetry_group_IT_number 2
_symmetry_cell_setting 'triclinic'
loop_
_space_group_symop_operation_xyz
x,y,z
-x,-y,-z
loop_
_atom_site_type_symbol
_atom_site_label
_atom_site_fract_x
_atom_site_fract_y
_atom_site_fract_z
Si Si1 0.451596 0.951252 0.199830
Si Si2 0.120647 0.966157 0.213633
Si Si3 0.618170 0.459849 0.711451
Si Si4 0.602100 0.624818 0.605025
Si Si5 0.916943 0.525411 0.814746
Si Si6 0.826025 0.713726 0.310685
Si Si7 0.350166 0.209105 0.904069
Si Si8 0.930483 0.851087 0.802172
O O1 0.278285 0.947193 0.246718
O O2 0.534361 0.855277 0.085393
O O3 0.500000 0.000000 0.500000
O O4 0.500000 0.000000 0.000000
O O5 0.127811 0.052614 0.153485
O O6 0.000000 0.000000 0.500000
O O7 0.064613 0.880171 0.961964
O O8 0.632497 0.525845 0.565453
O O9 0.542995 0.373073 0.505065
O O10 0.774218 0.465922 0.785280
O O11 0.500000 0.500000 0.000000
O O12 0.739034 0.655110 0.450150
O O13 0.592806 0.691981 0.929253
O O14 0.000000 0.500000 0.500000
O O15 0.881543 0.635222 0.993008
O O16 0.000000 0.500000 0.000000
O O17 0.701676 0.786704 0.353122
O O18 0.946897 0.774519 0.477899
O O19 0.196564 0.187024 0.045004
#
# Coordination Sequence:
#
# PCOD9006880 Si02
#       8
#     2   2   2   2   2   2   2   2
#     4  12  26  45  71 107 142 182 238 297 345 418
#     4  11  23  44  68 105 138 188 228 285 363 422
#     4  11  21  42  72  98 131 183 233 288 350 423
#     4  10  21  38  72  98 132 178 243 286 346 419
#     4  12  27  45  69 104 143 183 233 295 358 425
#     4  11  22  43  69 103 135 193 236 287 363 423
#     4  11  22  42  70  98 136 187 238 292 347 417
#     4  10  22  39  72  94 138 184 233 281 354 427
#
# _framework density 21.499929000000002
#
# number of rings (size 3 to 8) (size 9 to 14) (size 15 to 20)
#    0.000    1.000    3.750    3.000    7.000    0.000 
#    2.250    0.000    0.000    0.000    0.000    0.000 
#    0.000    0.000    0.000    0.000    0.000    0.000 
#
# Total GULP energy -89204.708691 kJ/mol
# GULP energy per Si atom -5575.294293 kJ/mol
# Density = 2.145099 g / cm^3
# Si number density = 21.499929 Si / 1000 Ang^3
#
#
#
# Elastic Constant Matrix: (Units=GPa)
#
#
# Indices 1 2 3 4 5 6 
#
# 1 175.0194 29.9283 64.1882 6.3370 39.6231 6.8642
# 2 29.9283 69.6419 25.6458 -1.8913 8.0421 0.7279
# 3 64.1882 25.6458 107.8213 4.1377 29.2535 13.6909
# 4 6.3370 -1.8913 4.1377 39.3219 11.7581 12.4881
# 5 39.6231 8.0421 29.2535 11.7581 42.9750 4.6691
# 6 6.8642 0.7279 13.6909 12.4881 4.6691 39.1980
#
#
#
# Elastic Compliance Matrix: (Units=1/GPa)
#
#
# Indices 1 2 3 4 5 6 
#
# 1 0.008367 -0.001812 -0.003125 0.000455 -0.005390 0.000157
# 2 -0.001812 0.016227 -0.002990 0.001082 0.000300 0.000680
# 3 -0.003125 -0.002990 0.013979 0.002073 -0.006185 -0.004203
# 4 0.000455 0.001082 0.002073 0.031077 -0.009494 -0.009594
# 5 -0.005390 0.000300 -0.006185 -0.009494 0.034775 0.001981
# 6 0.000157 0.000680 -0.004203 -0.009594 0.001981 0.029760
#
#
# Mechanical properties :
#
#
# Convention : Reuss Voigt Hill
#
# Bulk Modulus (GPa) = 44.01806 65.77858 54.89832
# Shear Modulus (GPa) = 31.72348 39.81366 35.76857
#
# Velocity S-wave (km/s) = 3.84541 4.30793 4.08322
# Velocity P-wave (km/s) = 6.34305 7.44349 6.91519
#
# Compressibility (1/GPa) = 0.02271795
#
# Stress axis : x y z
#
# Youngs Moduli (GPa) = 119.51379 61.62737 71.53797
#
# Poissons Ratio (x) = 0.11165 0.22358
# Poissons Ratio (y) = 0.21653 0.21391
# Poissons Ratio (z) = 0.37352 0.18427
#
# Static dielectric constant tensor:
#      x y z
#    x 1.861120 -0.088120 -0.011630 
#    y -0.088120 1.955370 0.057320 
#    z -0.011630 0.057320 2.037460 
# 
# From -- ./inp_files/45729.got.cif
#   From: 2010.05.17/outbox.cif.g08.bks.cpg/sg2_23_cif.got.tgz:45729.got - 2010.06.03 11:33:40.
