data_PCOD9006062
_publ_section_title
;
Structure prediction by ZEFSAII (Michael W. Deem and Ramdas Pophale) SiO2 
 PCOD9006062
Probable space group: P -1
;
_chemical_formula_sum "Si O2"
_cell_formula_units_Z 16
_cell_length_a 10.914614
_cell_length_b 6.249298
_cell_length_c 11.409834
_cell_angle_alpha 80.441224
_cell_angle_beta 107.476189
_cell_angle_gamma 116.389958
_cell_volume 664.485414
_symmetry_space_group_name_H-M "P -1"
_symmetry_group_IT_number 2
_symmetry_cell_setting 'triclinic'
loop_
_space_group_symop_operation_xyz
x,y,z
-x,-y,-z
loop_
_atom_site_type_symbol
_atom_site_label
_atom_site_fract_x
_atom_site_fract_y
_atom_site_fract_z
Si Si1 0.065297 0.748693 0.867778
Si Si2 0.128443 0.990087 0.614460
Si Si3 0.219172 0.058724 0.084754
Si Si4 0.696791 0.450619 0.071714
Si Si5 0.680068 0.248400 0.316942
Si Si6 0.446016 0.837290 0.148333
Si Si7 0.354016 0.463982 0.524110
Si Si8 0.231301 0.392989 0.249921
O O1 0.175635 0.630509 0.901789
O O2 0.903794 0.561080 0.829093
O O3 0.092572 0.931131 0.748184
O O4 0.089302 0.876747 0.988329
O O5 0.265494 0.233837 0.599958
O O6 0.174824 0.776019 0.612705
O O7 0.000000 0.000000 0.500000
O O8 0.201177 0.139707 0.203096
O O9 0.338229 0.959606 0.125626
O O10 0.270671 0.300604 0.001254
O O11 0.682862 0.447877 0.206789
O O12 0.564049 0.252373 0.980692
O O13 0.619324 0.301110 0.413823
O O14 0.587685 0.014142 0.235091
O O15 0.375408 0.587902 0.220309
O O16 0.500000 0.500000 0.500000
O O17 0.247414 0.416944 0.389650
#
# Coordination Sequence:
#
# PCOD9006062 Si02
#       8
#     2   2   2   2   2   2   2   2
#     4  10  21  41  64  94 129 168 219 274 327 390
#     4  11  24  47  70  98 132 175 226 276 329 394
#     4  10  21  38  64  94 129 172 215 266 338 392
#     4   9  21  40  64  96 128 165 217 276 328 393
#     4  11  24  43  69  96 134 176 221 275 336 385
#     4  10  22  39  62  96 131 169 215 272 330 392
#     4  12  26  44  68  98 136 178 227 270 326 401
#     4  11  23  39  59  93 133 172 218 271 320 390
#
# _framework density 24.078783999999999
#
# number of rings (size 3 to 8) (size 9 to 14) (size 15 to 20)
#    0.000    1.500    1.250    3.000    0.000   10.500 
#    2.250    0.000    0.000    0.000    0.000    0.000 
#    0.000    0.000    0.000    0.000    0.000    0.000 
#
# Total GULP energy -89404.787154 kJ/mol
# GULP energy per Si atom -5587.799197 kJ/mol
# Density = 2.402398 g / cm^3
# Si number density = 24.078784 Si / 1000 Ang^3
#
#
#
# Elastic Constant Matrix: (Units=GPa)
#
#
# Indices 1 2 3 4 5 6 
#
# 1 79.3851 5.3355 39.6279 10.6276 -2.3514 -1.7000
# 2 5.3355 50.6667 41.5856 -1.8181 1.3974 6.2066
# 3 39.6279 41.5856 158.1096 12.7726 -1.8197 -23.2886
# 4 10.6276 -1.8181 12.7726 34.2236 -5.3177 -6.3214
# 5 -2.3514 1.3974 -1.8197 -5.3177 42.4367 2.2770
# 6 -1.7000 6.2066 -23.2886 -6.3214 2.2770 35.1499
#
#
#
# Elastic Compliance Matrix: (Units=1/GPa)
#
#
# Indices 1 2 3 4 5 6 
#
# 1 0.015166 0.002560 -0.004707 -0.003409 0.000313 -0.003470
# 2 0.002560 0.029367 -0.010243 0.002430 -0.000349 -0.011389
# 3 -0.004707 -0.010243 0.011667 -0.001796 -0.000131 0.008997
# 4 -0.003409 0.002430 -0.001796 0.032324 0.003501 0.003803
# 5 0.000313 -0.000349 -0.000131 0.003501 0.024077 -0.000940
# 6 -0.003470 -0.011389 0.008997 0.003803 -0.000940 0.036998
#
#
# Mechanical properties :
#
#
# Convention : Reuss Voigt Hill
#
# Bulk Modulus (GPa) = 31.82712 51.25103 41.53907
# Shear Modulus (GPa) = 27.04874 35.80287 31.42581
#
# Velocity S-wave (km/s) = 3.35527 3.86022 3.61657
# Velocity P-wave (km/s) = 5.31573 6.41867 5.89306
#
# Compressibility (1/GPa) = 0.03141974
#
# Stress axis : x y z
#
# Youngs Moduli (GPa) = 65.93897 34.05222 85.70993
#
# Poissons Ratio (x) = -0.08718 0.40339
# Poissons Ratio (y) = -0.16881 0.87796
# Poissons Ratio (z) = 0.31034 0.34881
#
# Static dielectric constant tensor:
#      x y z
#    x 1.929070 0.032180 0.001100 
#    y 0.032180 1.976830 -0.030350 
#    z 0.001100 -0.030350 1.935500 
# 
# From -- ./inp_files/70720.got.cif
#   From: 2010.05.17/outbox.cif.g08.bks.cpg/sg2_36_cif.got.tgz:70720.got - 2010.06.03 11:33:40.
