data_PCOD9006214
_publ_section_title
;
Structure prediction by ZEFSAII (Michael W. Deem and Ramdas Pophale) SiO2 
 PCOD9006214
Probable space group: P -1
;
_chemical_formula_sum "Si O2"
_cell_formula_units_Z 14
_cell_length_a 7.484487
_cell_length_b 13.342525
_cell_length_c 9.045258
_cell_angle_alpha 75.994590
_cell_angle_beta 89.577261
_cell_angle_gamma 42.804498
_cell_volume 575.348472
_symmetry_space_group_name_H-M "P -1"
_symmetry_group_IT_number 2
_symmetry_cell_setting 'triclinic'
loop_
_space_group_symop_operation_xyz
x,y,z
-x,-y,-z
loop_
_atom_site_type_symbol
_atom_site_label
_atom_site_fract_x
_atom_site_fract_y
_atom_site_fract_z
Si Si1 0.781819 0.439486 0.736448
Si Si2 0.978565 0.028973 0.685315
Si Si3 0.959825 0.642037 0.949757
Si Si4 0.657204 0.262667 0.831938
Si Si5 0.723945 0.295522 0.153944
Si Si6 0.537757 0.872254 0.616137
Si Si7 0.632174 0.671078 0.450783
O O1 0.688257 0.364972 0.730528
O O2 0.535223 0.597769 0.776558
O O3 0.806581 0.500328 0.572596
O O4 0.033031 0.327931 0.888406
O O5 0.025937 0.885289 0.731115
O O6 0.239030 0.964781 0.633319
O O7 0.924244 0.087630 0.833005
O O8 0.695959 0.193537 0.561566
O O9 0.188890 0.622966 0.892044
O O10 0.708944 0.781378 0.797803
O O11 0.000000 0.500000 0.000000
O O12 0.401182 0.320649 0.729660
O O13 0.647910 0.280057 0.000530
O O14 0.689499 0.742039 0.531486
O O15 0.500000 0.000000 0.500000
#
# Coordination Sequence:
#
# PCOD9006214 Si02
#       7
#     2   2   2   2   2   2   2
#     4  11  21  41  66  93 118 176 214 259 304 388
#     4  10  22  40  64  95 122 168 216 266 304 382
#     4  11  22  37  61  94 129 162 208 259 312 378
#     4   9  22  35  66  95 124 156 219 267 313 353
#     4  11  21  41  69  94 121 172 222 252 314 380
#     4  12  24  40  64  97 130 171 210 261 326 380
#     4  10  21  38  65  89 129 157 222 258 316 363
#
# _framework density 24.333075999999998
#
# number of rings (size 3 to 8) (size 9 to 14) (size 15 to 20)
#    0.857    0.571    2.857    3.857    2.000    0.000 
#    0.000    2.857   12.571    4.286    0.000    0.000 
#    0.000    0.000    0.000    0.000    0.000    0.000 
#
# Total GULP energy -78089.372768 kJ/mol
# GULP energy per Si atom -5577.812341 kJ/mol
# Density = 2.427769 g / cm^3
# Si number density = 24.333076 Si / 1000 Ang^3
#
#
#
# Elastic Constant Matrix: (Units=GPa)
#
#
# Indices 1 2 3 4 5 6 
#
# 1 65.0862 23.0117 36.9859 -3.0920 -7.7327 5.7641
# 2 23.0117 112.9706 38.4600 -3.0140 -5.0133 10.3439
# 3 36.9859 38.4600 123.8825 -20.0724 11.2968 6.8168
# 4 -3.0920 -3.0140 -20.0724 45.5009 3.0480 -6.6788
# 5 -7.7327 -5.0133 11.2968 3.0480 44.8725 -6.0187
# 6 5.7641 10.3439 6.8168 -6.6788 -6.0187 20.5091
#
#
#
# Elastic Compliance Matrix: (Units=1/GPa)
#
#
# Indices 1 2 3 4 5 6 
#
# 1 0.020073 -0.001662 -0.006124 -0.002064 0.004678 -0.002067
# 2 -0.001662 0.010555 -0.002887 -0.001352 0.001176 -0.003992
# 3 -0.006124 -0.002887 0.012076 0.004949 -0.004841 -0.000645
# 4 -0.002064 -0.001352 0.004949 0.025136 -0.002513 0.007066
# 5 0.004678 0.001176 -0.004841 -0.002513 0.025465 0.006356
# 6 -0.002067 -0.003992 -0.000645 0.007066 0.006356 0.055734
#
#
# Mechanical properties :
#
#
# Convention : Reuss Voigt Hill
#
# Bulk Modulus (GPa) = 46.82428 55.42828 51.12628
# Shear Modulus (GPa) = 28.16829 35.74196 31.95512
#
# Velocity S-wave (km/s) = 3.40606 3.83673 3.62779
# Velocity P-wave (km/s) = 5.89518 6.51581 6.21325
#
# Compressibility (1/GPa) = 0.02135644
#
# Stress axis : x y z
#
# Youngs Moduli (GPa) = 49.81868 94.74180 82.80996
#
# Poissons Ratio (x) = 0.15746 0.50715
# Poissons Ratio (y) = 0.08280 0.23910
# Poissons Ratio (z) = 0.30510 0.27355
#
# Static dielectric constant tensor:
#      x y z
#    x 1.993120 -0.013990 0.048060 
#    y -0.013990 1.945900 0.007840 
#    z 0.048060 0.007840 2.041720 
# 
# From -- ./inp_files/196185.got.cif
#   From: 2010.05.17/outbox.cif.g08.bks.cpg/sg2_99_cif.got.tgz:196185.got - 2010.06.03 11:33:40.
