data_PCOD9006697
_publ_section_title
;
Structure prediction by ZEFSAII (Michael W. Deem and Ramdas Pophale) SiO2 
 PCOD9006697
Probable space group: P -1
;
_chemical_formula_sum "Si O2"
_cell_formula_units_Z 16
_cell_length_a 9.960367
_cell_length_b 19.942949
_cell_length_c 15.147414
_cell_angle_alpha 142.754745
_cell_angle_beta 40.663190
_cell_angle_gamma 157.436055
_cell_volume 695.195994
_symmetry_space_group_name_H-M "P -1"
_symmetry_group_IT_number 2
_symmetry_cell_setting 'triclinic'
loop_
_space_group_symop_operation_xyz
x,y,z
-x,-y,-z
loop_
_atom_site_type_symbol
_atom_site_label
_atom_site_fract_x
_atom_site_fract_y
_atom_site_fract_z
Si Si1 0.339783 0.686342 0.581857
Si Si2 0.746835 0.125270 0.924560
Si Si3 0.664222 0.452521 0.386081
Si Si4 0.486254 0.690061 0.043216
Si Si5 0.638897 0.291945 0.065321
Si Si6 0.167349 0.385806 0.142776
Si Si7 0.746880 0.827643 0.354891
Si Si8 0.517650 0.139180 0.623911
O O1 0.413337 0.634826 0.571962
O O2 0.651872 0.815550 0.490266
O O3 0.000000 0.500000 0.500000
O O4 0.181961 0.728666 0.749275
O O5 0.909880 0.090778 0.759450
O O6 0.580210 0.137551 0.951843
O O7 0.066877 0.327418 0.029217
O O8 0.500000 0.000000 0.000000
O O9 0.500000 0.500000 0.500000
O O10 0.540019 0.316421 0.227891
O O11 0.082479 0.651843 0.378349
O O12 0.586561 0.833756 0.209896
O O13 0.062013 0.490479 0.051299
O O14 0.549131 0.747420 0.969862
O O15 0.679963 0.661988 0.945645
O O16 0.440274 0.605218 0.247579
O O17 0.708425 0.916972 0.404886
O O18 0.500000 0.000000 0.500000
#
# Coordination Sequence:
#
# PCOD9006697 Si02
#       8
#     2   2   2   2   2   2   2   2
#     4  10  21  38  68 102 122 163 235 271 317 386
#     4  12  24  41  65  96 135 169 214 278 341 390
#     4  11  23  39  65  96 134 173 220 283 332 386
#     4  10  21  39  71 100 122 176 229 275 330 389
#     4  10  22  40  64  99 132 166 228 283 324 387
#     4  11  19  42  74  94 121 169 236 271 314 395
#     4  11  22  41  72  94 125 179 226 274 320 395
#     4  11  23  42  62  98 141 177 215 271 346 407
#
# _framework density 23.015094000000001
#
# number of rings (size 3 to 8) (size 9 to 14) (size 15 to 20)
#    0.000    1.250    6.250    1.125    3.500    2.000 
#    2.250    1.250    0.000    0.000    0.000    0.000 
#    0.000    0.000    0.000    0.000    0.000    0.000 
#
# Total GULP energy -89536.991796 kJ/mol
# GULP energy per Si atom -5596.061987 kJ/mol
# Density = 2.296271 g / cm^3
# Si number density = 23.015094 Si / 1000 Ang^3
#
#
#
# Elastic Constant Matrix: (Units=GPa)
#
#
# Indices 1 2 3 4 5 6 
#
# 1 205.7142 27.8138 93.3703 -7.3517 -13.4843 -46.2991
# 2 27.8138 87.4955 41.4133 -17.8036 1.5136 -12.7583
# 3 93.3703 41.4133 189.6546 -13.7139 -9.7437 -22.9040
# 4 -7.3517 -17.8036 -13.7139 36.6022 -5.4565 -4.6556
# 5 -13.4843 1.5136 -9.7437 -5.4565 55.9112 -0.8488
# 6 -46.2991 -12.7583 -22.9040 -4.6556 -0.8488 35.1425
#
#
#
# Elastic Compliance Matrix: (Units=1/GPa)
#
#
# Indices 1 2 3 4 5 6 
#
# 1 0.008535 0.000556 -0.002840 0.002478 0.001942 0.009970
# 2 0.000556 0.014561 -0.002276 0.007055 0.000115 0.005472
# 3 -0.002840 -0.002276 0.007347 0.001243 0.000785 0.000404
# 4 0.002478 0.007055 0.001243 0.033750 0.004087 0.011206
# 5 0.001942 0.000115 0.000785 0.004087 0.018949 0.004110
# 6 0.009970 0.005472 0.000404 0.011206 0.004110 0.045425
#
#
# Mechanical properties :
#
#
# Convention : Reuss Voigt Hill
#
# Bulk Modulus (GPa) = 46.90081 89.78432 68.34256
# Shear Modulus (GPa) = 34.53133 46.88232 40.70682
#
# Velocity S-wave (km/s) = 3.87767 4.51824 4.21016
# Velocity P-wave (km/s) = 6.36168 8.14341 7.30705
#
# Compressibility (1/GPa) = 0.02132159
#
# Stress axis : x y z
#
# Youngs Moduli (GPa) = 117.16631 68.67466 136.10877
#
# Poissons Ratio (x) = -0.03816 0.38658
# Poissons Ratio (y) = -0.06510 0.30983
# Poissons Ratio (z) = 0.33278 0.15633
#
# Static dielectric constant tensor:
#      x y z
#    x 1.773100 0.015190 -0.016830 
#    y 0.015190 1.936390 -0.015240 
#    z -0.016830 -0.015240 1.825820 
# 
# From -- ./inp_files/507303.got.cif
#   From: 2010.05.17/outbox.cif.g08.bks.cpg/sg2_254_cif.got.tgz:507303.got - 2010.06.03 11:33:40.
