data_PCOD9006235
_publ_section_title
;
Structure prediction by ZEFSAII (Michael W. Deem and Ramdas Pophale) SiO2 
 PCOD9006235
Probable space group: P -1
;
_chemical_formula_sum "Si O2"
_cell_formula_units_Z 15
_cell_length_a 7.919447
_cell_length_b 11.861847
_cell_length_c 15.582817
_cell_angle_alpha 24.961199
_cell_angle_beta 92.021424
_cell_angle_gamma 93.191764
_cell_volume 616.386326
_symmetry_space_group_name_H-M "P -1"
_symmetry_group_IT_number 2
_symmetry_cell_setting 'triclinic'
loop_
_space_group_symop_operation_xyz
x,y,z
-x,-y,-z
loop_
_atom_site_type_symbol
_atom_site_label
_atom_site_fract_x
_atom_site_fract_y
_atom_site_fract_z
Si Si1 0.785081 0.634714 0.910174
Si Si2 0.953612 0.298120 0.009610
Si Si3 0.421370 0.959809 0.821734
Si Si4 0.000000 0.500000 0.500000
Si Si5 0.463487 0.636218 0.794976
Si Si6 0.480881 0.362231 0.391421
Si Si7 0.699483 0.775340 0.211503
Si Si8 0.135807 0.651222 0.209236
O O1 0.903994 0.548902 0.893598
O O2 0.619720 0.725005 0.797302
O O3 0.708772 0.381008 0.141270
O O4 0.891974 0.815541 0.855758
O O5 0.987722 0.364461 0.865468
O O6 0.781703 0.112178 0.135979
O O7 0.473643 0.150876 0.613476
O O8 0.446124 0.109172 0.809706
O O9 0.506899 0.679140 0.007995
O O10 0.815240 0.605920 0.392475
O O11 0.934385 0.458126 0.627659
O O12 0.474588 0.756195 0.618196
O O13 0.617830 0.592047 0.263173
O O14 0.298257 0.490340 0.294963
O O15 0.804583 0.035919 0.997682
#
# Coordination Sequence:
#
# PCOD9006235 Si02
#       8
#     2   2   2   1   2   2   2   2
#     4   9  18  39  67  90 120 168 204 254 320 353
#     4   9  19  40  67  88 127 165 199 258 317 362
#     4  10  21  40  59  93 123 165 209 251 306 373
#     4  12  26  40  60  92 128 160 208 258 294 380
#     4  10  21  38  65  91 123 161 213 259 297 378
#     4  12  22  40  64  88 126 167 205 255 311 361
#     4  11  24  41  62  90 126 169 205 252 312 368
#     4  11  23  42  64  92 125 165 209 251 306 377
#
# _framework density 24.335387999999998
#
# number of rings (size 3 to 8) (size 9 to 14) (size 15 to 20)
#    0.000    1.600    5.333    1.200    1.867    0.000 
#    4.800    6.667    0.000    0.000    0.000    0.000 
#    0.000    0.000    0.000    0.000    0.000    0.000 
#
# Total GULP energy -83627.788072 kJ/mol
# GULP energy per Si atom -5575.185871 kJ/mol
# Density = 2.428000 g / cm^3
# Si number density = 24.335388 Si / 1000 Ang^3
#
#
#
# Elastic Constant Matrix: (Units=GPa)
#
#
# Indices 1 2 3 4 5 6 
#
# 1 66.8311 49.2626 25.0520 5.5568 -2.1888 -2.8388
# 2 49.2626 170.1362 49.2044 43.5809 -2.8155 2.5788
# 3 25.0520 49.2044 76.7053 36.8836 3.4184 -9.4893
# 4 5.5568 43.5809 36.8836 43.8075 -11.4860 -8.7978
# 5 -2.1888 -2.8155 3.4184 -11.4860 22.7208 11.7371
# 6 -2.8388 2.5788 -9.4893 -8.7978 11.7371 27.7407
#
#
#
# Elastic Compliance Matrix: (Units=1/GPa)
#
#
# Indices 1 2 3 4 5 6 
#
# 1 0.024372 -0.008009 -0.012414 0.018600 0.012924 -0.000577
# 2 -0.008009 0.011116 0.001664 -0.013356 -0.004537 -0.003600
# 3 -0.012414 0.001664 0.036672 -0.036680 -0.031717 0.012906
# 4 0.018600 -0.013356 -0.036680 0.075841 0.046616 -0.005073
# 5 0.012924 -0.004537 -0.031717 0.046616 0.089706 -0.032276
# 6 -0.000577 -0.003600 0.012906 -0.005073 -0.032276 0.052785
#
#
# Mechanical properties :
#
#
# Convention : Reuss Voigt Hill
#
# Bulk Modulus (GPa) = 28.86602 62.30119 45.58361
# Shear Modulus (GPa) = 14.72509 31.53070 23.12790
#
# Velocity S-wave (km/s) = 2.46253 3.60345 3.08617
# Velocity P-wave (km/s) = 4.46910 6.55513 5.60993
#
# Compressibility (1/GPa) = 0.03464280
#
# Stress axis : x y z
#
# Youngs Moduli (GPa) = 41.03072 89.96097 27.26908
#
# Poissons Ratio (x) = 0.72046 0.33852
# Poissons Ratio (y) = 0.32860 -0.04538
# Poissons Ratio (z) = 0.50935 -0.14970
#
# Static dielectric constant tensor:
#      x y z
#    x 2.021850 0.012810 0.000300 
#    y 0.012810 1.983300 -0.026950 
#    z 0.000300 -0.026950 1.966030 
# 
# From -- ./inp_files/254431.got.cif
#   From: 2010.05.17/outbox.cif.g08.bks.cpg/sg2_128_cif.got.tgz:254431.got - 2010.06.03 11:33:40.
