data_PCOD9006711
_publ_section_title
;
Structure prediction by ZEFSAII (Michael W. Deem and Ramdas Pophale) SiO2 
 PCOD9006711
Probable space group: P -1
;
_chemical_formula_sum "Si O2"
_cell_formula_units_Z 16
_cell_length_a 13.103874
_cell_length_b 13.564924
_cell_length_c 8.686445
_cell_angle_alpha 44.500225
_cell_angle_beta 41.074351
_cell_angle_gamma 40.003515
_cell_volume 617.529884
_symmetry_space_group_name_H-M "P -1"
_symmetry_group_IT_number 2
_symmetry_cell_setting 'triclinic'
loop_
_space_group_symop_operation_xyz
x,y,z
-x,-y,-z
loop_
_atom_site_type_symbol
_atom_site_label
_atom_site_fract_x
_atom_site_fract_y
_atom_site_fract_z
Si Si1 0.967010 0.776025 0.502353
Si Si2 0.357359 0.622407 0.207529
Si Si3 0.304838 0.419846 0.241292
Si Si4 0.752571 0.791570 0.201323
Si Si5 0.954088 0.886534 0.068323
Si Si6 0.836935 0.085443 0.471428
Si Si7 0.555411 0.676441 0.341918
Si Si8 0.108509 0.503249 0.059415
O O1 0.935748 0.785920 0.343304
O O2 0.971365 0.616474 0.734642
O O3 0.162131 0.754488 0.337858
O O4 0.824700 0.937552 0.569096
O O5 0.312325 0.563378 0.164190
O O6 0.354363 0.783904 0.390172
O O7 0.439409 0.461220 0.397710
O O8 0.499676 0.678448 0.949335
O O9 0.268240 0.316262 0.521183
O O10 0.164058 0.490979 0.187066
O O11 0.782340 0.924246 0.112464
O O12 0.608177 0.797877 0.236454
O O13 0.943868 0.681004 0.023710
O O14 0.108791 0.836446 0.819396
O O15 0.000000 0.000000 0.000000
O O16 0.000000 0.000000 0.500000
O O17 0.711638 0.571591 0.160322
#
# Coordination Sequence:
#
# PCOD9006711 Si02
#       8
#     2   2   2   2   2   2   2   2
#     4  11  23  46  72 101 142 184 240 291 352 422
#     4  10  23  41  71 106 143 178 239 294 353 418
#     4  10  21  38  68 106 143 176 227 302 357 406
#     4  11  22  43  73 108 141 184 235 300 353 412
#     4  10  24  47  74 100 139 194 236 285 356 427
#     4  11  29  50  68  95 145 198 235 292 359 427
#     4  11  27  44  67 109 146 190 238 287 358 429
#     4  12  23  40  70 108 146 182 231 295 357 419
#
# _framework density 25.909678
#
# number of rings (size 3 to 8) (size 9 to 14) (size 15 to 20)
#    0.000    1.250    3.750    1.500   10.500    1.000 
#    0.000    2.500    0.000    0.000    0.000    0.000 
#    0.000    0.000    0.000    0.000    0.000    0.000 
#
# Total GULP energy -89413.842514 kJ/mol
# GULP energy per Si atom -5588.365157 kJ/mol
# Density = 2.585071 g / cm^3
# Si number density = 25.909678 Si / 1000 Ang^3
#
#
#
# Elastic Constant Matrix: (Units=GPa)
#
#
# Indices 1 2 3 4 5 6 
#
# 1 142.9365 38.6902 30.5118 19.0867 -4.3686 6.2194
# 2 38.6902 90.0771 43.5848 8.8752 -8.1577 -2.7890
# 3 30.5118 43.5848 88.6959 21.4583 -4.3159 4.1493
# 4 19.0867 8.8752 21.4583 42.0626 1.1523 -13.7802
# 5 -4.3686 -8.1577 -4.3159 1.1523 34.6981 1.9991
# 6 6.2194 -2.7890 4.1493 -13.7802 1.9991 44.8172
#
#
#
# Elastic Compliance Matrix: (Units=1/GPa)
#
#
# Indices 1 2 3 4 5 6 
#
# 1 0.008576 -0.003188 -0.000280 -0.003944 0.000576 -0.002601
# 2 -0.003188 0.016129 -0.007529 0.002774 0.002195 0.002898
# 3 -0.000280 -0.007529 0.017467 -0.008791 0.000935 -0.004791
# 4 -0.003944 0.002774 -0.008791 0.033450 -0.002737 0.011941
# 5 0.000576 0.002195 0.000935 -0.002737 0.029743 -0.002198
# 6 -0.002601 0.002898 -0.004791 0.011941 -0.002198 0.027067
#
#
# Mechanical properties :
#
#
# Convention : Reuss Voigt Hill
#
# Bulk Modulus (GPa) = 49.55700 60.80924 55.18312
# Shear Modulus (GPa) = 31.02668 38.24376 34.63522
#
# Velocity S-wave (km/s) = 3.46424 3.84610 3.66015
# Velocity P-wave (km/s) = 5.93040 6.57601 6.26153
#
# Compressibility (1/GPa) = 0.02017878
#
# Stress axis : x y z
#
# Youngs Moduli (GPa) = 116.60117 61.99964 57.25175
#
# Poissons Ratio (x) = 0.19766 0.01601
# Poissons Ratio (y) = 0.37173 0.43104
# Poissons Ratio (z) = 0.03262 0.46679
#
# Static dielectric constant tensor:
#      x y z
#    x 2.078260 -0.015540 0.016010 
#    y -0.015540 2.103780 -0.007670 
#    z 0.016010 -0.007670 2.076710 
# 
# From -- ./inp_files/302528.got.cif
#   From: 2010.05.17/outbox.cif.g08.bks.cpg/sg2_152_cif.got.tgz:302528.got - 2010.06.03 11:33:40.
