data_PCOD9006415
_publ_section_title
;
Structure prediction by ZEFSAII (Michael W. Deem and Ramdas Pophale) SiO2 
 PCOD9006415
Probable space group: P -1
;
_chemical_formula_sum "Si O2"
_cell_formula_units_Z 16
_cell_length_a 14.059149
_cell_length_b 9.478598
_cell_length_c 6.270776
_cell_angle_alpha 74.923392
_cell_angle_beta 70.486038
_cell_angle_gamma 72.157888
_cell_volume 738.086372
_symmetry_space_group_name_H-M "P -1"
_symmetry_group_IT_number 2
_symmetry_cell_setting 'triclinic'
loop_
_space_group_symop_operation_xyz
x,y,z
-x,-y,-z
loop_
_atom_site_type_symbol
_atom_site_label
_atom_site_fract_x
_atom_site_fract_y
_atom_site_fract_z
Si Si1 0.306285 0.803115 0.552219
Si Si2 0.599979 0.356134 0.842941
Si Si3 0.259684 0.539787 0.943487
Si Si4 0.522389 0.687732 0.670105
Si Si5 0.953950 0.112331 0.682877
Si Si6 0.891974 0.453759 0.583675
Si Si7 0.843079 0.949582 0.164438
Si Si8 0.269007 0.308542 0.681561
O O1 0.328144 0.773132 0.299242
O O2 0.253476 0.673590 0.729309
O O3 0.421812 0.770234 0.580217
O O4 0.233990 0.953649 0.640242
O O5 0.550520 0.505473 0.684045
O O6 0.665814 0.421580 0.944281
O O7 0.514071 0.297668 0.062210
O O8 0.296193 0.387302 0.844591
O O9 0.155244 0.538429 0.146347
O O10 0.624517 0.741326 0.512177
O O11 0.908762 0.280819 0.567943
O O12 0.048678 0.118854 0.769068
O O13 0.000000 0.000000 0.500000
O O14 0.871770 0.050203 0.911838
O O15 0.811153 0.566598 0.448175
O O16 0.000000 0.500000 0.500000
O O17 0.787645 0.822909 0.176147
#
# Coordination Sequence:
#
# PCOD9006415 Si02
#       8
#     2   2   2   2   2   2   2   2
#     4  11  22  41  68  95 135 180 222 271 325 401
#     4  10  21  38  66 101 131 174 225 273 326 387
#     4  11  23  40  70  97 133 175 222 276 323 394
#     4  10  22  36  66 100 133 172 222 273 329 393
#     4  11  27  46  71  95 134 176 222 271 338 401
#     4  12  25  45  67 102 128 172 222 277 333 390
#     4  11  27  47  65 100 135 178 218 273 339 398
#     4  12  26  43  68 101 138 170 222 280 329 393
#
# _framework density 21.677682000000001
#
# number of rings (size 3 to 8) (size 9 to 14) (size 15 to 20)
#    0.000    1.000    5.000    0.375    8.750    1.000 
#    0.000    0.625    0.000    0.000    0.000    0.000 
#    0.000    0.000    0.000    0.000    0.000    0.000 
#
# Total GULP energy -89473.498871 kJ/mol
# GULP energy per Si atom -5592.093679 kJ/mol
# Density = 2.162834 g / cm^3
# Si number density = 21.677682 Si / 1000 Ang^3
#
#
#
# Elastic Constant Matrix: (Units=GPa)
#
#
# Indices 1 2 3 4 5 6 
#
# 1 122.8381 23.5651 49.9419 -16.9783 -15.1995 -1.5272
# 2 23.5651 92.0128 37.8084 4.1884 -9.2207 5.8631
# 3 49.9419 37.8084 103.5414 18.4984 -25.7875 9.2350
# 4 -16.9783 4.1884 18.4984 31.7048 3.3777 -5.4433
# 5 -15.1995 -9.2207 -25.7875 3.3777 39.2282 -0.3521
# 6 -1.5272 5.8631 9.2350 -5.4433 -0.3521 30.5499
#
#
#
# Elastic Compliance Matrix: (Units=1/GPa)
#
#
# Indices 1 2 3 4 5 6 
#
# 1 0.014685 -0.000693 -0.011065 0.015942 -0.003057 0.007018
# 2 -0.000693 0.012880 -0.004352 0.000285 -0.000137 -0.001142
# 3 -0.011065 -0.004352 0.024983 -0.023247 0.013013 -0.011262
# 4 0.015942 0.000285 -0.023247 0.058170 -0.013885 0.017974
# 5 -0.003057 -0.000137 0.013013 -0.013885 0.033970 -0.006143
# 6 0.007018 -0.001142 -0.011262 0.017974 -0.006143 0.039840
#
#
# Mechanical properties :
#
#
# Convention : Reuss Voigt Hill
#
# Bulk Modulus (GPa) = 49.19538 60.11369 54.65454
# Shear Modulus (GPa) = 22.36886 34.10171 28.23528
#
# Velocity S-wave (km/s) = 3.21578 3.97057 3.61294
# Velocity P-wave (km/s) = 6.04414 6.98652 6.53234
#
# Compressibility (1/GPa) = 0.02032711
#
# Stress axis : x y z
#
# Youngs Moduli (GPa) = 68.09595 77.64046 40.02687
#
# Poissons Ratio (x) = 0.05383 0.44292
# Poissons Ratio (y) = 0.04721 0.17419
# Poissons Ratio (z) = 0.75351 0.33788
#
# Static dielectric constant tensor:
#      x y z
#    x 1.819810 -0.019070 0.022560 
#    y -0.019070 1.780250 0.013220 
#    z 0.022560 0.013220 1.814170 
# 
# From -- ./inp_files/90023.got.cif
#   From: 2010.05.17/outbox.cif.g08.bks.cpg/sg2_46_cif.got.tgz:90023.got - 2010.06.03 11:33:40.
