data_PCOD9006545
_publ_section_title
;
Structure prediction by ZEFSAII (Michael W. Deem and Ramdas Pophale) SiO2 
 PCOD9006545
Probable space group: P -1
;
_chemical_formula_sum "Si O2"
_cell_formula_units_Z 16
_cell_length_a 18.693231
_cell_length_b 12.695554
_cell_length_c 9.097794
_cell_angle_alpha 48.759063
_cell_angle_beta 47.825887
_cell_angle_gamma 29.326214
_cell_volume 767.304709
_symmetry_space_group_name_H-M "P -1"
_symmetry_group_IT_number 2
_symmetry_cell_setting 'triclinic'
loop_
_space_group_symop_operation_xyz
x,y,z
-x,-y,-z
loop_
_atom_site_type_symbol
_atom_site_label
_atom_site_fract_x
_atom_site_fract_y
_atom_site_fract_z
Si Si1 0.639866 0.074585 0.892037
Si Si2 0.880734 0.997238 0.776116
Si Si3 0.664533 0.074479 0.502241
Si Si4 0.637634 0.748128 0.255929
Si Si5 0.403891 0.557991 0.720689
Si Si6 0.876898 0.315151 0.523739
Si Si7 0.990639 0.345167 0.629278
Si Si8 0.168642 0.616064 0.923668
O O1 0.750536 0.033301 0.886440
O O2 0.679637 0.047488 0.686715
O O3 0.482510 0.334677 0.885251
O O4 0.641801 0.910122 0.083029
O O5 0.819274 0.218450 0.707446
O O6 0.977150 0.882942 0.596576
O O7 0.008262 0.805658 0.889756
O O8 0.535701 0.105074 0.616576
O O9 0.599618 0.293326 0.327412
O O10 0.832792 0.887013 0.381112
O O11 0.750658 0.551603 0.399536
O O12 0.706639 0.604271 0.143001
O O13 0.500000 0.500000 0.500000
O O14 0.237349 0.693796 0.780070
O O15 0.936023 0.338350 0.557922
O O16 0.000000 0.500000 0.500000
O O17 0.870948 0.417363 0.842603
#
# Coordination Sequence:
#
# PCOD9006545 Si02
#       8
#     2   2   2   2   2   2   2   2
#     4  11  21  36  67 100 127 166 231 282 322 380
#     4  10  22  39  69  97 133 168 232 281 322 383
#     4  11  22  42  66  98 131 180 218 279 333 392
#     4  11  23  40  71  97 131 173 236 276 323 390
#     4  10  21  38  66  97 129 167 224 278 321 383
#     4  10  23  42  64  98 133 180 216 279 334 396
#     4  12  27  43  68  99 147 174 214 269 355 400
#     4  11  24  40  68 103 129 175 224 276 332 401
#
# _framework density 20.852212000000002
#
# number of rings (size 3 to 8) (size 9 to 14) (size 15 to 20)
#    0.000    1.250    3.750    2.625   10.500    3.000 
#    0.000    1.875    0.000    3.000    0.000    0.000 
#    0.000    0.000    0.000    0.000    0.000    0.000 
#
# Total GULP energy -89169.399432 kJ/mol
# GULP energy per Si atom -5573.087464 kJ/mol
# Density = 2.080475 g / cm^3
# Si number density = 20.852212 Si / 1000 Ang^3
#
#
#
# Elastic Constant Matrix: (Units=GPa)
#
#
# Indices 1 2 3 4 5 6 
#
# 1 58.3296 -49.2296 77.8977 -16.7878 -47.4632 0.9731
# 2 -49.2296 -30.5132 42.9687 -13.1160 -40.9963 -5.1875
# 3 77.8977 42.9687 47.0557 -5.7315 -15.6110 3.7011
# 4 -16.7878 -13.1160 -5.7315 35.7867 11.7086 -11.6089
# 5 -47.4632 -40.9963 -15.6110 11.7086 23.5481 -1.6519
# 6 0.9731 -5.1875 3.7011 -11.6089 -1.6519 34.2698
#
#
#
# Elastic Compliance Matrix: (Units=1/GPa)
#
#
# Indices 1 2 3 4 5 6 
#
# 1 0.008743 -0.012039 -0.005813 0.000767 -0.007681 -0.001553
# 2 -0.012039 0.007617 0.011939 0.000113 -0.003139 0.000093
# 3 -0.005813 0.011939 0.029761 -0.003992 0.030705 -0.001114
# 4 0.000767 0.000113 -0.003992 0.037887 -0.018874 0.012351
# 5 -0.007681 -0.003139 0.030705 -0.018874 0.050732 -0.007521
# 6 -0.001553 0.000093 -0.001114 0.012351 -0.007521 0.033180
#
#
# Mechanical properties :
#
#
# Convention : Reuss Voigt Hill
#
# Bulk Modulus (GPa) = 29.15861 24.23843 26.69852
# Shear Modulus (GPa) = 26.15350 18.93661 22.54505
#
# Velocity S-wave (km/s) = 3.54536 3.01680 3.29170
# Velocity P-wave (km/s) = 5.54736 4.87687 5.22289
#
# Compressibility (1/GPa) = 0.03429519
#
# Stress axis : x y z
#
# Youngs Moduli (GPa) = 114.37112 131.27993 33.60150
#
# Poissons Ratio (x) = 1.58049 0.19534
# Poissons Ratio (y) = 1.37693 -0.40118
# Poissons Ratio (z) = 0.66487 -1.56739
#
# Static dielectric constant tensor:
#      x y z
#    x 1.754990 0.015350 0.011620 
#    y 0.015350 1.406060 -0.071160 
#    z 0.011620 -0.071160 1.760410 
# 
# From -- ./inp_files/332844.got.cif
#   From: 2010.05.17/outbox.cif.g08.bks.cpg/sg2_167_cif.got.tgz:332844.got - 2010.06.03 11:33:40.
