data_PCOD9006709
_publ_section_title
;
Structure prediction by ZEFSAII (Michael W. Deem and Ramdas Pophale) SiO2 
 PCOD9006709
Probable space group: P -1
;
_chemical_formula_sum "Si O2"
_cell_formula_units_Z 16
_cell_length_a 12.181808
_cell_length_b 11.882267
_cell_length_c 8.134974
_cell_angle_alpha 134.530798
_cell_angle_beta 59.678571
_cell_angle_gamma 134.124835
_cell_volume 602.240030
_symmetry_space_group_name_H-M "P -1"
_symmetry_group_IT_number 2
_symmetry_cell_setting 'triclinic'
loop_
_space_group_symop_operation_xyz
x,y,z
-x,-y,-z
loop_
_atom_site_type_symbol
_atom_site_label
_atom_site_fract_x
_atom_site_fract_y
_atom_site_fract_z
Si Si1 0.626325 0.936056 0.553414
Si Si2 0.063110 0.370257 0.135725
Si Si3 0.089456 0.065255 0.741968
Si Si4 0.137907 0.591295 0.862188
Si Si5 0.586094 0.413509 0.427943
Si Si6 0.224184 0.222451 0.161853
Si Si7 0.366590 0.757175 0.341405
Si Si8 0.248719 0.904853 0.865154
O O1 0.791809 0.968870 0.468488
O O2 0.525997 0.799550 0.639236
O O3 0.531521 0.811104 0.332964
O O4 0.638919 0.131404 0.700082
O O5 0.234541 0.539400 0.204382
O O6 0.973030 0.476536 0.284440
O O7 0.927764 0.200403 0.174638
O O8 0.069879 0.229711 0.852817
O O9 0.168401 0.162961 0.957574
O O10 0.924291 0.875687 0.706637
O O11 0.271062 0.559088 0.752686
O O12 0.230223 0.814405 0.966688
O O13 0.000000 0.500000 0.000000
O O14 0.500000 0.500000 0.500000
O O15 0.673193 0.555044 0.660296
O O16 0.312470 0.123578 0.045667
O O17 0.324803 0.840024 0.614114
#
# Coordination Sequence:
#
# PCOD9006709 Si02
#       8
#     2   2   2   2   2   2   2   2
#     4  11  24  40  62 101 143 166 221 276 347 400
#     4   9  21  35  68  95 127 171 221 273 329 396
#     4  10  21  38  68 106 133 167 217 280 347 402
#     4  10  24  46  65  90 128 178 236 272 315 403
#     4  12  28  47  67  96 138 186 227 274 328 401
#     4  10  22  42  68  99 134 173 219 274 333 406
#     4  11  20  39  64 102 135 167 208 281 350 399
#     4   9  19  40  65  95 126 162 217 274 326 398
#
# _framework density 26.567478000000001
#
# number of rings (size 3 to 8) (size 9 to 14) (size 15 to 20)
#    0.750    1.000    2.500    1.125    3.500    2.000 
#    2.250    1.875    0.000    0.000    0.000    0.000 
#    0.000    0.000    0.000    0.000    0.000    0.000 
#
# Total GULP energy -89144.958141 kJ/mol
# GULP energy per Si atom -5571.559884 kJ/mol
# Density = 2.650701 g / cm^3
# Si number density = 26.567478 Si / 1000 Ang^3
#
#
#
# Elastic Constant Matrix: (Units=GPa)
#
#
# Indices 1 2 3 4 5 6 
#
# 1 123.2321 32.8304 20.2469 -10.4669 -37.3433 -15.5581
# 2 32.8304 142.0824 36.0526 -2.7332 -5.7492 -13.1388
# 3 20.2469 36.0526 53.0872 -7.2279 -12.4511 -2.9796
# 4 -10.4669 -2.7332 -7.2279 44.4742 13.4117 4.8139
# 5 -37.3433 -5.7492 -12.4511 13.4117 40.1017 7.4119
# 6 -15.5581 -13.1388 -2.9796 4.8139 7.4119 27.8160
#
#
#
# Elastic Compliance Matrix: (Units=1/GPa)
#
#
# Indices 1 2 3 4 5 6 
#
# 1 0.012320 -0.001923 -0.000839 -0.000914 0.010648 0.003213
# 2 -0.001923 0.009215 -0.006054 -0.000382 -0.002861 0.003457
# 3 -0.000839 -0.006054 0.024765 0.001968 0.005858 -0.002577
# 4 -0.000914 -0.000382 0.001968 0.025352 -0.008282 -0.002661
# 5 0.010648 -0.002861 0.005858 -0.008282 0.039757 -0.003929
# 6 0.003213 0.003457 -0.002577 -0.002661 -0.003929 0.040612
#
#
# Mechanical properties :
#
#
# Convention : Reuss Voigt Hill
#
# Bulk Modulus (GPa) = 34.88206 55.18462 45.03334
# Shear Modulus (GPa) = 27.90041 37.76315 32.83178
#
# Velocity S-wave (km/s) = 3.24415 3.77424 3.51919
# Velocity P-wave (km/s) = 5.21448 6.30950 5.78794
#
# Compressibility (1/GPa) = 0.02866803
#
# Stress axis : x y z
#
# Youngs Moduli (GPa) = 81.17085 108.51601 40.37895
#
# Poissons Ratio (x) = 0.20871 0.03389
# Poissons Ratio (y) = 0.15612 0.24444
# Poissons Ratio (z) = 0.06812 0.65691
#
# Static dielectric constant tensor:
#      x y z
#    x 2.482940 -0.139600 0.013060 
#    y -0.139600 2.190150 -0.016150 
#    z 0.013060 -0.016150 2.132330 
# 
# From -- ./inp_files/263384.got.cif
#   From: 2010.05.17/outbox.cif.g08.bks.cpg/sg2_132_cif.got.tgz:263384.got - 2010.06.03 11:33:40.
