data_PCOD9006391
_publ_section_title
;
Structure prediction by ZEFSAII (Michael W. Deem and Ramdas Pophale) SiO2 
 PCOD9006391
Probable space group: P -1
;
_chemical_formula_sum "Si O2"
_cell_formula_units_Z 16
_cell_length_a 14.727703
_cell_length_b 8.211701
_cell_length_c 7.136045
_cell_angle_alpha 76.479601
_cell_angle_beta 73.722407
_cell_angle_gamma 123.584025
_cell_volume 603.069611
_symmetry_space_group_name_H-M "P -1"
_symmetry_group_IT_number 2
_symmetry_cell_setting 'triclinic'
loop_
_space_group_symop_operation_xyz
x,y,z
-x,-y,-z
loop_
_atom_site_type_symbol
_atom_site_label
_atom_site_fract_x
_atom_site_fract_y
_atom_site_fract_z
Si Si1 0.120548 0.021566 0.199367
Si Si2 0.335281 0.785357 0.477024
Si Si3 0.511001 0.190091 0.054948
Si Si4 0.772468 0.513416 0.026548
Si Si5 0.853155 0.292986 0.618124
Si Si6 0.036329 0.700635 0.805317
Si Si7 0.144655 0.154687 0.592975
Si Si8 0.561039 0.432227 0.613707
O O1 0.135101 0.095433 0.391916
O O2 0.175908 0.899048 0.181032
O O3 0.190726 0.255862 0.991449
O O4 0.968576 0.845681 0.302931
O O5 0.257323 0.648199 0.743711
O O6 0.244817 0.675141 0.372800
O O7 0.435053 0.748781 0.430140
O O8 0.412355 0.046076 0.319982
O O9 0.648463 0.373755 0.012652
O O10 0.492295 0.318518 0.883712
O O11 0.500000 0.000000 0.000000
O O12 0.899846 0.596909 0.829889
O O13 0.000000 0.500000 0.500000
O O14 0.858379 0.226199 0.422516
O O15 0.093856 0.934003 0.799329
O O16 0.000000 0.500000 0.000000
O O17 0.290136 0.358215 0.494890
O O18 0.500000 0.500000 0.500000
#
# Coordination Sequence:
#
# PCOD9006391 Si02
#       8
#     2   2   2   2   2   2   2   2
#     4   9  19  37  67  96 122 169 212 265 335 378
#     4  11  25  43  62  99 133 172 222 268 330 385
#     4  10  24  43  67  91 126 180 221 271 326 379
#     4  11  21  43  67  95 135 170 222 271 322 402
#     4  11  23  40  65  99 136 166 217 273 330 396
#     4  10  21  38  65  99 128 170 215 265 338 387
#     4   9  18  38  66  91 124 167 219 265 318 393
#     4  11  24  45  66  95 131 176 224 270 327 394
#
# _framework density 26.530934999999999
#
# number of rings (size 3 to 8) (size 9 to 14) (size 15 to 20)
#    0.000    1.750    2.500    1.875    3.500    3.000 
#    6.750    3.125    0.000    0.000    0.000    0.000 
#    0.000    0.000    0.000    0.000    0.000    0.000 
#
# Total GULP energy -89364.520968 kJ/mol
# GULP energy per Si atom -5585.282561 kJ/mol
# Density = 2.647055 g / cm^3
# Si number density = 26.530935 Si / 1000 Ang^3
#
#
#
# Elastic Constant Matrix: (Units=GPa)
#
#
# Indices 1 2 3 4 5 6 
#
# 1 168.7859 36.0015 70.8827 -24.2266 35.8724 21.4905
# 2 36.0015 46.9272 31.9700 -21.5522 -0.2613 26.9459
# 3 70.8827 31.9700 181.4902 -39.0539 19.0129 4.8674
# 4 -24.2266 -21.5522 -39.0539 39.9436 -5.1130 -9.2982
# 5 35.8724 -0.2613 19.0129 -5.1130 57.4221 -10.1349
# 6 21.4905 26.9459 4.8674 -9.2982 -10.1349 35.1101
#
#
#
# Elastic Compliance Matrix: (Units=1/GPa)
#
#
# Indices 1 2 3 4 5 6 
#
# 1 0.009457 -0.002705 -0.002472 -0.000106 -0.006018 -0.005135
# 2 -0.002705 0.052928 -0.004008 0.014646 -0.001615 -0.034997
# 3 -0.002472 -0.004008 0.008226 0.005561 0.000175 0.004971
# 4 -0.000106 0.014646 0.005561 0.038163 0.001438 -0.001424
# 5 -0.006018 -0.001615 0.000175 0.001438 0.023359 0.012023
# 6 -0.005135 -0.034997 0.004971 -0.001424 0.012023 0.060888
#
#
# Mechanical properties :
#
#
# Convention : Reuss Voigt Hill
#
# Bulk Modulus (GPa) = 19.14147 74.99019 47.06583
# Shear Modulus (GPa) = 21.85274 43.71842 32.78558
#
# Velocity S-wave (km/s) = 2.87308 4.06375 3.51914
# Velocity P-wave (km/s) = 4.27043 7.09544 5.85584
#
# Compressibility (1/GPa) = 0.05224259
#
# Stress axis : x y z
#
# Youngs Moduli (GPa) = 105.73889 18.89372 121.56121
#
# Poissons Ratio (x) = 0.05111 0.30047
# Poissons Ratio (y) = 0.28602 0.48717
# Poissons Ratio (z) = 0.26136 0.07572
#
# Static dielectric constant tensor:
#      x y z
#    x 2.205420 -0.087460 -0.000130 
#    y -0.087460 2.280050 0.120310 
#    z -0.000130 0.120310 2.199050 
# 
# From -- ./inp_files/297654.got.cif
#   From: 2010.05.17/outbox.cif.g08.bks.cpg/sg2_149_cif.got.tgz:297654.got - 2010.06.03 11:33:40.
