data_PCOD9006416
_publ_section_title
;
Structure prediction by ZEFSAII (Michael W. Deem and Ramdas Pophale) SiO2 
 PCOD9006416
Probable space group: P -1
;
_chemical_formula_sum "Si O2"
_cell_formula_units_Z 11
_cell_length_a 9.757430
_cell_length_b 9.403852
_cell_length_c 9.496338
_cell_angle_alpha 149.913718
_cell_angle_beta 73.724157
_cell_angle_gamma 109.346133
_cell_volume 412.113164
_symmetry_space_group_name_H-M "P -1"
_symmetry_group_IT_number 2
_symmetry_cell_setting 'triclinic'
loop_
_space_group_symop_operation_xyz
x,y,z
-x,-y,-z
loop_
_atom_site_type_symbol
_atom_site_label
_atom_site_fract_x
_atom_site_fract_y
_atom_site_fract_z
Si Si1 0.646030 0.179701 0.544432
Si Si2 0.310124 0.191952 0.047047
Si Si3 0.500000 0.500000 0.500000
Si Si4 0.892722 0.090490 0.913014
Si Si5 0.865531 0.506300 0.936164
Si Si6 0.247442 0.364168 0.646129
O O1 0.653764 0.520866 0.811503
O O2 0.786682 0.212096 0.635130
O O3 0.500000 0.000000 0.500000
O O4 0.674421 0.062855 0.281818
O O5 0.424608 0.259419 0.198511
O O6 0.161111 0.107833 0.108083
O O7 0.398192 0.328685 0.506942
O O8 0.867378 0.890029 0.609746
O O9 0.791524 0.336495 0.148649
O O10 0.055854 0.267406 0.006924
O O11 0.751747 0.600938 0.157788
O O12 0.000000 0.500000 0.000000
#
# Coordination Sequence:
#
# PCOD9006416 Si02
#       6
#     2   2   1   2   2   2
#     4  12  27  45  67 100 139 177 226 286 340 400
#     4  11  25  42  66  99 135 177 226 281 341 402
#     4  10  22  42  70  96 138 184 224 274 338 412
#     4  10  22  41  66  98 132 175 229 282 333 400
#     4  10  24  45  72 100 139 185 229 278 340 411
#     4  10  21  38  66 101 132 176 233 277 328 402
#
# _framework density 26.691696
#
# number of rings (size 3 to 8) (size 9 to 14) (size 15 to 20)
#    0.000    1.455    0.000    4.364    0.000   19.636 
#    0.000    0.000    0.000    0.000    0.000    0.000 
#    0.000    0.000    0.000    0.000    0.000    0.000 
#
# Total GULP energy -61309.201500 kJ/mol
# GULP energy per Si atom -5573.563773 kJ/mol
# Density = 2.663094 g / cm^3
# Si number density = 26.691696 Si / 1000 Ang^3
#
#
#
# Elastic Constant Matrix: (Units=GPa)
#
#
# Indices 1 2 3 4 5 6 
#
# 1 77.4942 44.4522 38.5553 -3.2581 41.8210 11.8086
# 2 44.4522 193.2611 40.3288 -14.1463 29.9068 27.8143
# 3 38.5553 40.3288 152.0321 -18.7234 48.6256 -1.9595
# 4 -3.2581 -14.1463 -18.7234 69.4353 -8.6370 5.1902
# 5 41.8210 29.9068 48.6256 -8.6370 56.0213 19.8233
# 6 11.8086 27.8143 -1.9595 5.1902 19.8233 55.6924
#
#
#
# Elastic Compliance Matrix: (Units=1/GPa)
#
#
# Indices 1 2 3 4 5 6 
#
# 1 0.023533 -0.003362 0.000299 -0.001896 -0.017413 0.003075
# 2 -0.003362 0.006539 -0.001219 0.001261 0.001409 -0.003215
# 3 0.000299 -0.001219 0.010101 0.000964 -0.009701 0.004264
# 4 -0.001896 0.001261 0.000964 0.015447 0.003277 -0.002800
# 5 -0.017413 0.001409 -0.009701 0.003277 0.043698 -0.013212
# 6 0.003075 -0.003215 0.004264 -0.002800 -0.013212 0.024023
#
#
# Mechanical properties :
#
#
# Convention : Reuss Voigt Hill
#
# Bulk Modulus (GPa) = 31.63503 74.38443 53.00973
# Shear Modulus (GPa) = 35.10260 56.19320 45.64790
#
# Velocity S-wave (km/s) = 3.63038 4.59330 4.13993
# Velocity P-wave (km/s) = 5.42685 7.48730 6.53874
#
# Compressibility (1/GPa) = 0.03161052
#
# Stress axis : x y z
#
# Youngs Moduli (GPa) = 42.49425 152.93056 98.99781
#
# Poissons Ratio (x) = 0.51413 -0.02964
# Poissons Ratio (y) = 0.14286 0.12064
# Poissons Ratio (z) = -0.01272 0.18636
#
# Static dielectric constant tensor:
#      x y z
#    x 2.362060 -0.119950 -0.072650 
#    y -0.119950 2.133500 0.013900 
#    z -0.072650 0.013900 1.986590 
# 
# From -- ./inp_files/228607.got.cif
#   From: 2010.05.17/outbox.cif.g08.bks.cpg/sg2_115_cif.got.tgz:228607.got - 2010.06.03 11:33:40.
