data_PCOD9006180
_publ_section_title
;
Structure prediction by ZEFSAII (Michael W. Deem and Ramdas Pophale) SiO2 
 PCOD9006180
Probable space group: P -1
;
_chemical_formula_sum "Si O2"
_cell_formula_units_Z 16
_cell_length_a 17.431756
_cell_length_b 15.077932
_cell_length_c 23.679142
_cell_angle_alpha 18.852092
_cell_angle_beta 22.803401
_cell_angle_gamma 33.171210
_cell_volume 747.725613
_symmetry_space_group_name_H-M "P -1"
_symmetry_group_IT_number 2
_symmetry_cell_setting 'triclinic'
loop_
_space_group_symop_operation_xyz
x,y,z
-x,-y,-z
loop_
_atom_site_type_symbol
_atom_site_label
_atom_site_fract_x
_atom_site_fract_y
_atom_site_fract_z
Si Si1 0.513353 0.616364 0.343329
Si Si2 0.041262 0.574850 0.710761
Si Si3 0.044377 0.937365 0.599950
Si Si4 0.804272 0.988411 0.180563
Si Si5 0.522594 0.000691 0.699455
Si Si6 0.292810 0.076638 0.077519
Si Si7 0.295377 0.774138 0.096426
Si Si8 0.827159 0.525005 0.530657
O O1 0.269944 0.588124 0.525183
O O2 0.531903 0.311021 0.533117
O O3 0.630391 0.672271 0.170488
O O4 0.623607 0.906844 0.125933
O O5 0.056483 0.707911 0.682429
O O6 0.955422 0.777134 0.606116
O O7 0.890752 0.258493 0.999823
O O8 0.242983 0.998058 0.468756
O O9 0.833535 0.844586 0.833474
O O10 0.622000 0.023379 0.242501
O O11 0.750134 0.702991 0.427521
O O12 0.000000 0.000000 0.000000
O O13 0.421015 0.771774 0.955116
O O14 0.158422 0.778049 0.321327
O O15 0.500000 0.000000 0.000000
O O16 0.306394 0.562805 0.268325
O O17 0.056118 0.706686 0.283061
#
# Coordination Sequence:
#
# PCOD9006180 Si02
#       8
#     2   2   2   2   2   2   2   2
#     4  11  21  39  72  99 129 184 232 277 336 419
#     4  11  23  43  68 103 138 180 234 278 346 412
#     4  11  26  42  65 104 139 179 230 287 348 408
#     4  12  22  39  70 105 141 180 228 283 337 419
#     4  12  24  39  70 106 138 175 237 281 345 400
#     4  11  22  42  70  91 132 184 231 278 340 420
#     4  10  21  38  65 103 134 176 225 290 326 409
#     4  10  22  39  66 104 133 178 241 268 342 406
#
# _framework density 21.398223999999999
#
# number of rings (size 3 to 8) (size 9 to 14) (size 15 to 20)
#    0.000    1.000    5.000    1.875    1.750    1.000 
#    0.000    0.000    2.750    3.750    0.000    0.000 
#    0.000    0.000    0.000    0.000    0.000    0.000 
#
# Total GULP energy -89401.298153 kJ/mol
# GULP energy per Si atom -5587.581135 kJ/mol
# Density = 2.134952 g / cm^3
# Si number density = 21.398224 Si / 1000 Ang^3
#
#
#
# Elastic Constant Matrix: (Units=GPa)
#
#
# Indices 1 2 3 4 5 6 
#
# 1 100.3422 27.1848 49.4459 11.9195 15.1126 -17.3738
# 2 27.1848 62.9393 32.6100 11.2263 0.2972 -11.1216
# 3 49.4459 32.6100 109.6898 2.1624 8.4299 -0.4570
# 4 11.9195 11.2263 2.1624 28.5548 2.5417 -5.1668
# 5 15.1126 0.2972 8.4299 2.5417 56.0762 9.0489
# 6 -17.3738 -11.1216 -0.4570 -5.1668 9.0489 16.3890
#
#
#
# Elastic Compliance Matrix: (Units=1/GPa)
#
#
# Indices 1 2 3 4 5 6 
#
# 1 0.019618 0.000667 -0.008281 -0.002685 -0.007881 0.024523
# 2 0.000667 0.022820 -0.006797 -0.005908 -0.001419 0.014923
# 3 -0.008281 -0.006797 0.014603 0.002410 0.002125 -0.013397
# 4 -0.002685 -0.005908 0.002410 0.039810 -0.002570 0.007181
# 5 -0.007881 -0.001419 0.002125 -0.002570 0.023478 -0.023032
# 6 0.024523 0.014923 -0.013397 0.007181 -0.023032 0.111747
#
#
# Mechanical properties :
#
#
# Convention : Reuss Voigt Hill
#
# Bulk Modulus (GPa) = 35.43733 54.60583 45.02158
# Shear Modulus (GPa) = 18.49769 31.11938 24.80854
#
# Velocity S-wave (km/s) = 2.94334 3.81766 3.40865
# Velocity P-wave (km/s) = 5.30545 6.70872 6.04793
#
# Compressibility (1/GPa) = 0.02821883
#
# Stress axis : x y z
#
# Youngs Moduli (GPa) = 50.97412 43.82198 68.47724
#
# Poissons Ratio (x) = -0.02921 0.56704
# Poissons Ratio (y) = -0.03397 0.46543
# Poissons Ratio (z) = 0.42210 0.29785
#
# Static dielectric constant tensor:
#      x y z
#    x 1.858570 0.020830 -0.002220 
#    y 0.020830 1.752100 -0.018410 
#    z -0.002220 -0.018410 1.795240 
# 
# From -- ./inp_files/613228.got.cif
#   From: 2010.05.17/outbox.cif.g08.bks.cpg/sg2_307_cif.got.tgz:613228.got - 2010.06.03 11:33:40.
