data_PCOD9006251
_publ_section_title
;
Structure prediction by ZEFSAII (Michael W. Deem and Ramdas Pophale) SiO2 
 PCOD9006251
Probable space group: P -1
;
_chemical_formula_sum "Si O2"
_cell_formula_units_Z 16
_cell_length_a 12.143146
_cell_length_b 10.581985
_cell_length_c 14.196577
_cell_angle_alpha 78.190906
_cell_angle_beta 101.603381
_cell_angle_gamma 155.724621
_cell_volume 733.630997
_symmetry_space_group_name_H-M "P -1"
_symmetry_group_IT_number 2
_symmetry_cell_setting 'triclinic'
loop_
_space_group_symop_operation_xyz
x,y,z
-x,-y,-z
loop_
_atom_site_type_symbol
_atom_site_label
_atom_site_fract_x
_atom_site_fract_y
_atom_site_fract_z
Si Si1 0.856640 0.407168 0.286300
Si Si2 0.107455 0.941164 0.200008
Si Si3 0.248682 0.843388 0.877584
Si Si4 0.244656 0.417968 0.470340
Si Si5 0.644138 0.173436 0.597303
Si Si6 0.380676 0.496842 0.925929
Si Si7 0.748537 0.836681 0.597225
Si Si8 0.220025 0.547945 0.037606
O O1 0.954598 0.645204 0.226734
O O2 0.861263 0.303909 0.221538
O O3 0.064700 0.585630 0.376636
O O4 0.555024 0.096665 0.319497
O O5 0.890514 0.808926 0.133750
O O6 0.377048 0.205629 0.145526
O O7 0.181074 0.064456 0.298185
O O8 0.067482 0.755682 0.916510
O O9 0.555416 0.205189 0.880750
O O10 0.230363 0.689537 0.955617
O O11 0.326438 0.642620 0.412959
O O12 0.460257 0.593071 0.557428
O O13 0.239698 0.301947 0.407837
O O14 0.961841 0.127369 0.519927
O O15 0.500000 0.000000 0.500000
O O16 0.500000 0.500000 0.000000
O O17 0.295980 0.513256 0.986466
#
# Coordination Sequence:
#
# PCOD9006251 Si02
#       8
#     2   2   2   2   2   2   2   2
#     4  12  24  40  65  96 129 170 216 265 320 383
#     4  12  24  43  67  95 128 168 227 261 319 397
#     4  10  21  38  65  92 120 166 210 259 313 385
#     4  10  21  41  65  93 131 167 218 256 319 384
#     4  12  24  40  62  98 138 167 205 268 332 376
#     4  12  26  45  65  94 132 169 216 275 327 384
#     4  10  21  41  69  91 122 178 214 261 308 379
#     4  10  21  40  65  89 124 161 210 261 325 381
#
# _framework density 21.809331
#
# number of rings (size 3 to 8) (size 9 to 14) (size 15 to 20)
#    0.000    1.000    1.250    6.000    3.500    0.000 
#    6.750    0.000    0.000    0.000    0.000    0.000 
#    0.000    0.000    0.000    0.000    0.000    0.000 
#
# Total GULP energy -89553.520414 kJ/mol
# GULP energy per Si atom -5597.095026 kJ/mol
# Density = 2.175969 g / cm^3
# Si number density = 21.809331 Si / 1000 Ang^3
#
#
#
# Elastic Constant Matrix: (Units=GPa)
#
#
# Indices 1 2 3 4 5 6 
#
# 1 81.4056 17.4742 28.3736 -0.0686 -6.5917 4.9712
# 2 17.4742 79.0202 11.0214 4.3517 -5.1573 1.9908
# 3 28.3736 11.0214 66.9108 18.3185 -14.1908 -7.9998
# 4 -0.0686 4.3517 18.3185 40.9223 0.2179 -0.6504
# 5 -6.5917 -5.1573 -14.1908 0.2179 20.2260 5.5392
# 6 4.9712 1.9908 -7.9998 -0.6504 5.5392 26.2668
#
#
#
# Elastic Compliance Matrix: (Units=1/GPa)
#
#
# Indices 1 2 3 4 5 6 
#
# 1 0.015927 -0.002467 -0.007913 0.003746 0.000401 -0.005229
# 2 -0.002467 0.013539 -0.000403 -0.001298 0.002733 -0.001291
# 3 -0.007913 -0.000403 0.024951 -0.011114 0.013287 0.006050
# 4 0.003746 -0.001298 -0.011114 0.029563 -0.006721 -0.001846
# 5 0.000401 0.002733 0.013287 -0.006721 0.062275 -0.009536
# 6 -0.005229 -0.001291 0.006050 -0.001846 -0.009536 0.042966
#
#
# Mechanical properties :
#
#
# Convention : Reuss Voigt Hill
#
# Bulk Modulus (GPa) = 30.44041 37.89723 34.16882
# Shear Modulus (GPa) = 22.54915 28.84752 25.69834
#
# Velocity S-wave (km/s) = 3.21895 3.64086 3.43639
# Velocity P-wave (km/s) = 5.27289 5.92358 5.60768
#
# Compressibility (1/GPa) = 0.03285107
#
# Stress axis : x y z
#
# Youngs Moduli (GPa) = 62.78770 73.86019 40.07791
#
# Poissons Ratio (x) = 0.18219 0.31714
# Poissons Ratio (y) = 0.15487 0.01617
# Poissons Ratio (z) = 0.49684 0.02979
#
# Static dielectric constant tensor:
#      x y z
#    x 1.775380 -0.010610 0.008020 
#    y -0.010610 1.774590 0.013960 
#    z 0.008020 0.013960 1.785810 
# 
# From -- ./inp_files/519684.got.cif
#   From: 2010.05.17/outbox.cif.g08.bks.cpg/sg2_260_cif.got.tgz:519684.got - 2010.06.03 11:33:40.
