data_PCOD9006822
_publ_section_title
;
Structure prediction by ZEFSAII (Michael W. Deem and Ramdas Pophale) SiO2 
 PCOD9006822
Probable space group: P -1
;
_chemical_formula_sum "Si O2"
_cell_formula_units_Z 15
_cell_length_a 16.288989
_cell_length_b 7.540458
_cell_length_c 7.856526
_cell_angle_alpha 74.868479
_cell_angle_beta 126.679270
_cell_angle_gamma 137.149186
_cell_volume 497.884616
_symmetry_space_group_name_H-M "P -1"
_symmetry_group_IT_number 2
_symmetry_cell_setting 'triclinic'
loop_
_space_group_symop_operation_xyz
x,y,z
-x,-y,-z
loop_
_atom_site_type_symbol
_atom_site_label
_atom_site_fract_x
_atom_site_fract_y
_atom_site_fract_z
Si Si1 0.451652 0.745634 0.266839
Si Si2 0.572329 0.432888 0.357078
Si Si3 0.196614 0.688107 0.005553
Si Si4 0.000000 0.000000 0.000000
Si Si5 0.752154 0.348393 0.426971
Si Si6 0.873089 0.156646 0.806750
Si Si7 0.689741 0.891887 0.180636
Si Si8 0.828345 0.756343 0.182928
O O1 0.497471 0.698962 0.508426
O O2 0.349257 0.778783 0.201633
O O3 0.591035 0.028668 0.267494
O O4 0.333110 0.490575 0.056114
O O5 0.690024 0.425159 0.459285
O O6 0.631274 0.721162 0.324855
O O7 0.448072 0.261166 0.088724
O O8 0.168079 0.817346 0.067473
O O9 0.058460 0.359456 0.960107
O O10 0.209423 0.792125 0.808316
O O11 0.169001 0.107804 0.215364
O O12 0.964734 0.976065 0.168360
O O13 0.847301 0.303481 0.628365
O O14 0.845699 0.591732 0.347840
O O15 0.796404 0.873212 0.245131
#
# Coordination Sequence:
#
# PCOD9006822 Si02
#       8
#     2   2   2   1   2   2   2   2
#     4  12  22  42  70 102 127 175 223 273 327 399
#     4  10  21  38  70 100 132 166 221 273 331 383
#     4  11  21  41  70  95 127 175 227 264 327 396
#     4  12  24  46  62  90 140 174 210 274 332 390
#     4  11  23  44  69  99 131 174 224 272 327 395
#     4  11  24  42  68  96 128 178 224 269 326 395
#     4  10  21  42  64  99 136 170 212 278 328 384
#     4  11  26  43  64  96 141 175 214 276 334 383
#
# _framework density 30.127464
#
# number of rings (size 3 to 8) (size 9 to 14) (size 15 to 20)
#    0.000    1.067    5.333    1.600    0.000    1.067 
#    2.400    1.333    0.000    0.000    0.000    0.000 
#    0.000    0.000    0.000    0.000    0.000    0.000 
#
# Total GULP energy -83831.198433 kJ/mol
# GULP energy per Si atom -5588.746562 kJ/mol
# Density = 3.005889 g / cm^3
# Si number density = 30.127464 Si / 1000 Ang^3
#
#
#
# Elastic Constant Matrix: (Units=GPa)
#
#
# Indices 1 2 3 4 5 6 
#
# 1 110.2827 -2.4378 12.5169 -6.4972 33.4387 -10.2294
# 2 -2.4378 126.1363 41.7807 -37.4166 -5.9185 26.0987
# 3 12.5169 41.7807 158.3940 -36.3101 11.7456 11.4443
# 4 -6.4972 -37.4166 -36.3101 67.0907 4.7182 -4.1625
# 5 33.4387 -5.9185 11.7456 4.7182 48.9244 -17.3694
# 6 -10.2294 26.0987 11.4443 -4.1625 -17.3694 69.7631
#
#
#
# Elastic Compliance Matrix: (Units=1/GPa)
#
#
# Indices 1 2 3 4 5 6 
#
# 1 0.011655 0.000499 0.000046 0.001986 -0.008258 -0.000423
# 2 0.000499 0.010584 -0.001400 0.005009 -0.000439 -0.003467
# 3 0.000046 -0.001400 0.007799 0.003568 -0.002860 -0.001248
# 4 0.001986 0.005009 0.003568 0.019996 -0.004259 -0.002035
# 5 -0.008258 -0.000439 -0.002860 -0.004259 0.029435 0.006497
# 6 -0.000423 -0.003467 -0.001248 -0.002035 0.006497 0.017270
#
#
# Mechanical properties :
#
#
# Convention : Reuss Voigt Hill
#
# Bulk Modulus (GPa) = 35.29997 55.39252 45.34624
# Shear Modulus (GPa) = 46.34251 60.01918 53.18085
#
# Velocity S-wave (km/s) = 3.92626 4.46822 4.20598
# Velocity P-wave (km/s) = 5.68299 6.71163 6.21861
#
# Compressibility (1/GPa) = 0.02832864
#
# Stress axis : x y z
#
# Youngs Moduli (GPa) = 85.79802 94.48268 128.21562
#
# Poissons Ratio (x) = -0.04719 -0.00584
# Poissons Ratio (y) = -0.04285 0.17949
# Poissons Ratio (z) = -0.00391 0.13227
#
# Static dielectric constant tensor:
#      x y z
#    x 2.071920 0.526030 -0.188210 
#    y 0.526030 1.273630 0.576070 
#    z -0.188210 0.576070 2.272550 
# 
# From -- ./inp_files/175544.got.cif
#   From: 2010.05.17/outbox.cif.g08.bks.cpg/sg2_88_cif.got.tgz:175544.got - 2010.06.03 11:33:40.
