data_PCOD9006465
_publ_section_title
;
Structure prediction by ZEFSAII (Michael W. Deem and Ramdas Pophale) SiO2 
 PCOD9006465
Probable space group: P -1
;
_chemical_formula_sum "Si O2"
_cell_formula_units_Z 14
_cell_length_a 6.048024
_cell_length_b 13.385030
_cell_length_c 14.441307
_cell_angle_alpha 141.976014
_cell_angle_beta 97.886476
_cell_angle_gamma 64.886642
_cell_volume 609.981541
_symmetry_space_group_name_H-M "P -1"
_symmetry_group_IT_number 2
_symmetry_cell_setting 'triclinic'
loop_
_space_group_symop_operation_xyz
x,y,z
-x,-y,-z
loop_
_atom_site_type_symbol
_atom_site_label
_atom_site_fract_x
_atom_site_fract_y
_atom_site_fract_z
Si Si1 0.372495 0.717585 0.978538
Si Si2 0.896595 0.725585 0.460032
Si Si3 0.765277 0.711326 0.118812
Si Si4 0.526342 0.615850 0.719179
Si Si5 0.495035 0.296803 0.718442
Si Si6 0.698798 0.639962 0.557144
Si Si7 0.944332 0.080291 0.706018
O O1 0.346713 0.747179 0.888516
O O2 0.421025 0.508092 0.845119
O O3 0.636109 0.713767 0.017064
O O4 0.170673 0.841842 0.138470
O O5 0.687332 0.744657 0.386201
O O6 0.582393 0.521712 0.415928
O O7 0.169398 0.521979 0.331874
O O8 0.988413 0.873426 0.558126
O O9 0.569548 0.733770 0.203662
O O10 0.826867 0.875134 0.250009
O O11 0.000000 0.500000 0.000000
O O12 0.538439 0.717169 0.699737
O O13 0.266591 0.232862 0.423445
O O14 0.801523 0.175457 0.668309
O O15 0.000000 0.500000 0.500000
#
# Coordination Sequence:
#
# PCOD9006465 Si02
#       7
#     2   2   2   2   2   2   2
#     4  11  21  37  61  86 114 161 204 239 286 350
#     4  11  23  38  60  90 123 154 193 251 301 339
#     4  11  19  35  55  80 120 159 204 236 279 344
#     4  10  21  38  66  91 110 153 203 241 296 358
#     4  11  21  36  58  86 121 164 203 234 282 356
#     4   9  20  40  65  89 115 146 199 249 295 356
#     4  11  24  37  56  88 129 160 193 244 293 338
#
# _framework density 22.951515000000001
#
# number of rings (size 3 to 8) (size 9 to 14) (size 15 to 20)
#    0.000    1.429    4.286    2.143    0.000    2.857 
#    0.000    0.714    0.000    8.571    0.000    0.000 
#    0.000    0.000    0.000    0.000    0.000    0.000 
#
# Total GULP energy -78034.055100 kJ/mol
# GULP energy per Si atom -5573.861079 kJ/mol
# Density = 2.289928 g / cm^3
# Si number density = 22.951515 Si / 1000 Ang^3
#
#
#
# Elastic Constant Matrix: (Units=GPa)
#
#
# Indices 1 2 3 4 5 6 
#
# 1 80.2647 6.2213 24.2760 -9.4974 22.7339 12.0705
# 2 6.2213 41.0709 21.9919 -23.4053 3.7055 14.6806
# 3 24.2760 21.9919 64.9331 -20.5535 3.8053 -1.1799
# 4 -9.4974 -23.4053 -20.5535 38.7094 8.0272 3.7248
# 5 22.7339 3.7055 3.8053 8.0272 42.6422 -0.3048
# 6 12.0705 14.6806 -1.1799 3.7248 -0.3048 41.1691
#
#
#
# Elastic Compliance Matrix: (Units=1/GPa)
#
#
# Indices 1 2 3 4 5 6 
#
# 1 0.021937 0.016158 -0.008172 0.015338 -0.015357 -0.013929
# 2 0.016158 0.071240 -0.014460 0.047437 -0.022695 -0.035015
# 3 -0.008172 -0.014460 0.023327 0.000104 0.003571 0.008238
# 4 0.015338 0.047437 0.000104 0.066164 -0.024961 -0.027580
# 5 -0.015357 -0.022695 0.003571 -0.024961 0.038099 0.015238
# 6 -0.013929 -0.035015 0.008238 -0.027580 0.015238 0.043704
#
#
# Mechanical properties :
#
#
# Convention : Reuss Voigt Hill
#
# Bulk Modulus (GPa) = 9.65662 32.36081 21.00871
# Shear Modulus (GPa) = 16.02881 33.42275 24.72578
#
# Velocity S-wave (km/s) = 2.64555 3.82020 3.28579
# Velocity P-wave (km/s) = 3.68082 5.79559 4.85475
#
# Compressibility (1/GPa) = 0.10355591
#
# Stress axis : x y z
#
# Youngs Moduli (GPa) = 45.58418 14.03713 42.86958
#
# Poissons Ratio (x) = -0.22681 0.35034
# Poissons Ratio (y) = -0.73656 0.61989
# Poissons Ratio (z) = 0.37253 0.20297
#
# Static dielectric constant tensor:
#      x y z
#    x 1.697710 0.000720 -0.016460 
#    y 0.000720 1.764430 -0.067660 
#    z -0.016460 -0.067660 1.854690 
# 
# From -- ./inp_files/483684.got.cif
#   From: 2010.05.17/outbox.cif.g08.bks.cpg/sg2_242_cif.got.tgz:483684.got - 2010.06.03 11:33:40.
