data_PCOD9006284
_publ_section_title
;
Structure prediction by ZEFSAII (Michael W. Deem and Ramdas Pophale) SiO2 
 PCOD9006284
Probable space group: P -1
;
_chemical_formula_sum "Si O2"
_cell_formula_units_Z 16
_cell_length_a 9.426329
_cell_length_b 5.346617
_cell_length_c 16.174158
_cell_angle_alpha 69.752829
_cell_angle_beta 91.196639
_cell_angle_gamma 80.005290
_cell_volume 750.288257
_symmetry_space_group_name_H-M "P -1"
_symmetry_group_IT_number 2
_symmetry_cell_setting 'triclinic'
loop_
_space_group_symop_operation_xyz
x,y,z
-x,-y,-z
loop_
_atom_site_type_symbol
_atom_site_label
_atom_site_fract_x
_atom_site_fract_y
_atom_site_fract_z
Si Si1 0.897756 0.394849 0.213027
Si Si2 0.173407 0.677248 0.461419
Si Si3 0.603482 0.834201 0.145631
Si Si4 0.386815 0.697940 0.034394
Si Si5 0.970883 0.495324 0.372504
Si Si6 0.278787 0.020336 0.713477
Si Si7 0.337201 0.052497 0.523731
Si Si8 0.059573 0.676399 0.049962
O O1 0.740093 0.593150 0.185988
O O2 0.983713 0.334431 0.306860
O O3 0.839695 0.120647 0.224204
O O4 0.997892 0.553094 0.143782
O O5 0.046933 0.683134 0.527856
O O6 0.276999 0.377235 0.492679
O O7 0.088478 0.677095 0.373988
O O8 0.254317 0.905926 0.470493
O O9 0.464172 0.736961 0.117809
O O10 0.593527 0.978289 0.218960
O O11 0.641878 0.025677 0.050993
O O12 0.233166 0.616674 0.054731
O O13 0.500000 0.500000 0.000000
O O14 0.813694 0.682954 0.338575
O O15 0.322930 0.925089 0.630898
O O16 0.500000 0.000000 0.500000
O O17 0.000000 0.500000 0.000000
O O18 0.000000 0.000000 0.000000
#
# Coordination Sequence:
#
# PCOD9006284 Si02
#       8
#     2   2   2   2   2   2   2   2
#     4  11  21  41  65  93 130 169 222 274 332 387
#     4  10  21  40  64  93 125 164 218 266 321 387
#     4  10  21  39  65  90 124 169 219 265 328 399
#     4  11  23  42  66  94 128 176 221 268 336 401
#     4   9  21  36  65  92 123 163 213 271 324 381
#     4  10  21  38  65  93 125 170 218 267 329 389
#     4  11  23  41  63  91 131 175 216 260 323 395
#     4  12  26  44  67  98 132 171 219 280 330 391
#
# _framework density 21.325136000000001
#
# number of rings (size 3 to 8) (size 9 to 14) (size 15 to 20)
#    0.000    1.500    2.500    2.625    5.250    1.500 
#    2.250    1.250    0.000    0.000    0.000    0.000 
#    0.000    0.000    0.000    0.000    0.000    0.000 
#
# Total GULP energy -89104.803117 kJ/mol
# GULP energy per Si atom -5569.050195 kJ/mol
# Density = 2.127660 g / cm^3
# Si number density = 21.325136 Si / 1000 Ang^3
#
#
#
# Elastic Constant Matrix: (Units=GPa)
#
#
# Indices 1 2 3 4 5 6 
#
# 1 135.6873 34.0993 36.1174 18.8855 11.4686 24.2292
# 2 34.0993 96.2124 19.5824 13.8848 10.8502 12.3883
# 3 36.1174 19.5824 58.2849 19.4336 27.2550 10.5112
# 4 18.8855 13.8848 19.4336 29.2194 17.6452 13.9686
# 5 11.4686 10.8502 27.2550 17.6452 34.7478 7.4133
# 6 24.2292 12.3883 10.5112 13.9686 7.4133 34.6227
#
#
#
# Elastic Compliance Matrix: (Units=1/GPa)
#
#
# Indices 1 2 3 4 5 6 
#
# 1 0.010241 -0.001972 -0.006069 -0.001716 0.003882 -0.004758
# 2 -0.001972 0.011988 -0.001587 -0.002574 -0.000256 -0.001334
# 3 -0.006069 -0.001587 0.032631 -0.005166 -0.020780 0.001442
# 4 -0.001716 -0.002574 -0.005166 0.061132 -0.022158 -0.016229
# 5 0.003882 -0.000256 -0.020780 -0.022158 0.054945 0.000859
# 6 -0.004758 -0.001334 0.001442 -0.016229 0.000859 0.038616
#
#
# Mechanical properties :
#
#
# Convention : Reuss Voigt Hill
#
# Bulk Modulus (GPa) = 28.08731 52.19809 40.14270
# Shear Modulus (GPa) = 20.77483 33.07700 26.92592
#
# Velocity S-wave (km/s) = 3.12459 3.94265 3.55722
# Velocity P-wave (km/s) = 5.12026 6.72729 5.97802
#
# Compressibility (1/GPa) = 0.03560327
#
# Stress axis : x y z
#
# Youngs Moduli (GPa) = 97.64556 83.41866 30.64616
#
# Poissons Ratio (x) = 0.16450 0.18599
# Poissons Ratio (y) = 0.19256 0.04864
# Poissons Ratio (z) = 0.59259 0.13240
#
# Static dielectric constant tensor:
#      x y z
#    x 1.761530 -0.071480 0.108790 
#    y -0.071480 1.473670 0.519300 
#    z 0.108790 0.519300 1.360110 
# 
# From -- ./inp_files/43399.got.cif
#   From: 2010.05.17/outbox.cif.g08.bks.cpg/sg2_22_cif.got.tgz:43399.got - 2010.06.03 11:33:40.
