data_PCOD9006799
_publ_section_title
;
Structure prediction by ZEFSAII (Michael W. Deem and Ramdas Pophale) SiO2 
 PCOD9006799
Probable space group: P -1
;
_chemical_formula_sum "Si O2"
_cell_formula_units_Z 16
_cell_length_a 12.702651
_cell_length_b 14.600505
_cell_length_c 8.021304
_cell_angle_alpha 79.252241
_cell_angle_beta 87.392617
_cell_angle_gamma 28.492415
_cell_volume 674.614826
_symmetry_space_group_name_H-M "P -1"
_symmetry_group_IT_number 2
_symmetry_cell_setting 'triclinic'
loop_
_space_group_symop_operation_xyz
x,y,z
-x,-y,-z
loop_
_atom_site_type_symbol
_atom_site_label
_atom_site_fract_x
_atom_site_fract_y
_atom_site_fract_z
Si Si1 0.641214 0.564606 0.720855
Si Si2 0.335055 0.286616 0.542141
Si Si3 0.120315 0.277533 0.416697
Si Si4 0.818425 0.056631 0.983911
Si Si5 0.957003 0.856509 0.364557
Si Si6 0.681152 0.313768 0.420314
Si Si7 0.160518 0.121080 0.225108
Si Si8 0.346469 0.511212 0.875970
O O1 0.683415 0.638492 0.651477
O O2 0.404877 0.722458 0.591557
O O3 0.836265 0.353151 0.682438
O O4 0.656451 0.521260 0.924175
O O5 0.282046 0.222233 0.520310
O O6 0.131838 0.485479 0.605925
O O7 0.580293 0.109293 0.666833
O O8 0.155200 0.144382 0.534709
O O9 0.179096 0.217545 0.236927
O O10 0.578489 0.286400 0.863100
O O11 0.880039 0.920741 0.908572
O O12 0.801240 0.027414 0.179971
O O13 0.000000 0.000000 0.000000
O O14 0.076565 0.844169 0.470917
O O15 0.500000 0.500000 0.500000
O O16 0.644772 0.388021 0.214370
O O17 0.894630 0.326692 0.241692
#
# Coordination Sequence:
#
# PCOD9006799 Si02
#       8
#     2   2   2   2   2   2   2   2
#     4  10  22  40  68  99 137 170 226 278 343 403
#     4  10  24  45  77 103 128 180 230 283 333 416
#     4  10  22  47  77  96 136 174 231 284 341 394
#     4  12  28  42  66 100 142 181 231 276 338 407
#     4  10  21  42  66 100 133 177 225 281 333 406
#     4  10  21  38  69  94 135 176 221 276 336 407
#     4  12  25  44  70  99 137 180 226 281 341 405
#     4  12  25  43  65  98 140 179 218 284 340 401
#
# _framework density 23.717238999999999
#
# number of rings (size 3 to 8) (size 9 to 14) (size 15 to 20)
#    0.000    1.250    2.500    3.000    8.750    0.000 
#    0.000    3.125    0.000    0.000    0.000    0.000 
#    0.000    0.000    0.000    0.000    0.000    0.000 
#
# Total GULP energy -89068.712388 kJ/mol
# GULP energy per Si atom -5566.794524 kJ/mol
# Density = 2.366326 g / cm^3
# Si number density = 23.717239 Si / 1000 Ang^3
#
#
#
# Elastic Constant Matrix: (Units=GPa)
#
#
# Indices 1 2 3 4 5 6 
#
# 1 132.4027 27.1158 55.9431 -3.8902 22.0936 6.5887
# 2 27.1158 117.4697 27.2759 -14.8114 20.8793 -3.3615
# 3 55.9431 27.2759 82.1550 -7.0054 10.6492 -4.8008
# 4 -3.8902 -14.8114 -7.0054 43.4431 3.2543 13.6856
# 5 22.0936 20.8793 10.6492 3.2543 28.5514 6.2887
# 6 6.5887 -3.3615 -4.8008 13.6856 6.2887 28.7786
#
#
#
# Elastic Compliance Matrix: (Units=1/GPa)
#
#
# Indices 1 2 3 4 5 6 
#
# 1 0.011858 0.000120 -0.007421 0.001391 -0.005926 -0.003305
# 2 0.000120 0.010898 -0.002329 0.003679 -0.007791 0.000810
# 3 -0.007421 -0.002329 0.018323 0.000101 -0.000396 0.004522
# 4 0.001391 0.003679 0.000101 0.028699 -0.004305 -0.012579
# 5 -0.005926 -0.007791 -0.000396 -0.004305 0.047708 -0.007997
# 6 -0.003305 0.000810 0.004522 -0.012579 -0.007997 0.044083
#
#
# Mechanical properties :
#
#
# Convention : Reuss Voigt Hill
#
# Bulk Modulus (GPa) = 45.83111 61.41078 53.62095
# Shear Modulus (GPa) = 26.58149 34.93413 30.75781
#
# Velocity S-wave (km/s) = 3.35142 3.84206 3.60509
# Velocity P-wave (km/s) = 5.86020 6.75507 6.32348
#
# Compressibility (1/GPa) = 0.02181924
#
# Stress axis : x y z
#
# Youngs Moduli (GPa) = 84.33260 91.76145 54.57730
#
# Poissons Ratio (x) = -0.01102 0.40500
# Poissons Ratio (y) = -0.01013 0.12711
# Poissons Ratio (z) = 0.62581 0.21370
#
# Static dielectric constant tensor:
#      x y z
#    x 1.933150 -0.028460 0.020480 
#    y -0.028460 1.973100 0.068040 
#    z 0.020480 0.068040 1.999390 
# 
# From -- ./inp_files/272897.got.cif
#   From: 2010.05.17/outbox.cif.g08.bks.cpg/sg2_137_cif.got.tgz:272897.got - 2010.06.03 11:33:40.
