data_PCOD9006633
_publ_section_title
;
Structure prediction by ZEFSAII (Michael W. Deem and Ramdas Pophale) SiO2 
 PCOD9006633
Probable space group: P -1
;
_chemical_formula_sum "Si O2"
_cell_formula_units_Z 14
_cell_length_a 15.605773
_cell_length_b 5.093378
_cell_length_c 10.313307
_cell_angle_alpha 90.941047
_cell_angle_beta 136.777498
_cell_angle_gamma 79.397551
_cell_volume 543.323625
_symmetry_space_group_name_H-M "P -1"
_symmetry_group_IT_number 2
_symmetry_cell_setting 'triclinic'
loop_
_space_group_symop_operation_xyz
x,y,z
-x,-y,-z
loop_
_atom_site_type_symbol
_atom_site_label
_atom_site_fract_x
_atom_site_fract_y
_atom_site_fract_z
Si Si1 0.378977 0.047735 0.270106
Si Si2 0.966493 0.328704 0.081962
Si Si3 0.197845 0.969970 0.265857
Si Si4 0.301852 0.532205 0.569995
Si Si5 0.373958 0.005223 0.780262
Si Si6 0.148993 0.465047 0.624012
Si Si7 0.274867 0.566550 0.015593
O O1 0.270142 0.144062 0.262203
O O2 0.337467 0.797978 0.148743
O O3 0.500000 0.000000 0.500000
O O4 0.372414 0.283491 0.161171
O O5 0.892002 0.122609 0.937725
O O6 0.863811 0.460649 0.077130
O O7 0.106982 0.146080 0.276053
O O8 0.000000 0.500000 0.000000
O O9 0.282479 0.691755 0.415973
O O10 0.367694 0.213948 0.652721
O O11 0.166028 0.580629 0.500043
O O12 0.379307 0.704527 0.739833
O O13 0.241548 0.158146 0.710348
O O14 0.500000 0.000000 0.000000
O O15 0.000000 0.500000 0.500000
O O16 0.231694 0.595591 0.818979
#
# Coordination Sequence:
#
# PCOD9006633 Si02
#       7
#     2   2   2   2   2   2   2
#     4  11  25  47  70 102 134 185 236 291 357 417
#     4  10  21  38  67  93 137 173 227 279 354 403
#     4  10  23  41  64 104 131 177 228 293 340 420
#     4  10  25  42  72 100 138 180 238 284 351 417
#     4  10  24  48  68  98 140 182 241 282 347 422
#     4  10  27  44  71 108 148 188 237 289 360 425
#     4  11  25  44  71  99 142 183 230 293 354 418
#
# _framework density 25.767334999999999
#
# number of rings (size 3 to 8) (size 9 to 14) (size 15 to 20)
#    0.857    0.857    1.429    0.857    8.000    1.714 
#    0.000    0.000    0.000    0.000    0.000    0.000 
#    0.000    0.000    0.000    0.000    0.000    0.000 
#
# Total GULP energy -78113.674136 kJ/mol
# GULP energy per Si atom -5579.548153 kJ/mol
# Density = 2.570869 g / cm^3
# Si number density = 25.767335 Si / 1000 Ang^3
#
#
#
# Elastic Constant Matrix: (Units=GPa)
#
#
# Indices 1 2 3 4 5 6 
#
# 1 70.8846 9.5875 11.0027 1.1058 7.7918 10.1367
# 2 9.5875 122.0786 36.1266 8.9839 -2.0998 7.4632
# 3 11.0027 36.1266 121.7691 18.0361 3.0281 -7.6221
# 4 1.1058 8.9839 18.0361 50.1775 5.9909 -5.2950
# 5 7.7918 -2.0998 3.0281 5.9909 39.5209 0.0993
# 6 10.1367 7.4632 -7.6221 -5.2950 0.0993 20.1570
#
#
#
# Elastic Compliance Matrix: (Units=1/GPa)
#
#
# Indices 1 2 3 4 5 6 
#
# 1 0.015992 -0.000222 -0.001816 -0.000222 -0.002970 -0.008691
# 2 -0.000222 0.009483 -0.002933 -0.001267 0.000977 -0.004846
# 3 -0.001816 -0.002933 0.009934 -0.002441 -0.000202 0.005115
# 4 -0.000222 -0.001267 -0.002441 0.021994 -0.003184 0.005451
# 5 -0.002970 0.000977 -0.000202 -0.003184 0.026438 0.000089
# 6 -0.008691 -0.004846 0.005115 0.005451 0.000089 0.059141
#
#
# Mechanical properties :
#
#
# Convention : Reuss Voigt Hill
#
# Bulk Modulus (GPa) = 39.26894 47.57399 43.42146
# Shear Modulus (GPa) = 30.97623 39.17212 35.07418
#
# Velocity S-wave (km/s) = 3.47097 3.90324 3.69343
# Velocity P-wave (km/s) = 5.59789 6.23030 5.92254
#
# Compressibility (1/GPa) = 0.02546542
#
# Stress axis : x y z
#
# Youngs Moduli (GPa) = 62.53087 105.44898 100.66908
#
# Poissons Ratio (x) = 0.02339 0.18285
# Poissons Ratio (y) = 0.01387 0.29531
# Poissons Ratio (z) = 0.11358 0.30933
#
# Static dielectric constant tensor:
#      x y z
#    x 2.176700 -0.080210 0.018580 
#    y -0.080210 2.023410 0.013490 
#    z 0.018580 0.013490 1.947920 
# 
# From -- ./inp_files/468087.got.cif
#   From: 2010.05.17/outbox.cif.g08.bks.cpg/sg2_235_cif.got.tgz:468087.got - 2010.06.03 11:33:40.
