data_PCOD9006131
_publ_section_title
;
Structure prediction by ZEFSAII (Michael W. Deem and Ramdas Pophale) SiO2 
 PCOD9006131
Probable space group: P -1
;
_chemical_formula_sum "Si O2"
_cell_formula_units_Z 16
_cell_length_a 10.264369
_cell_length_b 25.938669
_cell_length_c 5.011225
_cell_angle_alpha 70.715200
_cell_angle_beta 112.366703
_cell_angle_gamma 151.674594
_cell_volume 585.393577
_symmetry_space_group_name_H-M "P -1"
_symmetry_group_IT_number 2
_symmetry_cell_setting 'triclinic'
loop_
_space_group_symop_operation_xyz
x,y,z
-x,-y,-z
loop_
_atom_site_type_symbol
_atom_site_label
_atom_site_fract_x
_atom_site_fract_y
_atom_site_fract_z
Si Si1 0.880157 0.599343 0.432125
Si Si2 0.247763 0.045007 0.225883
Si Si3 0.426603 0.674692 0.058600
Si Si4 0.865545 0.222734 0.342825
Si Si5 0.163118 0.487134 0.935462
Si Si6 0.885008 0.837028 0.475838
Si Si7 0.516802 0.800447 0.500823
Si Si8 0.193816 0.872099 0.038348
O O1 0.897314 0.659959 0.529558
O O2 0.195056 0.706510 0.374125
O O3 0.825441 0.536306 0.724117
O O4 0.737358 0.524099 0.186499
O O5 0.567676 0.154834 0.183672
O O6 0.306855 0.086138 0.501205
O O7 0.144376 0.948324 0.323354
O O8 0.000000 0.000000 0.000000
O O9 0.337474 0.601085 0.890740
O O10 0.678178 0.731324 0.322227
O O11 0.508467 0.757312 0.825384
O O12 0.160009 0.599216 0.169974
O O13 0.905333 0.208061 0.113657
O O14 0.807983 0.155768 0.627389
O O15 0.681704 0.820434 0.385704
O O16 0.984265 0.849027 0.815674
O O17 0.500000 0.000000 0.000000
#
# Coordination Sequence:
#
# PCOD9006131 Si02
#       8
#     2   2   2   2   2   2   2   2
#     4  10  21  41  67  92 129 164 211 268 328 387
#     4  11  23  38  64  94 134 166 208 268 325 394
#     4  10  22  36  61  95 134 162 209 264 329 396
#     4  11  26  46  66  95 129 177 223 261 318 384
#     4  10  21  38  64  98 129 165 204 269 338 387
#     4  12  24  39  63  91 135 173 216 260 319 386
#     4  10  22  36  59  95 126 166 205 258 333 383
#     4  12  27  44  67  91 133 183 222 260 305 379
#
# _framework density 27.332037
#
# number of rings (size 3 to 8) (size 9 to 14) (size 15 to 20)
#    0.000    1.250    3.750    1.500    5.250    3.500 
#    0.000    0.000    0.000    4.500    0.000    0.000 
#    0.000    0.000    0.000    0.000    0.000    0.000 
#
# Total GULP energy -89395.370216 kJ/mol
# GULP energy per Si atom -5587.210638 kJ/mol
# Density = 2.726983 g / cm^3
# Si number density = 27.332037 Si / 1000 Ang^3
#
#
#
# Elastic Constant Matrix: (Units=GPa)
#
#
# Indices 1 2 3 4 5 6 
#
# 1 72.6347 9.2982 0.2126 3.7298 -11.2762 -21.7676
# 2 9.2982 90.8862 33.3740 5.9158 1.7654 -24.6476
# 3 0.2126 33.3740 117.0909 -12.6184 -6.0659 1.5677
# 4 3.7298 5.9158 -12.6184 38.4913 -12.9138 -7.0057
# 5 -11.2762 1.7654 -6.0659 -12.9138 38.4894 4.5126
# 6 -21.7676 -24.6476 1.5677 -7.0057 4.5126 34.7430
#
#
#
# Elastic Compliance Matrix: (Units=1/GPa)
#
#
# Indices 1 2 3 4 5 6 
#
# 1 0.017713 0.001242 -0.000148 0.001618 0.004273 0.011757
# 2 0.001242 0.016615 -0.005485 -0.003488 -0.003912 0.012618
# 3 -0.000148 -0.005485 0.010918 0.005088 0.004103 -0.003984
# 4 0.001618 -0.003488 0.005088 0.032662 0.012003 0.003336
# 5 0.004273 -0.003912 0.004103 0.012003 0.032328 -0.002062
# 6 0.011757 0.012618 -0.003984 0.003336 -0.002062 0.046220
#
#
# Mechanical properties :
#
#
# Convention : Reuss Voigt Hill
#
# Bulk Modulus (GPa) = 27.42476 40.70905 34.06691
# Shear Modulus (GPa) = 28.18609 38.19320 33.18964
#
# Velocity S-wave (km/s) = 3.21479 3.74221 3.48848
# Velocity P-wave (km/s) = 4.88216 5.79644 5.35884
#
# Compressibility (1/GPa) = 0.03646340
#
# Stress axis : x y z
#
# Youngs Moduli (GPa) = 56.45714 60.18738 91.58861
#
# Poissons Ratio (x) = -0.07476 0.01355
# Poissons Ratio (y) = -0.07013 0.50240
# Poissons Ratio (z) = 0.00835 0.33015
#
# Static dielectric constant tensor:
#      x y z
#    x 2.270630 -0.040880 -0.005960 
#    y -0.040880 2.192350 0.083580 
#    z -0.005960 0.083580 2.104030 
# 
# From -- ./inp_files/84816.got.cif
#   From: 2010.05.17/outbox.cif.g08.bks.cpg/sg2_43_cif.got.tgz:84816.got - 2010.06.03 11:33:40.
