data_PCOD9006159
_publ_section_title
;
Structure prediction by ZEFSAII (Michael W. Deem and Ramdas Pophale) SiO2 
 PCOD9006159
Probable space group: P -1
;
_chemical_formula_sum "Si O2"
_cell_formula_units_Z 16
_cell_length_a 11.020069
_cell_length_b 8.153290
_cell_length_c 16.919372
_cell_angle_alpha 34.552065
_cell_angle_beta 131.081816
_cell_angle_gamma 120.370657
_cell_volume 647.633463
_symmetry_space_group_name_H-M "P -1"
_symmetry_group_IT_number 2
_symmetry_cell_setting 'triclinic'
loop_
_space_group_symop_operation_xyz
x,y,z
-x,-y,-z
loop_
_atom_site_type_symbol
_atom_site_label
_atom_site_fract_x
_atom_site_fract_y
_atom_site_fract_z
Si Si1 0.249424 0.227434 0.094542
Si Si2 0.115141 0.675373 0.753649
Si Si3 0.003587 0.185145 0.781019
Si Si4 0.124570 0.286640 0.553113
Si Si5 0.598604 0.759969 0.190755
Si Si6 0.333002 0.375384 0.450878
Si Si7 0.284475 0.811154 0.128984
Si Si8 0.393118 0.728305 0.730189
O O1 0.413941 0.326543 0.159870
O O2 0.149567 0.997500 0.190315
O O3 0.302898 0.070604 0.096540
O O4 0.135861 0.510187 0.910939
O O5 0.291518 0.707918 0.775669
O O6 0.041984 0.441860 0.757261
O O7 0.033465 0.002638 0.601242
O O8 0.966167 0.388229 0.607319
O O9 0.156155 0.945569 0.956026
O O10 0.249387 0.169459 0.720521
O O11 0.238787 0.348092 0.502840
O O12 0.454984 0.687547 0.216391
O O13 0.662488 0.502157 0.263271
O O14 0.500000 0.000000 0.000000
O O15 0.500000 0.500000 0.500000
O O16 0.239067 0.562055 0.268327
O O17 0.366895 0.054488 0.559974
#
# Coordination Sequence:
#
# PCOD9006159 Si02
#       8
#     2   2   2   2   2   2   2   2
#     4  11  20  39  68  95 132 165 218 272 329 382
#     4  10  21  38  65 100 127 167 216 275 324 383
#     4  11  23  40  67 101 130 169 213 274 336 384
#     4  11  22  40  67  95 132 168 218 273 322 388
#     4  12  25  42  64  93 133 179 221 264 321 387
#     4  11  19  39  65  99 124 166 217 279 323 374
#     4  11  21  39  65  93 132 165 212 270 325 380
#     4  11  23  39  65  96 129 173 226 260 322 388
#
# _framework density 24.705331999999999
#
# number of rings (size 3 to 8) (size 9 to 14) (size 15 to 20)
#    0.000    1.000    3.750    5.250    0.000    0.500 
#    0.000    3.125    0.000    1.500    0.000    0.875 
#    0.000    0.000    0.000    0.000    0.000    0.000 
#
# Total GULP energy -89344.509171 kJ/mol
# GULP energy per Si atom -5584.031823 kJ/mol
# Density = 2.464910 g / cm^3
# Si number density = 24.705332 Si / 1000 Ang^3
#
#
#
# Elastic Constant Matrix: (Units=GPa)
#
#
# Indices 1 2 3 4 5 6 
#
# 1 80.3799 2.7885 10.0820 -0.8119 2.8714 16.4477
# 2 2.7885 75.9061 39.9982 1.6720 -3.9150 16.2294
# 3 10.0820 39.9982 175.3461 -7.4888 -16.6090 5.3682
# 4 -0.8119 1.6720 -7.4888 47.8032 7.2334 4.0033
# 5 2.8714 -3.9150 -16.6090 7.2334 36.0264 -2.1936
# 6 16.4477 16.2294 5.3682 4.0033 -2.1936 36.6658
#
#
#
# Elastic Compliance Matrix: (Units=1/GPa)
#
#
# Indices 1 2 3 4 5 6 
#
# 1 0.014041 0.001418 -0.001074 0.000920 -0.002070 -0.006993
# 2 0.001418 0.016658 -0.003709 -0.000460 -0.000373 -0.007438
# 3 -0.001074 -0.003709 0.006866 0.000664 0.002789 0.001212
# 4 0.000920 -0.000460 0.000664 0.021971 -0.004409 -0.002969
# 5 -0.002070 -0.000373 0.002789 -0.004409 0.030234 0.002976
# 6 -0.006993 -0.007438 0.001212 -0.002969 0.002976 0.034027
#
#
# Mechanical properties :
#
#
# Convention : Reuss Voigt Hill
#
# Bulk Modulus (GPa) = 32.42947 48.59660 40.51304
# Shear Modulus (GPa) = 35.51062 42.68332 39.09697
#
# Velocity S-wave (km/s) = 3.79538 4.16107 3.98242
# Velocity P-wave (km/s) = 5.68872 6.54211 6.13028
#
# Compressibility (1/GPa) = 0.03083615
#
# Stress axis : x y z
#
# Youngs Moduli (GPa) = 71.22206 60.03286 145.64414
#
# Poissons Ratio (x) = -0.08513 0.15635
# Poissons Ratio (y) = -0.10100 0.54013
# Poissons Ratio (z) = 0.07646 0.22263
#
# Static dielectric constant tensor:
#      x y z
#    x 2.043100 -0.024410 0.012930 
#    y -0.024410 1.943990 0.032990 
#    z 0.012930 0.032990 2.073420 
# 
# From -- ./inp_files/566374.got.cif
#   From: 2010.05.17/outbox.cif.g08.bks.cpg/sg2_284_cif.got.tgz:566374.got - 2010.06.03 11:33:40.
