data_PCOD9006754
_publ_section_title
;
Structure prediction by ZEFSAII (Michael W. Deem and Ramdas Pophale) SiO2 
 PCOD9006754
Probable space group: P -1
;
_chemical_formula_sum "Si O2"
_cell_formula_units_Z 16
_cell_length_a 5.371237
_cell_length_b 14.145457
_cell_length_c 13.640795
_cell_angle_alpha 51.208345
_cell_angle_beta 99.570077
_cell_angle_gamma 124.231379
_cell_volume 639.394377
_symmetry_space_group_name_H-M "P -1"
_symmetry_group_IT_number 2
_symmetry_cell_setting 'triclinic'
loop_
_space_group_symop_operation_xyz
x,y,z
-x,-y,-z
loop_
_atom_site_type_symbol
_atom_site_label
_atom_site_fract_x
_atom_site_fract_y
_atom_site_fract_z
Si Si1 0.178429 0.920124 0.468682
Si Si2 0.820485 0.572693 0.913969
Si Si3 0.225841 0.194482 0.292383
Si Si4 0.755111 0.925115 0.122934
Si Si5 0.930960 0.470552 0.210651
Si Si6 0.753144 0.655226 0.312667
Si Si7 0.038032 0.376374 0.467384
Si Si8 0.107125 0.777850 0.060419
O O1 0.904780 0.849644 0.577423
O O2 0.115176 0.787389 0.483156
O O3 0.500000 0.000000 0.500000
O O4 0.189399 0.054123 0.331038
O O5 0.956396 0.747417 0.809148
O O6 0.808089 0.541267 0.815648
O O7 0.500000 0.500000 0.000000
O O8 0.000000 0.500000 0.000000
O O9 0.594142 0.331207 0.239053
O O10 0.760317 0.797468 0.260672
O O11 0.418652 0.840287 0.103622
O O12 0.834635 0.076227 0.081983
O O13 0.000000 0.000000 0.000000
O O14 0.917673 0.448691 0.341424
O O15 0.024127 0.635453 0.085647
O O16 0.413822 0.496101 0.399737
O O17 0.990764 0.645704 0.402798
O O18 0.841391 0.703440 0.174848
#
# Coordination Sequence:
#
# PCOD9006754 Si02
#       8
#     2   2   2   2   2   2   2   2
#     4  11  22  42  70  99 142 190 246 299 355 441
#     4  12  26  47  72 104 141 182 242 309 362 437
#     4  11  23  43  72 101 137 190 241 298 366 427
#     4   9  19  40  63  88 135 177 227 290 347 414
#     4  12  23  43  72 103 137 192 243 292 374 436
#     4  10  22  41  64 102 147 181 236 300 346 430
#     4  11  22  41  66 101 144 186 238 290 364 422
#     4  10  21  38  68  97 130 184 232 286 355 427
#
# _framework density 25.023679000000001
#
# number of rings (size 3 to 8) (size 9 to 14) (size 15 to 20)
#    0.000    1.250    5.000    0.750    0.000    0.500 
#    4.500    2.500    0.000    0.000    0.000    0.000 
#    0.000    0.000    0.000    0.000    0.000    0.000 
#
# Total GULP energy -89292.353741 kJ/mol
# GULP energy per Si atom -5580.772109 kJ/mol
# Density = 2.496672 g / cm^3
# Si number density = 25.023679 Si / 1000 Ang^3
#
#
#
# Elastic Constant Matrix: (Units=GPa)
#
#
# Indices 1 2 3 4 5 6 
#
# 1 84.4344 31.5042 40.4802 -16.9228 10.5707 -8.7776
# 2 31.5042 113.5048 50.2394 -36.5575 8.3411 -12.5994
# 3 40.4802 50.2394 91.9419 -21.0970 34.3540 1.5500
# 4 -16.9228 -36.5575 -21.0970 46.7439 -5.6615 12.6291
# 5 10.5707 8.3411 34.3540 -5.6615 68.2978 -9.8991
# 6 -8.7776 -12.5994 1.5500 12.6291 -9.8991 38.2216
#
#
#
# Elastic Compliance Matrix: (Units=1/GPa)
#
#
# Indices 1 2 3 4 5 6 
#
# 1 0.015908 -0.000533 -0.007182 0.001294 0.001877 0.003827
# 2 -0.000533 0.014761 -0.007307 0.007520 0.003064 0.003349
# 3 -0.007182 -0.007307 0.022790 0.003055 -0.010468 -0.008702
# 4 0.001294 0.007520 0.003055 0.031120 -0.001228 -0.007948
# 5 0.001877 0.003064 -0.010468 -0.001228 0.020229 0.007510
# 6 0.003827 0.003349 -0.008702 -0.007948 0.007510 0.033070
#
#
# Mechanical properties :
#
#
# Convention : Reuss Voigt Hill
#
# Bulk Modulus (GPa) = 42.70644 59.36984 51.03814
# Shear Modulus (GPa) = 28.45340 41.82983 35.14161
#
# Velocity S-wave (km/s) = 3.37569 4.09297 3.75151
# Velocity P-wave (km/s) = 5.68306 6.79069 6.26142
#
# Compressibility (1/GPa) = 0.02341567
#
# Stress axis : x y z
#
# Youngs Moduli (GPa) = 62.86262 67.74728 43.87908
#
# Poissons Ratio (x) = 0.03609 0.31513
# Poissons Ratio (y) = 0.03349 0.32062
# Poissons Ratio (z) = 0.45146 0.49502
#
# Static dielectric constant tensor:
#      x y z
#    x 2.074750 -0.041890 0.010750 
#    y -0.041890 2.022800 0.074470 
#    z 0.010750 0.074470 2.155630 
# 
# From -- ./inp_files/118883.got.cif
#   From: 2010.05.17/outbox.cif.g08.bks.cpg/sg2_60_cif.got.tgz:118883.got - 2010.06.03 11:33:40.
