data_PCOD9006902
_publ_section_title
;
Structure prediction by ZEFSAII (Michael W. Deem and Ramdas Pophale) SiO2 
 PCOD9006902
Probable space group: P -1
;
_chemical_formula_sum "Si O2"
_cell_formula_units_Z 14
_cell_length_a 7.208139
_cell_length_b 7.912474
_cell_length_c 22.527416
_cell_angle_alpha 74.278769
_cell_angle_beta 45.786868
_cell_angle_gamma 58.391546
_cell_volume 774.829097
_symmetry_space_group_name_H-M "P -1"
_symmetry_group_IT_number 2
_symmetry_cell_setting 'triclinic'
loop_
_space_group_symop_operation_xyz
x,y,z
-x,-y,-z
loop_
_atom_site_type_symbol
_atom_site_label
_atom_site_fract_x
_atom_site_fract_y
_atom_site_fract_z
Si Si1 0.719055 0.986404 0.541129
Si Si2 0.821932 0.436114 0.089924
Si Si3 0.994058 0.220952 0.189587
Si Si4 0.869530 0.730956 0.412590
Si Si5 0.708441 0.609011 0.803744
Si Si6 0.210789 0.776966 0.226616
Si Si7 0.351626 0.292538 0.327620
O O1 0.811129 0.832586 0.480004
O O2 0.612520 0.898734 0.627079
O O3 0.444870 0.189710 0.557838
O O4 0.000000 0.000000 0.500000
O O5 0.017971 0.278003 0.111141
O O6 0.620197 0.354135 0.110562
O O7 0.566227 0.634002 0.161823
O O8 0.000000 0.500000 0.000000
O O9 0.643656 0.312942 0.271425
O O10 0.142995 0.313813 0.190084
O O11 0.128910 0.985027 0.194427
O O12 0.058148 0.803048 0.322075
O O13 0.062962 0.491756 0.395111
O O14 0.883242 0.368380 0.775065
O O15 0.680011 0.711578 0.736046
#
# Coordination Sequence:
#
# PCOD9006902 Si02
#       7
#     2   2   2   2   2   2   2
#     4  11  24  35  58  86 114 155 193 244 294 337
#     4   9  21  42  59  92 126 142 196 251 282 355
#     4  11  19  39  65  81 119 161 186 247 297 335
#     4  10  21  40  53  83 119 146 202 241 284 348
#     4   8  21  37  58  91 113 155 200 232 290 359
#     4   9  20  40  58  89 116 153 201 237 282 365
#     4  10  21  39  55  83 118 151 198 244 285 344
#
# _framework density 18.068501000000001
#
# number of rings (size 3 to 8) (size 9 to 14) (size 15 to 20)
#    0.857    1.429    2.857    0.429    2.000    4.000 
#    5.143    0.714    0.000    0.000    0.000    0.000 
#    0.000    0.000    0.000    0.000    0.000    0.000 
#
# Total GULP energy -77957.827983 kJ/mol
# GULP energy per Si atom -5568.416284 kJ/mol
# Density = 1.802738 g / cm^3
# Si number density = 18.068501 Si / 1000 Ang^3
#
#
#
# Elastic Constant Matrix: (Units=GPa)
#
#
# Indices 1 2 3 4 5 6 
#
# 1 119.5912 22.4649 29.1422 -20.1652 -14.0343 4.1492
# 2 22.4649 73.4643 0.5606 -19.2213 5.3355 -9.7876
# 3 29.1422 0.5606 73.9226 -19.4297 -8.4095 3.4375
# 4 -20.1652 -19.2213 -19.4297 25.4263 -3.9703 -4.1824
# 5 -14.0343 5.3355 -8.4095 -3.9703 9.7223 -0.8790
# 6 4.1492 -9.7876 3.4375 -4.1824 -0.8790 16.2366
#
#
#
# Elastic Compliance Matrix: (Units=1/GPa)
#
#
# Indices 1 2 3 4 5 6 
#
# 1 0.014685 -0.002525 0.001958 0.016071 0.030852 0.000120
# 2 -0.002525 0.022921 0.006018 0.023095 0.000143 0.019145
# 3 0.001958 0.006018 0.024527 0.031505 0.034319 0.007908
# 4 0.016071 0.023095 0.031505 0.113358 0.087419 0.037078
# 5 0.030852 0.000143 0.034319 0.087419 0.214421 0.019063
# 6 0.000120 0.019145 0.007908 0.037078 0.019063 0.082008
#
#
# Mechanical properties :
#
#
# Convention : Reuss Voigt Hill
#
# Bulk Modulus (GPa) = 13.69201 41.25703 27.47452
# Shear Modulus (GPa) = 10.30154 24.59774 17.44964
#
# Velocity S-wave (km/s) = 2.39035 3.69366 3.11102
# Velocity P-wave (km/s) = 3.90034 6.40891 5.30503
#
# Compressibility (1/GPa) = 0.07303530
#
# Stress axis : x y z
#
# Youngs Moduli (GPa) = 68.09509 43.62744 40.77109
#
# Poissons Ratio (x) = 0.11018 -0.07983
# Poissons Ratio (y) = 0.17197 -0.24536
# Poissons Ratio (z) = -0.13333 -0.26255
#
# Static dielectric constant tensor:
#      x y z
#    x 1.598260 -0.017430 -0.006310 
#    y -0.017430 1.628990 0.008900 
#    z -0.006310 0.008900 1.631790 
# 
# From -- ./inp_files/576889.got.cif
#   From: 2010.05.17/outbox.cif.g08.bks.cpg/sg2_289_cif.got.tgz:576889.got - 2010.06.03 11:33:40.
