data_PCOD9006256
_publ_section_title
;
Structure prediction by ZEFSAII (Michael W. Deem and Ramdas Pophale) SiO2 
 PCOD9006256
Probable space group: P -1
;
_chemical_formula_sum "Si O2"
_cell_formula_units_Z 16
_cell_length_a 16.853209
_cell_length_b 7.902237
_cell_length_c 10.522976
_cell_angle_alpha 104.158023
_cell_angle_beta 38.693695
_cell_angle_gamma 77.801255
_cell_volume 635.552817
_symmetry_space_group_name_H-M "P -1"
_symmetry_group_IT_number 2
_symmetry_cell_setting 'triclinic'
loop_
_space_group_symop_operation_xyz
x,y,z
-x,-y,-z
loop_
_atom_site_type_symbol
_atom_site_label
_atom_site_fract_x
_atom_site_fract_y
_atom_site_fract_z
Si Si1 0.600391 0.081560 0.430635
Si Si2 0.886244 0.238312 0.032903
Si Si3 0.502083 0.698591 0.887631
Si Si4 0.724298 0.795868 0.651973
Si Si5 0.122598 0.426199 0.036509
Si Si6 0.801914 0.683622 0.810414
Si Si7 0.732992 0.201714 0.472645
Si Si8 0.674559 0.190186 0.120897
O O1 0.603526 0.169919 0.579273
O O2 0.561791 0.254443 0.399148
O O3 0.500000 0.000000 0.500000
O O4 0.798061 0.835825 0.133590
O O5 0.838301 0.481058 0.109793
O O6 0.800110 0.243278 0.268932
O O7 0.816122 0.191689 0.993273
O O8 0.089462 0.032663 0.741123
O O9 0.612129 0.762435 0.708178
O O10 0.634808 0.433526 0.723025
O O11 0.417121 0.680119 0.870257
O O12 0.357286 0.936035 0.190335
O O13 0.711671 0.725149 0.798570
O O14 0.920676 0.610271 0.338182
O O15 0.208938 0.407997 0.059265
O O16 0.000000 0.500000 0.500000
O O17 0.750906 0.929286 0.947536
#
# Coordination Sequence:
#
# PCOD9006256 Si02
#       8
#     2   2   2   2   2   2   2   2
#     4  10  23  38  61  93 125 159 205 258 313 365
#     4  10  23  39  61  94 124 163 208 249 317 374
#     4  10  21  38  67  88 124 165 209 251 303 376
#     4   9  20  39  65  93 118 168 211 251 310 362
#     4  10  21  38  65  92 122 160 210 259 301 379
#     4   8  16  34  60  84 114 156 204 246 296 358
#     4  10  24  40  61  91 128 168 197 258 318 366
#     4   9  20  37  59  87 120 163 203 247 312 369
#
# _framework density 25.174931999999998
#
# number of rings (size 3 to 8) (size 9 to 14) (size 15 to 20)
#    0.000    2.500    0.000    0.000   12.250    2.500 
#    0.000    6.250    0.000    0.000    0.000    0.000 
#    0.000    0.000    0.000    0.000    0.000    0.000 
#
# Total GULP energy -89327.646797 kJ/mol
# GULP energy per Si atom -5582.977925 kJ/mol
# Density = 2.511763 g / cm^3
# Si number density = 25.174932 Si / 1000 Ang^3
#
#
#
# Elastic Constant Matrix: (Units=GPa)
#
#
# Indices 1 2 3 4 5 6 
#
# 1 97.6611 5.7500 27.1120 2.3050 -7.1130 18.4817
# 2 5.7500 75.7999 15.1693 13.1353 1.8891 -8.7314
# 3 27.1120 15.1693 109.8527 22.8182 -9.0972 4.1540
# 4 2.3050 13.1353 22.8182 39.3220 -1.6488 2.3843
# 5 -7.1130 1.8891 -9.0972 -1.6488 33.0859 1.0092
# 6 18.4817 -8.7314 4.1540 2.3843 1.0092 35.6715
#
#
#
# Elastic Compliance Matrix: (Units=1/GPa)
#
#
# Indices 1 2 3 4 5 6 
#
# 1 0.012511 -0.001549 -0.002830 0.001931 0.002301 -0.006726
# 2 -0.001549 0.014946 -0.001053 -0.004669 -0.001860 0.004949
# 3 -0.002830 -0.001053 0.011373 -0.006000 0.002273 0.000221
# 4 0.001931 -0.004669 -0.006000 0.030600 0.000664 -0.003509
# 5 0.002301 -0.001860 0.002273 0.000664 0.031570 -0.002850
# 6 -0.006726 0.004949 0.000221 -0.003509 -0.002850 0.033019
#
#
# Mechanical properties :
#
#
# Convention : Reuss Voigt Hill
#
# Bulk Modulus (GPa) = 35.75728 42.15292 38.95510
# Shear Modulus (GPa) = 32.42398 37.30135 34.86267
#
# Velocity S-wave (km/s) = 3.59269 3.85344 3.72535
# Velocity P-wave (km/s) = 5.60752 6.04806 5.83195
#
# Compressibility (1/GPa) = 0.02796634
#
# Stress axis : x y z
#
# Youngs Moduli (GPa) = 79.92787 66.90614 87.92630
#
# Poissons Ratio (x) = 0.10367 0.24883
# Poissons Ratio (y) = 0.12384 0.09257
# Poissons Ratio (z) = 0.22620 0.07044
#
# Static dielectric constant tensor:
#      x y z
#    x 2.031140 -0.058080 0.022550 
#    y -0.058080 1.993410 -0.056840 
#    z 0.022550 -0.056840 2.056620 
# 
# From -- ./inp_files/461468.got.cif
#   From: 2010.05.17/outbox.cif.g08.bks.cpg/sg2_231_cif.got.tgz:461468.got - 2010.06.03 11:33:40.
