data_PCOD9006445
_publ_section_title
;
Structure prediction by ZEFSAII (Michael W. Deem and Ramdas Pophale) SiO2 
 PCOD9006445
Probable space group: P -1
;
_chemical_formula_sum "Si O2"
_cell_formula_units_Z 16
_cell_length_a 14.027320
_cell_length_b 6.484605
_cell_length_c 12.073352
_cell_angle_alpha 100.649002
_cell_angle_beta 129.975560
_cell_angle_gamma 105.904824
_cell_volume 705.706034
_symmetry_space_group_name_H-M "P -1"
_symmetry_group_IT_number 2
_symmetry_cell_setting 'triclinic'
loop_
_space_group_symop_operation_xyz
x,y,z
-x,-y,-z
loop_
_atom_site_type_symbol
_atom_site_label
_atom_site_fract_x
_atom_site_fract_y
_atom_site_fract_z
Si Si1 0.382192 0.075343 0.396901
Si Si2 0.921566 0.126630 0.554593
Si Si3 0.543749 0.531121 0.695393
Si Si4 0.637125 0.636365 0.267111
Si Si5 0.183854 0.538330 0.132957
Si Si6 0.537753 0.802836 0.040105
Si Si7 0.011831 0.444883 0.202261
Si Si8 0.872055 0.049873 0.257456
O O1 0.406095 0.262815 0.530681
O O2 0.423792 0.254467 0.342181
O O3 0.500000 0.000000 0.500000
O O4 0.239084 0.818524 0.240109
O O5 0.922008 0.185246 0.429708
O O6 0.897490 0.308862 0.630732
O O7 0.798596 0.834922 0.441082
O O8 0.064878 0.130874 0.704233
O O9 0.475938 0.570919 0.756614
O O10 0.684637 0.505097 0.800882
O O11 0.568357 0.797081 0.193016
O O12 0.605238 0.462428 0.120376
O O13 0.102124 0.394033 0.170936
O O14 0.091263 0.506215 0.951000
O O15 0.697109 0.898710 0.115020
O O16 0.500000 0.000000 0.000000
O O17 0.931708 0.226554 0.211788
#
# Coordination Sequence:
#
# PCOD9006445 Si02
#       8
#     2   2   2   2   2   2   2   2
#     4   9  20  38  57  87 122 161 213 257 310 376
#     4  10  23  44  65  96 131 169 224 268 320 394
#     4  10  21  38  66  88 128 171 210 268 320 378
#     4  10  23  40  64  96 125 166 212 263 325 383
#     4  10  24  39  58  99 130 169 222 260 321 389
#     4  10  24  41  64  97 127 158 212 271 327 387
#     4  11  24  40  64  92 135 175 213 269 321 386
#     4  10  24  42  68  93 125 175 219 269 330 386
#
# _framework density 22.672329999999999
#
# number of rings (size 3 to 8) (size 9 to 14) (size 15 to 20)
#    0.000    2.000    0.000    1.125    5.250   10.000 
#    0.000    2.500    0.000    0.000    0.000    0.000 
#    0.000    0.000    0.000    0.000    0.000    0.000 
#
# Total GULP energy -89088.428929 kJ/mol
# GULP energy per Si atom -5568.026808 kJ/mol
# Density = 2.262073 g / cm^3
# Si number density = 22.672330 Si / 1000 Ang^3
#
#
#
# Elastic Constant Matrix: (Units=GPa)
#
#
# Indices 1 2 3 4 5 6 
#
# 1 73.3517 23.4427 29.4869 -1.2219 2.1724 26.0338
# 2 23.4427 82.2812 27.2404 0.3879 7.6182 13.4809
# 3 29.4869 27.2404 87.4183 2.7117 3.9429 13.8440
# 4 -1.2219 0.3879 2.7117 23.5204 6.6418 1.7266
# 5 2.1724 7.6182 3.9429 6.6418 31.2285 -10.2140
# 6 26.0338 13.4809 13.8440 1.7266 -10.2140 25.8819
#
#
#
# Elastic Compliance Matrix: (Units=1/GPa)
#
#
# Indices 1 2 3 4 5 6 
#
# 1 0.026303 -0.000229 -0.003738 0.007571 -0.012674 -0.029845
# 2 -0.000229 0.015325 -0.003046 0.002683 -0.006854 -0.009007
# 3 -0.003738 -0.003046 0.014182 -0.001175 -0.001429 -0.002725
# 4 0.007571 0.002683 -0.001175 0.049344 -0.017621 -0.018630
# 5 -0.012674 -0.006854 -0.001429 -0.017621 0.051067 0.038411
# 6 -0.029845 -0.009007 -0.002725 -0.018630 0.038411 0.091208
#
#
# Mechanical properties :
#
#
# Convention : Reuss Voigt Hill
#
# Bulk Modulus (GPa) = 23.93254 44.82124 34.37689
# Shear Modulus (GPa) = 18.15672 26.98492 22.57082
#
# Velocity S-wave (km/s) = 2.83297 3.45369 3.15861
# Velocity P-wave (km/s) = 4.61299 5.97629 5.33834
#
# Compressibility (1/GPa) = 0.04178411
#
# Stress axis : x y z
#
# Youngs Moduli (GPa) = 38.01913 65.25428 70.51428
#
# Poissons Ratio (x) = 0.01494 0.26355
# Poissons Ratio (y) = 0.00870 0.21477
# Poissons Ratio (z) = 0.14210 0.19875
#
# Static dielectric constant tensor:
#      x y z
#    x 2.029220 0.034230 -0.132700 
#    y 0.034230 1.891540 -0.043800 
#    z -0.132700 -0.043800 2.010540 
# 
# From -- ./inp_files/410536.got.cif
#   From: 2010.05.17/outbox.cif.g08.bks.cpg/sg2_206_cif.got.tgz:410536.got - 2010.06.03 11:33:40.
