data_PCOD9006802
_publ_section_title
;
Structure prediction by ZEFSAII (Michael W. Deem and Ramdas Pophale) SiO2 
 PCOD9006802
Probable space group: P -1
;
_chemical_formula_sum "Si O2"
_cell_formula_units_Z 14
_cell_length_a 8.094780
_cell_length_b 11.741591
_cell_length_c 9.079645
_cell_angle_alpha 139.753739
_cell_angle_beta 100.068182
_cell_angle_gamma 91.224434
_cell_volume 532.459857
_symmetry_space_group_name_H-M "P -1"
_symmetry_group_IT_number 2
_symmetry_cell_setting 'triclinic'
loop_
_space_group_symop_operation_xyz
x,y,z
-x,-y,-z
loop_
_atom_site_type_symbol
_atom_site_label
_atom_site_fract_x
_atom_site_fract_y
_atom_site_fract_z
Si Si1 0.883633 0.628975 0.158594
Si Si2 0.404797 0.656574 0.095903
Si Si3 0.483924 0.833992 0.978491
Si Si4 0.106541 0.118146 0.344631
Si Si5 0.255039 0.391825 0.208510
Si Si6 0.485595 0.774540 0.537037
Si Si7 0.080297 0.747471 0.824081
O O1 0.945228 0.813570 0.439388
O O2 0.772561 0.482349 0.113380
O O3 0.798130 0.660728 0.021348
O O4 0.000000 0.500000 0.000000
O O5 0.484545 0.785300 0.105109
O O6 0.397942 0.766239 0.353049
O O7 0.500000 0.500000 0.000000
O O8 0.529657 0.052496 0.199619
O O9 0.636319 0.748986 0.853835
O O10 0.279961 0.745331 0.827761
O O11 0.311363 0.203754 0.438446
O O12 0.991254 0.182992 0.267580
O O13 0.088424 0.905539 0.105398
O O14 0.609167 0.414573 0.591741
O O15 0.085691 0.402040 0.286636
#
# Coordination Sequence:
#
# PCOD9006802 Si02
#       7
#     2   2   2   2   2   2   2
#     4  11  22  38  69  98 134 172 224 286 341 396
#     4  11  18  37  62  93 133 170 214 283 335 392
#     4  11  21  41  68  97 134 183 224 276 345 403
#     4  10  21  46  65  99 141 180 227 280 336 417
#     4  11  23  44  66 105 135 170 233 293 327 408
#     4  10  21  38  69  95 133 182 224 279 346 399
#     4  10  25  42  70  97 140 186 223 276 347 406
#
# _framework density 26.293061999999999
#
# number of rings (size 3 to 8) (size 9 to 14) (size 15 to 20)
#    0.000    1.429    4.286    1.286    0.000    4.571 
#    0.000   17.143    0.000    0.000    0.000    0.000 
#    0.000    0.000    0.000    0.000    0.000    0.000 
#
# Total GULP energy -78281.049327 kJ/mol
# GULP energy per Si atom -5591.503523 kJ/mol
# Density = 2.623322 g / cm^3
# Si number density = 26.293062 Si / 1000 Ang^3
#
#
#
# Elastic Constant Matrix: (Units=GPa)
#
#
# Indices 1 2 3 4 5 6 
#
# 1 108.1068 28.1759 -5.6758 11.7032 4.4951 -11.4565
# 2 28.1759 46.5615 11.4929 12.9444 7.6768 -9.2702
# 3 -5.6758 11.4929 138.6366 -3.9700 5.9225 -8.9993
# 4 11.7032 12.9444 -3.9700 35.8637 5.4303 4.5938
# 5 4.4951 7.6768 5.9225 5.4303 36.5339 1.6568
# 6 -11.4565 -9.2702 -8.9993 4.5938 1.6568 42.5214
#
#
#
# Elastic Compliance Matrix: (Units=1/GPa)
#
#
# Indices 1 2 3 4 5 6 
#
# 1 0.011333 -0.006250 0.001078 -0.001573 -0.000117 0.002093
# 2 -0.006250 0.030212 -0.002493 -0.009235 -0.004053 0.005531
# 3 0.001078 -0.002493 0.007633 0.001400 -0.001111 0.001254
# 4 -0.001573 -0.009235 0.001400 0.033018 -0.002747 -0.005601
# 5 -0.000117 -0.004053 -0.001111 -0.002747 0.028916 -0.001980
# 6 0.002093 0.005531 0.001254 -0.005601 -0.001980 0.026235
#
#
# Mechanical properties :
#
#
# Convention : Reuss Voigt Hill
#
# Bulk Modulus (GPa) = 29.54501 40.14343 34.84422
# Shear Modulus (GPa) = 30.49533 40.27126 35.38330
#
# Velocity S-wave (km/s) = 3.40931 3.91785 3.67240
# Velocity P-wave (km/s) = 5.17292 5.98054 5.59133
#
# Compressibility (1/GPa) = 0.03384666
#
# Stress axis : x y z
#
# Youngs Moduli (GPa) = 88.23957 33.09995 131.01204
#
# Poissons Ratio (x) = 0.20689 -0.14122
# Poissons Ratio (y) = 0.55154 0.32658
# Poissons Ratio (z) = -0.09512 0.08251
#
# Static dielectric constant tensor:
#      x y z
#    x 0.752500 0.277540 0.425280 
#    y 0.277540 2.079880 -0.110310 
#    z 0.425280 -0.110310 1.954460 
# 
# From -- ./inp_files/183314.got.cif
#   From: 2010.05.17/outbox.cif.g08.bks.cpg/sg2_92_cif.got.tgz:183314.got - 2010.06.03 11:33:40.
