data_PCOD9006193
_publ_section_title
;
Structure prediction by ZEFSAII (Michael W. Deem and Ramdas Pophale) SiO2 
 PCOD9006193
Probable space group: P -1
;
_chemical_formula_sum "Si O2"
_cell_formula_units_Z 12
_cell_length_a 7.891736
_cell_length_b 9.299473
_cell_length_c 22.177121
_cell_angle_alpha 155.749251
_cell_angle_beta 122.806129
_cell_angle_gamma 69.529604
_cell_volume 510.457478
_symmetry_space_group_name_H-M "P -1"
_symmetry_group_IT_number 2
_symmetry_cell_setting 'triclinic'
loop_
_space_group_symop_operation_xyz
x,y,z
-x,-y,-z
loop_
_atom_site_type_symbol
_atom_site_label
_atom_site_fract_x
_atom_site_fract_y
_atom_site_fract_z
Si Si1 0.410608 0.020798 0.407436
Si Si2 0.479803 0.877523 0.786748
Si Si3 0.463212 0.053774 0.717668
Si Si4 0.988427 0.503500 0.425996
Si Si5 0.862296 0.176714 0.611865
Si Si6 0.673911 0.263710 0.085766
O O1 0.440827 0.445824 0.595276
O O2 0.647452 0.016772 0.467004
O O3 0.364270 0.938708 0.297061
O O4 0.225776 0.738338 0.308694
O O5 0.249680 0.859859 0.765611
O O6 0.532288 0.096318 0.816984
O O7 0.658870 0.033269 0.933081
O O8 0.392037 0.394299 0.817474
O O9 0.245933 0.640016 0.510210
O O10 0.000000 0.500000 0.500000
O O11 0.938574 0.840666 0.514139
O O12 0.073874 0.535448 0.765214
O O13 0.500000 0.000000 0.000000
#
# Coordination Sequence:
#
# PCOD9006193 Si02
#       6
#     2   2   2   2   2   2
#     4  10  21  38  65  86 116 153 199 244 290 348
#     4  10  21  40  59  89 121 153 193 244 298 347
#     4  10  21  39  63  86 116 156 202 241 286 348
#     4   8  17  34  60  84 113 153 198 239 279 341
#     4   9  21  38  57  87 123 151 193 244 295 342
#     4  11  25  38  60  87 122 156 195 241 296 349
#
# _framework density 23.508324999999999
#
# number of rings (size 3 to 8) (size 9 to 14) (size 15 to 20)
#    0.000    2.333    0.000    1.000    9.333    2.000 
#    0.000    0.833    0.000    0.000    0.000    0.000 
#    0.000    0.000    0.000    0.000    0.000    0.000 
#
# Total GULP energy -66921.969543 kJ/mol
# GULP energy per Si atom -5576.830795 kJ/mol
# Density = 2.345482 g / cm^3
# Si number density = 23.508325 Si / 1000 Ang^3
#
#
#
# Elastic Constant Matrix: (Units=GPa)
#
#
# Indices 1 2 3 4 5 6 
#
# 1 60.4056 32.6134 23.4874 -0.8961 7.2203 31.1230
# 2 32.6134 110.7771 18.4346 4.4904 5.8749 19.7023
# 3 23.4874 18.4346 56.1715 -0.4111 8.6584 12.9324
# 4 -0.8961 4.4904 -0.4111 30.7701 2.3509 -0.1416
# 5 7.2203 5.8749 8.6584 2.3509 36.8794 3.7169
# 6 31.1230 19.7023 12.9324 -0.1416 3.7169 53.2823
#
#
#
# Elastic Compliance Matrix: (Units=1/GPa)
#
#
# Indices 1 2 3 4 5 6 
#
# 1 0.029145 -0.004980 -0.007173 0.001570 -0.001989 -0.013299
# 2 -0.004980 0.010937 -0.001292 -0.001741 -0.000272 -0.000807
# 3 -0.007173 -0.001292 0.021862 0.000539 -0.003517 -0.000392
# 4 0.001570 -0.001741 0.000539 0.032977 -0.002243 -0.000160
# 5 -0.001989 -0.000272 -0.003517 -0.002243 0.028505 0.000121
# 6 -0.013299 -0.000807 -0.000392 -0.000160 0.000121 0.026921
#
#
# Mechanical properties :
#
#
# Convention : Reuss Voigt Hill
#
# Bulk Modulus (GPa) = 28.52625 41.82500 35.17562
# Shear Modulus (GPa) = 26.46611 34.37429 30.42020
#
# Velocity S-wave (km/s) = 3.35896 3.82804 3.60115
# Velocity P-wave (km/s) = 5.21578 6.11300 5.68213
#
# Compressibility (1/GPa) = 0.03505544
#
# Stress axis : x y z
#
# Youngs Moduli (GPa) = 34.31065 91.43407 45.74108
#
# Poissons Ratio (x) = 0.45533 0.32808
# Poissons Ratio (y) = 0.17086 0.05910
# Poissons Ratio (z) = 0.24610 0.11814
#
# Static dielectric constant tensor:
#      x y z
#    x 1.984170 -0.013810 0.023840 
#    y -0.013810 1.905230 -0.007640 
#    z 0.023840 -0.007640 1.940260 
# 
# From -- ./inp_files/149593.got.cif
#   From: 2010.05.17/outbox.cif.g08.bks.cpg/sg2_75_cif.got.tgz:149593.got - 2010.06.03 11:33:40.
