data_PCOD9006246
_publ_section_title
;
Structure prediction by ZEFSAII (Michael W. Deem and Ramdas Pophale) SiO2 
 PCOD9006246
Probable space group: P -1
;
_chemical_formula_sum "Si O2"
_cell_formula_units_Z 16
_cell_length_a 16.941581
_cell_length_b 19.820850
_cell_length_c 8.946802
_cell_angle_alpha 38.887196
_cell_angle_beta 141.778505
_cell_angle_gamma 157.841688
_cell_volume 684.267076
_symmetry_space_group_name_H-M "P -1"
_symmetry_group_IT_number 2
_symmetry_cell_setting 'triclinic'
loop_
_space_group_symop_operation_xyz
x,y,z
-x,-y,-z
loop_
_atom_site_type_symbol
_atom_site_label
_atom_site_fract_x
_atom_site_fract_y
_atom_site_fract_z
Si Si1 0.569909 0.295290 0.131688
Si Si2 0.633084 0.138930 0.681372
Si Si3 0.921740 0.019880 0.491524
Si Si4 0.671268 0.662624 0.856080
Si Si5 0.367234 0.383664 0.649040
Si Si6 0.495126 0.827421 0.087148
Si Si7 0.851656 0.427622 0.760963
Si Si8 0.028215 0.338937 0.729025
O O1 0.511615 0.154133 0.391579
O O2 0.809818 0.488784 0.212911
O O3 0.421006 0.298506 0.928498
O O4 0.569768 0.267192 0.005177
O O5 0.781179 0.286638 0.781748
O O6 0.790494 0.191559 0.700018
O O7 0.469466 0.938022 0.845353
O O8 0.803358 0.863092 0.707497
O O9 0.748083 0.980478 0.229766
O O10 0.000000 0.000000 0.500000
O O11 0.116712 0.215503 0.523898
O O12 0.494300 0.551422 0.653711
O O13 0.500000 0.500000 0.000000
O O14 0.860633 0.702385 0.044441
O O15 0.500000 0.500000 0.500000
O O16 0.369108 0.694991 0.269374
O O17 0.948836 0.586533 0.525414
O O18 0.000000 0.500000 0.000000
#
# Coordination Sequence:
#
# PCOD9006246 Si02
#       8
#     2   2   2   2   2   2   2   2
#     4  10  21  38  65  91 127 165 220 261 323 392
#     4  11  23  41  64  95 126 169 215 266 325 394
#     4  12  23  43  68 101 135 173 230 273 328 403
#     4  11  24  44  67  98 136 174 224 276 339 391
#     4  11  23  42  70  99 131 180 224 277 331 396
#     4  12  23  39  66  96 132 166 214 277 331 383
#     4  11  23  43  63  94 131 168 215 269 333 390
#     4  10  22  41  65  90 125 171 219 264 325 399
#
# _framework density 23.382683
#
# number of rings (size 3 to 8) (size 9 to 14) (size 15 to 20)
#    0.000    1.000    2.500    5.250    1.750    0.500 
#    4.500    0.000    0.000    0.000    0.000    0.000 
#    0.000    0.000    0.000    0.000    0.000    0.000 
#
# Total GULP energy -89391.598240 kJ/mol
# GULP energy per Si atom -5586.974890 kJ/mol
# Density = 2.332946 g / cm^3
# Si number density = 23.382683 Si / 1000 Ang^3
#
#
#
# Elastic Constant Matrix: (Units=GPa)
#
#
# Indices 1 2 3 4 5 6 
#
# 1 51.6103 8.4030 31.4014 -0.6226 -5.7338 7.5484
# 2 8.4030 86.9242 40.3627 9.1956 -9.1369 2.7856
# 3 31.4014 40.3627 116.3899 -2.4966 -3.7130 6.2607
# 4 -0.6226 9.1956 -2.4966 43.2282 -2.6329 -3.2931
# 5 -5.7338 -9.1369 -3.7130 -2.6329 45.3453 -1.1089
# 6 7.5484 2.7856 6.2607 -3.2931 -1.1089 27.1073
#
#
#
# Elastic Compliance Matrix: (Units=1/GPa)
#
#
# Indices 1 2 3 4 5 6 
#
# 1 0.024261 0.001228 -0.006614 -0.000539 0.002612 -0.005313
# 2 0.001228 0.014477 -0.005296 -0.003289 0.002425 -0.000907
# 3 -0.006614 -0.005296 0.012237 0.001668 -0.000811 -0.000271
# 4 -0.000539 -0.003289 0.001668 0.024210 0.000887 0.003080
# 5 0.002612 0.002425 -0.000811 0.000887 0.022863 0.000254
# 6 -0.005313 -0.000907 -0.000271 0.003080 0.000254 0.038910
#
#
# Mechanical properties :
#
#
# Convention : Reuss Voigt Hill
#
# Bulk Modulus (GPa) = 33.77152 46.13983 39.95568
# Shear Modulus (GPa) = 29.72786 34.78665 32.25726
#
# Velocity S-wave (km/s) = 3.56949 3.86127 3.71824
# Velocity P-wave (km/s) = 5.60915 6.29718 5.96310
#
# Compressibility (1/GPa) = 0.02961075
#
# Stress axis : x y z
#
# Youngs Moduli (GPa) = 41.21874 69.07654 81.71817
#
# Poissons Ratio (x) = -0.08480 0.54045
# Poissons Ratio (y) = -0.05060 0.43278
# Poissons Ratio (z) = 0.27260 0.36583
#
# Static dielectric constant tensor:
#      x y z
#    x 1.888780 0.018290 0.042510 
#    y 0.018290 1.891760 -0.006030 
#    z 0.042510 -0.006030 1.865180 
# 
# From -- ./inp_files/223504.got.cif
#   From: 2010.05.17/outbox.cif.g08.bks.cpg/sg2_112_cif.got.tgz:223504.got - 2010.06.03 11:33:40.
