data_PCOD9006713
_publ_section_title
;
Structure prediction by ZEFSAII (Michael W. Deem and Ramdas Pophale) SiO2 
 PCOD9006713
Probable space group: P -1
;
_chemical_formula_sum "Si O2"
_cell_formula_units_Z 16
_cell_length_a 13.504427
_cell_length_b 17.964046
_cell_length_c 9.898259
_cell_angle_alpha 127.786971
_cell_angle_beta 51.798428
_cell_angle_gamma 159.330798
_cell_volume 661.006786
_symmetry_space_group_name_H-M "P -1"
_symmetry_group_IT_number 2
_symmetry_cell_setting 'triclinic'
loop_
_space_group_symop_operation_xyz
x,y,z
-x,-y,-z
loop_
_atom_site_type_symbol
_atom_site_label
_atom_site_fract_x
_atom_site_fract_y
_atom_site_fract_z
Si Si1 0.289776 0.787216 0.118124
Si Si2 0.509196 0.663949 0.028174
Si Si3 0.974428 0.917783 0.099360
Si Si4 0.668519 0.905039 0.776933
Si Si5 0.101657 0.558633 0.282346
Si Si6 0.273540 0.471352 0.727663
Si Si7 0.934698 0.093118 0.467317
Si Si8 0.407883 0.853557 0.583022
O O1 0.151463 0.619244 0.152237
O O2 0.038751 0.688730 0.175574
O O3 0.517914 0.997836 0.248134
O O4 0.459628 0.851107 0.926642
O O5 0.267830 0.571973 0.185564
O O6 0.675142 0.709088 0.043636
O O7 0.388913 0.533460 0.850511
O O8 0.763763 0.903771 0.028035
O O9 0.974235 0.021248 0.281871
O O10 0.074388 0.917040 0.133519
O O11 0.484742 0.688273 0.722727
O O12 0.797446 0.985707 0.610775
O O13 0.237337 0.731943 0.452619
O O14 0.785887 0.333098 0.353324
O O15 0.211996 0.340794 0.539819
O O16 0.707435 0.002207 0.476119
#
# Coordination Sequence:
#
# PCOD9006713 Si02
#       8
#     2   2   2   2   2   2   2   2
#     4  11  22  38  63  94 127 156 205 249 313 365
#     4  10  21  38  68  85 121 168 203 246 305 360
#     4  10  21  43  62  89 122 168 208 246 301 362
#     4  11  23  37  63  92 121 166 200 254 302 363
#     4  11  20  41  62  90 128 161 202 251 309 363
#     4  10  23  39  63  94 121 162 200 257 306 361
#     4  11  23  40  64  92 126 157 206 255 305 359
#     4  10  24  36  64  96 123 160 199 258 310 363
#
# _framework density 24.205499
#
# number of rings (size 3 to 8) (size 9 to 14) (size 15 to 20)
#    0.000    1.500    3.750    1.875    3.500    3.000 
#    0.000    0.625    0.000    3.000    0.000    0.000 
#    0.000    0.000    0.000    0.000    0.000    0.000 
#
# Total GULP energy -89564.810897 kJ/mol
# GULP energy per Si atom -5597.800681 kJ/mol
# Density = 2.415041 g / cm^3
# Si number density = 24.205499 Si / 1000 Ang^3
#
#
#
# Elastic Constant Matrix: (Units=GPa)
#
#
# Indices 1 2 3 4 5 6 
#
# 1 44.4664 29.2785 11.4427 4.8708 10.3646 17.9716
# 2 29.2785 89.8366 9.1504 10.9205 4.6248 4.5908
# 3 11.4427 9.1504 84.6537 2.6816 11.2170 -3.0338
# 4 4.8708 10.9205 2.6816 32.8071 9.2781 0.0768
# 5 10.3646 4.6248 11.2170 9.2781 30.5786 3.9965
# 6 17.9716 4.5908 -3.0338 0.0768 3.9965 38.8591
#
#
#
# Elastic Compliance Matrix: (Units=1/GPa)
#
#
# Indices 1 2 3 4 5 6 
#
# 1 0.039265 -0.011245 -0.003587 0.000607 -0.008352 -0.016253
# 2 -0.011245 0.015015 -0.000181 -0.004002 0.002407 0.003173
# 3 -0.003587 -0.000181 0.012954 0.000694 -0.004126 0.003115
# 4 0.000607 -0.004002 0.000694 0.034642 -0.010531 0.001261
# 5 -0.008352 0.002407 -0.004126 -0.010531 0.039988 -0.000835
# 6 -0.016253 0.003173 0.003115 0.001261 -0.000835 0.033203
#
#
# Mechanical properties :
#
#
# Convention : Reuss Voigt Hill
#
# Bulk Modulus (GPa) = 26.87626 35.41109 31.14367
# Shear Modulus (GPa) = 22.98907 31.72130 27.35518
#
# Velocity S-wave (km/s) = 3.08514 3.62401 3.36538
# Velocity P-wave (km/s) = 4.88039 5.67207 5.29106
#
# Compressibility (1/GPa) = 0.03720756
#
# Stress axis : x y z
#
# Youngs Moduli (GPa) = 25.46782 66.60026 77.19821
#
# Poissons Ratio (x) = 0.74890 0.27691
# Poissons Ratio (y) = 0.28638 0.01401
# Poissons Ratio (z) = 0.09135 0.01209
#
# Static dielectric constant tensor:
#      x y z
#    x 1.972170 0.011940 0.019130 
#    y 0.011940 1.941270 0.039150 
#    z 0.019130 0.039150 1.891910 
# 
# From -- ./inp_files/319052.got.cif
#   From: 2010.05.17/outbox.cif.g08.bks.cpg/sg2_160_cif.got.tgz:319052.got - 2010.06.03 11:33:40.
