data_PCOD9006041
_publ_section_title
;
Structure prediction by ZEFSAII (Michael W. Deem and Ramdas Pophale) SiO2 
 PCOD9006041
Probable space group: P -1
;
_chemical_formula_sum "Si O2"
_cell_formula_units_Z 16
_cell_length_a 12.070071
_cell_length_b 8.370407
_cell_length_c 21.222240
_cell_angle_alpha 108.523863
_cell_angle_beta 25.743071
_cell_angle_gamma 93.377249
_cell_volume 736.405051
_symmetry_space_group_name_H-M "P -1"
_symmetry_group_IT_number 2
_symmetry_cell_setting 'triclinic'
loop_
_space_group_symop_operation_xyz
x,y,z
-x,-y,-z
loop_
_atom_site_type_symbol
_atom_site_label
_atom_site_fract_x
_atom_site_fract_y
_atom_site_fract_z
Si Si1 0.719329 0.639409 0.060269
Si Si2 0.180414 0.623569 0.142652
Si Si3 0.140373 0.762006 0.914717
Si Si4 0.765438 0.937989 0.631019
Si Si5 0.440101 0.327821 0.504493
Si Si6 0.755388 0.082727 0.438085
Si Si7 0.621627 0.005133 0.287036
Si Si8 0.308848 0.626396 0.381968
O O1 0.543505 0.636932 0.213570
O O2 0.491061 0.864279 0.174670
O O3 0.775195 0.469594 0.961559
O O4 0.015599 0.646131 0.924942
O O5 0.913032 0.603228 0.307486
O O6 0.500000 0.500000 0.000000
O O7 0.051266 0.861377 0.242925
O O8 0.496424 0.604928 0.724037
O O9 0.953502 0.809351 0.081529
O O10 0.000000 0.000000 0.000000
O O11 0.588070 0.941596 0.660398
O O12 0.985604 0.723703 0.524345
O O13 0.000000 0.000000 0.500000
O O14 0.500000 0.500000 0.500000
O O15 0.596641 0.195390 0.469698
O O16 0.612975 0.199629 0.337545
O O17 0.777699 0.226129 0.494976
O O18 0.532151 0.036952 0.582854
#
# Coordination Sequence:
#
# PCOD9006041 Si02
#       8
#     2   2   2   2   2   2   2   2
#     4  10  21  38  64  93 127 159 213 272 315 374
#     4  11  24  40  70 101 127 168 222 265 320 389
#     4  11  24  37  61  93 129 166 216 270 318 374
#     4   9  17  36  63  94 125 153 205 268 322 370
#     4  11  27  43  65  92 136 176 213 270 334 386
#     4  11  22  43  66  97 125 173 224 263 321 401
#     4  10  21  40  62  91 129 168 218 262 318 394
#     4  11  21  36  69  92 125 163 216 269 319 379
#
# _framework density 21.727174999999999
#
# number of rings (size 3 to 8) (size 9 to 14) (size 15 to 20)
#    0.000    1.500    3.750    3.375   12.250    0.000 
#    0.000    3.125    2.750    0.000    0.000    0.000 
#    0.000    0.000    0.000    0.000    0.000    0.000 
#
# Total GULP energy -89234.601568 kJ/mol
# GULP energy per Si atom -5577.162598 kJ/mol
# Density = 2.167772 g / cm^3
# Si number density = 21.727175 Si / 1000 Ang^3
#
#
#
# Elastic Constant Matrix: (Units=GPa)
#
#
# Indices 1 2 3 4 5 6 
#
# 1 126.2945 52.1131 73.8595 29.3422 6.8721 15.3113
# 2 52.1131 82.7373 42.8165 32.4094 -11.5559 -0.1486
# 3 73.8595 42.8165 130.2704 42.9639 -8.8234 1.2862
# 4 29.3422 32.4094 42.9639 37.5532 3.4279 -4.3517
# 5 6.8721 -11.5559 -8.8234 3.4279 46.4776 12.8620
# 6 15.3113 -0.1486 1.2862 -4.3517 12.8620 32.8927
#
#
#
# Elastic Compliance Matrix: (Units=1/GPa)
#
#
# Indices 1 2 3 4 5 6 
#
# 1 0.015722 -0.007786 -0.007601 0.002984 -0.004575 -0.004873
# 2 -0.007786 0.024656 0.004036 -0.021162 0.010533 -0.003341
# 3 -0.007601 0.004036 0.017164 -0.018135 0.007388 -0.002403
# 4 0.002984 -0.021162 -0.018135 0.066737 -0.018274 0.015200
# 5 -0.004575 0.010533 0.007388 -0.018274 0.031070 -0.012679
# 6 -0.004873 -0.003341 -0.002403 0.015200 -0.012679 0.039718
#
#
# Mechanical properties :
#
#
# Convention : Reuss Voigt Hill
#
# Bulk Modulus (GPa) = 28.70135 75.20892 51.95513
# Shear Modulus (GPa) = 21.79754 34.75225 28.27490
#
# Velocity S-wave (km/s) = 3.17083 4.00369 3.61135
# Velocity P-wave (km/s) = 5.16179 7.48752 6.43067
#
# Compressibility (1/GPa) = 0.03484157
#
# Stress axis : x y z
#
# Youngs Moduli (GPa) = 63.60349 40.55751 58.26044
#
# Poissons Ratio (x) = 0.31578 0.44283
# Poissons Ratio (y) = 0.49522 -0.23515
# Poissons Ratio (z) = 0.48345 -0.16370
#
# Static dielectric constant tensor:
#      x y z
#    x 1.820650 0.003000 0.034760 
#    y 0.003000 1.946750 0.023880 
#    z 0.034760 0.023880 1.859800 
# 
# From -- ./inp_files/593650.got.cif
#   From: 2010.05.17/outbox.cif.g08.bks.cpg/sg2_297_cif.got.tgz:593650.got - 2010.06.03 11:33:40.
