data_PCOD9006605
_publ_section_title
;
Structure prediction by ZEFSAII (Michael W. Deem and Ramdas Pophale) SiO2 
 PCOD9006605
Probable space group: P -1
;
_chemical_formula_sum "Si O2"
_cell_formula_units_Z 10
_cell_length_a 5.088217
_cell_length_b 11.722581
_cell_length_c 8.455547
_cell_angle_alpha 112.057298
_cell_angle_beta 66.076827
_cell_angle_gamma 106.209482
_cell_volume 422.459085
_symmetry_space_group_name_H-M "P -1"
_symmetry_group_IT_number 2
_symmetry_cell_setting 'triclinic'
loop_
_space_group_symop_operation_xyz
x,y,z
-x,-y,-z
loop_
_atom_site_type_symbol
_atom_site_label
_atom_site_fract_x
_atom_site_fract_y
_atom_site_fract_z
Si Si1 0.985664 0.883330 0.061840
Si Si2 0.634870 0.072336 0.699774
Si Si3 0.416752 0.571288 0.401116
Si Si4 0.130223 0.326635 0.264848
Si Si5 0.229366 0.192955 0.476053
O O1 0.670445 0.880733 0.217274
O O2 0.236160 0.904316 0.142249
O O3 0.981854 0.757730 0.898625
O O4 0.000000 0.000000 0.000000
O O5 0.893887 0.139226 0.561954
O O6 0.602350 0.924181 0.603939
O O7 0.500000 0.500000 0.500000
O O8 0.331455 0.457313 0.242224
O O9 0.667624 0.687209 0.377299
O O10 0.134382 0.632147 0.548682
O O11 0.274848 0.241919 0.310414
#
# Coordination Sequence:
#
# PCOD9006605 Si02
#       5
#     2   2   2   2   2
#     4  12  24  41  62  95 127 161 203 257 308 365
#     4  11  26  39  64  96 128 161 199 255 317 358
#     4   9  20  38  64  89 115 164 215 250 294 368
#     4  10  21  38  67  87 121 164 213 248 302 365
#     4  10  22  40  63  89 126 163 205 250 302 375
#
# _framework density 23.670932000000001
#
# number of rings (size 3 to 8) (size 9 to 14) (size 15 to 20)
#    0.000    1.600    2.000    1.800    8.400    1.600 
#    0.000    2.000    0.000    0.000    0.000    0.000 
#    0.000    0.000    0.000    0.000    0.000    0.000 
#
# Total GULP energy -55967.957496 kJ/mol
# GULP energy per Si atom -5596.795750 kJ/mol
# Density = 2.361706 g / cm^3
# Si number density = 23.670932 Si / 1000 Ang^3
#
#
#
# Elastic Constant Matrix: (Units=GPa)
#
#
# Indices 1 2 3 4 5 6 
#
# 1 66.0163 35.7667 11.3018 3.4608 8.0593 7.4584
# 2 35.7667 160.3970 42.9026 34.7102 14.3558 16.9032
# 3 11.3018 42.9026 77.5024 25.2118 23.1628 6.6000
# 4 3.4608 34.7102 25.2118 35.0590 12.1485 12.1962
# 5 8.0593 14.3558 23.1628 12.1485 47.9237 8.3780
# 6 7.4584 16.9032 6.6000 12.1962 8.3780 31.5239
#
#
#
# Elastic Compliance Matrix: (Units=1/GPa)
#
#
# Indices 1 2 3 4 5 6 
#
# 1 0.017991 -0.004317 -0.001004 0.004993 -0.001964 -0.003142
# 2 -0.004317 0.009420 -0.002512 -0.007112 0.001104 -0.001045
# 3 -0.001004 -0.002512 0.019429 -0.010272 -0.006424 0.003198
# 4 0.004993 -0.007112 -0.010272 0.048231 -0.003718 -0.012889
# 5 -0.001964 0.001104 -0.006424 -0.003718 0.025640 -0.004158
# 6 -0.003142 -0.001045 0.003198 -0.012889 -0.004158 0.038448
#
#
# Mechanical properties :
#
#
# Convention : Reuss Voigt Hill
#
# Bulk Modulus (GPa) = 32.07794 53.76201 42.91997
# Shear Modulus (GPa) = 26.99541 37.16431 32.07986
#
# Velocity S-wave (km/s) = 3.38071 3.96667 3.68536
# Velocity P-wave (km/s) = 5.36842 6.61369 6.02332
#
# Compressibility (1/GPa) = 0.03117408
#
# Stress axis : x y z
#
# Youngs Moduli (GPa) = 55.58183 106.16206 51.46926
#
# Poissons Ratio (x) = 0.45832 0.05166
# Poissons Ratio (y) = 0.23996 0.12930
# Poissons Ratio (z) = 0.05579 0.26670
#
# Static dielectric constant tensor:
#      x y z
#    x 1.977070 0.013740 0.031460 
#    y 0.013740 1.933560 -0.009560 
#    z 0.031460 -0.009560 1.908940 
# 
# From -- ./inp_files/17976.got.cif
#   From: 2010.05.17/outbox.cif.g08.bks.cpg/sg2_9_cif.got.tgz:17976.got - 2010.06.03 11:33:40.
