data_PCOD9006663
_publ_section_title
;
Structure prediction by ZEFSAII (Michael W. Deem and Ramdas Pophale) SiO2 
 PCOD9006663
Probable space group: P -1
;
_chemical_formula_sum "Si O2"
_cell_formula_units_Z 16
_cell_length_a 16.758131
_cell_length_b 9.533225
_cell_length_c 12.266896
_cell_angle_alpha 55.733722
_cell_angle_beta 143.151061
_cell_angle_gamma 138.736879
_cell_volume 771.438536
_symmetry_space_group_name_H-M "P -1"
_symmetry_group_IT_number 2
_symmetry_cell_setting 'triclinic'
loop_
_space_group_symop_operation_xyz
x,y,z
-x,-y,-z
loop_
_atom_site_type_symbol
_atom_site_label
_atom_site_fract_x
_atom_site_fract_y
_atom_site_fract_z
Si Si1 0.212213 0.814141 0.906617
Si Si2 0.697638 0.693005 0.498606
Si Si3 0.652446 0.552372 0.270222
Si Si4 0.092025 0.539575 0.696587
Si Si5 0.449234 0.720498 0.916417
Si Si6 0.647604 0.438771 0.772923
Si Si7 0.110956 0.204704 0.955939
Si Si8 0.079033 0.046019 0.756928
O O1 0.105576 0.697526 0.731584
O O2 0.114225 0.876841 0.842599
O O3 0.256462 0.665611 0.070611
O O4 0.394790 0.039269 0.991493
O O5 0.678282 0.572327 0.418456
O O6 0.679130 0.552516 0.642116
O O7 0.549277 0.715276 0.345032
O O8 0.880169 0.919826 0.594748
O O9 0.597705 0.342958 0.234991
O O10 0.817345 0.758449 0.300440
O O11 0.509411 0.582336 0.080818
O O12 0.284612 0.649398 0.829457
O O13 0.024794 0.316441 0.778392
O O14 0.000000 0.500000 0.500000
O O15 0.729655 0.621570 0.874503
O O16 0.146105 0.140109 0.909005
O O17 0.000000 0.000000 0.000000
#
# Coordination Sequence:
#
# PCOD9006663 Si02
#       8
#     2   2   2   2   2   2   2   2
#     4  10  24  42  64  96 128 174 214 266 338 388
#     4  11  23  40  68  93 132 165 224 267 324 389
#     4  10  21  38  67  97 122 166 216 279 314 386
#     4  11  24  41  64  98 137 169 219 274 330 388
#     4  10  21  40  63  89 131 171 211 260 334 389
#     4  10  24  45  65  93 131 181 213 262 332 404
#     4  11  22  45  67  93 132 182 219 257 330 414
#     4  11  23  40  70  98 123 169 224 273 324 386
#
# _framework density 20.740473999999999
#
# number of rings (size 3 to 8) (size 9 to 14) (size 15 to 20)
#    0.000    1.500    2.500    2.250    5.250    4.500 
#    0.000    0.625    0.000    0.000    0.000    0.000 
#    0.000    0.000    0.000    0.000    0.000    0.000 
#
# Total GULP energy -89401.338614 kJ/mol
# GULP energy per Si atom -5587.583663 kJ/mol
# Density = 2.069327 g / cm^3
# Si number density = 20.740474 Si / 1000 Ang^3
#
#
#
# Elastic Constant Matrix: (Units=GPa)
#
#
# Indices 1 2 3 4 5 6 
#
# 1 123.2991 46.5700 55.2467 6.2826 -29.3330 -9.8172
# 2 46.5700 80.7733 44.1579 12.1552 -11.9497 -9.6879
# 3 55.2467 44.1579 106.1859 9.1499 -15.0632 5.8045
# 4 6.2826 12.1552 9.1499 25.1199 2.3036 -2.0626
# 5 -29.3330 -11.9497 -15.0632 2.3036 53.1422 10.9416
# 6 -9.8172 -9.6879 5.8045 -2.0626 10.9416 41.1821
#
#
#
# Elastic Compliance Matrix: (Units=1/GPa)
#
#
# Indices 1 2 3 4 5 6 
#
# 1 0.012864 -0.004169 -0.004395 0.000101 0.004607 0.001486
# 2 -0.004169 0.019154 -0.005531 -0.005867 -0.000138 0.004034
# 3 -0.004395 -0.005531 0.014686 -0.002128 0.001605 -0.004952
# 4 0.000101 -0.005867 -0.002128 0.043973 -0.004241 0.002273
# 5 0.004607 -0.000138 0.001605 -0.004241 0.023102 -0.005511
# 6 0.001486 0.004034 -0.004952 0.002273 -0.005511 0.027862
#
#
# Mechanical properties :
#
#
# Convention : Reuss Voigt Hill
#
# Bulk Modulus (GPa) = 54.01591 66.91192 60.46392
# Shear Modulus (GPa) = 28.40868 34.84108 31.62488
#
# Velocity S-wave (km/s) = 3.70499 4.10306 3.90909
# Velocity P-wave (km/s) = 6.66355 7.40124 7.04206
#
# Compressibility (1/GPa) = 0.01851306
#
# Stress axis : x y z
#
# Youngs Moduli (GPa) = 77.73890 52.20860 68.09208
#
# Poissons Ratio (x) = 0.21765 0.29930
# Poissons Ratio (y) = 0.32409 0.37660
# Poissons Ratio (z) = 0.34170 0.28876
#
# Static dielectric constant tensor:
#      x y z
#    x 1.753150 -0.016520 -0.007660 
#    y -0.016520 1.779610 0.009520 
#    z -0.007660 0.009520 1.775600 
# 
# From -- ./inp_files/262102.got.cif
#   From: 2010.05.17/outbox.cif.g08.bks.cpg/sg2_132_cif.got.tgz:262102.got - 2010.06.03 11:33:40.
