data_PCOD9006916
_publ_section_title
;
Structure prediction by ZEFSAII (Michael W. Deem and Ramdas Pophale) SiO2 
 PCOD9006916
Probable space group: P -1
;
_chemical_formula_sum "Si O2"
_cell_formula_units_Z 16
_cell_length_a 8.469861
_cell_length_b 14.594873
_cell_length_c 12.373794
_cell_angle_alpha 40.450278
_cell_angle_beta 82.716671
_cell_angle_gamma 61.509616
_cell_volume 793.850506
_symmetry_space_group_name_H-M "P -1"
_symmetry_group_IT_number 2
_symmetry_cell_setting 'triclinic'
loop_
_space_group_symop_operation_xyz
x,y,z
-x,-y,-z
loop_
_atom_site_type_symbol
_atom_site_label
_atom_site_fract_x
_atom_site_fract_y
_atom_site_fract_z
Si Si1 0.306711 0.006984 0.487632
Si Si2 0.431491 0.685110 0.483578
Si Si3 0.091063 0.925815 0.873179
Si Si4 0.443867 0.673772 0.907328
Si Si5 0.698812 0.637845 0.117625
Si Si6 0.716391 0.958237 0.793702
Si Si7 0.044101 0.751574 0.534061
Si Si8 0.649271 0.311549 0.761485
O O1 0.251457 0.052818 0.327088
O O2 0.110777 0.146393 0.447692
O O3 0.500000 0.000000 0.500000
O O4 0.381061 0.815562 0.692231
O O5 0.259139 0.718522 0.549537
O O6 0.621879 0.485599 0.652080
O O7 0.351745 0.693023 0.362732
O O8 0.461701 0.836232 0.356907
O O9 0.256192 0.773837 0.914456
O O10 0.894300 0.942693 0.852308
O O11 0.169966 0.858920 0.045163
O O12 0.060910 0.105684 0.681777
O O13 0.500000 0.500000 0.000000
O O14 0.618221 0.635622 0.007013
O O15 0.895311 0.444347 0.300050
O O16 0.542539 0.667731 0.193732
O O17 0.702895 0.804524 0.968927
#
# Coordination Sequence:
#
# PCOD9006916 Si02
#       8
#     2   2   2   2   2   2   2   2
#     4  11  23  39  54  83 123 157 187 238 292 341
#     4   9  20  39  66  86 110 153 191 244 282 348
#     4   9  21  36  57  86 111 149 193 243 275 351
#     4  10  22  35  58  81 112 159 198 230 284 343
#     4  10  21  39  56  86 120 152 190 241 286 345
#     4  11  23  36  56  88 120 148 195 237 296 334
#     4   9  21  37  57  80 114 154 192 229 282 340
#     4   9  19  41  65  85 115 147 198 233 293 340
#
# _framework density 20.154928000000002
#
# number of rings (size 3 to 8) (size 9 to 14) (size 15 to 20)
#    0.000    2.250    1.250    0.000    8.750    6.500 
#    0.000    0.000    2.750    3.000    0.000    0.000 
#    0.000    0.000    0.000    0.000    0.000    0.000 
#
# Total GULP energy -89168.556890 kJ/mol
# GULP energy per Si atom -5573.034806 kJ/mol
# Density = 2.010905 g / cm^3
# Si number density = 20.154928 Si / 1000 Ang^3
#
#
#
# Elastic Constant Matrix: (Units=GPa)
#
#
# Indices 1 2 3 4 5 6 
#
# 1 32.6376 30.8837 28.8971 -10.9554 -12.1404 1.5658
# 2 30.8837 94.4475 55.5941 -30.1430 -15.3270 -11.9654
# 3 28.8971 55.5941 133.1777 -28.4019 -19.7274 0.1211
# 4 -10.9554 -30.1430 -28.4019 41.3000 13.3719 -3.7257
# 5 -12.1404 -15.3270 -19.7274 13.3719 35.2984 -9.0732
# 6 1.5658 -11.9654 0.1211 -3.7257 -9.0732 14.9598
#
#
#
# Elastic Compliance Matrix: (Units=1/GPa)
#
#
# Indices 1 2 3 4 5 6 
#
# 1 0.052109 -0.017516 -0.004294 -0.005243 0.005417 -0.017450
# 2 -0.017516 0.028390 -0.004067 0.013903 0.007072 0.032325
# 3 -0.004294 -0.004067 0.010964 0.002837 0.001478 -0.001289
# 4 -0.005243 0.013903 0.002837 0.037805 -0.003659 0.018842
# 5 0.005417 0.007072 0.001478 -0.003659 0.043296 0.030425
# 6 -0.017450 0.032325 -0.001289 0.018842 0.030425 0.117683
#
#
# Mechanical properties :
#
#
# Convention : Reuss Voigt Hill
#
# Bulk Modulus (GPa) = 25.18496 54.55697 39.87096
# Shear Modulus (GPa) = 14.07503 27.97082 21.02292
#
# Velocity S-wave (km/s) = 2.64548 3.72935 3.23316
# Velocity P-wave (km/s) = 4.67485 6.75808 5.81059
#
# Compressibility (1/GPa) = 0.03970624
#
# Stress axis : x y z
#
# Youngs Moduli (GPa) = 19.19047 35.22395 91.21117
#
# Poissons Ratio (x) = 0.61700 0.39171
# Poissons Ratio (y) = 0.33615 0.37097
# Poissons Ratio (z) = 0.08241 0.14326
#
# Static dielectric constant tensor:
#      x y z
#    x 1.720140 -0.015040 0.015490 
#    y -0.015040 1.743040 -0.043020 
#    z 0.015490 -0.043020 1.785440 
# 
# From -- ./inp_files/202157.got.cif
#   From: 2010.05.17/outbox.cif.g08.bks.cpg/sg2_102_cif.got.tgz:202157.got - 2010.06.03 11:33:40.
