data_PCOD9006088
_publ_section_title
;
Structure prediction by ZEFSAII (Michael W. Deem and Ramdas Pophale) SiO2 
 PCOD9006088
Probable space group: P -1
;
_chemical_formula_sum "Si O2"
_cell_formula_units_Z 14
_cell_length_a 11.583745
_cell_length_b 11.363531
_cell_length_c 19.346290
_cell_angle_alpha 134.991142
_cell_angle_beta 23.505324
_cell_angle_gamma 122.356270
_cell_volume 657.968055
_symmetry_space_group_name_H-M "P -1"
_symmetry_group_IT_number 2
_symmetry_cell_setting 'triclinic'
loop_
_space_group_symop_operation_xyz
x,y,z
-x,-y,-z
loop_
_atom_site_type_symbol
_atom_site_label
_atom_site_fract_x
_atom_site_fract_y
_atom_site_fract_z
Si Si1 0.230531 0.599929 0.403665
Si Si2 0.183325 0.001091 0.207662
Si Si3 0.436420 0.293033 0.616693
Si Si4 0.999121 0.518247 0.740805
Si Si5 0.583661 0.355998 0.987115
Si Si6 0.273898 0.636779 0.759392
Si Si7 0.117141 0.102115 0.803925
O O1 0.342425 0.632931 0.431046
O O2 0.000000 0.500000 0.500000
O O3 0.500832 0.478288 0.152821
O O4 0.038764 0.799882 0.561675
O O5 0.260348 0.851132 0.161366
O O6 0.023177 0.947183 0.208340
O O7 0.500000 0.000000 0.000000
O O8 0.275220 0.450782 0.715793
O O9 0.244306 0.248208 0.765322
O O10 0.618786 0.093804 0.400071
O O11 0.822798 0.408728 0.831853
O O12 0.060798 0.659983 0.817571
O O13 0.361267 0.399314 0.470275
O O14 0.749718 0.605889 0.852352
O O15 0.122142 0.800439 0.963825
#
# Coordination Sequence:
#
# PCOD9006088 Si02
#       7
#     2   2   2   2   2   2   2
#     4  11  21  37  65  98 120 157 196 262 325 363
#     4  11  23  37  66  98 118 153 202 261 325 365
#     4  10  21  38  64  96 123 152 202 261 315 372
#     4  10  25  40  62  86 124 180 208 245 288 372
#     4  11  22  44  60  88 132 160 210 253 302 368
#     4  11  21  42  62  87 122 168 211 244 305 360
#     4  10  22  38  63  96 124 153 198 265 319 359
#
# _framework density 21.277629000000001
#
# number of rings (size 3 to 8) (size 9 to 14) (size 15 to 20)
#    0.000    1.429    1.429    3.857    4.000    0.000 
#    0.000    8.571    0.000    0.000    0.000    0.000 
#    0.000    0.000    0.000    0.000    0.000    0.000 
#
# Total GULP energy -78210.802323 kJ/mol
# GULP energy per Si atom -5586.485880 kJ/mol
# Density = 2.122920 g / cm^3
# Si number density = 21.277629 Si / 1000 Ang^3
#
#
#
# Elastic Constant Matrix: (Units=GPa)
#
#
# Indices 1 2 3 4 5 6 
#
# 1 51.4356 14.5273 25.5160 3.7574 0.3105 12.0873
# 2 14.5273 62.5978 30.1266 0.7855 11.6366 16.9880
# 3 25.5160 30.1266 91.7339 -0.2832 16.8404 3.1468
# 4 3.7574 0.7855 -0.2832 34.2375 0.5250 -11.6567
# 5 0.3105 11.6366 16.8404 0.5250 28.5976 -10.0908
# 6 12.0873 16.9880 3.1468 -11.6567 -10.0908 25.3370
#
#
#
# Elastic Compliance Matrix: (Units=1/GPa)
#
#
# Indices 1 2 3 4 5 6 
#
# 1 0.028037 0.004333 -0.007497 -0.010804 -0.005381 -0.022464
# 2 0.004333 0.033465 -0.006553 -0.014462 -0.023558 -0.039727
# 3 -0.007497 -0.006553 0.015812 0.003070 -0.004656 0.005564
# 4 -0.010804 -0.014462 0.003070 0.044919 0.018346 0.042442
# 5 -0.005381 -0.023558 -0.004656 0.018346 0.065946 0.053645
# 6 -0.022464 -0.039727 0.005564 0.042442 0.053645 0.117021
#
#
# Mechanical properties :
#
#
# Convention : Reuss Voigt Hill
#
# Bulk Modulus (GPa) = 17.27655 38.45634 27.86645
# Shear Modulus (GPa) = 14.53797 26.67426 20.60611
#
# Velocity S-wave (km/s) = 2.61674 3.54450 3.11535
# Velocity P-wave (km/s) = 4.15536 5.90459 5.10545
#
# Compressibility (1/GPa) = 0.05788191
#
# Stress axis : x y z
#
# Youngs Moduli (GPa) = 35.66656 29.88192 63.24381
#
# Poissons Ratio (x) = -0.12949 0.47412
# Poissons Ratio (y) = -0.15456 0.41443
# Poissons Ratio (z) = 0.26738 0.19581
#
# Static dielectric constant tensor:
#      x y z
#    x 1.775410 -0.049260 -0.010890 
#    y -0.049260 1.664580 0.024210 
#    z -0.010890 0.024210 1.770810 
# 
# From -- ./inp_files/263717.got.cif
#   From: 2010.05.17/outbox.cif.g08.bks.cpg/sg2_132_cif.got.tgz:263717.got - 2010.06.03 11:33:40.
