data_PCOD9006946
_publ_section_title
;
Structure prediction by ZEFSAII (Michael W. Deem and Ramdas Pophale) SiO2 
 PCOD9006946
Probable space group: P -1
;
_chemical_formula_sum "Si O2"
_cell_formula_units_Z 16
_cell_length_a 10.001826
_cell_length_b 18.596271
_cell_length_c 5.381182
_cell_angle_alpha 126.080251
_cell_angle_beta 110.624412
_cell_angle_gamma 51.454119
_cell_volume 632.480744
_symmetry_space_group_name_H-M "P -1"
_symmetry_group_IT_number 2
_symmetry_cell_setting 'triclinic'
loop_
_space_group_symop_operation_xyz
x,y,z
-x,-y,-z
loop_
_atom_site_type_symbol
_atom_site_label
_atom_site_fract_x
_atom_site_fract_y
_atom_site_fract_z
Si Si1 0.778862 0.403317 0.272764
Si Si2 0.496721 0.107937 0.735734
Si Si3 0.363720 0.126153 0.183627
Si Si4 0.602835 0.302423 0.735606
Si Si5 0.254389 0.833440 0.942769
Si Si6 0.985651 0.797306 0.660084
Si Si7 0.959900 0.636833 0.011338
Si Si8 0.269509 0.436136 0.095613
O O1 0.854519 0.307811 0.324460
O O2 0.663421 0.516763 0.558812
O O3 0.682802 0.374908 0.952004
O O4 0.949686 0.392726 0.256838
O O5 0.420548 0.163127 0.534350
O O6 0.500000 0.000000 0.500000
O O7 0.383678 0.169528 0.027009
O O8 0.682546 0.086297 0.854175
O O9 0.177732 0.150880 0.163878
O O10 0.500000 0.000000 0.000000
O O11 0.637623 0.249063 0.380006
O O12 0.697109 0.215018 0.843459
O O13 0.408588 0.372871 0.846043
O O14 0.062025 0.869125 0.822772
O O15 0.938714 0.747917 0.301805
O O16 0.108727 0.541680 0.083977
O O17 0.801796 0.626712 0.942375
#
# Coordination Sequence:
#
# PCOD9006946 Si02
#       8
#     2   2   2   2   2   2   2   2
#     4  10  21  40  59  89 129 176 218 265 321 378
#     4  10  23  44  67  97 131 160 209 266 321 394
#     4  10  23  43  68 100 127 163 209 263 327 388
#     4  11  24  40  63  96 127 175 217 269 314 377
#     4  11  24  42  64  98 129 168 221 259 326 385
#     4  10  23  40  63  92 130 171 211 270 318 386
#     4  10  21  39  57  87 128 169 223 258 327 371
#     4  10  23  36  57  90 127 173 220 270 316 374
#
# _framework density 25.297214
#
# number of rings (size 3 to 8) (size 9 to 14) (size 15 to 20)
#    0.000    1.750    1.250    1.500    7.000    0.500 
#    0.000    5.000    0.000    0.000    0.000    0.000 
#    0.000    0.000    0.000    0.000    0.000    0.000 
#
# Total GULP energy -89426.499520 kJ/mol
# GULP energy per Si atom -5589.156220 kJ/mol
# Density = 2.523964 g / cm^3
# Si number density = 25.297214 Si / 1000 Ang^3
#
#
#
# Elastic Constant Matrix: (Units=GPa)
#
#
# Indices 1 2 3 4 5 6 
#
# 1 184.0828 14.8286 47.8345 5.7706 15.6034 0.5389
# 2 14.8286 57.0842 24.9639 0.9721 2.8645 3.8403
# 3 47.8345 24.9639 91.2995 -10.8309 -1.1065 11.8783
# 4 5.7706 0.9721 -10.8309 28.1632 9.6741 -5.8525
# 5 15.6034 2.8645 -1.1065 9.6741 59.0830 -4.9816
# 6 0.5389 3.8403 11.8783 -5.8525 -4.9816 28.1231
#
#
#
# Elastic Compliance Matrix: (Units=1/GPa)
#
#
# Indices 1 2 3 4 5 6 
#
# 1 0.006616 0.000020 -0.003852 -0.002194 -0.001394 0.000794
# 2 0.000020 0.020179 -0.005741 -0.002885 -0.000708 -0.001057
# 3 -0.003852 -0.005741 0.015854 0.006067 0.000217 -0.004537
# 4 -0.002194 -0.002885 0.006067 0.041421 -0.005484 0.005522
# 5 -0.001394 -0.000708 0.000217 -0.005484 0.018411 0.002152
# 6 0.000794 -0.001057 -0.004537 0.005522 0.002152 0.039134
#
#
# Mechanical properties :
#
#
# Convention : Reuss Voigt Hill
#
# Bulk Modulus (GPa) = 42.54987 56.41339 49.48163
# Shear Modulus (GPa) = 29.65638 39.39647 34.52643
#
# Velocity S-wave (km/s) = 3.42763 3.95060 3.69837
# Velocity P-wave (km/s) = 5.70275 6.56950 6.15141
#
# Compressibility (1/GPa) = 0.02350183
#
# Stress axis : x y z
#
# Youngs Moduli (GPa) = 151.13839 49.55560 63.07565
#
# Poissons Ratio (x) = -0.00099 0.24300
# Poissons Ratio (y) = -0.00301 0.36214
# Poissons Ratio (z) = 0.58226 0.28452
#
# Static dielectric constant tensor:
#      x y z
#    x 2.211300 0.511430 0.089630 
#    y 0.511430 3.314240 0.165210 
#    z 0.089630 0.165210 2.053510 
# 
# From -- ./inp_files/39174.got.cif
#   From: 2010.05.17/outbox.cif.g08.bks.cpg/sg2_20_cif.got.tgz:39174.got - 2010.06.03 11:33:40.
