data_PCOD9006531
_publ_section_title
;
Structure prediction by ZEFSAII (Michael W. Deem and Ramdas Pophale) SiO2 
 PCOD9006531
Probable space group: P -1
;
_chemical_formula_sum "Si O2"
_cell_formula_units_Z 12
_cell_length_a 5.211013
_cell_length_b 5.520486
_cell_length_c 20.310849
_cell_angle_alpha 65.810368
_cell_angle_beta 90.888354
_cell_angle_gamma 120.055104
_cell_volume 447.806243
_symmetry_space_group_name_H-M "P -1"
_symmetry_group_IT_number 2
_symmetry_cell_setting 'triclinic'
loop_
_space_group_symop_operation_xyz
x,y,z
-x,-y,-z
loop_
_atom_site_type_symbol
_atom_site_label
_atom_site_fract_x
_atom_site_fract_y
_atom_site_fract_z
Si Si1 0.686484 0.502680 0.562189
Si Si2 0.562131 0.752386 0.059335
Si Si3 0.143932 0.120523 0.087605
Si Si4 0.144164 0.951877 0.414593
Si Si5 0.074578 0.960362 0.724908
Si Si6 0.704276 0.207454 0.777122
O O1 0.500000 0.500000 0.500000
O O2 0.673499 0.181294 0.604565
O O3 0.030790 0.759102 0.504794
O O4 0.668520 0.683867 0.604327
O O5 0.248536 0.418888 0.100906
O O6 0.758390 0.729378 0.002118
O O7 0.788075 0.861415 0.109151
O O8 0.500000 0.000000 0.000000
O O9 0.318557 0.964695 0.134349
O O10 0.897004 0.904260 0.364622
O O11 0.879925 0.581279 0.751951
O O12 0.383842 0.067617 0.753840
O O13 0.904263 0.104232 0.747550
#
# Coordination Sequence:
#
# PCOD9006531 Si02
#       6
#     2   2   2   2   2   2
#     4  10  21  40  66  96 125 173 215 295 343 408
#     4  10  21  38  66  96 127 173 219 295 347 400
#     4  10  23  39  63  97 130 173 232 281 347 413
#     4  10  23  39  63  97 130 169 232 277 351 409
#     4  12  28  47  73 104 142 195 236 293 348 426
#     4  12  28  49  73 104 144 195 240 289 352 422
#
# _framework density 26.797301999999998
#
# number of rings (size 3 to 8) (size 9 to 14) (size 15 to 20)
#    0.000    1.333    0.000    4.000    9.333    0.000 
#    0.000    0.000    0.000    0.000    0.000    0.000 
#    0.000    0.000    0.000    0.000    0.000    0.000 
#
# Total GULP energy -67101.114096 kJ/mol
# GULP energy per Si atom -5591.759508 kJ/mol
# Density = 2.673631 g / cm^3
# Si number density = 26.797302 Si / 1000 Ang^3
#
#
#
# Elastic Constant Matrix: (Units=GPa)
#
#
# Indices 1 2 3 4 5 6 
#
# 1 154.3581 91.7036 32.7779 21.2415 50.4788 -4.9071
# 2 91.7036 252.3785 44.0614 27.0048 31.1291 -1.3218
# 3 32.7779 44.0614 142.3130 28.1271 16.8831 0.5324
# 4 21.2415 27.0048 28.1271 28.6617 15.7182 19.2152
# 5 50.4788 31.1291 16.8831 15.7182 47.2776 12.3550
# 6 -4.9071 -1.3218 0.5324 19.2152 12.3550 56.6620
#
#
#
# Elastic Compliance Matrix: (Units=1/GPa)
#
#
# Indices 1 2 3 4 5 6 
#
# 1 0.012551 -0.002717 0.000022 -0.003558 -0.011685 0.004778
# 2 -0.002717 0.005349 -0.000381 -0.003568 0.000438 0.001008
# 3 0.000022 -0.000381 0.009383 -0.011187 -0.000393 0.003784
# 4 -0.003558 -0.003568 -0.011187 0.071340 -0.007611 -0.022819
# 5 -0.011685 0.000438 -0.000393 -0.007611 0.037748 -0.006648
# 6 0.004778 0.001008 0.003784 -0.022819 -0.006648 0.027238
#
#
# Mechanical properties :
#
#
# Convention : Reuss Voigt Hill
#
# Bulk Modulus (GPa) = 47.32321 98.45948 72.89134
# Shear Modulus (GPa) = 28.27984 51.88739 40.08362
#
# Velocity S-wave (km/s) = 3.25210 4.40511 3.87176
# Velocity P-wave (km/s) = 5.63911 7.91804 6.87368
#
# Compressibility (1/GPa) = 0.02113128
#
# Stress axis : x y z
#
# Youngs Moduli (GPa) = 79.67528 186.94500 106.57425
#
# Poissons Ratio (x) = 0.50799 -0.00236
# Poissons Ratio (y) = 0.21650 0.04059
# Poissons Ratio (z) = -0.00177 0.07119
#
# Static dielectric constant tensor:
#      x y z
#    x 2.828580 -0.543350 -0.472210 
#    y -0.543350 2.714500 0.266230 
#    z -0.472210 0.266230 2.304290 
# 
# From -- ./inp_files/9571.got.cif
#   From: 2010.05.17/outbox.cif.g08.bks.cpg/sg2_5_cif.got.tgz:9571.got - 2010.06.03 11:33:40.
