data_PCOD9006919
_publ_section_title
;
Structure prediction by ZEFSAII (Michael W. Deem and Ramdas Pophale) SiO2 
 PCOD9006919
Probable space group: P -1
;
_chemical_formula_sum "Si O2"
_cell_formula_units_Z 16
_cell_length_a 22.917948
_cell_length_b 5.095055
_cell_length_c 6.897251
_cell_angle_alpha 112.754818
_cell_angle_beta 123.123504
_cell_angle_gamma 67.608958
_cell_volume 606.826428
_symmetry_space_group_name_H-M "P -1"
_symmetry_group_IT_number 2
_symmetry_cell_setting 'triclinic'
loop_
_space_group_symop_operation_xyz
x,y,z
-x,-y,-z
loop_
_atom_site_type_symbol
_atom_site_label
_atom_site_fract_x
_atom_site_fract_y
_atom_site_fract_z
Si Si1 0.207961 0.679525 0.129420
Si Si2 0.562802 0.740690 0.236867
Si Si3 0.133740 0.324079 0.165453
Si Si4 0.826461 0.231684 0.355350
Si Si5 0.955946 0.751064 0.360195
Si Si6 0.363307 0.740716 0.356296
Si Si7 0.670202 0.191467 0.145821
Si Si8 0.430411 0.178253 0.162036
O O1 0.192362 0.413143 0.149764
O O2 0.288199 0.717881 0.302739
O O3 0.156665 0.990472 0.180971
O O4 0.190858 0.658439 0.864524
O O5 0.617667 0.427894 0.251828
O O6 0.607023 0.987386 0.438087
O O7 0.486151 0.881328 0.233694
O O8 0.541846 0.733180 0.967331
O O9 0.134223 0.546973 0.402089
O O10 0.063578 0.360438 0.916723
O O11 0.752041 0.209889 0.314741
O O12 0.879803 0.918162 0.354990
O O13 0.000000 0.500000 0.500000
O O14 0.000000 0.000000 0.500000
O O15 0.419342 0.428479 0.373838
O O16 0.347693 0.771213 0.105462
O O17 0.647045 0.886311 0.050324
#
# Coordination Sequence:
#
# PCOD9006919 Si02
#       8
#     2   2   2   2   2   2   2   2
#     4  10  24  41  66 103 141 172 232 288 329 397
#     4  10  21  39  56  88 127 166 219 271 334 402
#     4  11  24  44  71 103 135 182 222 271 345 397
#     4  10  24  44  70 100 136 175 227 278 333 408
#     4  11  25  46  69 102 141 174 218 276 330 405
#     4  10  22  36  59  85 127 170 222 273 340 392
#     4  10  22  40  60  93 121 167 219 277 330 392
#     4  10  22  36  59  87 124 169 216 276 333 397
#
# _framework density 26.366682999999998
#
# number of rings (size 3 to 8) (size 9 to 14) (size 15 to 20)
#    0.000    1.750    0.000    3.000    7.000    5.500 
#    2.250    0.000    0.000    0.000    0.000    0.000 
#    0.000    0.000    0.000    0.000    0.000    0.000 
#
# Total GULP energy -89646.921284 kJ/mol
# GULP energy per Si atom -5602.932580 kJ/mol
# Density = 2.630667 g / cm^3
# Si number density = 26.366683 Si / 1000 Ang^3
#
#
#
# Elastic Constant Matrix: (Units=GPa)
#
#
# Indices 1 2 3 4 5 6 
#
# 1 70.3053 14.4152 15.9232 8.9438 6.5087 -8.8137
# 2 14.4152 99.9039 43.2362 1.2917 5.2193 -10.1601
# 3 15.9232 43.2362 190.3182 16.5498 11.6050 -13.0697
# 4 8.9438 1.2917 16.5498 54.2290 0.5702 2.1854
# 5 6.5087 5.2193 11.6050 0.5702 51.2894 8.5857
# 6 -8.8137 -10.1601 -13.0697 2.1854 8.5857 35.1042
#
#
#
# Elastic Compliance Matrix: (Units=1/GPa)
#
#
# Indices 1 2 3 4 5 6 
#
# 1 0.015683 -0.001552 -0.000302 -0.002598 -0.002427 0.004131
# 2 -0.001552 0.011506 -0.002333 0.000613 -0.000827 0.002236
# 3 -0.000302 -0.002333 0.006198 -0.001853 -0.001445 0.002025
# 4 -0.002598 0.000613 -0.001853 0.019515 0.000905 -0.002601
# 5 -0.002427 -0.000827 -0.001445 0.000905 0.021321 -0.006658
# 6 0.004131 0.002236 0.002025 -0.002601 -0.006658 0.032715
#
#
# Mechanical properties :
#
#
# Convention : Reuss Voigt Hill
#
# Bulk Modulus (GPa) = 39.97891 56.40852 48.19371
# Shear Modulus (GPa) = 40.43659 47.25469 43.84564
#
# Velocity S-wave (km/s) = 3.92040 4.23805 4.08231
# Velocity P-wave (km/s) = 5.97397 6.73709 6.36697
#
# Compressibility (1/GPa) = 0.02501319
#
# Stress axis : x y z
#
# Youngs Moduli (GPa) = 63.76177 86.91082 161.34227
#
# Poissons Ratio (x) = 0.13486 0.04872
# Poissons Ratio (y) = 0.09894 0.37647
# Poissons Ratio (z) = 0.01926 0.20280
#
# Static dielectric constant tensor:
#      x y z
#    x 2.080400 0.039880 -0.044010 
#    y 0.039880 2.069870 -0.039520 
#    z -0.044010 -0.039520 2.039830 
# 
# From -- ./inp_files/356079.got.cif
#   From: 2010.05.17/outbox.cif.g08.bks.cpg/sg2_179_cif.got.tgz:356079.got - 2010.06.03 11:33:40.
