data_PCOD9006370
_publ_section_title
;
Structure prediction by ZEFSAII (Michael W. Deem and Ramdas Pophale) SiO2 
 PCOD9006370
Probable space group: P -1
;
_chemical_formula_sum "Si O2"
_cell_formula_units_Z 11
_cell_length_a 5.075948
_cell_length_b 10.496071
_cell_length_c 12.391945
_cell_angle_alpha 48.343948
_cell_angle_beta 74.889120
_cell_angle_gamma 100.786059
_cell_volume 412.512831
_symmetry_space_group_name_H-M "P -1"
_symmetry_group_IT_number 2
_symmetry_cell_setting 'triclinic'
loop_
_space_group_symop_operation_xyz
x,y,z
-x,-y,-z
loop_
_atom_site_type_symbol
_atom_site_label
_atom_site_fract_x
_atom_site_fract_y
_atom_site_fract_z
Si Si1 0.042144 0.703789 0.565451
Si Si2 0.277701 0.072332 0.588695
Si Si3 0.497845 0.699774 0.358057
Si Si4 0.000000 0.000000 0.000000
Si Si5 0.187439 0.706387 0.062113
Si Si6 0.750742 0.696136 0.921442
O O1 0.365394 0.875589 0.486110
O O2 0.173177 0.682491 0.445552
O O3 0.783954 0.769081 0.552312
O O4 0.926588 0.499616 0.751174
O O5 0.251814 0.121295 0.691257
O O6 0.005702 0.853144 0.724674
O O7 0.500000 0.500000 0.500000
O O8 0.645934 0.788686 0.178068
O O9 0.838568 0.134056 0.954589
O O10 0.541900 0.785783 0.938993
O O11 0.953162 0.664719 0.008761
O O12 0.500000 0.500000 0.000000
#
# Coordination Sequence:
#
# PCOD9006370 Si02
#       6
#     2   2   2   1   2   2
#     4  10  22  42  65  97 142 176 229 291 341 431
#     4  10  21  43  64  93 135 179 228 284 350 403
#     4  10  21  38  65  97 143 180 224 282 349 424
#     4  12  20  44  68 110 140 188 222 294 362 430
#     4  12  25  44  71 108 137 187 237 289 363 425
#     4  12  26  48  71  99 139 189 245 294 345 423
#
# _framework density 26.665837
#
# number of rings (size 3 to 8) (size 9 to 14) (size 15 to 20)
#    1.091    0.000    3.636    3.818    0.000    1.455 
#    3.273    5.455    0.000    0.000    0.000    0.000 
#    0.000    0.000    0.000    0.000    0.000    0.000 
#
# Total GULP energy -61378.750700 kJ/mol
# GULP energy per Si atom -5579.886427 kJ/mol
# Density = 2.660514 g / cm^3
# Si number density = 26.665837 Si / 1000 Ang^3
#
#
#
# Elastic Constant Matrix: (Units=GPa)
#
#
# Indices 1 2 3 4 5 6 
#
# 1 123.1162 2.4850 31.4572 22.7675 3.3486 1.6292
# 2 2.4850 53.3147 15.9878 2.7082 -8.2952 8.1093
# 3 31.4572 15.9878 123.8650 -27.1283 -5.3493 -0.1821
# 4 22.7675 2.7082 -27.1283 37.3680 -11.1325 -17.7659
# 5 3.3486 -8.2952 -5.3493 -11.1325 47.1963 -1.6422
# 6 1.6292 8.1093 -0.1821 -17.7659 -1.6422 40.0985
#
#
#
# Elastic Compliance Matrix: (Units=1/GPa)
#
#
# Indices 1 2 3 4 5 6 
#
# 1 0.016697 0.005005 -0.011553 -0.028590 -0.008872 -0.014774
# 2 0.005005 0.023519 -0.008164 -0.017203 -0.001646 -0.012686
# 3 -0.011553 -0.008164 0.019809 0.033270 0.010082 0.017364
# 4 -0.028590 -0.017203 0.033270 0.102601 0.028766 0.051428
# 5 -0.008872 -0.001646 0.010082 0.028766 0.029968 0.014712
# 6 -0.014774 -0.012686 0.017364 0.051428 0.014712 0.051571
#
#
# Mechanical properties :
#
#
# Convention : Reuss Voigt Hill
#
# Bulk Modulus (GPa) = 32.67908 44.46176 38.57042
# Shear Modulus (GPa) = 17.61871 41.62363 29.62117
#
# Velocity S-wave (km/s) = 2.57324 3.95515 3.33652
# Velocity P-wave (km/s) = 4.59460 6.12923 5.41654
#
# Compressibility (1/GPa) = 0.03060062
#
# Stress axis : x y z
#
# Youngs Moduli (GPa) = 59.89023 42.51917 50.48263
#
# Poissons Ratio (x) = -0.21282 0.58323
# Poissons Ratio (y) = -0.29976 0.41215
# Poissons Ratio (z) = 0.69192 0.34713
#
# Static dielectric constant tensor:
#      x y z
#    x 2.070170 0.064370 -0.001820 
#    y 0.064370 2.163250 0.140790 
#    z -0.001820 0.140790 2.118410 
# 
# From -- ./inp_files/481927.got.cif
#   From: 2010.05.17/outbox.cif.g08.bks.cpg/sg2_241_cif.got.tgz:481927.got - 2010.06.03 11:33:40.
