data_PCOD9006468
_publ_section_title
;
Structure prediction by ZEFSAII (Michael W. Deem and Ramdas Pophale) SiO2 
 PCOD9006468
Probable space group: P -1
;
_chemical_formula_sum "Si O2"
_cell_formula_units_Z 12
_cell_length_a 6.818314
_cell_length_b 9.542878
_cell_length_c 11.796108
_cell_angle_alpha 131.158918
_cell_angle_beta 106.083099
_cell_angle_gamma 76.470908
_cell_volume 553.831142
_symmetry_space_group_name_H-M "P -1"
_symmetry_group_IT_number 2
_symmetry_cell_setting 'triclinic'
loop_
_space_group_symop_operation_xyz
x,y,z
-x,-y,-z
loop_
_atom_site_type_symbol
_atom_site_label
_atom_site_fract_x
_atom_site_fract_y
_atom_site_fract_z
Si Si1 0.105614 0.385407 0.060841
Si Si2 0.029578 0.090221 0.725690
Si Si3 0.647833 0.214305 0.374896
Si Si4 0.500985 0.481879 0.307908
Si Si5 0.445763 0.910619 0.320958
Si Si6 0.789148 0.630653 0.262819
O O1 0.325255 0.441151 0.167747
O O2 0.930431 0.444130 0.156397
O O3 0.127892 0.182011 0.901039
O O4 0.000000 0.500000 0.000000
O O5 0.080693 0.201764 0.677370
O O6 0.124388 0.879943 0.626769
O O7 0.791126 0.111515 0.720182
O O8 0.585815 0.295245 0.286079
O O9 0.613368 0.383665 0.546900
O O10 0.507894 0.053764 0.311535
O O11 0.692135 0.588012 0.346179
O O12 0.500000 0.000000 0.500000
O O13 0.574629 0.713484 0.214603
#
# Coordination Sequence:
#
# PCOD9006468 Si02
#       6
#     2   2   2   2   2   2
#     4  10  23  40  65  95 126 165 209 261 306 375
#     4  10  24  41  63  96 122 164 217 255 314 365
#     4  10  25  41  64  93 130 168 204 260 308 382
#     4  11  23  43  63  95 129 167 207 253 323 363
#     4  11  22  39  64  93 123 163 207 260 310 363
#     4  10  21  38  66  91 124 163 204 262 302 372
#
# _framework density 21.667255000000001
#
# number of rings (size 3 to 8) (size 9 to 14) (size 15 to 20)
#    0.000    1.667    1.667    2.000    2.333   10.667 
#    0.000    5.000    0.000    0.000    0.000    0.000 
#    0.000    0.000    0.000    0.000    0.000    0.000 
#
# Total GULP energy -66841.300605 kJ/mol
# GULP energy per Si atom -5570.108384 kJ/mol
# Density = 2.161794 g / cm^3
# Si number density = 21.667255 Si / 1000 Ang^3
#
#
#
# Elastic Constant Matrix: (Units=GPa)
#
#
# Indices 1 2 3 4 5 6 
#
# 1 99.2108 25.6975 -6.6211 -2.4931 10.2309 -4.8852
# 2 25.6975 122.8639 2.8265 -5.0347 0.0463 9.8221
# 3 -6.6211 2.8265 48.9158 -0.9145 12.5347 -9.5768
# 4 -2.4931 -5.0347 -0.9145 22.7069 -10.3454 -8.1064
# 5 10.2309 0.0463 12.5347 -10.3454 27.4864 8.1315
# 6 -4.8852 9.8221 -9.5768 -8.1064 8.1315 24.0383
#
#
#
# Elastic Compliance Matrix: (Units=1/GPa)
#
#
# Indices 1 2 3 4 5 6 
#
# 1 0.013248 -0.003814 0.007075 -0.000506 -0.011538 0.010802
# 2 -0.003814 0.009740 -0.004243 0.001571 0.006311 -0.008050
# 3 0.007075 -0.004243 0.032903 -0.001776 -0.025489 0.024303
# 4 -0.000506 0.001571 -0.001776 0.057002 0.019105 0.011308
# 5 -0.011538 0.006311 -0.025489 0.019105 0.068933 -0.031954
# 6 0.010802 -0.008050 0.024303 0.011308 -0.031954 0.071389
#
#
# Mechanical properties :
#
#
# Convention : Reuss Voigt Hill
#
# Bulk Modulus (GPa) = 18.54289 34.97739 26.76014
# Shear Modulus (GPa) = 18.30471 31.45216 24.87843
#
# Velocity S-wave (km/s) = 2.90971 3.81412 3.39219
# Velocity P-wave (km/s) = 4.45704 5.96445 5.26497
#
# Compressibility (1/GPa) = 0.05392903
#
# Stress axis : x y z
#
# Youngs Moduli (GPa) = 75.48029 102.67054 30.39257
#
# Poissons Ratio (x) = 0.39155 -0.21504
# Poissons Ratio (y) = 0.28786 0.12895
# Poissons Ratio (z) = -0.53406 0.43561
#
# Static dielectric constant tensor:
#      x y z
#    x 1.806640 -0.004750 -0.032500 
#    y -0.004750 1.818350 0.060640 
#    z -0.032500 0.060640 1.921100 
# 
# From -- ./inp_files/30999.got.cif
#   From: 2010.05.17/outbox.cif.g08.bks.cpg/sg2_16_cif.got.tgz:30999.got - 2010.06.03 11:33:40.
