data_PCOD9006564
_publ_section_title
;
Structure prediction by ZEFSAII (Michael W. Deem and Ramdas Pophale) SiO2 
 PCOD9006564
Probable space group: P -1
;
_chemical_formula_sum "Si O2"
_cell_formula_units_Z 16
_cell_length_a 10.346038
_cell_length_b 12.764834
_cell_length_c 10.918792
_cell_angle_alpha 50.334076
_cell_angle_beta 119.243145
_cell_angle_gamma 81.239143
_cell_volume 700.109599
_symmetry_space_group_name_H-M "P -1"
_symmetry_group_IT_number 2
_symmetry_cell_setting 'triclinic'
loop_
_space_group_symop_operation_xyz
x,y,z
-x,-y,-z
loop_
_atom_site_type_symbol
_atom_site_label
_atom_site_fract_x
_atom_site_fract_y
_atom_site_fract_z
Si Si1 0.357060 0.649536 0.476286
Si Si2 0.229407 0.221333 0.619350
Si Si3 0.088226 0.051294 0.404313
Si Si4 0.519231 0.344084 0.199594
Si Si5 0.497394 0.183214 0.984996
Si Si6 0.243980 0.766723 0.078333
Si Si7 0.119484 0.562413 0.545405
Si Si8 0.054916 0.561095 0.869990
O O1 0.379761 0.691188 0.593144
O O2 0.261550 0.792487 0.210970
O O3 0.591944 0.460879 0.690693
O O4 0.211695 0.607789 0.455214
O O5 0.051793 0.253442 0.589631
O O6 0.083397 0.404585 0.331846
O O7 0.382961 0.026289 0.762284
O O8 0.370050 0.213234 0.784358
O O9 0.030203 0.234577 0.293728
O O10 0.974977 0.120495 0.167667
O O11 0.000000 0.000000 0.500000
O O12 0.323595 0.858702 0.641278
O O13 0.500000 0.500000 0.000000
O O14 0.328227 0.370426 0.845544
O O15 0.294580 0.425709 0.057734
O O16 0.659825 0.183438 0.005364
O O17 0.000000 0.500000 0.500000
O O18 0.000000 0.500000 0.000000
#
# Coordination Sequence:
#
# PCOD9006564 Si02
#       8
#     2   2   2   2   2   2   2   2
#     4  10  21  38  66  98 134 175 226 288 353 408
#     4  10  21  39  63  90 127 171 219 265 347 406
#     4  12  25  46  73 103 137 192 244 287 350 430
#     4  12  25  46  72 102 138 193 247 286 348 435
#     4   9  20  37  63  94 122 166 216 277 331 412
#     4  10  21  39  67  97 136 170 225 289 347 403
#     4   9  19  36  59  92 127 168 214 274 338 406
#     4  12  28  45  70 101 143 185 229 298 356 416
#
# _framework density 22.853563999999999
#
# number of rings (size 3 to 8) (size 9 to 14) (size 15 to 20)
#    0.000    1.500    2.500    1.500    3.500    6.000 
#    0.000    1.250    0.000    0.000    0.000    0.000 
#    0.000    0.000    0.000    0.000    0.000    0.000 
#
# Total GULP energy -89251.336109 kJ/mol
# GULP energy per Si atom -5578.208507 kJ/mol
# Density = 2.280155 g / cm^3
# Si number density = 22.853564 Si / 1000 Ang^3
#
#
#
# Elastic Constant Matrix: (Units=GPa)
#
#
# Indices 1 2 3 4 5 6 
#
# 1 93.5875 14.1383 33.2266 -4.0981 12.5927 -4.4769
# 2 14.1383 79.7580 9.2050 -12.9719 13.1156 -16.3421
# 3 33.2266 9.2050 136.7408 12.8368 15.4845 -4.5843
# 4 -4.0981 -12.9719 12.8368 34.9426 -16.1191 2.1670
# 5 12.5927 13.1156 15.4845 -16.1191 39.5060 -5.6706
# 6 -4.4769 -16.3421 -4.5843 2.1670 -5.6706 23.9822
#
#
#
# Elastic Compliance Matrix: (Units=1/GPa)
#
#
# Indices 1 2 3 4 5 6 
#
# 1 0.012172 -0.001290 -0.002745 0.001063 -0.001896 0.000324
# 2 -0.001290 0.015819 -0.000749 0.004853 -0.001178 0.009679
# 3 -0.002745 -0.000749 0.009198 -0.006311 -0.005040 0.000114
# 4 0.001063 0.004853 -0.006311 0.040795 0.017566 0.002766
# 5 -0.001896 -0.001178 -0.005040 0.017566 0.036145 0.004840
# 6 0.000324 0.009679 0.000114 0.002766 0.004840 0.049269
#
#
# Mechanical properties :
#
#
# Convention : Reuss Voigt Hill
#
# Bulk Modulus (GPa) = 36.20543 47.02513 41.61528
# Shear Modulus (GPa) = 27.44655 36.58725 32.01690
#
# Velocity S-wave (km/s) = 3.46927 4.00552 3.74700
# Velocity P-wave (km/s) = 5.65018 6.48179 6.08022
#
# Compressibility (1/GPa) = 0.02762016
#
# Stress axis : x y z
#
# Youngs Moduli (GPa) = 82.15774 63.21482 108.72466
#
# Poissons Ratio (x) = 0.08154 0.29845
# Poissons Ratio (y) = 0.10597 0.08146
# Poissons Ratio (z) = 0.22552 0.04736
#
# Static dielectric constant tensor:
#      x y z
#    x 1.843580 -0.069870 -0.042170 
#    y -0.069870 1.984650 0.084850 
#    z -0.042170 0.084850 1.953760 
# 
# From -- ./inp_files/435625.got.cif
#   From: 2010.05.17/outbox.cif.g08.bks.cpg/sg2_218_cif.got.tgz:435625.got - 2010.06.03 11:33:40.
