data_PCOD9006729
_publ_section_title
;
Structure prediction by ZEFSAII (Michael W. Deem and Ramdas Pophale) SiO2 
 PCOD9006729
Probable space group: P -1
;
_chemical_formula_sum "Si O2"
_cell_formula_units_Z 16
_cell_length_a 21.431714
_cell_length_b 5.131512
_cell_length_c 9.009783
_cell_angle_alpha 68.785870
_cell_angle_beta 51.567757
_cell_angle_gamma 66.941928
_cell_volume 704.478414
_symmetry_space_group_name_H-M "P -1"
_symmetry_group_IT_number 2
_symmetry_cell_setting 'triclinic'
loop_
_space_group_symop_operation_xyz
x,y,z
-x,-y,-z
loop_
_atom_site_type_symbol
_atom_site_label
_atom_site_fract_x
_atom_site_fract_y
_atom_site_fract_z
Si Si1 0.837734 0.307059 0.204892
Si Si2 0.294390 0.626970 0.367944
Si Si3 0.919689 0.710577 0.510614
Si Si4 0.616953 0.907582 0.984772
Si Si5 0.768119 0.474225 0.825449
Si Si6 0.151349 0.091545 0.014052
Si Si7 0.958312 0.300472 0.281738
Si Si8 0.456701 0.257774 0.178804
O O1 0.770873 0.257783 0.433059
O O2 0.811209 0.630920 0.115151
O O3 0.921912 0.308512 0.168494
O O4 0.847452 0.077996 0.108023
O O5 0.249488 0.492020 0.332017
O O6 0.375766 0.410224 0.356328
O O7 0.329467 0.861080 0.175327
O O8 0.840122 0.637348 0.715295
O O9 0.924890 0.599543 0.354781
O O10 0.000000 0.500000 0.500000
O O11 0.925155 0.036647 0.455277
O O12 0.534255 0.027215 0.175804
O O13 0.681577 0.623453 0.996709
O O14 0.581689 0.860291 0.883948
O O15 0.800905 0.150179 0.895682
O O16 0.055716 0.205046 0.170844
O O17 0.500000 0.500000 0.000000
#
# Coordination Sequence:
#
# PCOD9006729 Si02
#       8
#     2   2   2   2   2   2   2   2
#     4  12  26  44  62  91 125 174 215 265 316 382
#     4  10  21  38  68  92 127 161 218 259 313 378
#     4  12  24  39  68  95 126 161 222 278 323 365
#     4   9  18  34  65  95 129 154 208 258 320 370
#     4  11  24  39  63  94 124 169 209 272 319 378
#     4  12  28  42  62  88 132 169 215 265 328 375
#     4  12  24  44  64  87 120 174 222 268 319 381
#     4   8  16  33  59 104 123 156 194 269 310 373
#
# _framework density 22.711839999999999
#
# number of rings (size 3 to 8) (size 9 to 14) (size 15 to 20)
#    0.000    1.250    2.500    3.375    5.250    0.000 
#    0.000    0.000    0.000    1.500    0.000    0.000 
#    0.000    0.000    0.000    0.000    0.000    0.000 
#
# Total GULP energy -89443.926922 kJ/mol
# GULP energy per Si atom -5590.245433 kJ/mol
# Density = 2.266015 g / cm^3
# Si number density = 22.711840 Si / 1000 Ang^3
#
#
#
# Elastic Constant Matrix: (Units=GPa)
#
#
# Indices 1 2 3 4 5 6 
#
# 1 85.6312 26.3209 31.6933 14.9022 -20.9395 -18.8395
# 2 26.3209 79.7778 18.6628 11.9140 -2.4742 -22.0543
# 3 31.6933 18.6628 43.6561 6.9610 -2.8573 -16.0031
# 4 14.9022 11.9140 6.9610 44.6362 -0.4821 -7.6359
# 5 -20.9395 -2.4742 -2.8573 -0.4821 30.6084 8.2167
# 6 -18.8395 -22.0543 -16.0031 -7.6359 8.2167 56.4437
#
#
#
# Elastic Compliance Matrix: (Units=1/GPa)
#
#
# Indices 1 2 3 4 5 6 
#
# 1 0.021152 -0.003051 -0.012594 -0.004171 0.013026 -0.000163
# 2 -0.003051 0.015608 -0.002681 -0.002005 -0.002283 0.004381
# 3 -0.012594 -0.002681 0.034753 0.000397 -0.007110 0.005691
# 4 -0.004171 -0.002005 0.000397 0.024527 -0.003048 0.001699
# 5 0.013026 -0.002283 -0.007110 -0.003048 0.042053 -0.005094
# 6 -0.000163 0.004381 0.005691 0.001699 -0.005094 0.021959
#
#
# Mechanical properties :
#
#
# Convention : Reuss Voigt Hill
#
# Bulk Modulus (GPa) = 28.68533 40.26878 34.47705
# Shear Modulus (GPa) = 24.00089 35.16354 29.58221
#
# Velocity S-wave (km/s) = 3.25431 3.93905 3.61293
# Velocity P-wave (km/s) = 5.17477 6.20136 5.71118
#
# Compressibility (1/GPa) = 0.03486103
#
# Stress axis : x y z
#
# Youngs Moduli (GPa) = 47.27639 64.06810 28.77451
#
# Poissons Ratio (x) = 0.19546 0.36239
# Poissons Ratio (y) = 0.14423 0.07716
# Poissons Ratio (z) = 0.59540 0.17180
#
# Static dielectric constant tensor:
#      x y z
#    x 2.026930 0.058450 -0.018850 
#    y 0.058450 1.973190 -0.004430 
#    z -0.018850 -0.004430 1.864940 
# 
# From -- ./inp_files/51961.got.cif
#   From: 2010.05.17/outbox.cif.g08.bks.cpg/sg2_26_cif.got.tgz:51961.got - 2010.06.03 11:33:40.
