data_PCOD9006737
_publ_section_title
;
Structure prediction by ZEFSAII (Michael W. Deem and Ramdas Pophale) SiO2 
 PCOD9006737
Probable space group: P -1
;
_chemical_formula_sum "Si O2"
_cell_formula_units_Z 16
_cell_length_a 12.192451
_cell_length_b 20.083265
_cell_length_c 5.160259
_cell_angle_alpha 61.066858
_cell_angle_beta 56.615110
_cell_angle_gamma 37.745116
_cell_volume 642.923508
_symmetry_space_group_name_H-M "P -1"
_symmetry_group_IT_number 2
_symmetry_cell_setting 'triclinic'
loop_
_space_group_symop_operation_xyz
x,y,z
-x,-y,-z
loop_
_atom_site_type_symbol
_atom_site_label
_atom_site_fract_x
_atom_site_fract_y
_atom_site_fract_z
Si Si1 0.824229 0.338201 0.372290
Si Si2 0.667889 0.856329 0.475958
Si Si3 0.706314 0.619057 0.577029
Si Si4 0.787805 0.895030 0.724371
Si Si5 0.542943 0.549712 0.646297
Si Si6 0.039140 0.361849 0.688081
Si Si7 0.578874 0.186908 0.077042
Si Si8 0.797120 0.068760 0.508142
O O1 0.737979 0.438993 0.478202
O O2 0.633922 0.375307 0.459675
O O3 0.995603 0.210684 0.454201
O O4 0.919608 0.346073 0.005192
O O5 0.665035 0.916450 0.601891
O O6 0.849114 0.724084 0.529180
O O7 0.500006 0.865763 0.676500
O O8 0.718457 0.875004 0.101396
O O9 0.567855 0.622323 0.593570
O O10 0.795459 0.664729 0.306967
O O11 0.591809 0.685696 0.863962
O O12 0.887560 0.489490 0.593556
O O13 0.777118 0.986667 0.647985
O O14 0.500000 0.500000 0.000000
O O15 0.743973 0.128308 0.188389
O O16 0.651173 0.158038 0.746842
O O17 0.000000 0.000000 0.500000
#
# Coordination Sequence:
#
# PCOD9006737 Si02
#       8
#     2   2   2   2   2   2   2   2
#     4  10  23  38  63  94 128 171 220 273 323 403
#     4  10  22  43  72 106 129 165 220 277 337 403
#     4  10  21  38  68  93 134 178 205 274 330 394
#     4  11  24  42  72  95 130 177 213 281 341 382
#     4  11  22  38  60  94 131 169 223 267 322 400
#     4   9  19  40  62 102 134 165 217 260 337 399
#     4  11  26  46  70  98 134 171 227 280 328 394
#     4  12  28  48  65  96 134 179 230 276 326 396
#
# _framework density 24.886320999999999
#
# number of rings (size 3 to 8) (size 9 to 14) (size 15 to 20)
#    0.000    1.500    1.250    2.625    3.500    5.500 
#    0.000    2.500    0.000    0.000    0.000    0.000 
#    0.000    0.000    0.000    0.000    0.000    0.000 
#
# Total GULP energy -89402.480961 kJ/mol
# GULP energy per Si atom -5587.655060 kJ/mol
# Density = 2.482968 g / cm^3
# Si number density = 24.886321 Si / 1000 Ang^3
#
#
#
# Elastic Constant Matrix: (Units=GPa)
#
#
# Indices 1 2 3 4 5 6 
#
# 1 165.2954 35.9471 31.2838 7.1928 6.8899 18.1679
# 2 35.9471 87.8168 21.4536 22.9529 8.1290 16.0669
# 3 31.2838 21.4536 53.7162 14.1755 10.6842 4.6643
# 4 7.1928 22.9529 14.1755 36.1995 2.4641 5.1390
# 5 6.8899 8.1290 10.6842 2.4641 33.0783 8.2436
# 6 18.1679 16.0669 4.6643 5.1390 8.2436 44.3798
#
#
#
# Elastic Compliance Matrix: (Units=1/GPa)
#
#
# Indices 1 2 3 4 5 6 
#
# 1 0.007384 -0.002199 -0.003806 0.001678 0.000640 -0.002140
# 2 -0.002199 0.015687 -0.002331 -0.008035 -0.001203 -0.003380
# 3 -0.003806 -0.002331 0.024840 -0.007309 -0.006576 0.001859
# 4 0.001678 -0.008035 -0.007309 0.035333 0.001707 -0.001418
# 5 0.000640 -0.001203 -0.006576 0.001707 0.033789 -0.005609
# 6 -0.002140 -0.003380 0.001859 -0.001418 -0.005609 0.025643
#
#
# Mechanical properties :
#
#
# Convention : Reuss Voigt Hill
#
# Bulk Modulus (GPa) = 32.01319 53.79970 42.90645
# Shear Modulus (GPa) = 29.45317 37.27442 33.36379
#
# Velocity S-wave (km/s) = 3.44395 3.87432 3.66546
# Velocity P-wave (km/s) = 5.35780 6.45592 5.93233
#
# Compressibility (1/GPa) = 0.03123713
#
# Stress axis : x y z
#
# Youngs Moduli (GPa) = 135.43027 63.74755 40.25827
#
# Poissons Ratio (x) = 0.14018 0.15324
# Poissons Ratio (y) = 0.29780 0.09386
# Poissons Ratio (z) = 0.51550 0.14862
#
# Static dielectric constant tensor:
#      x y z
#    x 2.022140 -0.058060 0.046550 
#    y -0.058060 2.115390 0.022070 
#    z 0.046550 0.022070 1.976270 
# 
# From -- ./inp_files/83128.got.cif
#   From: 2010.05.17/outbox.cif.g08.bks.cpg/sg2_42_cif.got.tgz:83128.got - 2010.06.03 11:33:40.
