data_PCOD9006107
_publ_section_title
;
Structure prediction by ZEFSAII (Michael W. Deem and Ramdas Pophale) SiO2 
 PCOD9006107
Probable space group: P -1
;
_chemical_formula_sum "Si O2"
_cell_formula_units_Z 14
_cell_length_a 11.938590
_cell_length_b 10.505992
_cell_length_c 7.634533
_cell_angle_alpha 45.803224
_cell_angle_beta 126.269550
_cell_angle_gamma 122.835439
_cell_volume 539.372126
_symmetry_space_group_name_H-M "P -1"
_symmetry_group_IT_number 2
_symmetry_cell_setting 'triclinic'
loop_
_space_group_symop_operation_xyz
x,y,z
-x,-y,-z
loop_
_atom_site_type_symbol
_atom_site_label
_atom_site_fract_x
_atom_site_fract_y
_atom_site_fract_z
Si Si1 0.946525 0.636050 0.954793
Si Si2 0.348368 0.539467 0.277736
Si Si3 0.047738 0.989021 0.326414
Si Si4 0.799285 0.388644 0.565185
Si Si5 0.335615 0.926356 0.782703
Si Si6 0.802309 0.764859 0.094929
Si Si7 0.378767 0.993800 0.167986
O O1 0.775187 0.596649 0.813171
O O2 0.995028 0.851366 0.750328
O O3 0.000000 0.500000 0.000000
O O4 0.036849 0.605506 0.239647
O O5 0.500000 0.500000 0.500000
O O6 0.276714 0.566596 0.370434
O O7 0.370434 0.729336 0.016155
O O8 0.180067 0.910662 0.582166
O O9 0.117185 0.118584 0.102349
O O10 0.912943 0.835748 0.289191
O O11 0.779760 0.548335 0.266052
O O12 0.722000 0.179143 0.663219
O O13 0.460302 0.033537 0.669080
O O14 0.342777 0.997731 0.921553
O O15 0.659155 0.830366 0.948050
#
# Coordination Sequence:
#
# PCOD9006107 Si02
#       7
#     2   2   2   2   2   2   2
#     4  10  22  39  63  96 127 163 221 272 319 385
#     4  10  21  38  64  97 126 161 218 271 325 380
#     4  11  25  43  64  98 132 172 223 262 330 387
#     4  10  21  40  63  93 125 172 212 263 325 377
#     4  10  23  40  66  97 129 170 214 277 319 382
#     4  11  24  44  67  93 135 177 213 269 321 395
#     4  10  22  42  66  96 129 170 219 268 326 384
#
# _framework density 25.956109000000001
#
# number of rings (size 3 to 8) (size 9 to 14) (size 15 to 20)
#    0.000    1.714    1.429    1.714   10.000    2.857 
#    2.571    0.714    0.000    0.000    0.000    0.000 
#    0.000    0.000    0.000    0.000    0.000    0.000 
#
# Total GULP energy -78356.009796 kJ/mol
# GULP energy per Si atom -5596.857843 kJ/mol
# Density = 2.589703 g / cm^3
# Si number density = 25.956109 Si / 1000 Ang^3
#
#
#
# Elastic Constant Matrix: (Units=GPa)
#
#
# Indices 1 2 3 4 5 6 
#
# 1 126.3111 21.6085 38.5463 2.4302 28.7000 14.2386
# 2 21.6085 60.7126 35.6855 -3.8076 8.5130 12.3081
# 3 38.5463 35.6855 148.0600 -11.7726 32.7089 6.7682
# 4 2.4302 -3.8076 -11.7726 45.0814 10.8830 7.2319
# 5 28.7000 8.5130 32.7089 10.8830 39.0294 -5.6270
# 6 14.2386 12.3081 6.7682 7.2319 -5.6270 24.8067
#
#
#
# Elastic Compliance Matrix: (Units=1/GPa)
#
#
# Indices 1 2 3 4 5 6 
#
# 1 0.011480 -0.000448 0.000330 0.003726 -0.011111 -0.010064
# 2 -0.000448 0.021858 -0.003295 0.004003 -0.004505 -0.011878
# 3 0.000330 -0.003295 0.010612 0.006022 -0.010916 -0.005682
# 4 0.003726 0.004003 0.006022 0.031986 -0.020423 -0.019725
# 5 -0.011111 -0.004505 -0.010916 -0.020423 0.053910 0.029773
# 6 -0.010064 -0.011878 -0.005682 -0.019725 0.029773 0.066036
#
#
# Mechanical properties :
#
#
# Convention : Reuss Voigt Hill
#
# Bulk Modulus (GPa) = 26.93660 58.52936 42.73298
# Shear Modulus (GPa) = 23.24676 37.73306 30.48991
#
# Velocity S-wave (km/s) = 2.99593 3.81691 3.43107
# Velocity P-wave (km/s) = 4.72946 6.48255 5.67412
#
# Compressibility (1/GPa) = 0.03712421
#
# Stress axis : x y z
#
# Youngs Moduli (GPa) = 87.10669 45.74978 94.22985
#
# Poissons Ratio (x) = 0.02051 -0.03110
# Poissons Ratio (y) = 0.03904 0.31049
# Poissons Ratio (z) = -0.02875 0.15075
#
# Static dielectric constant tensor:
#      x y z
#    x 2.157590 -0.035040 -0.112420 
#    y -0.035040 2.140740 0.007990 
#    z -0.112420 0.007990 2.070440 
# 
# From -- ./inp_files/261369.got.cif
#   From: 2010.05.17/outbox.cif.g08.bks.cpg/sg2_131_cif.got.tgz:261369.got - 2010.06.03 11:33:40.
