data_PCOD9006422
_publ_section_title
;
Structure prediction by ZEFSAII (Michael W. Deem and Ramdas Pophale) SiO2 
 PCOD9006422
Probable space group: P -1
;
_chemical_formula_sum "Si O2"
_cell_formula_units_Z 16
_cell_length_a 8.482353
_cell_length_b 9.368589
_cell_length_c 14.516230
_cell_angle_alpha 82.094210
_cell_angle_beta 42.630413
_cell_angle_gamma 91.295522
_cell_volume 760.556339
_symmetry_space_group_name_H-M "P -1"
_symmetry_group_IT_number 2
_symmetry_cell_setting 'triclinic'
loop_
_space_group_symop_operation_xyz
x,y,z
-x,-y,-z
loop_
_atom_site_type_symbol
_atom_site_label
_atom_site_fract_x
_atom_site_fract_y
_atom_site_fract_z
Si Si1 0.127211 0.206908 0.851276
Si Si2 0.866887 0.128620 0.152809
Si Si3 0.246876 0.795571 0.151138
Si Si4 0.591776 0.316245 0.555677
Si Si5 0.409306 0.186947 0.447628
Si Si6 0.252305 0.132585 0.146482
Si Si7 0.915280 0.094223 0.447591
Si Si8 0.076361 0.408400 0.558951
O O1 0.369897 0.318394 0.717754
O O2 0.950981 0.216218 0.841849
O O3 0.191619 0.043383 0.835016
O O4 0.987593 0.216406 0.004849
O O5 0.633032 0.176900 0.288461
O O6 0.064485 0.141581 0.145975
O O7 0.146076 0.680115 0.282552
O O8 0.279079 0.961993 0.161028
O O9 0.494543 0.779708 0.000745
O O10 0.493678 0.246966 0.506710
O O11 0.753992 0.207811 0.537318
O O12 0.756603 0.473293 0.459060
O O13 0.240116 0.292012 0.471291
O O14 0.247899 0.025274 0.537653
O O15 0.137253 0.174880 0.286118
O O16 0.000000 0.000000 0.500000
O O17 0.000000 0.500000 0.500000
#
# Coordination Sequence:
#
# PCOD9006422 Si02
#       8
#     2   2   2   2   2   2   2   2
#     4  10  21  38  66 103 130 169 221 276 335 392
#     4  10  21  38  68 101 131 165 221 285 331 390
#     4  10  22  40  65  92 136 174 215 271 339 398
#     4  12  24  42  71  94 132 180 225 277 336 396
#     4  12  22  45  69  97 131 175 235 277 326 397
#     4  10  21  39  65  99 132 168 216 280 336 388
#     4  12  24  38  69 104 132 170 225 283 332 393
#     4  12  27  45  67  98 137 183 225 275 341 410
#
# _framework density 21.037231999999999
#
# number of rings (size 3 to 8) (size 9 to 14) (size 15 to 20)
#    0.000    1.000    5.000    2.250    3.500    1.000 
#    0.000    1.250    0.000    0.000    0.000    0.000 
#    0.000    0.000    0.000    0.000    0.000    0.000 
#
# Total GULP energy -89519.228221 kJ/mol
# GULP energy per Si atom -5594.951764 kJ/mol
# Density = 2.098935 g / cm^3
# Si number density = 21.037232 Si / 1000 Ang^3
#
#
#
# Elastic Constant Matrix: (Units=GPa)
#
#
# Indices 1 2 3 4 5 6 
#
# 1 51.8862 20.6567 48.7419 -5.7838 -0.4951 -13.1714
# 2 20.6567 58.0022 33.1125 -11.6431 -10.2388 -7.4459
# 3 48.7419 33.1125 210.5018 -6.7536 -13.3579 -14.7392
# 4 -5.7838 -11.6431 -6.7536 30.0095 -4.7029 -3.3339
# 5 -0.4951 -10.2388 -13.3579 -4.7029 40.4214 -0.6418
# 6 -13.1714 -7.4459 -14.7392 -3.3339 -0.6418 33.3452
#
#
#
# Elastic Compliance Matrix: (Units=1/GPa)
#
#
# Indices 1 2 3 4 5 6 
#
# 1 0.028953 -0.006258 -0.005249 0.002450 -0.002554 0.007915
# 2 -0.006258 0.023623 -0.001332 0.009050 0.006571 0.003246
# 3 -0.005249 -0.001332 0.006325 0.000218 0.001722 0.000480
# 4 0.002450 0.009050 0.000218 0.039258 0.007075 0.007146
# 5 -0.002554 0.006571 0.001722 0.007075 0.027804 0.002462
# 6 0.007915 0.003246 0.000480 0.007146 0.002462 0.034814
#
#
# Mechanical properties :
#
#
# Convention : Reuss Voigt Hill
#
# Bulk Modulus (GPa) = 30.09930 58.37916 44.23923
# Shear Modulus (GPa) = 25.31250 35.28049 30.29649
#
# Velocity S-wave (km/s) = 3.47251 4.09962 3.79903
# Velocity P-wave (km/s) = 5.51512 7.08660 6.34966
#
# Compressibility (1/GPa) = 0.03322337
#
# Stress axis : x y z
#
# Youngs Moduli (GPa) = 34.53856 42.33123 158.09222
#
# Poissons Ratio (x) = 0.26490 0.82984
# Poissons Ratio (y) = 0.21613 0.21064
# Poissons Ratio (z) = 0.18130 0.05640
#
# Static dielectric constant tensor:
#      x y z
#    x 1.786930 0.022450 -0.006360 
#    y 0.022450 1.763960 0.001720 
#    z -0.006360 0.001720 1.745170 
# 
# From -- ./inp_files/205291.got.cif
#   From: 2010.05.17/outbox.cif.g08.bks.cpg/sg2_103_cif.got.tgz:205291.got - 2010.06.03 11:33:40.
