data_PCOD9006659
_publ_section_title
;
Structure prediction by ZEFSAII (Michael W. Deem and Ramdas Pophale) SiO2 
 PCOD9006659
Probable space group: P -1
;
_chemical_formula_sum "Si O2"
_cell_formula_units_Z 14
_cell_length_a 9.018511
_cell_length_b 9.402138
_cell_length_c 18.827191
_cell_angle_alpha 43.596855
_cell_angle_beta 116.909379
_cell_angle_gamma 81.596115
_cell_volume 625.515060
_symmetry_space_group_name_H-M "P -1"
_symmetry_group_IT_number 2
_symmetry_cell_setting 'triclinic'
loop_
_space_group_symop_operation_xyz
x,y,z
-x,-y,-z
loop_
_atom_site_type_symbol
_atom_site_label
_atom_site_fract_x
_atom_site_fract_y
_atom_site_fract_z
Si Si1 0.006709 0.043763 0.400688
Si Si2 0.185568 0.202768 0.591527
Si Si3 0.157412 0.442031 0.743779
Si Si4 0.520607 0.188689 0.481859
Si Si5 0.675800 0.118766 0.939256
Si Si6 0.112323 0.933904 0.139893
Si Si7 0.726361 0.879014 0.792858
O O1 0.872909 0.396666 0.249059
O O2 0.864394 0.996852 0.344698
O O3 0.000000 0.000000 0.500000
O O4 0.287700 0.831146 0.507779
O O5 0.000000 0.500000 0.500000
O O6 0.087530 0.346415 0.437858
O O7 0.483996 0.991534 0.736844
O O8 0.373879 0.359372 0.775419
O O9 0.250205 0.132365 0.900039
O O10 0.255458 0.575298 0.293129
O O11 0.500000 0.000000 0.500000
O O12 0.646708 0.995704 0.652542
O O13 0.814253 0.998184 0.937025
O O14 0.798867 0.202783 0.973386
O O15 0.228267 0.940000 0.229036
O O16 0.000000 0.500000 0.000000
#
# Coordination Sequence:
#
# PCOD9006659 Si02
#       7
#     2   2   2   2   2   2   2
#     4  10  21  38  67  96 130 174 236 275 333 409
#     4  11  23  45  70  95 141 191 233 283 353 425
#     4  10  21  40  65  98 131 177 230 281 341 411
#     4  12  25  45  75 102 141 189 237 281 358 431
#     4  10  22  38  70  98 134 173 233 286 340 409
#     4  11  24  43  69  96 141 182 230 280 356 411
#     4  12  29  45  70 107 149 179 236 297 356 410
#
# _framework density 22.381554000000001
#
# number of rings (size 3 to 8) (size 9 to 14) (size 15 to 20)
#    0.000    1.143    0.000    7.286    8.000    1.143 
#    0.000    0.714    0.000    0.000    0.000    0.000 
#    0.000    0.000    0.000    0.000    0.000    0.000 
#
# Total GULP energy -78127.170497 kJ/mol
# GULP energy per Si atom -5580.512178 kJ/mol
# Density = 2.233061 g / cm^3
# Si number density = 22.381554 Si / 1000 Ang^3
#
#
#
# Elastic Constant Matrix: (Units=GPa)
#
#
# Indices 1 2 3 4 5 6 
#
# 1 133.4276 27.0628 36.9310 3.1073 31.8097 0.3864
# 2 27.0628 129.3399 24.0478 19.6530 11.3661 21.1395
# 3 36.9310 24.0478 89.3456 9.9216 13.9485 -1.4775
# 4 3.1073 19.6530 9.9216 34.2535 -0.9635 5.4745
# 5 31.8097 11.3661 13.9485 -0.9635 46.3308 5.5134
# 6 0.3864 21.1395 -1.4775 5.4745 5.5134 28.1793
#
#
#
# Elastic Compliance Matrix: (Units=1/GPa)
#
#
# Indices 1 2 3 4 5 6 
#
# 1 0.009939 -0.001381 -0.002820 0.000247 -0.005851 0.001848
# 2 -0.001381 0.010106 -0.001766 -0.004081 -0.000274 -0.006808
# 3 -0.002820 -0.001766 0.013580 -0.003225 -0.002158 0.003124
# 4 0.000247 -0.004081 -0.003225 0.033193 0.002985 -0.004144
# 5 -0.005851 -0.000274 -0.002158 0.002985 0.027059 -0.005701
# 6 0.001848 -0.006808 0.003124 -0.004144 -0.005701 0.042653
#
#
# Mechanical properties :
#
#
# Convention : Reuss Voigt Hill
#
# Bulk Modulus (GPa) = 46.10135 58.68848 52.39491
# Shear Modulus (GPa) = 32.11419 39.35749 35.73584
#
# Velocity S-wave (km/s) = 3.79205 4.19797 4.00016
# Velocity P-wave (km/s) = 6.30995 7.05521 6.69296
#
# Compressibility (1/GPa) = 0.02169134
#
# Stress axis : x y z
#
# Youngs Moduli (GPa) = 100.61228 98.95337 73.63721
#
# Poissons Ratio (x) = 0.13664 0.20767
# Poissons Ratio (y) = 0.13893 0.13003
# Poissons Ratio (z) = 0.28374 0.17474
#
# Static dielectric constant tensor:
#      x y z
#    x 1.863750 -0.001160 0.019280 
#    y -0.001160 1.871600 -0.078710 
#    z 0.019280 -0.078710 1.920680 
# 
# From -- ./inp_files/157611.got.cif
#   From: 2010.05.17/outbox.cif.g08.bks.cpg/sg2_79_cif.got.tgz:157611.got - 2010.06.03 11:33:40.
