data_PCOD9006101
_publ_section_title
;
Structure prediction by ZEFSAII (Michael W. Deem and Ramdas Pophale) SiO2 
 PCOD9006101
Probable space group: P -1
;
_chemical_formula_sum "Si O2"
_cell_formula_units_Z 12
_cell_length_a 7.129089
_cell_length_b 8.485544
_cell_length_c 14.958492
_cell_angle_alpha 36.499666
_cell_angle_beta 66.433296
_cell_angle_gamma 53.177047
_cell_volume 424.432979
_symmetry_space_group_name_H-M "P -1"
_symmetry_group_IT_number 2
_symmetry_cell_setting 'triclinic'
loop_
_space_group_symop_operation_xyz
x,y,z
-x,-y,-z
loop_
_atom_site_type_symbol
_atom_site_label
_atom_site_fract_x
_atom_site_fract_y
_atom_site_fract_z
Si Si1 0.915891 0.264804 0.595745
Si Si2 0.003644 0.476802 0.872797
Si Si3 0.362783 0.651039 0.743274
Si Si4 0.424062 0.948159 0.226580
Si Si5 0.281522 0.912819 0.445903
Si Si6 0.310605 0.739671 0.000296
O O1 0.694877 0.249955 0.692752
O O2 0.839308 0.248965 0.513759
O O3 0.000000 0.500000 0.500000
O O4 0.157877 0.932801 0.710922
O O5 0.946807 0.207046 0.997695
O O6 0.264753 0.415214 0.862870
O O7 0.814815 0.712195 0.875774
O O8 0.903292 0.724348 0.697114
O O9 0.356397 0.804195 0.580370
O O10 0.606259 0.464629 0.833004
O O11 0.486371 0.858448 0.361040
O O12 0.635323 0.984616 0.131649
O O13 0.500000 0.500000 0.000000
#
# Coordination Sequence:
#
# PCOD9006101 Si02
#       6
#     2   2   2   2   2   2
#     4   8  15  28  49  71  93 121 159 190 224 282
#     4   7  15  26  42  64  98 112 148 187 232 269
#     4  10  17  28  52  71  94 122 150 197 243 258
#     4   6  15  26  43  63  97 114 146 192 228 263
#     4   7  15  29  45  71  93 117 154 198 229 272
#     4  10  17  29  43  74  99 119 152 197 231 280
#
# _framework density 28.273012999999999
#
# number of rings (size 3 to 8) (size 9 to 14) (size 15 to 20)
#    2.000    2.000    0.000    2.000    0.000    6.667 
#    0.000    0.000    0.000   17.000    0.000    5.833 
#    0.000    0.000    0.000    0.000    0.000    0.000 
#
# Total GULP energy -66903.643021 kJ/mol
# GULP energy per Si atom -5575.303585 kJ/mol
# Density = 2.820866 g / cm^3
# Si number density = 28.273013 Si / 1000 Ang^3
#
#
#
# Elastic Constant Matrix: (Units=GPa)
#
#
# Indices 1 2 3 4 5 6 
#
# 1 140.1170 19.2402 53.2413 -7.6371 -49.8242 31.2013
# 2 19.2402 49.9014 46.8157 -8.7827 -9.7309 7.3050
# 3 53.2413 46.8157 108.1807 16.8794 -19.6784 23.7922
# 4 -7.6371 -8.7827 16.8794 54.8762 27.0071 1.6610
# 5 -49.8242 -9.7309 -19.6784 27.0071 62.7463 -12.4705
# 6 31.2013 7.3050 23.7922 1.6610 -12.4705 33.4957
#
#
#
# Elastic Compliance Matrix: (Units=1/GPa)
#
#
# Indices 1 2 3 4 5 6 
#
# 1 0.012647 0.000881 -0.003606 -0.000799 0.008131 -0.006344
# 2 0.000881 0.043639 -0.024146 0.017980 -0.007200 0.003242
# 3 -0.003606 -0.024146 0.026815 -0.016008 0.007320 -0.006903
# 4 -0.000799 0.017980 -0.016008 0.034694 -0.017833 -0.000165
# 5 0.008131 -0.007200 0.007320 -0.017833 0.031531 0.001420
# 6 -0.006344 0.003242 -0.006903 -0.000165 0.001420 0.040497
#
#
# Mechanical properties :
#
#
# Convention : Reuss Voigt Hill
#
# Bulk Modulus (GPa) = 34.06299 59.64374 46.85336
# Shear Modulus (GPa) = 19.73527 42.15041 30.94284
#
# Velocity S-wave (km/s) = 2.64488 3.86532 3.31181
# Velocity P-wave (km/s) = 4.62615 6.40800 5.58854
#
# Compressibility (1/GPa) = 0.02935738
#
# Stress axis : x y z
#
# Youngs Moduli (GPa) = 79.07223 22.91520 37.29194
#
# Poissons Ratio (x) = -0.02018 0.13448
# Poissons Ratio (y) = -0.06963 0.90047
# Poissons Ratio (z) = 0.28514 0.55332
#
# Static dielectric constant tensor:
#      x y z
#    x 2.185690 0.005970 0.015610 
#    y 0.005970 2.314250 -0.010090 
#    z 0.015610 -0.010090 2.291760 
# 
# From -- ./inp_files/553983.got.cif
#   From: 2010.05.17/outbox.cif.g08.bks.cpg/sg2_277_cif.got.tgz:553983.got - 2010.06.03 11:33:40.
