data_PCOD9006979
_publ_section_title
;
Structure prediction by ZEFSAII (Michael W. Deem and Ramdas Pophale) SiO2 
 PCOD9006979
Probable space group: P -1
;
_chemical_formula_sum "Si O2"
_cell_formula_units_Z 14
_cell_length_a 12.530304
_cell_length_b 14.958320
_cell_length_c 12.365760
_cell_angle_alpha 74.079587
_cell_angle_beta 73.693925
_cell_angle_gamma 18.814664
_cell_volume 717.150275
_symmetry_space_group_name_H-M "P -1"
_symmetry_group_IT_number 2
_symmetry_cell_setting 'triclinic'
loop_
_space_group_symop_operation_xyz
x,y,z
-x,-y,-z
loop_
_atom_site_type_symbol
_atom_site_label
_atom_site_fract_x
_atom_site_fract_y
_atom_site_fract_z
Si Si1 0.889971 0.693572 0.856332
Si Si2 0.547908 0.104578 0.976971
Si Si3 0.095566 0.674581 0.647003
Si Si4 0.337036 0.794824 0.975498
Si Si5 0.721290 0.141249 0.504707
Si Si6 0.179144 0.914638 0.751108
Si Si7 0.586362 0.475630 0.189568
O O1 0.241830 0.373151 0.896672
O O2 0.922503 0.717219 0.723926
O O3 0.792248 0.849095 0.921359
O O4 0.611916 0.833853 0.904595
O O5 0.684277 0.092329 0.991334
O O6 0.369515 0.447472 0.551902
O O7 0.291227 0.557698 0.735776
O O8 0.837719 0.955474 0.590743
O O9 0.402659 0.764159 0.841195
O O10 0.582787 0.534319 0.058423
O O11 0.000000 0.000000 0.000000
O O12 0.708983 0.140011 0.379709
O O13 0.000000 0.000000 0.500000
O O14 0.198469 0.786917 0.784954
O O15 0.799656 0.244454 0.769704
#
# Coordination Sequence:
#
# PCOD9006979 Si02
#       7
#     2   2   2   2   2   2   2
#     4  10  22  37  61  85 112 151 190 244 280 334
#     4  10  21  39  58  86 118 146 190 233 293 338
#     4  12  21  34  59  79 113 145 193 240 281 327
#     4  10  23  36  59  87 120 153 180 232 293 358
#     4  12  22  35  54  80 114 156 188 239 277 332
#     4  11  23  36  50  80 119 152 186 219 286 345
#     4  11  20  34  54  81 115 146 182 230 286 339
#
# _framework density 19.521709999999999
#
# number of rings (size 3 to 8) (size 9 to 14) (size 15 to 20)
#    0.000    1.143    4.286    2.571    4.000    2.286 
#    0.000    0.000    0.000    1.714    0.000    0.000 
#    0.000    0.000    0.000    0.000    0.000    0.000 
#
# Total GULP energy -78229.773361 kJ/mol
# GULP energy per Si atom -5587.840954 kJ/mol
# Density = 1.947728 g / cm^3
# Si number density = 19.521710 Si / 1000 Ang^3
#
#
#
# Elastic Constant Matrix: (Units=GPa)
#
#
# Indices 1 2 3 4 5 6 
#
# 1 55.4515 0.5212 1.8019 2.9204 -18.7974 -4.4071
# 2 0.5212 35.3799 -15.2725 1.3018 -0.8933 4.6974
# 3 1.8019 -15.2725 86.1708 -13.1420 0.2096 -10.3471
# 4 2.9204 1.3018 -13.1420 30.3033 0.0311 -4.5254
# 5 -18.7974 -0.8933 0.2096 0.0311 32.0656 -2.2631
# 6 -4.4071 4.6974 -10.3471 -4.5254 -2.2631 18.2540
#
#
#
# Elastic Compliance Matrix: (Units=1/GPa)
#
#
# Indices 1 2 3 4 5 6 
#
# 1 0.023538 -0.000917 0.000032 -0.001120 0.014298 0.007432
# 2 -0.000917 0.031107 0.004887 0.000057 -0.000088 -0.005453
# 3 0.000032 0.004887 0.014698 0.007509 0.000689 0.009029
# 4 -0.001120 0.000057 0.007509 0.038379 0.000212 0.013512
# 5 0.014298 -0.000088 0.000689 0.000212 0.040189 0.008900
# 6 0.007432 -0.005453 0.009029 0.013512 0.008900 0.067551
#
#
# Mechanical properties :
#
#
# Convention : Reuss Voigt Hill
#
# Bulk Modulus (GPa) = 12.92901 16.78926 14.85914
# Shear Modulus (GPa) = 21.43696 28.78802 25.11249
#
# Velocity S-wave (km/s) = 3.31737 3.84431 3.59052
# Velocity P-wave (km/s) = 4.61633 5.32202 4.98169
#
# Compressibility (1/GPa) = 0.07734544
#
# Stress axis : x y z
#
# Youngs Moduli (GPa) = 42.48464 32.14687 68.03699
#
# Poissons Ratio (x) = 0.02949 -0.00218
# Poissons Ratio (y) = 0.03898 -0.33247
# Poissons Ratio (z) = -0.00136 -0.15709
#
# Static dielectric constant tensor:
#      x y z
#    x 1.686100 -0.010020 -0.014940 
#    y -0.010020 1.691450 0.024810 
#    z -0.014940 0.024810 1.727410 
# 
# From -- ./inp_files/64298.got.cif
#   From: 2010.05.17/outbox.cif.g08.bks.cpg/sg2_33_cif.got.tgz:64298.got - 2010.06.03 11:33:40.
