data_PCOD9006396
_publ_section_title
;
Structure prediction by ZEFSAII (Michael W. Deem and Ramdas Pophale) SiO2 
 PCOD9006396
Probable space group: P -1
;
_chemical_formula_sum "Si O2"
_cell_formula_units_Z 16
_cell_length_a 19.235783
_cell_length_b 19.582925
_cell_length_c 5.860342
_cell_angle_alpha 115.401887
_cell_angle_beta 76.708726
_cell_angle_gamma 157.402710
_cell_volume 672.780200
_symmetry_space_group_name_H-M "P -1"
_symmetry_group_IT_number 2
_symmetry_cell_setting 'triclinic'
loop_
_space_group_symop_operation_xyz
x,y,z
-x,-y,-z
loop_
_atom_site_type_symbol
_atom_site_label
_atom_site_fract_x
_atom_site_fract_y
_atom_site_fract_z
Si Si1 0.498991 0.541586 0.814699
Si Si2 0.134510 0.472459 0.318339
Si Si3 0.468058 0.757111 0.831410
Si Si4 0.927529 0.013008 0.022620
Si Si5 0.854285 0.057024 0.776578
Si Si6 0.726082 0.149694 0.127218
Si Si7 0.453195 0.889994 0.559784
Si Si8 0.194832 0.359760 0.633901
O O1 0.500000 0.500000 0.500000
O O2 0.295484 0.391668 0.745889
O O3 0.500000 0.500000 0.000000
O O4 0.709703 0.799552 0.015812
O O5 0.275819 0.599203 0.611141
O O6 0.302177 0.671652 0.297884
O O7 0.958611 0.360443 0.300300
O O8 0.008791 0.271353 0.082750
O O9 0.365326 0.593938 0.838825
O O10 0.628244 0.867846 0.710153
O O11 0.597904 0.959700 0.096926
O O12 0.129702 0.261271 0.298942
O O13 0.866654 0.987576 0.788226
O O14 0.000000 0.000000 0.000000
O O15 0.971257 0.165578 0.606464
O O16 0.672723 0.182745 0.267999
O O17 0.654329 0.063385 0.796116
O O18 0.500000 0.000000 0.500000
#
# Coordination Sequence:
#
# PCOD9006396 Si02
#       8
#     2   2   2   2   2   2   2   2
#     4  12  28  48  76 109 147 191 244 311 376 448
#     4  10  21  43  65  91 139 180 220 292 345 417
#     4  10  22  45  64  96 141 177 232 288 356 424
#     4  12  25  45  71 100 140 179 242 293 363 435
#     4  11  25  43  66 101 137 180 239 289 357 432
#     4   9  21  41  63  94 136 175 221 285 340 420
#     4  10  21  38  65  99 131 174 225 277 344 420
#     4  12  26  43  73 100 137 192 228 305 365 434
#
# _framework density 23.781912999999999
#
# number of rings (size 3 to 8) (size 9 to 14) (size 15 to 20)
#    0.000    1.250    3.750    1.125    3.500    2.500 
#    6.750    0.000    0.000    0.000    0.000    0.000 
#    0.000    0.000    0.000    0.000    0.000    0.000 
#
# Total GULP energy -89155.686746 kJ/mol
# GULP energy per Si atom -5572.230422 kJ/mol
# Density = 2.372778 g / cm^3
# Si number density = 23.781913 Si / 1000 Ang^3
#
#
#
# Elastic Constant Matrix: (Units=GPa)
#
#
# Indices 1 2 3 4 5 6 
#
# 1 125.2121 23.0796 26.4657 0.3253 15.1427 1.9107
# 2 23.0796 104.1815 27.9198 15.7727 8.3572 -13.0267
# 3 26.4657 27.9198 66.3163 26.7526 5.7038 3.0824
# 4 0.3253 15.7727 26.7526 33.0162 -1.3015 6.6303
# 5 15.1427 8.3572 5.7038 -1.3015 37.7022 6.5796
# 6 1.9107 -13.0267 3.0824 6.6303 6.5796 50.9402
#
#
#
# Elastic Compliance Matrix: (Units=1/GPa)
#
#
# Indices 1 2 3 4 5 6 
#
# 1 0.009561 -0.001397 -0.004790 0.004492 -0.002531 -0.000684
# 2 -0.001397 0.012043 -0.002654 -0.004538 -0.002600 0.004219
# 3 -0.004790 -0.002654 0.026515 -0.020435 -0.002354 0.000860
# 4 0.004492 -0.004538 -0.020435 0.050661 0.005329 -0.007375
# 5 -0.002531 -0.002600 -0.002354 0.005329 0.029518 -0.004934
# 6 -0.000684 0.004219 0.000860 -0.007375 -0.004934 0.022281
#
#
# Mechanical properties :
#
#
# Convention : Reuss Voigt Hill
#
# Bulk Modulus (GPa) = 32.85635 50.07113 41.46374
# Shear Modulus (GPa) = 28.02591 38.88137 33.45364
#
# Velocity S-wave (km/s) = 3.43659 4.04779 3.75465
# Velocity P-wave (km/s) = 5.43990 6.55333 6.02240
#
# Compressibility (1/GPa) = 0.03043552
#
# Stress axis : x y z
#
# Youngs Moduli (GPa) = 104.58761 83.03857 37.71506
#
# Poissons Ratio (x) = 0.11600 0.18067
# Poissons Ratio (y) = 0.14610 0.10011
# Poissons Ratio (z) = 0.50101 0.22041
#
# Static dielectric constant tensor:
#      x y z
#    x 1.913830 -0.002880 -0.061630 
#    y -0.002880 1.967630 -0.083450 
#    z -0.061630 -0.083450 2.032890 
# 
# From -- ./inp_files/120451.got.cif
#   From: 2010.05.17/outbox.cif.g08.bks.cpg/sg2_61_cif.got.tgz:120451.got - 2010.06.03 11:33:40.
