data_PCOD9006446
_publ_section_title
;
Structure prediction by ZEFSAII (Michael W. Deem and Ramdas Pophale) SiO2 
 PCOD9006446
Probable space group: P -1
;
_chemical_formula_sum "Si O2"
_cell_formula_units_Z 14
_cell_length_a 8.369353
_cell_length_b 16.990469
_cell_length_c 18.143623
_cell_angle_alpha 24.615167
_cell_angle_beta 29.773933
_cell_angle_gamma 29.425880
_cell_volume 490.045495
_symmetry_space_group_name_H-M "P -1"
_symmetry_group_IT_number 2
_symmetry_cell_setting 'triclinic'
loop_
_space_group_symop_operation_xyz
x,y,z
-x,-y,-z
loop_
_atom_site_type_symbol
_atom_site_label
_atom_site_fract_x
_atom_site_fract_y
_atom_site_fract_z
Si Si1 0.865839 0.619105 0.376680
Si Si2 0.839401 0.319436 0.231279
Si Si3 0.358284 0.772276 0.098789
Si Si4 0.160309 0.962058 0.332370
Si Si5 0.638780 0.634000 0.912418
Si Si6 0.023914 0.524423 0.237326
Si Si7 0.290558 0.852776 0.217282
O O1 0.047668 0.785349 0.157058
O O2 0.015991 0.471710 0.371495
O O3 0.000000 0.500000 0.500000
O O4 0.451757 0.751407 0.426518
O O5 0.606423 0.526821 0.193911
O O6 0.202751 0.253374 0.189883
O O7 0.759728 0.420462 0.093717
O O8 0.846290 0.096947 0.396955
O O9 0.168819 0.826516 0.207646
O O10 0.608814 0.896347 0.890138
O O11 0.061430 0.919405 0.326030
O O12 0.803651 0.621429 0.776404
O O13 0.234893 0.676711 0.022159
O O14 0.618510 0.640027 0.283243
O O15 0.500000 0.000000 0.000000
#
# Coordination Sequence:
#
# PCOD9006446 Si02
#       7
#     2   2   2   2   2   2   2
#     4  11  24  39  55  79 118 159 192 226 278 341
#     4  11  17  32  57  92 111 139 182 243 290 331
#     4  11  18  36  60  84 114 144 190 236 282 335
#     4  10  19  34  58  87 113 141 190 236 284 331
#     4  10  17  28  55  85 113 133 179 236 286 325
#     4  10  18  31  50  80 109 149 179 226 280 330
#     4   9  18  30  51  84 119 138 181 234 283 334
#
# _framework density 28.568774999999999
#
# number of rings (size 3 to 8) (size 9 to 14) (size 15 to 20)
#    0.000    1.714    5.714    1.286    0.000    2.286 
#    0.000    3.571    0.000    0.857    0.000    0.000 
#    0.000    0.000    0.000    0.000    0.000    0.000 
#
# Total GULP energy -78012.286705 kJ/mol
# GULP energy per Si atom -5572.306193 kJ/mol
# Density = 2.850375 g / cm^3
# Si number density = 28.568775 Si / 1000 Ang^3
#
#
#
# Elastic Constant Matrix: (Units=GPa)
#
#
# Indices 1 2 3 4 5 6 
#
# 1 147.1889 43.1694 17.1723 0.8389 15.2442 54.2412
# 2 43.1694 111.9736 18.3905 -10.7765 4.0810 34.6127
# 3 17.1723 18.3905 108.1735 2.2293 17.5849 13.5892
# 4 0.8389 -10.7765 2.2293 23.4093 0.8703 -1.5692
# 5 15.2442 4.0810 17.5849 0.8703 49.1402 18.8766
# 6 54.2412 34.6127 13.5892 -1.5692 18.8766 69.1234
#
#
#
# Elastic Compliance Matrix: (Units=1/GPa)
#
#
# Indices 1 2 3 4 5 6 
#
# 1 0.009889 -0.001808 -0.000352 -0.001601 -0.000159 -0.006778
# 2 -0.001808 0.011713 -0.001534 0.005235 0.001778 -0.004512
# 3 -0.000352 -0.001534 0.010145 -0.001541 -0.003338 -0.000073
# 4 -0.001601 0.005235 -0.001541 0.045341 -0.000198 0.000022
# 5 -0.000159 0.001778 -0.003338 -0.000198 0.024012 -0.006671
# 6 -0.006778 -0.004512 -0.000073 0.000022 -0.006671 0.023881
#
#
# Mechanical properties :
#
#
# Convention : Reuss Voigt Hill
#
# Bulk Modulus (GPa) = 41.05370 58.31114 49.68242
# Shear Modulus (GPa) = 35.58997 47.57483 41.58240
#
# Velocity S-wave (km/s) = 3.53337 4.08520 3.81927
# Velocity P-wave (km/s) = 5.57204 6.53506 6.07267
#
# Compressibility (1/GPa) = 0.02435834
#
# Stress axis : x y z
#
# Youngs Moduli (GPa) = 101.12532 85.37338 98.57274
#
# Poissons Ratio (x) = 0.15433 0.03470
# Poissons Ratio (y) = 0.18280 0.15125
# Poissons Ratio (z) = 0.03560 0.13100
#
# Static dielectric constant tensor:
#      x y z
#    x 2.176770 -0.026210 -0.043720 
#    y -0.026210 2.432930 0.052700 
#    z -0.043720 0.052700 2.455680 
# 
# From -- ./inp_files/562050.got.cif
#   From: 2010.05.17/outbox.cif.g08.bks.cpg/sg2_282_cif.got.tgz:562050.got - 2010.06.03 11:33:40.
