data_PCOD9006172
_publ_section_title
;
Structure prediction by ZEFSAII (Michael W. Deem and Ramdas Pophale) SiO2 
 PCOD9006172
Probable space group: P -1
;
_chemical_formula_sum "Si O2"
_cell_formula_units_Z 12
_cell_length_a 6.849446
_cell_length_b 14.152813
_cell_length_c 9.221119
_cell_angle_alpha 141.121929
_cell_angle_beta 75.006724
_cell_angle_gamma 106.910430
_cell_volume 536.025545
_symmetry_space_group_name_H-M "P -1"
_symmetry_group_IT_number 2
_symmetry_cell_setting 'triclinic'
loop_
_space_group_symop_operation_xyz
x,y,z
-x,-y,-z
loop_
_atom_site_type_symbol
_atom_site_label
_atom_site_fract_x
_atom_site_fract_y
_atom_site_fract_z
Si Si1 0.137674 0.126390 0.531007
Si Si2 0.369584 0.601642 0.319447
Si Si3 0.459167 0.934534 0.769410
Si Si4 0.039551 0.317564 0.029650
Si Si5 0.237004 0.556851 0.971165
Si Si6 0.077038 0.023787 0.851382
O O1 0.343188 0.075429 0.376325
O O2 0.162420 0.264878 0.802425
O O3 0.000000 0.000000 0.500000
O O4 0.010352 0.124568 0.404803
O O5 0.357007 0.758377 0.590528
O O6 0.185872 0.467465 0.235985
O O7 0.593504 0.548845 0.235730
O O8 0.338384 0.631437 0.188346
O O9 0.318167 0.032833 0.825716
O O10 0.500000 0.000000 0.000000
O O11 0.821482 0.346381 0.040686
O O12 0.018045 0.177012 0.976468
O O13 0.000000 0.500000 0.000000
O O14 0.000000 0.000000 0.000000
#
# Coordination Sequence:
#
# PCOD9006172 Si02
#       6
#     2   2   2   2   2   2
#     4  10  22  40  68 100 127 170 227 276 325 396
#     4  10  21  38  65 101 130 171 221 277 336 395
#     4  12  24  42  68  93 139 184 218 272 344 402
#     4  10  22  40  70 103 127 167 230 284 325 392
#     4   9  17  35  63  97 135 160 214 280 336 381
#     4  11  24  45  66  93 139 182 220 268 344 401
#
# _framework density 22.386994000000001
#
# number of rings (size 3 to 8) (size 9 to 14) (size 15 to 20)
#    0.000    1.667    1.667    4.000    0.000    6.667 
#    0.000    1.667    0.000    0.000    0.000    0.000 
#    0.000    0.000    0.000    0.000    0.000    0.000 
#
# Total GULP energy -66920.380207 kJ/mol
# GULP energy per Si atom -5576.698351 kJ/mol
# Density = 2.233604 g / cm^3
# Si number density = 22.386994 Si / 1000 Ang^3
#
#
#
# Elastic Constant Matrix: (Units=GPa)
#
#
# Indices 1 2 3 4 5 6 
#
# 1 147.5468 44.7328 22.4295 3.9750 -9.1183 -34.7242
# 2 44.7328 103.1419 37.6899 6.9476 -1.1745 -23.7790
# 3 22.4295 37.6899 117.6500 6.7743 15.8146 -7.3633
# 4 3.9750 6.9476 6.7743 33.6341 3.6107 -0.4926
# 5 -9.1183 -1.1745 15.8146 3.6107 34.8780 7.2467
# 6 -34.7242 -23.7790 -7.3633 -0.4926 7.2467 44.6019
#
#
#
# Elastic Compliance Matrix: (Units=1/GPa)
#
#
# Indices 1 2 3 4 5 6 
#
# 1 0.008974 -0.002304 -0.000820 -0.000510 0.001579 0.005360
# 2 -0.002304 0.013127 -0.003472 -0.001745 0.000659 0.004505
# 3 -0.000820 -0.003472 0.010490 -0.000759 -0.005019 0.000049
# 4 -0.000510 -0.001745 -0.000759 0.030605 -0.002882 -0.000647
# 5 0.001579 0.000659 -0.005019 -0.002882 0.032633 -0.004582
# 6 0.005360 0.004505 0.000049 -0.000647 -0.004582 0.029741
#
#
# Mechanical properties :
#
#
# Convention : Reuss Voigt Hill
#
# Bulk Modulus (GPa) = 51.55157 64.22700 57.88929
# Shear Modulus (GPa) = 34.42854 40.18859 37.30856
#
# Velocity S-wave (km/s) = 3.92584 4.24155 4.08674
# Velocity P-wave (km/s) = 6.60508 7.26219 6.94141
#
# Compressibility (1/GPa) = 0.01939805
#
# Stress axis : x y z
#
# Youngs Moduli (GPa) = 111.43847 76.17803 95.32907
#
# Poissons Ratio (x) = 0.17552 0.07818
# Poissons Ratio (y) = 0.25676 0.33100
# Poissons Ratio (z) = 0.09139 0.26451
#
# Static dielectric constant tensor:
#      x y z
#    x 1.916340 0.008260 0.017420 
#    y 0.008260 1.922440 0.061280 
#    z 0.017420 0.061280 1.869360 
# 
# From -- ./inp_files/135938.got.cif
#   From: 2010.05.17/outbox.cif.g08.bks.cpg/sg2_68_cif.got.tgz:135938.got - 2010.06.03 11:33:40.
