data_PCOD9006509
_publ_section_title
;
Structure prediction by ZEFSAII (Michael W. Deem and Ramdas Pophale) SiO2 
 PCOD9006509
Probable space group: P -1
;
_chemical_formula_sum "Si O2"
_cell_formula_units_Z 14
_cell_length_a 21.392200
_cell_length_b 9.968698
_cell_length_c 9.480788
_cell_angle_alpha 136.629671
_cell_angle_beta 30.120171
_cell_angle_gamma 127.128702
_cell_volume 694.856032
_symmetry_space_group_name_H-M "P -1"
_symmetry_group_IT_number 2
_symmetry_cell_setting 'triclinic'
loop_
_space_group_symop_operation_xyz
x,y,z
-x,-y,-z
loop_
_atom_site_type_symbol
_atom_site_label
_atom_site_fract_x
_atom_site_fract_y
_atom_site_fract_z
Si Si1 0.960489 0.027837 0.762407
Si Si2 0.705310 0.828265 0.169620
Si Si3 0.322609 0.217793 0.131629
Si Si4 0.787734 0.172783 0.846372
Si Si5 0.802646 0.386154 0.273300
Si Si6 0.634612 0.437018 0.123759
Si Si7 0.583886 0.236793 0.773671
O O1 0.912221 0.256632 0.042246
O O2 0.000000 0.000000 0.500000
O O3 0.079917 0.935213 0.541725
O O4 0.840927 0.907186 0.937407
O O5 0.706240 0.632404 0.107988
O O6 0.619592 0.005016 0.539627
O O7 0.649781 0.785243 0.090861
O O8 0.209350 0.381689 0.504959
O O9 0.287471 0.003255 0.079766
O O10 0.441953 0.272120 0.028443
O O11 0.808145 0.320381 0.049497
O O12 0.712564 0.287338 0.958465
O O13 0.675507 0.314075 0.534721
O O14 0.500000 0.500000 0.500000
O O15 0.612255 0.340122 0.942550
#
# Coordination Sequence:
#
# PCOD9006509 Si02
#       7
#     2   2   2   2   2   2   2
#     4   9  19  43  64  94 125 156 218 266 292 372
#     4  11  23  41  67  90 128 171 204 259 317 360
#     4  12  21  36  69  93 118 171 208 252 315 360
#     4  11  24  42  62  95 130 161 207 265 308 365
#     4  10  21  38  66  94 121 162 219 257 300 376
#     4  12  27  42  62  95 135 163 201 261 323 371
#     4  11  23  39  64  95 126 160 217 254 306 388
#
# _framework density 20.148057999999999
#
# number of rings (size 3 to 8) (size 9 to 14) (size 15 to 20)
#    0.000    1.143    5.714    2.571    2.000    4.571 
#    0.000    2.857    0.000    0.000    0.000    0.000 
#    0.000    0.000    0.000    0.000    0.000    0.000 
#
# Total GULP energy -78242.954456 kJ/mol
# GULP energy per Si atom -5588.782461 kJ/mol
# Density = 2.010220 g / cm^3
# Si number density = 20.148058 Si / 1000 Ang^3
#
#
#
# Elastic Constant Matrix: (Units=GPa)
#
#
# Indices 1 2 3 4 5 6 
#
# 1 54.5474 12.5972 29.6205 2.5133 -23.7061 -10.6058
# 2 12.5972 99.5350 32.2734 20.6107 -9.3172 -25.6699
# 3 29.6205 32.2734 107.9978 17.0904 -18.3129 -6.1868
# 4 2.5133 20.6107 17.0904 31.9694 -1.3619 -1.5256
# 5 -23.7061 -9.3172 -18.3129 -1.3619 33.6939 12.6669
# 6 -10.6058 -25.6699 -6.1868 -1.5256 12.6669 21.1602
#
#
#
# Elastic Compliance Matrix: (Units=1/GPa)
#
#
# Indices 1 2 3 4 5 6 
#
# 1 0.028782 0.000229 -0.005208 0.001234 0.016187 0.003580
# 2 0.000229 0.019224 -0.003999 -0.009337 -0.006700 0.025604
# 3 -0.005208 -0.003999 0.012921 -0.004044 0.004624 -0.006744
# 4 0.001234 -0.009337 -0.004044 0.038951 0.001390 -0.009915
# 5 0.016187 -0.006700 0.004624 0.001390 0.053221 -0.030421
# 6 0.003580 0.025604 -0.006744 -0.009915 -0.030421 0.095637
#
#
# Mechanical properties :
#
#
# Convention : Reuss Voigt Hill
#
# Bulk Modulus (GPa) = 23.27194 45.67359 34.47277
# Shear Modulus (GPa) = 17.79263 29.87065 23.83164
#
# Velocity S-wave (km/s) = 2.97491 3.85458 3.44295
# Velocity P-wave (km/s) = 4.83484 6.52139 5.74039
#
# Compressibility (1/GPa) = 0.04297020
#
# Stress axis : x y z
#
# Youngs Moduli (GPa) = 34.74428 52.01835 77.39514
#
# Poissons Ratio (x) = -0.01191 0.40306
# Poissons Ratio (y) = -0.00795 0.30952
# Poissons Ratio (z) = 0.18094 0.20803
#
# Static dielectric constant tensor:
#      x y z
#    x 1.691140 0.011380 -0.026900 
#    y 0.011380 1.728270 0.018880 
#    z -0.026900 0.018880 1.733360 
# 
# From -- ./inp_files/178551.got.cif
#   From: 2010.05.17/outbox.cif.g08.bks.cpg/sg2_90_cif.got.tgz:178551.got - 2010.06.03 11:33:40.
