data_PCOD9006096
_publ_section_title
;
Structure prediction by ZEFSAII (Michael W. Deem and Ramdas Pophale) SiO2 
 PCOD9006096
Probable space group: P -1
;
_chemical_formula_sum "Si O2"
_cell_formula_units_Z 16
_cell_length_a 9.445799
_cell_length_b 15.808566
_cell_length_c 10.853869
_cell_angle_alpha 77.791728
_cell_angle_beta 64.699271
_cell_angle_gamma 33.384429
_cell_volume 771.076460
_symmetry_space_group_name_H-M "P -1"
_symmetry_group_IT_number 2
_symmetry_cell_setting 'triclinic'
loop_
_space_group_symop_operation_xyz
x,y,z
-x,-y,-z
loop_
_atom_site_type_symbol
_atom_site_label
_atom_site_fract_x
_atom_site_fract_y
_atom_site_fract_z
Si Si1 0.390140 0.429104 0.112408
Si Si2 0.374645 0.987348 0.955155
Si Si3 0.721940 0.124160 0.476987
Si Si4 0.177099 0.761526 0.766555
Si Si5 0.916353 0.530135 0.375271
Si Si6 0.811759 0.889153 0.455753
Si Si7 0.040705 0.288429 0.303419
Si Si8 0.100190 0.740208 0.147478
O O1 0.576904 0.362608 0.185069
O O2 0.206079 0.599765 0.096422
O O3 0.172581 0.454317 0.222316
O O4 0.648605 0.304743 0.953859
O O5 0.190480 0.102682 0.868509
O O6 0.666475 0.812756 0.841478
O O7 0.119262 0.065996 0.109902
O O8 0.500000 0.000000 0.000000
O O9 0.728968 0.207220 0.368967
O O10 0.387607 0.279488 0.600029
O O11 0.780029 0.006965 0.424439
O O12 0.000000 0.000000 0.500000
O O13 0.125273 0.694080 0.739343
O O14 0.000000 0.500000 0.500000
O O15 0.889828 0.441904 0.373107
O O16 0.885493 0.814416 0.583661
O O17 0.038353 0.755887 0.308637
O O18 0.500000 0.000000 0.500000
#
# Coordination Sequence:
#
# PCOD9006096 Si02
#       8
#     2   2   2   2   2   2   2   2
#     4  10  22  41  65  93 133 170 221 275 324 385
#     4   9  20  38  65  94 127 171 215 267 327 395
#     4  12  26  44  63  98 134 171 216 275 329 385
#     4  10  22  42  65  93 130 175 221 266 328 394
#     4  12  25  41  64  96 132 169 216 275 325 388
#     4  12  23  38  66  98 132 173 222 268 325 394
#     4  11  23  41  66  96 131 174 217 265 335 387
#     4  10  21  38  64  96 128 175 220 270 325 388
#
# _framework density 20.750209999999999
#
# number of rings (size 3 to 8) (size 9 to 14) (size 15 to 20)
#    0.000    1.250    3.750    2.250    0.000    2.500 
#    0.000    2.500    0.000   13.500    0.000    0.000 
#    0.000    0.000    0.000    0.000    0.000    0.000 
#
# Total GULP energy -89190.411024 kJ/mol
# GULP energy per Si atom -5574.400689 kJ/mol
# Density = 2.070298 g / cm^3
# Si number density = 20.750210 Si / 1000 Ang^3
#
#
#
# Elastic Constant Matrix: (Units=GPa)
#
#
# Indices 1 2 3 4 5 6 
#
# 1 64.2311 11.3929 18.6938 1.8335 -11.7167 -3.9502
# 2 11.3929 40.9025 -1.4740 11.7280 0.2635 -2.4787
# 3 18.6938 -1.4740 92.6458 6.8038 -10.5468 -7.3978
# 4 1.8335 11.7280 6.8038 22.7002 6.2521 -3.3005
# 5 -11.7167 0.2635 -10.5468 6.2521 30.7379 3.3943
# 6 -3.9502 -2.4787 -7.3978 -3.3005 3.3943 35.2337
#
#
#
# Elastic Compliance Matrix: (Units=1/GPa)
#
#
# Indices 1 2 3 4 5 6 
#
# 1 0.018542 -0.005508 -0.003183 0.000781 0.005805 0.000537
# 2 -0.005508 0.030990 0.003131 -0.017029 0.002126 0.000420
# 3 -0.003183 0.003131 0.012518 -0.006022 0.004111 0.001532
# 4 0.000781 -0.017029 -0.006022 0.059149 -0.014153 0.004529
# 5 0.005805 0.002126 0.004111 -0.014153 0.039399 -0.003458
# 6 0.000537 0.000420 0.001532 0.004529 -0.003458 0.029551
#
#
# Mechanical properties :
#
#
# Convention : Reuss Voigt Hill
#
# Bulk Modulus (GPa) = 19.63496 28.33385 23.98441
# Shear Modulus (GPa) = 22.91005 29.01213 25.96109
#
# Velocity S-wave (km/s) = 3.32639 3.74326 3.54096
# Velocity P-wave (km/s) = 4.92303 5.68920 5.31992
#
# Compressibility (1/GPa) = 0.05092957
#
# Stress axis : x y z
#
# Youngs Moduli (GPa) = 53.93271 32.26864 79.88278
#
# Poissons Ratio (x) = 0.17774 0.25424
# Poissons Ratio (y) = 0.29707 -0.25008
# Poissons Ratio (z) = 0.17165 -0.10102
#
# Static dielectric constant tensor:
#      x y z
#    x 1.702960 0.092410 -0.021050 
#    y 0.092410 1.719830 0.084270 
#    z -0.021050 0.084270 1.795940 
# 
# From -- ./inp_files/399047.got.cif
#   From: 2010.05.17/outbox.cif.g08.bks.cpg/sg2_200_cif.got.tgz:399047.got - 2010.06.03 11:33:40.
