data_PCOD9006496
_publ_section_title
;
Structure prediction by ZEFSAII (Michael W. Deem and Ramdas Pophale) SiO2 
 PCOD9006496
Probable space group: P -1
;
_chemical_formula_sum "Si O2"
_cell_formula_units_Z 14
_cell_length_a 9.316226
_cell_length_b 6.723717
_cell_length_c 15.558848
_cell_angle_alpha 73.121400
_cell_angle_beta 143.036739
_cell_angle_gamma 102.740266
_cell_volume 560.674154
_symmetry_space_group_name_H-M "P -1"
_symmetry_group_IT_number 2
_symmetry_cell_setting 'triclinic'
loop_
_space_group_symop_operation_xyz
x,y,z
-x,-y,-z
loop_
_atom_site_type_symbol
_atom_site_label
_atom_site_fract_x
_atom_site_fract_y
_atom_site_fract_z
Si Si1 0.605111 0.485223 0.648048
Si Si2 0.731920 0.934756 0.732171
Si Si3 0.258373 0.955112 0.583214
Si Si4 0.909361 0.277795 0.950975
Si Si5 0.877166 0.431509 0.534615
Si Si6 0.853962 0.815208 0.189285
Si Si7 0.489909 0.012195 0.129110
O O1 0.500000 0.500000 0.500000
O O2 0.676150 0.717322 0.684326
O O3 0.819294 0.336241 0.804167
O O4 0.361498 0.434154 0.588510
O O5 0.484020 0.051709 0.624702
O O6 0.917731 0.054145 0.746909
O O7 0.873974 0.874250 0.896185
O O8 0.190089 0.798139 0.495600
O O9 0.401140 0.889112 0.745861
O O10 0.000000 0.000000 0.500000
O O11 0.681933 0.180161 0.903822
O O12 0.000000 0.500000 0.000000
O O13 0.000000 0.500000 0.500000
O O14 0.044191 0.406824 0.700344
O O15 0.700257 0.923237 0.179124
O O16 0.671487 0.823259 0.021634
#
# Coordination Sequence:
#
# PCOD9006496 Si02
#       7
#     2   2   2   2   2   2   2
#     4  10  22  36  60  94 127 164 207 263 320 374
#     4   9  22  40  63  92 129 168 218 262 315 381
#     4  11  23  41  64  98 128 174 213 260 319 388
#     4   9  19  40  64  93 131 168 211 260 322 385
#     4  11  24  42  60  91 131 170 207 264 323 382
#     4  10  21  40  62  93 127 164 214 267 316 375
#     4  10  21  38  66  93 126 172 214 259 319 380
#
# _framework density 24.969940000000001
#
# number of rings (size 3 to 8) (size 9 to 14) (size 15 to 20)
#    0.000    2.000    1.429    0.857    0.000    9.143 
#    0.000    0.714    0.000    0.000    0.000    0.000 
#    0.000    0.000    0.000    0.000    0.000    0.000 
#
# Total GULP energy -78023.499906 kJ/mol
# GULP energy per Si atom -5573.107136 kJ/mol
# Density = 2.491311 g / cm^3
# Si number density = 24.969940 Si / 1000 Ang^3
#
#
#
# Elastic Constant Matrix: (Units=GPa)
#
#
# Indices 1 2 3 4 5 6 
#
# 1 151.0088 35.7197 54.9112 0.4478 33.5739 18.3487
# 2 35.7197 54.2528 51.2697 -13.2045 10.8675 1.2269
# 3 54.9112 51.2697 207.7867 -11.7641 -15.8086 8.1873
# 4 0.4478 -13.2045 -11.7641 38.2508 -2.6652 -1.1091
# 5 33.5739 10.8675 -15.8086 -2.6652 62.0303 2.9182
# 6 18.3487 1.2269 8.1873 -1.1091 2.9182 40.8207
#
#
#
# Elastic Compliance Matrix: (Units=1/GPa)
#
#
# Indices 1 2 3 4 5 6 
#
# 1 0.009913 -0.004203 -0.001974 -0.002633 -0.005074 -0.003642
# 2 -0.004203 0.029906 -0.006241 0.008232 -0.004332 0.002776
# 3 -0.001974 -0.006241 0.007228 0.000355 0.004050 -0.000655
# 4 -0.002633 0.008232 0.000355 0.029258 0.001257 0.001570
# 5 -0.005074 -0.004332 0.004050 0.001257 0.020705 0.000152
# 6 -0.003642 0.002776 -0.000655 0.001570 0.000152 0.026214
#
#
# Mechanical properties :
#
#
# Convention : Reuss Voigt Hill
#
# Bulk Modulus (GPa) = 45.02414 77.42772 61.22593
# Shear Modulus (GPa) = 32.16163 46.29687 39.22925
#
# Velocity S-wave (km/s) = 3.59278 4.31060 3.96796
# Velocity P-wave (km/s) = 5.93981 7.47334 6.75026
#
# Compressibility (1/GPa) = 0.02221031
#
# Stress axis : x y z
#
# Youngs Moduli (GPa) = 100.88217 33.43795 138.34479
#
# Poissons Ratio (x) = 0.14054 0.27310
# Poissons Ratio (y) = 0.42401 0.86344
# Poissons Ratio (z) = 0.19915 0.20869
#
# Static dielectric constant tensor:
#      x y z
#    x 2.008420 0.141890 0.009930 
#    y 0.141890 5.376290 -0.117800 
#    z 0.009930 -0.117800 1.991620 
# 
# From -- ./inp_files/492648.got.cif
#   From: 2010.05.17/outbox.cif.g08.bks.cpg/sg2_247_cif.got.tgz:492648.got - 2010.06.03 11:33:40.
