data_PCOD9006944
_publ_section_title
;
Structure prediction by ZEFSAII (Michael W. Deem and Ramdas Pophale) SiO2 
 PCOD9006944
Probable space group: P -1
;
_chemical_formula_sum "Si O2"
_cell_formula_units_Z 16
_cell_length_a 13.118140
_cell_length_b 10.932652
_cell_length_c 9.130217
_cell_angle_alpha 37.450923
_cell_angle_beta 116.133452
_cell_angle_gamma 121.168084
_cell_volume 680.196991
_symmetry_space_group_name_H-M "P -1"
_symmetry_group_IT_number 2
_symmetry_cell_setting 'triclinic'
loop_
_space_group_symop_operation_xyz
x,y,z
-x,-y,-z
loop_
_atom_site_type_symbol
_atom_site_label
_atom_site_fract_x
_atom_site_fract_y
_atom_site_fract_z
Si Si1 0.358736 0.437637 0.154009
Si Si2 0.341774 0.724348 0.094201
Si Si3 0.152914 0.092428 0.217407
Si Si4 0.263049 0.285382 0.808592
Si Si5 0.422291 0.993731 0.157642
Si Si6 0.912545 0.837083 0.436335
Si Si7 0.138189 0.825050 0.710371
Si Si8 0.424001 0.705018 0.669254
O O1 0.227490 0.306210 0.143555
O O2 0.447303 0.307577 0.289245
O O3 0.367136 0.513023 0.254697
O O4 0.404437 0.646959 0.881924
O O5 0.442848 0.919616 0.896706
O O6 0.215275 0.709672 0.956423
O O7 0.355338 0.791996 0.206163
O O8 0.189784 0.907484 0.503221
O O9 0.184700 0.132417 0.030586
O O10 0.012382 0.017744 0.234997
O O11 0.180799 0.300634 0.605845
O O12 0.330272 0.503705 0.722318
O O13 0.359134 0.172748 0.925464
O O14 0.410861 0.916174 0.391265
O O15 0.855686 0.965423 0.389598
O O16 0.997011 0.725955 0.682221
#
# Coordination Sequence:
#
# PCOD9006944 Si02
#       8
#     2   2   2   2   2   2   2   2
#     4  10  21  39  57  87 125 148 200 241 290 362
#     4  11  22  39  57  89 121 154 200 241 293 358
#     4   9  20  35  61  88 110 163 190 241 295 339
#     4  11  20  40  61  90 122 151 200 239 295 356
#     4  11  24  38  60  90 122 157 191 244 301 351
#     4   9  19  37  61  82 119 157 201 240 286 348
#     4   9  19  36  58  86 109 157 201 236 285 346
#     4  10  23  39  58  90 121 156 191 244 298 348
#
# _framework density 23.522597999999999
#
# number of rings (size 3 to 8) (size 9 to 14) (size 15 to 20)
#    0.750    1.250    2.500    1.125    1.750    2.000 
#    0.000    1.875    0.000    3.750    0.000    0.000 
#    0.000    0.000    0.000    0.000    0.000    0.000 
#
# Total GULP energy -89333.497088 kJ/mol
# GULP energy per Si atom -5583.343568 kJ/mol
# Density = 2.346906 g / cm^3
# Si number density = 23.522598 Si / 1000 Ang^3
#
#
#
# Elastic Constant Matrix: (Units=GPa)
#
#
# Indices 1 2 3 4 5 6 
#
# 1 68.1382 12.9538 16.5576 2.4908 -4.0819 7.5680
# 2 12.9538 99.9889 2.9585 19.2958 5.3840 12.1458
# 3 16.5576 2.9585 52.6687 11.6774 -4.1223 7.2869
# 4 2.4908 19.2958 11.6774 33.2944 3.3101 -4.7173
# 5 -4.0819 5.3840 -4.1223 3.3101 27.9790 4.1913
# 6 7.5680 12.1458 7.2869 -4.7173 4.1913 25.1220
#
#
#
# Elastic Compliance Matrix: (Units=1/GPa)
#
#
# Indices 1 2 3 4 5 6 
#
# 1 0.016636 -0.001962 -0.004719 0.000889 0.002444 -0.002935
# 2 -0.001962 0.013079 0.003241 -0.009789 0.000110 -0.008529
# 3 -0.004719 0.003241 0.024899 -0.012293 0.005395 -0.010576
# 4 0.000889 -0.009789 -0.012293 0.043164 -0.007509 0.017389
# 5 0.002444 0.000110 0.005395 -0.007509 0.039306 -0.010322
# 6 -0.002935 -0.008529 -0.010576 0.017389 -0.010322 0.052868
#
#
# Mechanical properties :
#
#
# Convention : Reuss Voigt Hill
#
# Bulk Modulus (GPa) = 20.95007 31.74841 26.34924
# Shear Modulus (GPa) = 23.50250 29.83413 26.66832
#
# Velocity S-wave (km/s) = 3.16436 3.56521 3.37075
# Velocity P-wave (km/s) = 4.71980 5.52032 5.13568
#
# Compressibility (1/GPa) = 0.04773254
#
# Stress axis : x y z
#
# Youngs Moduli (GPa) = 60.11150 76.46093 40.16179
#
# Poissons Ratio (x) = 0.15004 0.18954
# Poissons Ratio (y) = 0.11796 -0.13017
# Poissons Ratio (z) = 0.28369 -0.24783
#
# Static dielectric constant tensor:
#      x y z
#    x 1.881770 0.012870 -0.017580 
#    y 0.012870 1.889130 -0.004340 
#    z -0.017580 -0.004340 1.898750 
# 
# From -- ./inp_files/295558.got.cif
#   From: 2010.05.17/outbox.cif.g08.bks.cpg/sg2_148_cif.got.tgz:295558.got - 2010.06.03 11:33:40.
