data_PCOD9006321
_publ_section_title
;
Structure prediction by ZEFSAII (Michael W. Deem and Ramdas Pophale) SiO2 
 PCOD9006321
Probable space group: P -1
;
_chemical_formula_sum "Si O2"
_cell_formula_units_Z 16
_cell_length_a 10.441888
_cell_length_b 5.316148
_cell_length_c 15.433689
_cell_angle_alpha 104.044503
_cell_angle_beta 120.937261
_cell_angle_gamma 98.489029
_cell_volume 673.604670
_symmetry_space_group_name_H-M "P -1"
_symmetry_group_IT_number 2
_symmetry_cell_setting 'triclinic'
loop_
_space_group_symop_operation_xyz
x,y,z
-x,-y,-z
loop_
_atom_site_type_symbol
_atom_site_label
_atom_site_fract_x
_atom_site_fract_y
_atom_site_fract_z
Si Si1 0.462774 0.127672 0.408914
Si Si2 0.209075 0.246370 0.571730
Si Si3 0.196384 0.318816 0.290181
Si Si4 0.419319 0.635785 0.250047
Si Si5 0.179211 0.644640 0.465520
Si Si6 0.565749 0.632844 0.941593
Si Si7 0.865325 0.901618 0.165891
Si Si8 0.232239 0.599020 0.778851
O O1 0.336941 0.277903 0.394062
O O2 0.633962 0.281218 0.445512
O O3 0.500000 0.000000 0.500000
O O4 0.385433 0.907553 0.289846
O O5 0.402880 0.319202 0.648084
O O6 0.121853 0.372442 0.479956
O O7 0.186612 0.397213 0.664408
O O8 0.147064 0.918705 0.507172
O O9 0.284447 0.408269 0.237414
O O10 0.152924 0.558817 0.347934
O O11 0.044738 0.049719 0.212072
O O12 0.418284 0.577245 0.143675
O O13 0.423129 0.727900 0.864092
O O14 0.500000 0.500000 0.000000
O O15 0.737440 0.845023 0.038876
O O16 0.831273 0.613318 0.180523
O O17 0.826627 0.140405 0.227120
#
# Coordination Sequence:
#
# PCOD9006321 Si02
#       8
#     2   2   2   2   2   2   2   2
#     4  11  21  38  63  94 138 175 219 260 319 396
#     4  10  21  38  65  95 122 165 230 273 309 375
#     4  12  24  38  60  98 138 171 215 259 341 400
#     4  10  21  38  65  96 130 169 218 272 329 388
#     4  11  21  36  61  94 127 172 212 268 321 380
#     4   9  21  46  71  96 123 169 228 280 324 384
#     4  11  25  42  67  93 134 176 212 277 336 386
#     4  10  22  45  69  93 124 173 230 272 324 388
#
# _framework density 23.752804999999999
#
# number of rings (size 3 to 8) (size 9 to 14) (size 15 to 20)
#    0.000    1.500    2.500    3.000    1.750    1.500 
#    4.500    4.375    0.000    0.000    0.000    0.000 
#    0.000    0.000    0.000    0.000    0.000    0.000 
#
# Total GULP energy -89333.740604 kJ/mol
# GULP energy per Si atom -5583.358788 kJ/mol
# Density = 2.369874 g / cm^3
# Si number density = 23.752805 Si / 1000 Ang^3
#
#
#
# Elastic Constant Matrix: (Units=GPa)
#
#
# Indices 1 2 3 4 5 6 
#
# 1 60.9345 16.2485 43.0267 3.3885 -6.0077 -1.6930
# 2 16.2485 87.3944 23.2635 11.3078 -12.2814 -15.7169
# 3 43.0267 23.2635 112.6336 3.0801 -2.8316 -0.4432
# 4 3.3885 11.3078 3.0801 23.8495 3.8070 -0.0871
# 5 -6.0077 -12.2814 -2.8316 3.8070 59.7837 6.8335
# 6 -1.6930 -15.7169 -0.4432 -0.0871 6.8335 36.8006
#
#
#
# Elastic Compliance Matrix: (Units=1/GPa)
#
#
# Indices 1 2 3 4 5 6 
#
# 1 0.023009 -0.001599 -0.008370 -0.001702 0.001701 -0.000045
# 2 -0.001599 0.014548 -0.002123 -0.006777 0.002515 0.005631
# 3 -0.008370 -0.002123 0.012476 0.000679 -0.000612 -0.001026
# 4 -0.001702 -0.006777 0.000679 0.045963 -0.004221 -0.002072
# 5 0.001701 0.002515 -0.000612 -0.004221 0.017905 -0.002190
# 6 -0.000045 0.005631 -0.001026 -0.002072 -0.002190 0.029966
#
#
# Mechanical properties :
#
#
# Convention : Reuss Voigt Hill
#
# Bulk Modulus (GPa) = 38.68670 47.33776 43.01223
# Shear Modulus (GPa) = 28.30184 35.98168 32.14176
#
# Velocity S-wave (km/s) = 3.45558 3.89632 3.68255
# Velocity P-wave (km/s) = 5.67837 6.34147 6.01906
#
# Compressibility (1/GPa) = 0.02584867
#
# Stress axis : x y z
#
# Youngs Moduli (GPa) = 43.46177 68.73884 80.15154
#
# Poissons Ratio (x) = 0.10989 0.67088
# Poissons Ratio (y) = 0.06948 0.17019
# Poissons Ratio (z) = 0.36378 0.14595
#
# Static dielectric constant tensor:
#      x y z
#    x 1.967640 0.050160 0.013780 
#    y 0.050160 2.050730 -0.011390 
#    z 0.013780 -0.011390 1.907040 
# 
# From -- ./inp_files/564249.got.cif
#   From: 2010.05.17/outbox.cif.g08.bks.cpg/sg2_283_cif.got.tgz:564249.got - 2010.06.03 11:33:40.
