data_PCOD9006698
_publ_section_title
;
Structure prediction by ZEFSAII (Michael W. Deem and Ramdas Pophale) SiO2 
 PCOD9006698
Probable space group: P -1
;
_chemical_formula_sum "Si O2"
_cell_formula_units_Z 10
_cell_length_a 7.078113
_cell_length_b 14.166917
_cell_length_c 5.033987
_cell_angle_alpha 81.714752
_cell_angle_beta 80.903568
_cell_angle_gamma 52.787303
_cell_volume 396.196209
_symmetry_space_group_name_H-M "P -1"
_symmetry_group_IT_number 2
_symmetry_cell_setting 'triclinic'
loop_
_space_group_symop_operation_xyz
x,y,z
-x,-y,-z
loop_
_atom_site_type_symbol
_atom_site_label
_atom_site_fract_x
_atom_site_fract_y
_atom_site_fract_z
Si Si1 0.054719 0.304720 0.225922
Si Si2 0.154768 0.540231 0.318720
Si Si3 0.529695 0.282309 0.216065
Si Si4 0.165885 0.861661 0.293508
Si Si5 0.220830 0.062773 0.030361
O O1 0.713305 0.196364 0.432956
O O2 0.309468 0.273709 0.261995
O O3 0.100659 0.186088 0.158400
O O4 0.955779 0.394202 0.961727
O O5 0.000000 0.500000 0.500000
O O6 0.412425 0.419251 0.252572
O O7 0.121026 0.631904 0.509816
O O8 0.659095 0.237533 0.924423
O O9 0.174638 0.973056 0.202795
O O10 0.902495 0.906318 0.245683
O O11 0.500000 0.000000 0.000000
#
# Coordination Sequence:
#
# PCOD9006698 Si02
#       5
#     2   2   2   2   2
#     4  11  22  40  68 102 130 181 223 266 333 405
#     4  10  21  38  68 102 134 173 222 272 335 396
#     4  11  21  44  69  99 139 172 223 279 333 394
#     4  11  26  45  68 103 134 177 220 284 333 390
#     4  11  26  47  69  99 138 177 228 275 335 399
#
# _framework density 25.240020999999999
#
# number of rings (size 3 to 8) (size 9 to 14) (size 15 to 20)
#    0.000    1.200    2.000    6.000    0.000    7.200 
#    0.000    6.000    0.000    0.000    0.000    0.000 
#    0.000    0.000    0.000    0.000    0.000    0.000 
#
# Total GULP energy -56115.210939 kJ/mol
# GULP energy per Si atom -5611.521094 kJ/mol
# Density = 2.518257 g / cm^3
# Si number density = 25.240021 Si / 1000 Ang^3
#
#
#
# Elastic Constant Matrix: (Units=GPa)
#
#
# Indices 1 2 3 4 5 6 
#
# 1 196.6135 61.2560 56.9872 -17.9186 9.9875 -9.0293
# 2 61.2560 179.2635 48.2795 1.1515 8.8129 -1.1571
# 3 56.9872 48.2795 110.1427 -3.4690 31.6037 -10.1516
# 4 -17.9186 1.1515 -3.4690 37.8066 -0.1454 13.7600
# 5 9.9875 8.8129 31.6037 -0.1454 33.7857 -3.9757
# 6 -9.0293 -1.1571 -10.1516 13.7600 -3.9757 38.1628
#
#
#
# Elastic Compliance Matrix: (Units=1/GPa)
#
#
# Indices 1 2 3 4 5 6 
#
# 1 0.006650 -0.001531 -0.003066 0.003009 0.001286 -0.000240
# 2 -0.001531 0.006733 -0.002511 -0.001029 0.000999 -0.000351
# 3 -0.003066 -0.002511 0.015621 -0.000839 -0.012781 0.002325
# 4 0.003009 -0.001029 -0.000839 0.031883 -0.001011 -0.011143
# 5 0.001286 0.000999 -0.012781 -0.001011 0.041095 0.001580
# 6 -0.000240 -0.000351 0.002325 -0.011143 0.001580 0.030937
#
#
# Mechanical properties :
#
#
# Convention : Reuss Voigt Hill
#
# Bulk Modulus (GPa) = 67.61763 91.00724 79.31243
# Shear Modulus (GPa) = 32.88132 43.25082 38.06607
#
# Velocity S-wave (km/s) = 3.61327 4.14403 3.88772
# Velocity P-wave (km/s) = 6.65249 7.68325 7.18638
#
# Compressibility (1/GPa) = 0.01478904
#
# Stress axis : x y z
#
# Youngs Moduli (GPa) = 150.38723 148.52602 64.01589
#
# Poissons Ratio (x) = 0.22733 0.19626
# Poissons Ratio (y) = 0.23018 0.16073
# Poissons Ratio (z) = 0.46107 0.37291
#
# Static dielectric constant tensor:
#      x y z
#    x 1.965770 0.042630 -0.059380 
#    y 0.042630 2.014440 0.020810 
#    z -0.059380 0.020810 2.025960 
# 
# From -- ./inp_files/65169.got.cif
#   From: 2010.05.17/outbox.cif.g08.bks.cpg/sg2_33_cif.got.tgz:65169.got - 2010.06.03 11:33:40.
