data_PCOD9006486
_publ_section_title
;
Structure prediction by ZEFSAII (Michael W. Deem and Ramdas Pophale) SiO2 
 PCOD9006486
Probable space group: P -1
;
_chemical_formula_sum "Si O2"
_cell_formula_units_Z 16
_cell_length_a 12.707980
_cell_length_b 20.837889
_cell_length_c 7.373612
_cell_angle_alpha 124.424148
_cell_angle_beta 101.015884
_cell_angle_gamma 33.606022
_cell_volume 704.501992
_symmetry_space_group_name_H-M "P -1"
_symmetry_group_IT_number 2
_symmetry_cell_setting 'triclinic'
loop_
_space_group_symop_operation_xyz
x,y,z
-x,-y,-z
loop_
_atom_site_type_symbol
_atom_site_label
_atom_site_fract_x
_atom_site_fract_y
_atom_site_fract_z
Si Si1 0.797909 0.089669 0.955945
Si Si2 0.552146 0.914153 0.205899
Si Si3 0.750572 0.355424 0.248753
Si Si4 0.299434 0.356542 0.158728
Si Si5 0.227606 0.797884 0.215552
Si Si6 0.271909 0.482537 0.996046
Si Si7 0.038003 0.621043 0.760829
Si Si8 0.046591 0.172838 0.395466
O O1 0.537591 0.226278 0.148660
O O2 0.713503 0.209382 0.978544
O O3 0.911896 0.936277 0.661514
O O4 0.000000 0.000000 0.000000
O O5 0.500000 0.000000 0.500000
O O6 0.293049 0.060119 0.274593
O O7 0.669252 0.754881 0.041566
O O8 0.754715 0.823679 0.006476
O O9 0.500000 0.500000 0.500000
O O10 0.800971 0.412288 0.312158
O O11 0.954980 0.203306 0.219790
O O12 0.787253 0.283501 0.960524
O O13 0.280966 0.413951 0.052792
O O14 0.078493 0.526182 0.480112
O O15 0.453783 0.673117 0.212972
O O16 0.000000 0.000000 0.500000
O O17 0.143250 0.644422 0.287885
O O18 0.131815 0.544838 0.873234
#
# Coordination Sequence:
#
# PCOD9006486 Si02
#       8
#     2   2   2   2   2   2   2   2
#     4  10  21  38  66  92 134 180 221 280 352 406
#     4  11  25  47  71 105 142 184 236 296 347 414
#     4  12  24  44  69 101 141 185 234 290 351 422
#     4  10  24  46  69 100 141 179 237 290 345 419
#     4  11  25  38  60 102 139 173 233 288 343 417
#     4  11  24  44  69 103 140 186 231 290 353 410
#     4  12  26  43  74 102 138 189 241 284 356 417
#     4  11  22  43  70  97 138 184 225 288 352 404
#
# _framework density 22.711078000000001
#
# number of rings (size 3 to 8) (size 9 to 14) (size 15 to 20)
#    0.000    1.000    5.000    1.125    3.500    2.500 
#    0.000    0.000    0.000    0.000    0.000    0.000 
#    0.000    0.000    0.000    0.000    0.000    0.000 
#
# Total GULP energy -89282.039174 kJ/mol
# GULP energy per Si atom -5580.127448 kJ/mol
# Density = 2.265939 g / cm^3
# Si number density = 22.711078 Si / 1000 Ang^3
#
#
#
# Elastic Constant Matrix: (Units=GPa)
#
#
# Indices 1 2 3 4 5 6 
#
# 1 108.6170 23.4803 41.9515 6.1402 3.7423 -13.6484
# 2 23.4803 67.5938 -3.6515 4.9014 -7.4935 -20.9190
# 3 41.9515 -3.6515 142.0453 13.7999 4.1917 -12.2583
# 4 6.1402 4.9014 13.7999 32.9682 -4.4139 -2.9649
# 5 3.7423 -7.4935 4.1917 -4.4139 34.4512 13.7222
# 6 -13.6484 -20.9190 -12.2583 -2.9649 13.7222 42.6918
#
#
#
# Elastic Compliance Matrix: (Units=1/GPa)
#
#
# Indices 1 2 3 4 5 6 
#
# 1 0.011641 -0.003974 -0.003297 -0.000377 -0.002403 0.001574
# 2 -0.003974 0.019193 0.002615 -0.002362 0.000587 0.008532
# 3 -0.003297 0.002615 0.008729 -0.003392 -0.001795 0.003075
# 4 -0.000377 -0.002362 -0.003392 0.032671 0.004724 -0.001502
# 5 -0.002403 0.000587 -0.001795 0.004724 0.034984 -0.011912
# 6 0.001574 0.008532 0.003075 -0.001502 -0.011912 0.032715
#
#
# Mechanical properties :
#
#
# Convention : Reuss Voigt Hill
#
# Bulk Modulus (GPa) = 33.05498 49.09072 41.07285
# Shear Modulus (GPa) = 31.38200 39.12064 35.25132
#
# Velocity S-wave (km/s) = 3.72128 4.15485 3.94403
# Velocity P-wave (km/s) = 5.74892 6.68425 6.23415
#
# Compressibility (1/GPa) = 0.03025262
#
# Stress axis : x y z
#
# Youngs Moduli (GPa) = 85.90387 52.10261 114.56325
#
# Poissons Ratio (x) = 0.20704 0.37769
# Poissons Ratio (y) = 0.34136 -0.29964
# Poissons Ratio (z) = 0.28320 -0.13627
#
# Static dielectric constant tensor:
#      x y z
#    x 1.966280 0.009830 -0.046160 
#    y 0.009830 1.847700 -0.009390 
#    z -0.046160 -0.009390 1.888200 
# 
# From -- ./inp_files/283253.got.cif
#   From: 2010.05.17/outbox.cif.g08.bks.cpg/sg2_142_cif.got.tgz:283253.got - 2010.06.03 11:33:40.
