data_PCOD9006952
_publ_section_title
;
Structure prediction by ZEFSAII (Michael W. Deem and Ramdas Pophale) SiO2 
 PCOD9006952
Probable space group: P -1
;
_chemical_formula_sum "Si O2"
_cell_formula_units_Z 15
_cell_length_a 6.893590
_cell_length_b 18.171284
_cell_length_c 8.604324
_cell_angle_alpha 130.375541
_cell_angle_beta 117.450894
_cell_angle_gamma 44.908334
_cell_volume 579.672564
_symmetry_space_group_name_H-M "P -1"
_symmetry_group_IT_number 2
_symmetry_cell_setting 'triclinic'
loop_
_space_group_symop_operation_xyz
x,y,z
-x,-y,-z
loop_
_atom_site_type_symbol
_atom_site_label
_atom_site_fract_x
_atom_site_fract_y
_atom_site_fract_z
Si Si1 0.779382 0.681993 0.193765
Si Si2 0.947395 0.805675 0.090358
Si Si3 0.572742 0.340275 0.707664
Si Si4 0.273866 0.891472 0.155749
Si Si5 0.235011 0.485341 0.273494
Si Si6 0.783289 0.428388 0.300324
Si Si7 0.500000 0.000000 0.000000
Si Si8 0.750527 0.140204 0.257364
O O1 0.604785 0.668586 0.240046
O O2 0.574292 0.818881 0.243415
O O3 0.067878 0.614178 0.296101
O O4 0.825495 0.598011 0.949915
O O5 0.975765 0.704369 0.850723
O O6 0.124006 0.728539 0.199805
O O7 0.119967 0.848384 0.137571
O O8 0.639545 0.925267 0.118858
O O9 0.386694 0.479526 0.777137
O O10 0.618824 0.263085 0.467348
O O11 0.275911 0.849116 0.923321
O O12 0.074016 0.037410 0.276479
O O13 0.557105 0.418557 0.283224
O O14 0.146977 0.516116 0.460942
O O15 0.610204 0.079109 0.178076
#
# Coordination Sequence:
#
# PCOD9006952 Si02
#       8
#     2   2   2   2   2   2   1   2
#     4  10  21  39  57  91 120 164 198 257 289 361
#     4  10  22  41  62  90 125 164 191 258 291 365
#     4  11  23  38  63  93 124 156 205 247 310 350
#     4   9  19  41  64  82 120 161 206 234 307 364
#     4  10  22  37  59  83 123 165 201 238 303 349
#     4  11  22  40  60  92 123 166 199 246 298 367
#     4  10  24  42  62  90 124 146 208 250 312 344
#     4  10  22  40  65  89 116 165 198 256 298 365
#
# _framework density 25.876678999999999
#
# number of rings (size 3 to 8) (size 9 to 14) (size 15 to 20)
#    0.000    1.867    2.667    1.200    3.733    6.400 
#    2.400    0.000    0.000    6.400    0.000    0.000 
#    0.000    0.000    0.000    0.000    0.000    0.000 
#
# Total GULP energy -83641.899861 kJ/mol
# GULP energy per Si atom -5576.126657 kJ/mol
# Density = 2.581778 g / cm^3
# Si number density = 25.876679 Si / 1000 Ang^3
#
#
#
# Elastic Constant Matrix: (Units=GPa)
#
#
# Indices 1 2 3 4 5 6 
#
# 1 49.2371 12.1685 0.5830 1.8841 0.0935 -1.4716
# 2 12.1685 156.6738 -14.9250 -23.3239 -1.4660 -5.7673
# 3 0.5830 -14.9250 34.2478 -14.6369 2.0555 -13.7228
# 4 1.8841 -23.3239 -14.6369 32.9427 1.8149 -8.7402
# 5 0.0935 -1.4660 2.0555 1.8149 17.4905 -5.6222
# 6 -1.4716 -5.7673 -13.7228 -8.7402 -5.6222 32.5646
#
#
#
# Elastic Compliance Matrix: (Units=1/GPa)
#
#
# Indices 1 2 3 4 5 6 
#
# 1 0.021640 -0.004197 -0.008796 -0.009727 -0.000402 -0.006152
# 2 -0.004197 0.014036 0.026091 0.027215 0.002042 0.020948
# 3 -0.008796 0.026091 0.105708 0.084888 0.004238 0.072284
# 4 -0.009727 0.027215 0.084888 0.106071 0.003609 0.069245
# 5 -0.000402 0.002042 0.004238 0.003609 0.060847 0.013603
# 6 -0.006152 0.020948 0.072284 0.069245 0.013603 0.085535
#
#
# Mechanical properties :
#
#
# Convention : Reuss Voigt Hill
#
# Bulk Modulus (GPa) = 5.96730 26.20131 16.08431
# Shear Modulus (GPa) = 11.80636 32.75504 22.28070
#
# Velocity S-wave (km/s) = 2.13833 3.56169 2.93752
# Velocity P-wave (km/s) = 2.89960 5.20207 4.21125
#
# Compressibility (1/GPa) = 0.16758005
#
# Stress axis : x y z
#
# Youngs Moduli (GPa) = 46.20991 71.24601 9.46005
#
# Poissons Ratio (x) = 0.29902 0.08321
# Poissons Ratio (y) = 0.19394 -0.24682
# Poissons Ratio (z) = 0.40645 -1.85886
#
# Static dielectric constant tensor:
#      x y z
#    x 2.150450 -0.069010 -0.021260 
#    y -0.069010 2.094440 -0.021580 
#    z -0.021260 -0.021580 1.965060 
# 
# From -- ./inp_files/169965.got.cif
#   From: 2010.05.17/outbox.cif.g08.bks.cpg/sg2_85_cif.got.tgz:169965.got - 2010.06.03 11:33:40.
