data_PCOD9006104
_publ_section_title
;
Structure prediction by ZEFSAII (Michael W. Deem and Ramdas Pophale) SiO2 
 PCOD9006104
Probable space group: P -1
;
_chemical_formula_sum "Si O2"
_cell_formula_units_Z 16
_cell_length_a 15.708810
_cell_length_b 8.762191
_cell_length_c 15.070678
_cell_angle_alpha 38.976569
_cell_angle_beta 40.401539
_cell_angle_gamma 41.131796
_cell_volume 776.779160
_symmetry_space_group_name_H-M "P -1"
_symmetry_group_IT_number 2
_symmetry_cell_setting 'triclinic'
loop_
_space_group_symop_operation_xyz
x,y,z
-x,-y,-z
loop_
_atom_site_type_symbol
_atom_site_label
_atom_site_fract_x
_atom_site_fract_y
_atom_site_fract_z
Si Si1 0.714770 0.183948 0.011585
Si Si2 0.793526 0.419464 0.674618
Si Si3 0.074882 0.433574 0.875461
Si Si4 0.462120 0.698399 0.572034
Si Si5 0.070618 0.688361 0.108167
Si Si6 0.070453 0.301938 0.424390
Si Si7 0.494441 0.771746 0.701071
Si Si8 0.726357 0.256082 0.470146
O O1 0.735744 0.264994 0.859562
O O2 0.781551 0.340464 0.952334
O O3 0.561238 0.257157 0.143953
O O4 0.809288 0.870510 0.084258
O O5 0.850525 0.608867 0.599879
O O6 0.661506 0.590599 0.641730
O O7 0.936182 0.241765 0.590565
O O8 0.162263 0.607410 0.698040
O O9 0.947616 0.457029 0.898627
O O10 0.000000 0.500000 0.000000
O O11 0.417786 0.702035 0.708971
O O12 0.590740 0.434623 0.555834
O O13 0.338051 0.766947 0.565784
O O14 0.523234 0.926702 0.421746
O O15 0.009029 0.554799 0.293799
O O16 0.000000 0.000000 0.000000
O O17 0.190419 0.026774 0.421974
#
# Coordination Sequence:
#
# PCOD9006104 Si02
#       8
#     2   2   2   2   2   2   2   2
#     4  10  21  41  61  89 124 166 213 262 304 365
#     4  10  21  38  64  97 119 164 214 263 311 366
#     4  11  23  38  61  91 128 168 200 256 324 378
#     4  10  24  39  64  93 125 172 215 259 307 379
#     4   9  22  40  63  91 127 162 209 255 309 375
#     4  10  21  39  66  93 129 160 205 266 317 371
#     4  11  21  40  65  90 122 169 225 252 305 376
#     4  11  22  43  62  92 135 163 206 263 324 372
#
# _framework density 20.597874999999998
#
# number of rings (size 3 to 8) (size 9 to 14) (size 15 to 20)
#    0.000    1.750    2.500    1.125    3.500    2.500 
#    4.500    0.000    0.000    2.250    0.000    0.000 
#    0.000    0.000    0.000    0.000    0.000    0.000 
#
# Total GULP energy -89136.120140 kJ/mol
# GULP energy per Si atom -5571.007509 kJ/mol
# Density = 2.055099 g / cm^3
# Si number density = 20.597875 Si / 1000 Ang^3
#
#
#
# Elastic Constant Matrix: (Units=GPa)
#
#
# Indices 1 2 3 4 5 6 
#
# 1 74.4963 12.7785 3.0238 -5.7635 11.6174 15.3831
# 2 12.7785 74.2031 19.6021 -6.2608 1.3978 -6.0037
# 3 3.0238 19.6021 80.9995 -3.2357 10.0843 0.7711
# 4 -5.7635 -6.2608 -3.2357 21.5964 -1.6578 3.4412
# 5 11.6174 1.3978 10.0843 -1.6578 22.1718 -3.0598
# 6 15.3831 -6.0037 0.7711 3.4412 -3.0598 25.6087
#
#
#
# Elastic Compliance Matrix: (Units=1/GPa)
#
#
# Indices 1 2 3 4 5 6 
#
# 1 0.019687 -0.004512 0.002320 0.005744 -0.012761 -0.015250
# 2 -0.004512 0.016017 -0.004236 0.002051 0.004378 0.006841
# 3 0.002320 -0.004236 0.014370 0.001570 -0.007916 -0.003977
# 4 0.005744 0.002051 0.001570 0.050136 -0.001475 -0.009930
# 5 -0.012761 0.004378 -0.007916 -0.001475 0.057206 0.015964
# 6 -0.015250 0.006841 -0.003977 -0.009930 0.015964 0.053175
#
#
# Mechanical properties :
#
#
# Convention : Reuss Voigt Hill
#
# Bulk Modulus (GPa) = 26.86837 33.38977 30.12907
# Shear Modulus (GPa) = 21.19973 26.82835 24.01404
#
# Velocity S-wave (km/s) = 3.21163 3.61291 3.41816
# Velocity P-wave (km/s) = 5.17931 5.80083 5.49886
#
# Compressibility (1/GPa) = 0.03721848
#
# Stress axis : x y z
#
# Youngs Moduli (GPa) = 50.79548 62.43545 69.58764
#
# Poissons Ratio (x) = 0.28171 -0.16147
# Poissons Ratio (y) = 0.22919 0.29477
# Poissons Ratio (z) = -0.11787 0.26447
#
# Static dielectric constant tensor:
#      x y z
#    x 1.764750 -0.008440 0.044690 
#    y -0.008440 1.732500 -0.012690 
#    z 0.044690 -0.012690 1.791840 
# 
# From -- ./inp_files/331701.got.cif
#   From: 2010.05.17/outbox.cif.g08.bks.cpg/sg2_166_cif.got.tgz:331701.got - 2010.06.03 11:33:40.
