data_PCOD9006798
_publ_section_title
;
Structure prediction by ZEFSAII (Michael W. Deem and Ramdas Pophale) SiO2 
 PCOD9006798
Probable space group: P -1
;
_chemical_formula_sum "Si O2"
_cell_formula_units_Z 14
_cell_length_a 12.780002
_cell_length_b 19.304522
_cell_length_c 8.713506
_cell_angle_alpha 44.897198
_cell_angle_beta 33.605203
_cell_angle_gamma 27.454364
_cell_volume 544.564932
_symmetry_space_group_name_H-M "P -1"
_symmetry_group_IT_number 2
_symmetry_cell_setting 'triclinic'
loop_
_space_group_symop_operation_xyz
x,y,z
-x,-y,-z
loop_
_atom_site_type_symbol
_atom_site_label
_atom_site_fract_x
_atom_site_fract_y
_atom_site_fract_z
Si Si1 0.741382 0.935174 0.679227
Si Si2 0.431691 0.362491 0.217161
Si Si3 0.296219 0.585372 0.832839
Si Si4 0.133805 0.355538 0.347362
Si Si5 0.229070 0.129581 0.777271
Si Si6 0.980858 0.035823 0.145829
Si Si7 0.109176 0.593136 0.744892
O O1 0.971966 0.757476 0.651355
O O2 0.536464 0.035124 0.625390
O O3 0.924327 0.962808 0.432842
O O4 0.500000 0.000000 0.000000
O O5 0.383839 0.309688 0.212616
O O6 0.694340 0.217024 0.220529
O O7 0.153135 0.484586 0.473776
O O8 0.466511 0.455087 0.955786
O O9 0.148601 0.567786 0.919406
O O10 0.555420 0.544415 0.505038
O O11 0.025469 0.748474 0.979588
O O12 0.152245 0.233846 0.568803
O O13 0.094449 0.380481 0.172916
O O14 0.230141 0.013473 0.923702
O O15 0.000000 0.000000 0.000000
#
# Coordination Sequence:
#
# PCOD9006798 Si02
#       7
#     2   2   2   2   2   2   2
#     4  12  26  46  68 102 143 178 222 283 343 411
#     4  10  21  40  64  97 130 169 228 274 336 393
#     4  10  22  43  65  94 133 178 223 286 332 403
#     4  10  21  38  69  94 126 175 226 281 324 398
#     4  11  23  45  70  95 138 181 224 276 348 394
#     4  12  26  42  72 103 135 179 231 278 335 413
#     4  11  23  41  65  95 134 175 228 280 339 393
#
# _framework density 25.708596
#
# number of rings (size 3 to 8) (size 9 to 14) (size 15 to 20)
#    0.000    1.143    2.857    3.429    2.000    4.571 
#    0.000    1.429    0.000    0.000    0.000    0.000 
#    0.000    0.000    0.000    0.000    0.000    0.000 
#
# Total GULP energy -78320.550485 kJ/mol
# GULP energy per Si atom -5594.325035 kJ/mol
# Density = 2.565008 g / cm^3
# Si number density = 25.708596 Si / 1000 Ang^3
#
#
#
# Elastic Constant Matrix: (Units=GPa)
#
#
# Indices 1 2 3 4 5 6 
#
# 1 131.9176 4.3653 22.7244 -9.0746 -9.5613 12.0584
# 2 4.3653 102.9838 15.8004 15.8080 3.0230 -6.1164
# 3 22.7244 15.8004 91.3217 4.3953 6.0305 13.1361
# 4 -9.0746 15.8080 4.3953 40.8583 -0.0840 1.8015
# 5 -9.5613 3.0230 6.0305 -0.0840 37.2813 -0.1085
# 6 12.0584 -6.1164 13.1361 1.8015 -0.1085 44.8988
#
#
#
# Elastic Compliance Matrix: (Units=1/GPa)
#
#
# Indices 1 2 3 4 5 6 
#
# 1 0.008469 -0.000606 -0.002020 0.002420 0.002548 -0.001857
# 2 -0.000606 0.010823 -0.001805 -0.004232 -0.000744 0.002333
# 3 -0.002020 -0.001805 0.012446 -0.000948 -0.002397 -0.003312
# 4 0.002420 -0.004232 -0.000948 0.026843 0.001172 -0.002023
# 5 0.002548 -0.000744 -0.002397 0.001172 0.027927 -0.000064
# 6 -0.001857 0.002333 -0.003312 -0.002023 -0.000064 0.024139
#
#
# Mechanical properties :
#
#
# Convention : Reuss Voigt Hill
#
# Bulk Modulus (GPa) = 43.71250 45.77815 44.74533
# Shear Modulus (GPa) = 39.32866 43.49657 41.41261
#
# Velocity S-wave (km/s) = 3.91549 4.11774 4.01789
# Velocity P-wave (km/s) = 6.12221 6.36026 6.24237
#
# Compressibility (1/GPa) = 0.02287675
#
# Stress axis : x y z
#
# Youngs Moduli (GPa) = 118.07164 92.39732 80.34950
#
# Poissons Ratio (x) = 0.05595 0.16234
# Poissons Ratio (y) = 0.07150 0.14500
# Poissons Ratio (z) = 0.23855 0.16675
#
# Static dielectric constant tensor:
#      x y z
#    x 2.108850 0.011810 -0.022370 
#    y 0.011810 1.974470 -0.037680 
#    z -0.022370 -0.037680 2.028430 
# 
# From -- ./inp_files/261275.got.cif
#   From: 2010.05.17/outbox.cif.g08.bks.cpg/sg2_131_cif.got.tgz:261275.got - 2010.06.03 11:33:40.
