data_PCOD9006770
_publ_section_title
;
Structure prediction by ZEFSAII (Michael W. Deem and Ramdas Pophale) SiO2 
 PCOD9006770
Probable space group: P -1
;
_chemical_formula_sum "Si O2"
_cell_formula_units_Z 16
_cell_length_a 20.043208
_cell_length_b 10.947410
_cell_length_c 8.838601
_cell_angle_alpha 138.419751
_cell_angle_beta 40.430624
_cell_angle_gamma 139.099707
_cell_volume 752.326477
_symmetry_space_group_name_H-M "P -1"
_symmetry_group_IT_number 2
_symmetry_cell_setting 'triclinic'
loop_
_space_group_symop_operation_xyz
x,y,z
-x,-y,-z
loop_
_atom_site_type_symbol
_atom_site_label
_atom_site_fract_x
_atom_site_fract_y
_atom_site_fract_z
Si Si1 0.018355 0.811540 0.133841
Si Si2 0.041411 0.411791 0.638654
Si Si3 0.515802 0.955899 0.605233
Si Si4 0.300960 0.101814 0.640306
Si Si5 0.421301 0.493885 0.271233
Si Si6 0.136844 0.987217 0.553979
Si Si7 0.221282 0.269698 0.193274
Si Si8 0.608979 0.852936 0.792826
O O1 0.040200 0.631555 0.848381
O O2 0.981425 0.706545 0.266774
O O3 0.925135 0.874302 0.271230
O O4 0.129765 0.031339 0.154935
O O5 0.158189 0.407385 0.382941
O O6 0.945082 0.248577 0.548408
O O7 0.651223 0.035173 0.476310
O O8 0.450312 0.712496 0.489332
O O9 0.500000 0.000000 0.500000
O O10 0.457182 0.037935 0.906990
O O11 0.180810 0.024546 0.686922
O O12 0.389978 0.164447 0.405377
O O13 0.299757 0.261703 0.912674
O O14 0.294884 0.371857 0.308103
O O15 0.439405 0.366288 0.254618
O O16 0.500000 0.500000 0.000000
O O17 0.254556 0.036441 0.307335
#
# Coordination Sequence:
#
# PCOD9006770 Si02
#       8
#     2   2   2   2   2   2   2   2
#     4  10  21  39  66  97 130 170 218 275 321 390
#     4  10  21  38  68  99 125 172 223 262 332 394
#     4  12  24  43  68  96 129 172 228 272 321 394
#     4  10  24  43  65  94 138 179 209 275 339 384
#     4  12  23  42  68  96 127 176 224 268 328 386
#     4   9  21  41  62  90 134 169 211 266 331 383
#     4  11  22  42  63  97 134 172 217 271 325 387
#     4  10  23  43  66  93 136 170 214 276 325 390
#
# _framework density 21.267361999999999
#
# number of rings (size 3 to 8) (size 9 to 14) (size 15 to 20)
#    0.750    0.750    2.500    3.375    0.000    7.500 
#    0.000    6.250    0.000    0.000    0.000    0.000 
#    0.000    0.000    0.000    0.000    0.000    0.000 
#
# Total GULP energy -89143.244082 kJ/mol
# GULP energy per Si atom -5571.452755 kJ/mol
# Density = 2.121896 g / cm^3
# Si number density = 21.267362 Si / 1000 Ang^3
#
#
#
# Elastic Constant Matrix: (Units=GPa)
#
#
# Indices 1 2 3 4 5 6 
#
# 1 125.1753 34.9424 32.8916 14.6865 -7.7158 11.8558
# 2 34.9424 72.1706 34.2677 30.8869 -13.6771 4.5775
# 3 32.8916 34.2677 145.6297 25.0478 -16.3822 -2.6559
# 4 14.6865 30.8869 25.0478 42.0806 -3.6579 0.2088
# 5 -7.7158 -13.6771 -16.3822 -3.6579 37.0027 -2.4007
# 6 11.8558 4.5775 -2.6559 0.2088 -2.4007 23.2696
#
#
#
# Elastic Compliance Matrix: (Units=1/GPa)
#
#
# Indices 1 2 3 4 5 6 
#
# 1 0.009850 -0.004016 -0.001462 0.000373 -0.000328 -0.004432
# 2 -0.004016 0.024154 -0.001612 -0.014855 0.005768 -0.002161
# 3 -0.001462 -0.001612 0.008457 -0.003119 0.002687 0.002332
# 4 0.000373 -0.014855 -0.003119 0.036115 -0.003111 0.001731
# 5 -0.000328 0.005768 0.002687 -0.003111 0.030131 0.002476
# 6 -0.004432 -0.002161 0.002332 0.001731 0.002476 0.046164
#
#
# Mechanical properties :
#
#
# Convention : Reuss Voigt Hill
#
# Bulk Modulus (GPa) = 35.35842 60.79764 48.07803
# Shear Modulus (GPa) = 28.01491 36.52883 32.27187
#
# Velocity S-wave (km/s) = 3.63336 4.14889 3.89965
# Velocity P-wave (km/s) = 5.85351 7.18334 6.55225
#
# Compressibility (1/GPa) = 0.02828180
#
# Stress axis : x y z
#
# Youngs Moduli (GPa) = 101.52681 41.40183 118.24002
#
# Poissons Ratio (x) = 0.16626 0.17283
# Poissons Ratio (y) = 0.40770 0.19061
# Poissons Ratio (z) = 0.14840 0.06674
#
# Static dielectric constant tensor:
#      x y z
#    x 1.826900 0.007720 -0.008180 
#    y 0.007720 1.782800 -0.046030 
#    z -0.008180 -0.046030 1.757300 
# 
# From -- ./inp_files/345669.got.cif
#   From: 2010.05.17/outbox.cif.g08.bks.cpg/sg2_173_cif.got.tgz:345669.got - 2010.06.03 11:33:40.
