data_PCOD9006315
_publ_section_title
;
Structure prediction by ZEFSAII (Michael W. Deem and Ramdas Pophale) SiO2 
 PCOD9006315
Probable space group: P -1
;
_chemical_formula_sum "Si O2"
_cell_formula_units_Z 16
_cell_length_a 15.492327
_cell_length_b 11.982229
_cell_length_c 10.428520
_cell_angle_alpha 142.010905
_cell_angle_beta 58.951014
_cell_angle_gamma 145.062963
_cell_volume 634.022413
_symmetry_space_group_name_H-M "P -1"
_symmetry_group_IT_number 2
_symmetry_cell_setting 'triclinic'
loop_
_space_group_symop_operation_xyz
x,y,z
-x,-y,-z
loop_
_atom_site_type_symbol
_atom_site_label
_atom_site_fract_x
_atom_site_fract_y
_atom_site_fract_z
Si Si1 0.591855 0.179294 0.460045
Si Si2 0.798958 0.031113 0.533880
Si Si3 0.995935 0.796418 0.979915
Si Si4 0.052424 0.308729 0.374762
Si Si5 0.473098 0.532988 0.187758
Si Si6 0.310784 0.146919 0.181775
Si Si7 0.290113 0.725824 0.097072
Si Si8 0.644610 0.492585 0.331412
O O1 0.768078 0.351093 0.449492
O O2 0.639799 0.454227 0.705496
O O3 0.500000 0.000000 0.500000
O O4 0.469457 0.987478 0.260410
O O5 0.792405 0.193397 0.780109
O O6 0.947251 0.235276 0.507758
O O7 0.643162 0.838633 0.388938
O O8 0.749663 0.780999 0.423020
O O9 0.002586 0.739203 0.775035
O O10 0.821275 0.526008 0.936275
O O11 0.033342 0.064069 0.190049
O O12 0.123026 0.868587 0.039586
O O13 0.399450 0.270868 0.089801
O O14 0.500000 0.500000 0.000000
O O15 0.448553 0.231553 0.230978
O O16 0.325811 0.374401 0.433659
O O17 0.298409 0.621121 0.865692
#
# Coordination Sequence:
#
# PCOD9006315 Si02
#       8
#     2   2   2   2   2   2   2   2
#     4  11  23  39  61 101 137 173 218 273 339 405
#     4  10  23  41  64  98 133 174 225 281 327 400
#     4  11  22  39  69 100 131 180 224 273 347 403
#     4  11  22  40  66 100 142 175 221 276 344 410
#     4  10  21  38  65  94 131 170 217 271 336 400
#     4  10  22  41  70 100 128 180 231 269 338 403
#     4  11  24  43  66  98 137 178 227 279 340 395
#     4  10  23  46  70  93 135 183 227 280 332 397
#
# _framework density 25.235700999999999
#
# number of rings (size 3 to 8) (size 9 to 14) (size 15 to 20)
#    0.000    1.500    3.750    0.750    5.250    2.000 
#    0.000   10.625    0.000    0.000    0.000    0.000 
#    0.000    0.000    0.000    0.000    0.000    0.000 
#
# Total GULP energy -89361.401639 kJ/mol
# GULP energy per Si atom -5585.087602 kJ/mol
# Density = 2.517826 g / cm^3
# Si number density = 25.235701 Si / 1000 Ang^3
#
#
#
# Elastic Constant Matrix: (Units=GPa)
#
#
# Indices 1 2 3 4 5 6 
#
# 1 29.8938 9.9840 19.5796 2.9944 -2.6551 10.1952
# 2 9.9840 163.3200 44.1291 -2.2719 -7.0571 12.5379
# 3 19.5796 44.1291 91.9477 -14.5692 -13.8958 18.3625
# 4 2.9944 -2.2719 -14.5692 50.0361 4.9076 5.4292
# 5 -2.6551 -7.0571 -13.8958 4.9076 29.5288 3.1491
# 6 10.1952 12.5379 18.3625 5.4292 3.1491 34.0399
#
#
#
# Elastic Compliance Matrix: (Units=1/GPa)
#
#
# Indices 1 2 3 4 5 6 
#
# 1 0.041735 0.000173 -0.007797 -0.004068 0.001639 -0.007860
# 2 0.000173 0.007076 -0.003318 -0.000600 0.000331 -0.000803
# 3 -0.007797 -0.003318 0.017476 0.005557 0.006592 -0.007366
# 4 -0.004068 -0.000600 0.005557 0.022474 -0.001091 -0.005042
# 5 0.001639 0.000331 0.006592 -0.001091 0.038178 -0.007527
# 6 -0.007860 -0.000803 -0.007366 -0.005042 -0.007527 0.037502
#
#
# Mechanical properties :
#
#
# Convention : Reuss Voigt Hill
#
# Bulk Modulus (GPa) = 22.52069 48.06078 35.29073
# Shear Modulus (GPa) = 24.86000 36.81888 30.83944
#
# Velocity S-wave (km/s) = 3.14206 3.82383 3.49958
# Velocity P-wave (km/s) = 4.70179 6.21141 5.50856
#
# Compressibility (1/GPa) = 0.04440362
#
# Stress axis : x y z
#
# Youngs Moduli (GPa) = 23.96083 141.31363 57.22010
#
# Poissons Ratio (x) = -0.02448 0.44617
# Poissons Ratio (y) = -0.00415 0.18985
# Poissons Ratio (z) = 0.18683 0.46885
#
# Static dielectric constant tensor:
#      x y z
#    x 9.022420 -1.122070 -9.573520 
#    y -1.122070 2.200450 1.553920 
#    z -9.573520 1.553920 15.153610 
# 
# From -- ./inp_files/179444.got.cif
#   From: 2010.05.17/outbox.cif.g08.bks.cpg/sg2_90_cif.got.tgz:179444.got - 2010.06.03 11:33:40.
