data_PCOD9006320
_publ_section_title
;
Structure prediction by ZEFSAII (Michael W. Deem and Ramdas Pophale) SiO2 
 PCOD9006320
Probable space group: P -1
;
_chemical_formula_sum "Si O2"
_cell_formula_units_Z 14
_cell_length_a 8.798883
_cell_length_b 11.895117
_cell_length_c 10.271152
_cell_angle_alpha 126.987760
_cell_angle_beta 117.695357
_cell_angle_gamma 96.133361
_cell_volume 636.755930
_symmetry_space_group_name_H-M "P -1"
_symmetry_group_IT_number 2
_symmetry_cell_setting 'triclinic'
loop_
_space_group_symop_operation_xyz
x,y,z
-x,-y,-z
loop_
_atom_site_type_symbol
_atom_site_label
_atom_site_fract_x
_atom_site_fract_y
_atom_site_fract_z
Si Si1 0.811562 0.502339 0.291677
Si Si2 0.691655 0.917807 0.966628
Si Si3 0.282307 0.852419 0.084962
Si Si4 0.181325 0.280640 0.772729
Si Si5 0.865923 0.692390 0.935615
Si Si6 0.739162 0.412296 0.480232
Si Si7 0.283088 0.007504 0.667476
O O1 0.742191 0.584830 0.217191
O O2 0.743863 0.503855 0.412070
O O3 0.057625 0.592948 0.448027
O O4 0.729091 0.310644 0.090310
O O5 0.814372 0.826615 0.960871
O O6 0.463744 0.770494 0.730858
O O7 0.772512 0.064685 0.995703
O O8 0.691858 0.978702 0.155677
O O9 0.518880 0.979036 0.304402
O O10 0.110612 0.785057 0.080086
O O11 0.273846 0.165909 0.727807
O O12 0.208656 0.354054 0.978851
O O13 0.936191 0.153828 0.567648
O O14 0.761374 0.528574 0.689436
#
# Coordination Sequence:
#
# PCOD9006320 Si02
#       7
#     2   2   2   2   2   2   2
#     4  10  22  38  65  94 119 159 207 248 294 364
#     4  11  21  40  64  93 121 158 203 257 295 359
#     4  11  22  38  64  94 120 158 205 254 299 352
#     4  10  23  43  60  88 127 163 199 245 304 365
#     4  10  24  41  61  91 127 157 198 251 311 354
#     4  10  21  38  65  95 117 158 205 250 303 351
#     4  10  22  39  64  87 121 165 204 244 299 360
#
# _framework density 21.986446999999998
#
# number of rings (size 3 to 8) (size 9 to 14) (size 15 to 20)
#    0.000    1.714    1.429    2.143    6.000    3.429 
#    2.571    1.429    0.000    0.000    0.000    0.000 
#    0.000    0.000    0.000    0.000    0.000    0.000 
#
# Total GULP energy -78339.048256 kJ/mol
# GULP energy per Si atom -5595.646304 kJ/mol
# Density = 2.193641 g / cm^3
# Si number density = 21.986447 Si / 1000 Ang^3
#
#
#
# Elastic Constant Matrix: (Units=GPa)
#
#
# Indices 1 2 3 4 5 6 
#
# 1 33.9455 -1.7730 23.3301 -0.0521 9.9974 -2.6572
# 2 -1.7730 145.6667 27.2171 -23.4133 -21.6351 -8.2669
# 3 23.3301 27.2171 68.8105 3.0378 -1.5029 -5.6325
# 4 -0.0521 -23.4133 3.0378 19.6489 -0.9620 0.4233
# 5 9.9974 -21.6351 -1.5029 -0.9620 32.3358 -0.8982
# 6 -2.6572 -8.2669 -5.6325 0.4233 -0.8982 14.7051
#
#
#
# Elastic Compliance Matrix: (Units=1/GPa)
#
#
# Indices 1 2 3 4 5 6 
#
# 1 0.044956 0.002786 -0.016660 0.005347 -0.012584 0.002386
# 2 0.002786 0.011775 -0.005706 0.015173 0.007341 0.004949
# 3 -0.016660 -0.005706 0.023198 -0.010390 0.002188 0.003100
# 4 0.005347 0.015173 -0.010390 0.071007 0.010243 0.004098
# 5 -0.012584 0.007341 0.002188 0.010243 0.040269 0.004856
# 6 0.002386 0.004949 0.003100 0.004098 0.004856 0.072583
#
#
# Mechanical properties :
#
#
# Convention : Reuss Voigt Hill
#
# Bulk Modulus (GPa) = 24.52877 38.44124 31.48501
# Shear Modulus (GPa) = 15.79587 26.64787 21.22187
#
# Velocity S-wave (km/s) = 2.68327 3.48518 3.11018
# Velocity P-wave (km/s) = 4.55856 5.80666 5.22005
#
# Compressibility (1/GPa) = 0.04076845
#
# Stress axis : x y z
#
# Youngs Moduli (GPa) = 22.24420 84.92488 43.10635
#
# Poissons Ratio (x) = -0.23658 0.71813
# Poissons Ratio (y) = -0.06197 0.24598
# Poissons Ratio (z) = 0.37058 0.48462
#
# Static dielectric constant tensor:
#      x y z
#    x 1.818110 -0.000640 0.043020 
#    y -0.000640 1.800690 0.004570 
#    z 0.043020 0.004570 1.802540 
# 
# From -- ./inp_files/156752.got.cif
#   From: 2010.05.17/outbox.cif.g08.bks.cpg/sg2_79_cif.got.tgz:156752.got - 2010.06.03 11:33:40.
