data_PCOD9006324
_publ_section_title
;
Structure prediction by ZEFSAII (Michael W. Deem and Ramdas Pophale) SiO2 
 PCOD9006324
Probable space group: P -1
;
_chemical_formula_sum "Si O2"
_cell_formula_units_Z 16
_cell_length_a 8.467128
_cell_length_b 7.909208
_cell_length_c 10.863101
_cell_angle_alpha 88.384243
_cell_angle_beta 90.231805
_cell_angle_gamma 63.598202
_cell_volume 651.234245
_symmetry_space_group_name_H-M "P -1"
_symmetry_group_IT_number 2
_symmetry_cell_setting 'triclinic'
loop_
_space_group_symop_operation_xyz
x,y,z
-x,-y,-z
loop_
_atom_site_type_symbol
_atom_site_label
_atom_site_fract_x
_atom_site_fract_y
_atom_site_fract_z
Si Si1 0.078962 0.200372 0.072739
Si Si2 0.057746 0.971041 0.312910
Si Si3 0.776025 0.949761 0.170224
Si Si4 0.150778 0.469728 0.781647
Si Si5 0.598967 0.761076 0.834615
Si Si6 0.613712 0.577756 0.422798
Si Si7 0.196862 0.524892 0.332665
Si Si8 0.369484 0.994632 0.394823
O O1 0.250167 0.242293 0.075248
O O2 0.908541 0.394461 0.102887
O O3 0.101194 0.054632 0.185788
O O4 0.083025 0.120737 0.939183
O O5 0.137231 0.746376 0.336264
O O6 0.163112 0.039079 0.410661
O O7 0.853437 0.017060 0.285379
O O8 0.757638 0.758091 0.202226
O O9 0.597811 0.123293 0.120504
O O10 0.263251 0.529974 0.687798
O O11 0.965290 0.508874 0.716751
O O12 0.654218 0.562152 0.771516
O O13 0.610379 0.883056 0.716606
O O14 0.500000 0.500000 0.500000
O O15 0.743285 0.577134 0.533219
O O16 0.470602 0.774704 0.366569
O O17 0.500000 0.000000 0.500000
#
# Coordination Sequence:
#
# PCOD9006324 Si02
#       8
#     2   2   2   2   2   2   2   2
#     4  10  22  42  64  92 132 171 215 263 320 374
#     4  10  23  41  60  92 131 166 213 266 316 377
#     4  11  21  41  68  94 127 170 216 272 315 369
#     4  10  23  40  64  95 127 169 215 258 318 385
#     4  10  21  38  65  95 123 168 221 256 314 384
#     4  12  22  38  64  93 130 165 211 261 321 376
#     4  10  21  40  62  88 132 172 206 259 319 386
#     4  11  21  40  64  88 128 169 206 266 320 387
#
# _framework density 24.568733000000002
#
# number of rings (size 3 to 8) (size 9 to 14) (size 15 to 20)
#    0.000    1.500    3.750    1.500    0.000    1.000 
#    0.000    1.875    0.000    0.000    0.000    0.000 
#    0.000    0.000    0.000    0.000    0.000    0.000 
#
# Total GULP energy -89245.982515 kJ/mol
# GULP energy per Si atom -5577.873907 kJ/mol
# Density = 2.451281 g / cm^3
# Si number density = 24.568733 Si / 1000 Ang^3
#
#
#
# Elastic Constant Matrix: (Units=GPa)
#
#
# Indices 1 2 3 4 5 6 
#
# 1 87.0241 15.9891 23.0242 20.8165 -2.0610 -1.1729
# 2 15.9891 62.5615 -1.5545 -2.2909 -9.8488 -7.4168
# 3 23.0242 -1.5545 63.7679 3.3965 0.2109 1.4207
# 4 20.8165 -2.2909 3.3965 36.3114 -1.8145 -6.8982
# 5 -2.0610 -9.8488 0.2109 -1.8145 35.4908 0.6139
# 6 -1.1729 -7.4168 1.4207 -6.8982 0.6139 28.9396
#
#
#
# Elastic Compliance Matrix: (Units=1/GPa)
#
#
# Indices 1 2 3 4 5 6 
#
# 1 0.016067 -0.005041 -0.005352 -0.009574 -0.000878 -0.002642
# 2 -0.005041 0.018998 0.001859 0.005258 0.005138 0.005718
# 3 -0.005352 0.001859 0.017585 0.001503 0.000182 -0.000249
# 4 -0.009574 0.005258 0.001503 0.035093 0.002529 0.009197
# 5 -0.000878 0.005138 0.000182 0.002529 0.029658 0.001246
# 6 -0.002642 0.005718 -0.000249 0.009197 0.001246 0.038091
#
#
# Mechanical properties :
#
#
# Convention : Reuss Voigt Hill
#
# Bulk Modulus (GPa) = 28.10539 32.03012 30.06775
# Shear Modulus (GPa) = 27.11175 31.87465 29.49320
#
# Velocity S-wave (km/s) = 3.32551 3.60580 3.46849
# Velocity P-wave (km/s) = 5.11954 5.51371 5.32028
#
# Compressibility (1/GPa) = 0.03558037
#
# Stress axis : x y z
#
# Youngs Moduli (GPa) = 62.23859 52.63665 56.86766
#
# Poissons Ratio (x) = 0.26536 0.30438
# Poissons Ratio (y) = 0.31376 -0.10571
# Poissons Ratio (z) = 0.33313 -0.09785
#
# Static dielectric constant tensor:
#      x y z
#    x 2.068360 -0.001440 0.044800 
#    y -0.001440 2.021800 0.036600 
#    z 0.044800 0.036600 1.982650 
# 
# From -- ./inp_files/226802.got.cif
#   From: 2010.05.17/outbox.cif.g08.bks.cpg/sg2_114_cif.got.tgz:226802.got - 2010.06.03 11:33:40.
