data_PCOD9006500
_publ_section_title
;
Structure prediction by ZEFSAII (Michael W. Deem and Ramdas Pophale) SiO2 
 PCOD9006500
Probable space group: P -1
;
_chemical_formula_sum "Si O2"
_cell_formula_units_Z 14
_cell_length_a 9.238784
_cell_length_b 11.660210
_cell_length_c 5.505645
_cell_angle_alpha 74.027434
_cell_angle_beta 105.038065
_cell_angle_gamma 109.109192
_cell_volume 529.336063
_symmetry_space_group_name_H-M "P -1"
_symmetry_group_IT_number 2
_symmetry_cell_setting 'triclinic'
loop_
_space_group_symop_operation_xyz
x,y,z
-x,-y,-z
loop_
_atom_site_type_symbol
_atom_site_label
_atom_site_fract_x
_atom_site_fract_y
_atom_site_fract_z
Si Si1 0.383171 0.713009 0.246930
Si Si2 0.788080 0.184474 0.263499
Si Si3 0.885108 0.796118 0.422543
Si Si4 0.288949 0.438622 0.229569
Si Si5 0.097469 0.542119 0.759192
Si Si6 0.364265 0.078922 0.533001
Si Si7 0.340264 0.241328 0.049786
O O1 0.339607 0.563107 0.342401
O O2 0.471155 0.822208 0.399976
O O3 0.241234 0.760380 0.044564
O O4 0.519272 0.724939 0.095761
O O5 0.815904 0.313759 0.341826
O O6 0.941714 0.145923 0.438976
O O7 0.651024 0.060691 0.319222
O O8 0.838100 0.662306 0.612750
O O9 0.769612 0.875688 0.410290
O O10 0.829420 0.768353 0.136576
O O11 0.383747 0.345486 0.221166
O O12 0.235782 0.484235 0.925891
O O13 0.000000 0.500000 0.500000
O O14 0.000000 0.500000 0.000000
O O15 0.326847 0.105047 0.226137
#
# Coordination Sequence:
#
# PCOD9006500 Si02
#       7
#     2   2   2   2   2   2   2
#     4  10  23  40  61  92 127 172 222 273 337 405
#     4  11  22  43  66  95 129 171 217 281 340 402
#     4  10  21  40  65  93 127 165 222 275 336 403
#     4  10  21  38  66  93 128 171 218 281 335 394
#     4  11  23  43  66 103 139 171 223 281 353 403
#     4  10  23  42  61  91 129 175 221 266 335 407
#     4  10  22  40  60  91 130 169 224 269 335 406
#
# _framework density 26.448225999999998
#
# number of rings (size 3 to 8) (size 9 to 14) (size 15 to 20)
#    0.000    1.714    1.429    2.143    0.000    7.429 
#   12.857    0.000    0.000    0.000    0.000    0.000 
#    0.000    0.000    0.000    0.000    0.000    0.000 
#
# Total GULP energy -78038.699488 kJ/mol
# GULP energy per Si atom -5574.192821 kJ/mol
# Density = 2.638803 g / cm^3
# Si number density = 26.448226 Si / 1000 Ang^3
#
#
#
# Elastic Constant Matrix: (Units=GPa)
#
#
# Indices 1 2 3 4 5 6 
#
# 1 45.5283 26.5337 0.6489 16.1311 10.4978 -5.8031
# 2 26.5337 204.4143 56.7506 -22.0461 2.7330 8.3689
# 3 0.6489 56.7506 118.2430 9.6378 26.8781 12.1096
# 4 16.1311 -22.0461 9.6378 37.1653 10.9488 2.7527
# 5 10.4978 2.7330 26.8781 10.9488 43.5127 0.0539
# 6 -5.8031 8.3689 12.1096 2.7527 0.0539 38.1829
#
#
#
# Elastic Compliance Matrix: (Units=1/GPa)
#
#
# Indices 1 2 3 4 5 6 
#
# 1 0.037902 -0.009490 0.007091 -0.022294 -0.007328 0.007209
# 2 -0.009490 0.008750 -0.005285 0.010135 0.002457 -0.002418
# 3 0.007091 -0.005285 0.013494 -0.007279 -0.007881 -0.001508
# 4 -0.022294 0.010135 -0.007279 0.045629 -0.002235 -0.006588
# 5 -0.007328 0.002457 -0.007881 -0.002235 0.030025 0.000966
# 6 0.007209 -0.002418 -0.001508 -0.006588 0.000966 0.028767
#
#
# Mechanical properties :
#
#
# Convention : Reuss Voigt Hill
#
# Bulk Modulus (GPa) = 22.33202 59.56133 40.94667
# Shear Modulus (GPa) = 25.65950 42.72233 34.19092
#
# Velocity S-wave (km/s) = 3.11815 4.02346 3.59938
# Velocity P-wave (km/s) = 4.62880 6.64479 5.72621
#
# Compressibility (1/GPa) = 0.04477875
#
# Stress axis : x y z
#
# Youngs Moduli (GPa) = 26.38411 114.28237 74.10918
#
# Poissons Ratio (x) = 1.08455 -0.52553
# Poissons Ratio (y) = 0.25039 0.39163
# Poissons Ratio (z) = -0.18710 0.60393
#
# Static dielectric constant tensor:
#      x y z
#    x 2.237940 -0.047130 0.040500 
#    y -0.047130 2.066980 0.069040 
#    z 0.040500 0.069040 2.162670 
# 
# From -- ./inp_files/69465.got.cif
#   From: 2010.05.17/outbox.cif.g08.bks.cpg/sg2_35_cif.got.tgz:69465.got - 2010.06.03 11:33:40.
