data_PCOD9006329
_publ_section_title
;
Structure prediction by ZEFSAII (Michael W. Deem and Ramdas Pophale) SiO2 
 PCOD9006329
Probable space group: P -1
;
_chemical_formula_sum "Si O2"
_cell_formula_units_Z 16
_cell_length_a 11.990368
_cell_length_b 9.137893
_cell_length_c 19.186097
_cell_angle_alpha 134.605925
_cell_angle_beta 36.876982
_cell_angle_gamma 108.221696
_cell_volume 729.778358
_symmetry_space_group_name_H-M "P -1"
_symmetry_group_IT_number 2
_symmetry_cell_setting 'triclinic'
loop_
_space_group_symop_operation_xyz
x,y,z
-x,-y,-z
loop_
_atom_site_type_symbol
_atom_site_label
_atom_site_fract_x
_atom_site_fract_y
_atom_site_fract_z
Si Si1 0.513857 0.736531 0.581782
Si Si2 0.057393 0.717486 0.160180
Si Si3 0.277480 0.722560 0.228008
Si Si4 0.590714 0.433190 0.168217
Si Si5 0.148359 0.841230 0.482956
Si Si6 0.955716 0.521181 0.781694
Si Si7 0.794742 0.060517 0.069901
Si Si8 0.329185 0.150167 0.699363
O O1 0.500000 0.500000 0.500000
O O2 0.418332 0.846083 0.742127
O O3 0.771596 0.643034 0.410018
O O4 0.360390 0.952974 0.674606
O O5 0.128923 0.496380 0.105101
O O6 0.917685 0.707585 0.164325
O O7 0.260528 0.718451 0.025065
O O8 0.888302 0.967339 0.374111
O O9 0.287131 0.799509 0.327646
O O10 0.133260 0.601619 0.264550
O O11 0.500000 0.500000 0.000000
O O12 0.116483 0.987188 0.354554
O O13 0.319896 0.562604 0.337849
O O14 0.710064 0.273404 0.124891
O O15 0.612473 0.666122 0.238056
O O16 0.868259 0.806035 0.908916
O O17 0.000000 0.000000 0.000000
O O18 0.500000 0.000000 0.500000
#
# Coordination Sequence:
#
# PCOD9006329 Si02
#       8
#     2   2   2   2   2   2   2   2
#     4  12  24  40  63  91 139 178 214 267 329 404
#     4  11  22  37  64  94 129 171 221 279 325 390
#     4  10  22  43  71  99 128 165 220 293 343 394
#     4  12  24  40  63  96 134 178 224 277 327 396
#     4  10  21  38  65  95 125 157 219 272 339 386
#     4  11  23  41  64  97 128 170 219 267 343 396
#     4  12  25  41  63  95 140 185 220 259 330 407
#     4  12  20  38  61  93 131 172 222 273 324 392
#
# _framework density 21.924465000000001
#
# number of rings (size 3 to 8) (size 9 to 14) (size 15 to 20)
#    0.000    0.750    3.750    5.625    0.000    3.000 
#    0.000    0.625    0.000    2.250    0.000    0.000 
#    0.000    0.000    0.000    0.000    0.000    0.000 
#
# Total GULP energy -89259.366110 kJ/mol
# GULP energy per Si atom -5578.710382 kJ/mol
# Density = 2.187456 g / cm^3
# Si number density = 21.924465 Si / 1000 Ang^3
#
#
#
# Elastic Constant Matrix: (Units=GPa)
#
#
# Indices 1 2 3 4 5 6 
#
# 1 92.0583 29.5004 36.3262 7.8449 1.9307 -15.8910
# 2 29.5004 94.8527 18.3380 10.6833 0.1970 -24.5687
# 3 36.3262 18.3380 126.4103 -5.6213 4.4137 -16.4209
# 4 7.8449 10.6833 -5.6213 36.9539 -5.0889 -0.2726
# 5 1.9307 0.1970 4.4137 -5.0889 37.7424 4.3199
# 6 -15.8910 -24.5687 -16.4209 -0.2726 4.3199 36.0911
#
#
#
# Elastic Compliance Matrix: (Units=1/GPa)
#
#
# Indices 1 2 3 4 5 6 
#
# 1 0.013745 -0.002569 -0.003288 -0.002794 -0.001015 0.002907
# 2 -0.002569 0.013991 -0.000318 -0.003673 -0.001359 0.008383
# 3 -0.003288 -0.000318 0.009384 0.002106 -0.000957 0.002736
# 4 -0.002794 -0.003673 0.002106 0.029600 0.004257 -0.003058
# 5 -0.001015 -0.001359 -0.000957 0.004257 0.027825 -0.005105
# 6 0.002907 0.008383 0.002736 -0.003058 -0.005105 0.036527
#
#
# Mechanical properties :
#
#
# Convention : Reuss Voigt Hill
#
# Bulk Modulus (GPa) = 40.37358 53.51671 46.94514
# Shear Modulus (GPa) = 32.96426 37.43459 35.19943
#
# Velocity S-wave (km/s) = 3.88175 4.13659 4.01120
# Velocity P-wave (km/s) = 6.20850 6.87589 6.55070
#
# Compressibility (1/GPa) = 0.02476868
#
# Stress axis : x y z
#
# Youngs Moduli (GPa) = 72.75523 71.47325 106.56139
#
# Poissons Ratio (x) = 0.18364 0.35040
# Poissons Ratio (y) = 0.18693 0.03391
# Poissons Ratio (z) = 0.23924 0.02274
#
# Static dielectric constant tensor:
#      x y z
#    x 2.065200 0.052040 -0.218840 
#    y 0.052040 1.817140 -0.043010 
#    z -0.218840 -0.043010 2.016060 
# 
# From -- ./inp_files/515538.got.cif
#   From: 2010.05.17/outbox.cif.g08.bks.cpg/sg2_258_cif.got.tgz:515538.got - 2010.06.03 11:33:40.
