data_PCOD9006230
_publ_section_title
;
Structure prediction by ZEFSAII (Michael W. Deem and Ramdas Pophale) SiO2 
 PCOD9006230
Probable space group: P -1
;
_chemical_formula_sum "Si O2"
_cell_formula_units_Z 14
_cell_length_a 7.366186
_cell_length_b 16.455398
_cell_length_c 11.844170
_cell_angle_alpha 143.832486
_cell_angle_beta 77.814240
_cell_angle_gamma 124.538508
_cell_volume 601.445350
_symmetry_space_group_name_H-M "P -1"
_symmetry_group_IT_number 2
_symmetry_cell_setting 'triclinic'
loop_
_space_group_symop_operation_xyz
x,y,z
-x,-y,-z
loop_
_atom_site_type_symbol
_atom_site_label
_atom_site_fract_x
_atom_site_fract_y
_atom_site_fract_z
Si Si1 0.627243 0.913076 0.982633
Si Si2 0.372959 0.774469 0.636105
Si Si3 0.415754 0.643577 0.082203
Si Si4 0.856098 0.860725 0.090206
Si Si5 0.953389 0.347559 0.153642
Si Si6 0.275467 0.108260 0.484270
Si Si7 0.083407 0.729036 0.185278
O O1 0.799231 0.909196 0.036484
O O2 0.716310 0.116888 0.201889
O O3 0.578305 0.840123 0.779496
O O4 0.340186 0.772113 0.914355
O O5 0.140894 0.551108 0.414278
O O6 0.508704 0.840226 0.570672
O O7 0.591632 0.708692 0.024013
O O8 0.591816 0.717835 0.253456
O O9 0.316134 0.751128 0.218751
O O10 0.158885 0.422862 0.874074
O O11 0.972016 0.769009 0.952529
O O12 0.049131 0.036537 0.348272
O O13 0.990986 0.369975 0.038998
O O14 0.162179 0.925049 0.368319
#
# Coordination Sequence:
#
# PCOD9006230 Si02
#       7
#     2   2   2   2   2   2   2
#     4  11  24  47  66  95 130 168 219 265 317 386
#     4  11  23  44  71  91 131 173 209 270 324 370
#     4  11  21  40  64  93 127 173 210 262 317 380
#     4  11  24  43  67  95 135 167 213 266 320 379
#     4  11  22  45  64  97 132 164 216 269 315 382
#     4  11  22  40  61  96 129 169 212 263 314 386
#     4  10  21  38  65  90 131 167 215 259 317 376
#
# _framework density 23.277259000000001
#
# number of rings (size 3 to 8) (size 9 to 14) (size 15 to 20)
#    0.000    1.143    5.714    1.286    0.000    3.429 
#    5.143    0.000    0.000    0.000    0.000    0.000 
#    0.000    0.000    0.000    0.000    0.000    0.000 
#
# Total GULP energy -78407.223095 kJ/mol
# GULP energy per Si atom -5600.515935 kJ/mol
# Density = 2.322428 g / cm^3
# Si number density = 23.277259 Si / 1000 Ang^3
#
#
#
# Elastic Constant Matrix: (Units=GPa)
#
#
# Indices 1 2 3 4 5 6 
#
# 1 111.5608 15.0116 27.3875 1.6145 27.3303 -24.6437
# 2 15.0116 76.7116 14.1145 -3.3842 5.0232 2.0758
# 3 27.3875 14.1145 119.0243 4.9084 10.6083 -12.2048
# 4 1.6145 -3.3842 4.9084 28.9852 4.2855 11.3773
# 5 27.3303 5.0232 10.6083 4.2855 18.8651 -8.0038
# 6 -24.6437 2.0758 -12.2048 11.3773 -8.0038 41.8981
#
#
#
# Elastic Compliance Matrix: (Units=1/GPa)
#
#
# Indices 1 2 3 4 5 6 
#
# 1 0.015186 -0.001689 -0.001092 -0.000111 -0.018726 0.005151
# 2 -0.001689 0.014123 -0.001575 0.003923 -0.002921 -0.003775
# 3 -0.001092 -0.001575 0.009344 -0.002450 -0.001631 0.002511
# 4 -0.000111 0.003923 -0.002450 0.044105 -0.016344 -0.016072
# 5 -0.018726 -0.002921 -0.001631 -0.016344 0.089900 0.010267
# 6 0.005151 -0.003775 0.002511 -0.016072 0.010267 0.034141
#
#
# Mechanical properties :
#
#
# Convention : Reuss Voigt Hill
#
# Bulk Modulus (GPa) = 33.39957 46.70266 40.05112
# Shear Modulus (GPa) = 22.17398 34.66857 28.42127
#
# Velocity S-wave (km/s) = 3.08977 3.86343 3.49806
# Velocity P-wave (km/s) = 5.20660 6.32524 5.79298
#
# Compressibility (1/GPa) = 0.02994051
#
# Stress axis : x y z
#
# Youngs Moduli (GPa) = 65.85027 70.80864 107.02570
#
# Poissons Ratio (x) = 0.11958 0.11691
# Poissons Ratio (y) = 0.11121 0.16853
# Poissons Ratio (z) = 0.07193 0.11150
#
# Static dielectric constant tensor:
#      x y z
#    x 1.891250 0.007250 0.010880 
#    y 0.007250 1.899120 -0.004280 
#    z 0.010880 -0.004280 1.831150 
# 
# From -- ./inp_files/403368.got.cif
#   From: 2010.05.17/outbox.cif.g08.bks.cpg/sg2_202_cif.got.tgz:403368.got - 2010.06.03 11:33:40.
