data_PCOD9006612
_publ_section_title
;
Structure prediction by ZEFSAII (Michael W. Deem and Ramdas Pophale) SiO2 
 PCOD9006612
Probable space group: P -1
;
_chemical_formula_sum "Si O2"
_cell_formula_units_Z 16
_cell_length_a 11.512454
_cell_length_b 11.226146
_cell_length_c 17.342135
_cell_angle_alpha 120.226334
_cell_angle_beta 22.490966
_cell_angle_gamma 120.497227
_cell_volume 734.705518
_symmetry_space_group_name_H-M "P -1"
_symmetry_group_IT_number 2
_symmetry_cell_setting 'triclinic'
loop_
_space_group_symop_operation_xyz
x,y,z
-x,-y,-z
loop_
_atom_site_type_symbol
_atom_site_label
_atom_site_fract_x
_atom_site_fract_y
_atom_site_fract_z
Si Si1 0.629426 0.131624 0.911520
Si Si2 0.559399 0.079440 0.603308
Si Si3 0.120331 0.301290 0.309708
Si Si4 0.643726 0.004269 0.702515
Si Si5 0.427919 0.686471 0.699301
Si Si6 0.694036 0.782287 0.414843
Si Si7 0.799850 0.531133 0.533703
Si Si8 0.217156 0.320351 0.841001
O O1 0.541531 0.091207 0.864740
O O2 0.990970 0.165117 0.715778
O O3 0.455123 0.259275 0.083399
O O4 0.500000 0.000000 0.000000
O O5 0.591305 0.067238 0.672055
O O6 0.290249 0.171402 0.780241
O O7 0.869560 0.166998 0.409207
O O8 0.541443 0.921186 0.533093
O O9 0.081979 0.356639 0.437948
O O10 0.043582 0.423031 0.339751
O O11 0.487887 0.845591 0.744640
O O12 0.000000 0.000000 0.500000
O O13 0.475440 0.692917 0.580535
O O14 0.680160 0.603514 0.556482
O O15 0.090216 0.635300 0.920817
O O16 0.779614 0.702707 0.260655
O O17 0.504727 0.435165 0.719063
#
# Coordination Sequence:
#
# PCOD9006612 Si02
#       8
#     2   2   2   2   2   2   2   2
#     4  12  20  36  64  99 124 155 203 258 324 374
#     4  10  21  40  62  93 126 158 202 264 319 372
#     4  10  21  38  67  91 120 166 205 264 318 361
#     4  11  20  37  64  94 126 154 201 264 323 368
#     4  11  23  40  65  89 126 172 207 260 308 372
#     4  11  23  38  64  98 124 161 207 258 318 381
#     4  10  22  42  63  86 127 171 216 250 308 372
#     4  11  24  42  62  88 127 176 210 250 308 378
#
# _framework density 21.777434
#
# number of rings (size 3 to 8) (size 9 to 14) (size 15 to 20)
#    0.000    1.250    3.750    3.750    0.000    2.500 
#    4.500    0.625    2.750    0.000    0.000    0.000 
#    0.000    0.000    0.000    0.000    0.000    0.000 
#
# Total GULP energy -89473.440396 kJ/mol
# GULP energy per Si atom -5592.090025 kJ/mol
# Density = 2.172787 g / cm^3
# Si number density = 21.777434 Si / 1000 Ang^3
#
#
#
# Elastic Constant Matrix: (Units=GPa)
#
#
# Indices 1 2 3 4 5 6 
#
# 1 85.3859 21.7040 25.9515 9.1049 7.8182 -12.3402
# 2 21.7040 68.7817 16.0847 13.7622 -0.4871 -13.9250
# 3 25.9515 16.0847 61.1114 8.2696 6.0406 -7.0962
# 4 9.1049 13.7622 8.2696 28.4000 -4.3501 -16.2773
# 5 7.8182 -0.4871 6.0406 -4.3501 30.8161 3.6190
# 6 -12.3402 -13.9250 -7.0962 -16.2773 3.6190 29.6399
#
#
#
# Elastic Compliance Matrix: (Units=1/GPa)
#
#
# Indices 1 2 3 4 5 6 
#
# 1 0.014749 -0.002712 -0.004716 -0.000261 -0.003368 0.004005
# 2 -0.002712 0.017712 -0.002446 -0.004653 0.000320 0.004012
# 3 -0.004716 -0.002446 0.019817 -0.003512 -0.003234 0.000098
# 4 -0.000261 -0.004653 -0.003512 0.054309 0.005289 0.026044
# 5 -0.003368 0.000320 -0.003234 0.005289 0.035090 -0.003406
# 6 0.004005 0.004012 0.000098 0.026044 -0.003406 0.052032
#
#
# Mechanical properties :
#
#
# Convention : Reuss Voigt Hill
#
# Bulk Modulus (GPa) = 30.74202 38.08438 34.41320
# Shear Modulus (GPa) = 22.29135 27.87378 25.08256
#
# Velocity S-wave (km/s) = 3.20284 3.58150 3.39745
# Velocity P-wave (km/s) = 5.27491 5.88463 5.58809
#
# Compressibility (1/GPa) = 0.03252877
#
# Stress axis : x y z
#
# Youngs Moduli (GPa) = 67.79955 56.45867 50.46292
#
# Poissons Ratio (x) = 0.15311 0.23800
# Poissons Ratio (y) = 0.18387 0.12345
# Poissons Ratio (z) = 0.31977 0.13812
#
# Static dielectric constant tensor:
#      x y z
#    x 1.799940 -0.010870 0.007380 
#    y -0.010870 1.809980 0.007620 
#    z 0.007380 0.007620 1.777380 
# 
# From -- ./inp_files/185877.got.cif
#   From: 2010.05.17/outbox.cif.g08.bks.cpg/sg2_93_cif.got.tgz:185877.got - 2010.06.03 11:33:40.
