data_PCOD9006106
_publ_section_title
;
Structure prediction by ZEFSAII (Michael W. Deem and Ramdas Pophale) SiO2 
 PCOD9006106
Probable space group: P -1
;
_chemical_formula_sum "Si O2"
_cell_formula_units_Z 14
_cell_length_a 5.431763
_cell_length_b 12.373896
_cell_length_c 11.563343
_cell_angle_alpha 109.731962
_cell_angle_beta 54.031490
_cell_angle_gamma 102.260052
_cell_volume 591.980879
_symmetry_space_group_name_H-M "P -1"
_symmetry_group_IT_number 2
_symmetry_cell_setting 'triclinic'
loop_
_space_group_symop_operation_xyz
x,y,z
-x,-y,-z
loop_
_atom_site_type_symbol
_atom_site_label
_atom_site_fract_x
_atom_site_fract_y
_atom_site_fract_z
Si Si1 0.348771 0.120777 0.557335
Si Si2 0.846847 0.373637 0.664277
Si Si3 0.973506 0.234542 0.373832
Si Si4 0.875051 0.258354 0.163546
Si Si5 0.609731 0.495149 0.333433
Si Si6 0.625318 0.815059 0.181324
Si Si7 0.373488 0.062945 0.283813
O O1 0.211065 0.159066 0.730074
O O2 0.207967 0.097108 0.462967
O O3 0.617252 0.211424 0.486887
O O4 0.500000 0.000000 0.500000
O O5 0.625237 0.449273 0.671928
O O6 0.639962 0.277921 0.751878
O O7 0.061438 0.312142 0.486857
O O8 0.064726 0.437353 0.719187
O O9 0.128474 0.110001 0.278864
O O10 0.018648 0.292516 0.260003
O O11 0.675988 0.366768 0.226072
O O12 0.663735 0.145786 0.207059
O O13 0.130062 0.229692 0.991359
O O14 0.500000 0.500000 0.500000
O O15 0.476942 0.933004 0.218310
#
# Coordination Sequence:
#
# PCOD9006106 Si02
#       7
#     2   2   2   2   2   2   2
#     4   8  18  36  59  87 126 167 219 271 328 399
#     4  11  26  45  73 105 133 183 237 289 348 402
#     4  10  21  38  64  97 124 175 233 275 340 404
#     4  11  24  41  67  96 138 179 229 284 350 408
#     4  12  25  47  76 100 135 181 243 291 336 414
#     4  10  23  44  62 104 140 177 220 288 352 418
#     4  10  21  42  68  97 133 181 233 275 341 418
#
# _framework density 23.649412000000002
#
# number of rings (size 3 to 8) (size 9 to 14) (size 15 to 20)
#    0.000    1.714    1.429    1.714    6.000    6.857 
#    7.714    0.000    0.000    0.000    0.000    0.000 
#    0.000    0.000    0.000    0.000    0.000    0.000 
#
# Total GULP energy -78211.347231 kJ/mol
# GULP energy per Si atom -5586.524802 kJ/mol
# Density = 2.359558 g / cm^3
# Si number density = 23.649412 Si / 1000 Ang^3
#
#
#
# Elastic Constant Matrix: (Units=GPa)
#
#
# Indices 1 2 3 4 5 6 
#
# 1 82.3357 52.0237 24.3931 4.6971 -19.7671 -10.7861
# 2 52.0237 150.3703 52.8934 8.0904 -19.5918 -15.1560
# 3 24.3931 52.8934 152.3823 -4.9340 -9.3676 -5.9934
# 4 4.6971 8.0904 -4.9340 27.6508 -3.8835 -16.6204
# 5 -19.7671 -19.5918 -9.3676 -3.8835 16.3532 2.8959
# 6 -10.7861 -15.1560 -5.9934 -16.6204 2.8959 59.1741
#
#
#
# Elastic Compliance Matrix: (Units=1/GPa)
#
#
# Indices 1 2 3 4 5 6 
#
# 1 0.019425 -0.004052 -0.000442 0.001597 0.018397 0.002006
# 2 -0.004052 0.009701 -0.002431 -0.001376 0.004851 0.000876
# 3 -0.000442 -0.002431 0.007693 0.002852 0.001496 0.000804
# 4 0.001597 -0.001376 0.002852 0.045859 0.010576 0.012590
# 5 0.018397 0.004851 0.001496 0.010576 0.091998 0.003215
# 6 0.002006 0.000876 0.000804 0.012590 0.003215 0.020950
#
#
# Mechanical properties :
#
#
# Convention : Reuss Voigt Hill
#
# Bulk Modulus (GPa) = 43.53370 71.52321 57.52846
# Shear Modulus (GPa) = 23.02765 37.68749 30.35757
#
# Velocity S-wave (km/s) = 3.12382 3.99631 3.58669
# Velocity P-wave (km/s) = 5.60882 7.18351 6.44444
#
# Compressibility (1/GPa) = 0.02297071
#
# Stress axis : x y z
#
# Youngs Moduli (GPa) = 51.48066 103.07737 129.99187
#
# Poissons Ratio (x) = 0.41766 0.05739
# Poissons Ratio (y) = 0.20859 0.31598
# Poissons Ratio (z) = 0.02273 0.25056
#
# Static dielectric constant tensor:
#      x y z
#    x 2.010060 0.039560 0.012830 
#    y 0.039560 1.980990 0.013690 
#    z 0.012830 0.013690 1.838850 
# 
# From -- ./inp_files/141057.got.cif
#   From: 2010.05.17/outbox.cif.g08.bks.cpg/sg2_71_cif.got.tgz:141057.got - 2010.06.03 11:33:40.
