data_PCOD9006826
_publ_section_title
;
Structure prediction by ZEFSAII (Michael W. Deem and Ramdas Pophale) SiO2 
 PCOD9006826
Probable space group: P -1
;
_chemical_formula_sum "Si O2"
_cell_formula_units_Z 12
_cell_length_a 13.657953
_cell_length_b 5.803652
_cell_length_c 7.477210
_cell_angle_alpha 70.582271
_cell_angle_beta 95.330491
_cell_angle_gamma 58.549683
_cell_volume 449.968509
_symmetry_space_group_name_H-M "P -1"
_symmetry_group_IT_number 2
_symmetry_cell_setting 'triclinic'
loop_
_space_group_symop_operation_xyz
x,y,z
-x,-y,-z
loop_
_atom_site_type_symbol
_atom_site_label
_atom_site_fract_x
_atom_site_fract_y
_atom_site_fract_z
Si Si1 0.139996 0.047068 0.538639
Si Si2 0.640360 0.770930 0.124620
Si Si3 0.649150 0.265187 0.112890
Si Si4 0.568854 0.658134 0.517717
Si Si5 0.987064 0.704591 0.181988
Si Si6 0.173175 0.822491 0.225462
O O1 0.085999 0.073210 0.718531
O O2 0.044570 0.376620 0.353929
O O3 0.279976 0.924042 0.639686
O O4 0.148432 0.847872 0.427887
O O5 0.688954 0.490657 0.075216
O O6 0.629451 0.678943 0.344797
O O7 0.689182 0.973369 0.077941
O O8 0.500000 0.000000 0.000000
O O9 0.500000 0.500000 0.000000
O O10 0.500000 0.500000 0.500000
O O11 0.682998 0.403402 0.722098
O O12 0.500000 0.000000 0.500000
O O13 0.103961 0.697002 0.160522
O O14 0.897387 0.846979 0.961376
#
# Coordination Sequence:
#
# PCOD9006826 Si02
#       6
#     2   2   2   2   2   2
#     4  11  22  43  73 100 140 185 245 292 362 431
#     4  10  21  40  64  93 134 183 224 278 347 423
#     4  10  21  38  70 100 140 182 227 293 364 420
#     4  12  27  45  70 105 143 188 235 294 373 437
#     4  10  25  44  71 105 133 193 249 289 362 428
#     4  11  24  46  71  98 149 182 238 310 355 424
#
# _framework density 26.668531999999999
#
# number of rings (size 3 to 8) (size 9 to 14) (size 15 to 20)
#    0.000    1.333    1.667    3.000    2.333    5.333 
#    0.000    0.000    0.000    0.000    0.000    0.000 
#    0.000    0.000    0.000    0.000    0.000    0.000 
#
# Total GULP energy -66826.922177 kJ/mol
# GULP energy per Si atom -5568.910181 kJ/mol
# Density = 2.660783 g / cm^3
# Si number density = 26.668532 Si / 1000 Ang^3
#
#
#
# Elastic Constant Matrix: (Units=GPa)
#
#
# Indices 1 2 3 4 5 6 
#
# 1 108.1253 71.5450 30.6502 8.0874 15.8662 8.4323
# 2 71.5450 199.0983 55.8673 -13.5640 16.4527 25.9549
# 3 30.6502 55.8673 161.5839 -9.5183 21.2498 -14.9002
# 4 8.0874 -13.5640 -9.5183 54.6133 -10.4297 7.5224
# 5 15.8662 16.4527 21.2498 -10.4297 52.7978 -2.5482
# 6 8.4323 25.9549 -14.9002 7.5224 -2.5482 48.2112
#
#
#
# Elastic Compliance Matrix: (Units=1/GPa)
#
#
# Indices 1 2 3 4 5 6 
#
# 1 0.013194 -0.004611 -0.000706 -0.003847 -0.002985 0.000399
# 2 -0.004611 0.008102 -0.002198 0.002979 0.000107 -0.004694
# 3 -0.000706 -0.002198 0.007678 0.000020 -0.002017 0.003570
# 4 -0.003847 0.002979 0.000020 0.020967 0.004170 -0.003976
# 5 -0.002985 0.000107 -0.002017 0.004170 0.021455 0.000324
# 6 0.000399 -0.004694 0.003570 -0.003976 0.000324 0.024940
#
#
# Mechanical properties :
#
#
# Convention : Reuss Voigt Hill
#
# Bulk Modulus (GPa) = 71.70993 87.21475 79.46234
# Shear Modulus (GPa) = 43.09786 51.84080 47.46933
#
# Velocity S-wave (km/s) = 4.02438 4.41374 4.22355
# Velocity P-wave (km/s) = 6.96720 7.66480 7.32431
#
# Compressibility (1/GPa) = 0.01394507
#
# Stress axis : x y z
#
# Youngs Moduli (GPa) = 75.79223 123.42249 130.23640
#
# Poissons Ratio (x) = 0.56904 0.09194
# Poissons Ratio (y) = 0.34944 0.28630
# Poissons Ratio (z) = 0.05351 0.27132
#
# Static dielectric constant tensor:
#      x y z
#    x 2.129430 -0.037090 0.031320 
#    y -0.037090 2.132390 0.018990 
#    z 0.031320 0.018990 2.054010 
# 
# From -- ./inp_files/287854.got.cif
#   From: 2010.05.17/outbox.cif.g08.bks.cpg/sg2_144_cif.got.tgz:287854.got - 2010.06.03 11:33:40.
