data_PCOD9006224
_publ_section_title
;
Structure prediction by ZEFSAII (Michael W. Deem and Ramdas Pophale) SiO2 
 PCOD9006224
Probable space group: P -1
;
_chemical_formula_sum "Si O2"
_cell_formula_units_Z 16
_cell_length_a 7.955432
_cell_length_b 14.166041
_cell_length_c 22.525144
_cell_angle_alpha 22.866689
_cell_angle_beta 43.257959
_cell_angle_gamma 45.035610
_cell_volume 669.913306
_symmetry_space_group_name_H-M "P -1"
_symmetry_group_IT_number 2
_symmetry_cell_setting 'triclinic'
loop_
_space_group_symop_operation_xyz
x,y,z
-x,-y,-z
loop_
_atom_site_type_symbol
_atom_site_label
_atom_site_fract_x
_atom_site_fract_y
_atom_site_fract_z
Si Si1 0.880870 0.802115 0.607287
Si Si2 0.770504 0.079721 0.366772
Si Si3 0.576912 0.117060 0.787519
Si Si4 0.767889 0.410762 0.671230
Si Si5 0.681912 0.643355 0.096701
Si Si6 0.933438 0.750799 0.086944
Si Si7 0.738643 0.856946 0.253529
Si Si8 0.353915 0.026094 0.657210
O O1 0.598549 0.856576 0.670227
O O2 0.970923 0.520909 0.758153
O O3 0.932536 0.883612 0.479836
O O4 0.000000 0.000000 0.500000
O O5 0.762818 0.359523 0.225953
O O6 0.837670 0.053895 0.295498
O O7 0.500000 0.000000 0.500000
O O8 0.756692 0.256930 0.702013
O O9 0.321753 0.173748 0.857513
O O10 0.489762 0.198382 0.696494
O O11 0.653840 0.825717 0.942953
O O12 0.579239 0.334355 0.813549
O O13 0.041534 0.358829 0.659288
O O14 0.657606 0.687139 0.522756
O O15 0.869744 0.734072 0.043260
O O16 0.123505 0.944873 0.932236
O O17 0.659155 0.980786 0.265227
#
# Coordination Sequence:
#
# PCOD9006224 Si02
#       8
#     2   2   2   2   2   2   2   2
#     4  11  21  41  66  94 119 164 217 261 311 373
#     4  10  21  38  65  90 123 163 209 261 313 365
#     4  11  24  40  69  96 123 169 216 265 312 373
#     4  11  21  45  66  91 130 161 213 271 314 372
#     4  11  19  42  67  95 123 162 218 271 309 371
#     4  11  22  39  66  95 130 162 216 264 313 381
#     4  12  26  41  62  97 131 172 209 255 325 381
#     4  11  26  43  60  93 133 167 209 262 316 384
#
# _framework density 23.883686000000001
#
# number of rings (size 3 to 8) (size 9 to 14) (size 15 to 20)
#    0.000    1.000    6.250    2.250    5.250    1.000 
#    2.250    0.625    0.000    0.000    0.000    0.000 
#    0.000    0.000    0.000    0.000    0.000    0.000 
#
# Total GULP energy -89401.280976 kJ/mol
# GULP energy per Si atom -5587.580061 kJ/mol
# Density = 2.382933 g / cm^3
# Si number density = 23.883686 Si / 1000 Ang^3
#
#
#
# Elastic Constant Matrix: (Units=GPa)
#
#
# Indices 1 2 3 4 5 6 
#
# 1 104.4939 5.5196 22.6839 4.6605 29.3024 26.4345
# 2 5.5196 64.3642 17.8507 1.6163 14.2704 13.2819
# 3 22.6839 17.8507 96.2398 -20.9951 23.2536 -16.9677
# 4 4.6605 1.6163 -20.9951 30.6360 -1.4078 7.6615
# 5 29.3024 14.2704 23.2536 -1.4078 35.1256 -3.6174
# 6 26.4345 13.2819 -16.9677 7.6615 -3.6174 39.5875
#
#
#
# Elastic Compliance Matrix: (Units=1/GPa)
#
#
# Indices 1 2 3 4 5 6 
#
# 1 0.021525 0.008760 -0.006550 -0.003830 -0.019512 -0.021161
# 2 0.008760 0.023483 -0.006792 -0.003567 -0.014271 -0.017253
# 3 -0.006550 -0.006792 0.018187 0.010672 -0.002133 0.012187
# 4 -0.003830 -0.003567 0.010672 0.040590 -0.000753 0.000404
# 5 -0.019512 -0.014271 -0.002133 -0.000753 0.054192 0.022000
# 6 -0.021161 -0.017253 0.012187 0.000404 0.022000 0.052335
#
#
# Mechanical properties :
#
#
# Convention : Reuss Voigt Hill
#
# Bulk Modulus (GPa) = 18.50842 39.68960 29.09901
# Shear Modulus (GPa) = 21.05374 35.67272 28.36323
#
# Velocity S-wave (km/s) = 2.97225 3.86891 3.44983
# Velocity P-wave (km/s) = 4.42100 6.05077 5.29892
#
# Compressibility (1/GPa) = 0.05402946
#
# Stress axis : x y z
#
# Youngs Moduli (GPa) = 46.45801 42.58393 54.98487
#
# Poissons Ratio (x) = -0.37302 0.36016
# Poissons Ratio (y) = -0.40696 0.37346
# Poissons Ratio (z) = 0.30431 0.28924
#
# Static dielectric constant tensor:
#      x y z
#    x 2.010640 0.012230 -0.011270 
#    y 0.012230 1.893830 0.029360 
#    z -0.011270 0.029360 1.958310 
# 
# From -- ./inp_files/218344.got.cif
#   From: 2010.05.17/outbox.cif.g08.bks.cpg/sg2_110_cif.got.tgz:218344.got - 2010.06.03 11:33:40.
