data_PCOD9006286
_publ_section_title
;
Structure prediction by ZEFSAII (Michael W. Deem and Ramdas Pophale) SiO2 
 PCOD9006286
Probable space group: P -1
;
_chemical_formula_sum "Si O2"
_cell_formula_units_Z 16
_cell_length_a 18.374222
_cell_length_b 7.974723
_cell_length_c 6.761004
_cell_angle_alpha 53.901855
_cell_angle_beta 92.654033
_cell_angle_gamma 102.840819
_cell_volume 775.946752
_symmetry_space_group_name_H-M "P -1"
_symmetry_group_IT_number 2
_symmetry_cell_setting 'triclinic'
loop_
_space_group_symop_operation_xyz
x,y,z
-x,-y,-z
loop_
_atom_site_type_symbol
_atom_site_label
_atom_site_fract_x
_atom_site_fract_y
_atom_site_fract_z
Si Si1 0.517280 0.204129 0.203372
Si Si2 0.890643 0.549383 0.802888
Si Si3 0.359271 0.238159 0.274393
Si Si4 0.432323 0.595392 0.330029
Si Si5 0.775068 0.630625 0.044908
Si Si6 0.092324 0.256623 0.736461
Si Si7 0.653890 0.257300 0.423602
Si Si8 0.979092 0.214614 0.087051
O O1 0.443370 0.289344 0.160408
O O2 0.598062 0.325108 0.211626
O O3 0.500000 0.000000 0.500000
O O4 0.532607 0.225887 0.955404
O O5 0.882220 0.575366 0.551352
O O6 0.964117 0.727144 0.763678
O O7 0.819678 0.579562 0.894827
O O8 0.911764 0.330098 0.014949
O O9 0.373798 0.391593 0.363018
O O10 0.342092 0.980401 0.472820
O O11 0.291665 0.269880 0.107591
O O12 0.500000 0.500000 0.500000
O O13 0.387496 0.709054 0.400697
O O14 0.837733 0.766048 0.104206
O O15 0.734524 0.416163 0.304362
O O16 0.053072 0.031891 0.789367
O O17 0.031485 0.313956 0.837337
#
# Coordination Sequence:
#
# PCOD9006286 Si02
#       8
#     2   2   2   2   2   2   2   2
#     4  10  22  44  67  97 130 167 230 286 323 395
#     4  10  21  39  65  90 128 166 204 261 322 377
#     4  11  24  45  64  93 135 172 219 281 329 393
#     4  12  23  42  75  96 124 178 229 282 343 391
#     4  11  25  42  57  93 138 166 213 268 322 399
#     4  10  21  38  65  93 126 163 211 255 320 389
#     4  11  25  45  64  94 134 174 224 280 329 396
#     4   9  20  40  65  97 118 158 213 263 304 387
#
# _framework density 20.619972000000001
#
# number of rings (size 3 to 8) (size 9 to 14) (size 15 to 20)
#    0.000    1.500    2.500    1.875    1.750    4.000 
#    4.500    2.500    0.000    0.000    0.000    0.000 
#    0.000    0.000    0.000    0.000    0.000    0.000 
#
# Total GULP energy -89139.112604 kJ/mol
# GULP energy per Si atom -5571.194538 kJ/mol
# Density = 2.057304 g / cm^3
# Si number density = 20.619972 Si / 1000 Ang^3
#
#
#
# Elastic Constant Matrix: (Units=GPa)
#
#
# Indices 1 2 3 4 5 6 
#
# 1 77.0725 -1.9805 27.8784 -3.2620 15.9065 -15.5887
# 2 -1.9805 70.7541 13.3912 0.4915 8.9319 -10.8733
# 3 27.8784 13.3912 109.9602 7.6614 3.7131 -9.4748
# 4 -3.2620 0.4915 7.6614 25.4635 4.3789 1.4563
# 5 15.9065 8.9319 3.7131 4.3789 22.3995 -2.4377
# 6 -15.5887 -10.8733 -9.4748 1.4563 -2.4377 12.6398
#
#
#
# Elastic Compliance Matrix: (Units=1/GPa)
#
#
# Indices 1 2 3 4 5 6 
#
# 1 0.025036 0.008527 -0.004534 0.005789 -0.018225 0.030631
# 2 0.008527 0.019836 -0.002317 0.002034 -0.011431 0.023405
# 3 -0.004534 -0.002317 0.010874 -0.004494 0.003409 0.001741
# 4 0.005789 0.002034 -0.004494 0.043665 -0.012931 -0.002004
# 5 -0.018225 -0.011431 0.003409 -0.012931 0.062340 -0.016243
# 6 0.030631 0.023405 0.001741 -0.002004 -0.016243 0.135430
#
#
# Mechanical properties :
#
#
# Convention : Reuss Voigt Hill
#
# Bulk Modulus (GPa) = 16.92104 37.37389 27.14746
# Shear Modulus (GPa) = 15.94754 26.66707 21.30731
#
# Velocity S-wave (km/s) = 2.78403 3.60010 3.21804
# Velocity P-wave (km/s) = 4.30794 5.95360 5.19633
#
# Compressibility (1/GPa) = 0.05909802
#
# Stress axis : x y z
#
# Youngs Moduli (GPa) = 39.94250 50.41263 91.96285
#
# Poissons Ratio (x) = -0.42986 0.41700
# Poissons Ratio (y) = -0.34058 0.21304
# Poissons Ratio (z) = 0.18112 0.11678
#
# Static dielectric constant tensor:
#      x y z
#    x 1.719420 0.018160 -0.000990 
#    y 0.018160 1.801640 -0.027100 
#    z -0.000990 -0.027100 1.787350 
# 
# From -- ./inp_files/104557.got.cif
#   From: 2010.05.17/outbox.cif.g08.bks.cpg/sg2_53_cif.got.tgz:104557.got - 2010.06.03 11:33:40.
