data_PCOD9006502
_publ_section_title
;
Structure prediction by ZEFSAII (Michael W. Deem and Ramdas Pophale) SiO2 
 PCOD9006502
Probable space group: P -1
;
_chemical_formula_sum "Si O2"
_cell_formula_units_Z 14
_cell_length_a 9.687749
_cell_length_b 9.478971
_cell_length_c 18.962003
_cell_angle_alpha 149.130312
_cell_angle_beta 53.066713
_cell_angle_gamma 123.941712
_cell_volume 710.288067
_symmetry_space_group_name_H-M "P -1"
_symmetry_group_IT_number 2
_symmetry_cell_setting 'triclinic'
loop_
_space_group_symop_operation_xyz
x,y,z
-x,-y,-z
loop_
_atom_site_type_symbol
_atom_site_label
_atom_site_fract_x
_atom_site_fract_y
_atom_site_fract_z
Si Si1 0.535317 0.181705 0.970933
Si Si2 0.171450 0.206251 0.646174
Si Si3 0.885057 0.442768 0.581761
Si Si4 0.892672 0.399041 0.922139
Si Si5 0.956004 0.387417 0.246281
Si Si6 0.504459 0.426583 0.231762
Si Si7 0.758584 0.801994 0.030447
O O1 0.738368 0.169672 0.891036
O O2 0.435373 0.245670 0.958733
O O3 0.451285 0.879572 0.890981
O O4 0.516593 0.406582 0.134407
O O5 0.122401 0.340935 0.644282
O O6 0.357211 0.347241 0.677845
O O7 0.026924 0.303773 0.784633
O O8 0.151650 0.877635 0.519657
O O9 0.692522 0.535793 0.671435
O O10 0.000000 0.500000 0.500000
O O11 0.985336 0.589572 0.680910
O O12 0.798389 0.643208 0.020700
O O13 0.000000 0.500000 0.000000
O O14 0.816781 0.124313 0.162778
O O15 0.120999 0.315681 0.117961
#
# Coordination Sequence:
#
# PCOD9006502 Si02
#       7
#     2   2   2   2   2   2   2
#     4  11  21  39  63  97 128 158 208 264 317 368
#     4  11  23  44  62  92 128 172 209 253 317 384
#     4  12  26  42  65  91 129 169 214 260 312 376
#     4  11  23  36  65  99 127 158 207 269 315 365
#     4  10  22  41  66  92 122 170 213 255 315 375
#     4  11  23  39  66  91 125 168 210 257 314 376
#     4  10  21  38  66  93 129 161 206 263 319 370
#
# _framework density 19.710312999999999
#
# number of rings (size 3 to 8) (size 9 to 14) (size 15 to 20)
#    0.000    1.143    4.286    2.143    4.000    0.000 
#    0.000    0.714    0.000    0.000    0.000    0.000 
#    0.000    0.000    0.000    0.000    0.000    0.000 
#
# Total GULP energy -78163.063998 kJ/mol
# GULP energy per Si atom -5583.076000 kJ/mol
# Density = 1.966545 g / cm^3
# Si number density = 19.710313 Si / 1000 Ang^3
#
#
#
# Elastic Constant Matrix: (Units=GPa)
#
#
# Indices 1 2 3 4 5 6 
#
# 1 129.2818 29.2205 42.0640 -3.4033 24.6286 19.8266
# 2 29.2205 72.2565 28.5069 -0.2153 12.3073 7.2180
# 3 42.0640 28.5069 49.9564 2.1020 1.8229 -8.5016
# 4 -3.4033 -0.2153 2.1020 34.5409 -3.5670 -7.0186
# 5 24.6286 12.3073 1.8229 -3.5670 30.4798 -4.2357
# 6 19.8266 7.2180 -8.5016 -7.0186 -4.2357 28.6534
#
#
#
# Elastic Compliance Matrix: (Units=1/GPa)
#
#
# Indices 1 2 3 4 5 6 
#
# 1 0.029845 0.012811 -0.038041 -0.006617 -0.033590 -0.041751
# 2 0.012811 0.027934 -0.030703 -0.005319 -0.024579 -0.029948
# 3 -0.038041 -0.030703 0.078785 0.009952 0.048914 0.067101
# 4 -0.006617 -0.005319 0.009952 0.032883 0.013374 0.018903
# 5 -0.033590 -0.024579 0.048914 0.013374 0.076652 0.058554
# 6 -0.041751 -0.029948 0.067101 0.018903 0.058554 0.104529
#
#
# Mechanical properties :
#
#
# Convention : Reuss Voigt Hill
#
# Bulk Modulus (GPa) = 40.49080 50.11973 45.30526
# Shear Modulus (GPa) = 10.62188 28.84837 19.73512
#
# Velocity S-wave (km/s) = 2.32394 3.82988 3.16770
# Velocity P-wave (km/s) = 5.27148 6.71123 6.03445
#
# Compressibility (1/GPa) = 0.02469697
#
# Stress axis : x y z
#
# Youngs Moduli (GPa) = 33.50701 35.79837 12.69277
#
# Poissons Ratio (x) = -0.45863 0.48285
# Poissons Ratio (y) = -0.42927 0.38971
# Poissons Ratio (z) = 1.27465 1.09913
#
# Static dielectric constant tensor:
#      x y z
#    x 1.677190 -0.029490 -0.030050 
#    y -0.029490 1.738620 0.027710 
#    z -0.030050 0.027710 1.653720 
# 
# From -- ./inp_files/156980.got.cif
#   From: 2010.05.17/outbox.cif.g08.bks.cpg/sg2_79_cif.got.tgz:156980.got - 2010.06.03 11:33:40.
