data_PCOD9006177
_publ_section_title
;
Structure prediction by ZEFSAII (Michael W. Deem and Ramdas Pophale) SiO2 
 PCOD9006177
Probable space group: P -1
;
_chemical_formula_sum "Si O2"
_cell_formula_units_Z 14
_cell_length_a 12.932352
_cell_length_b 23.303050
_cell_length_c 5.118576
_cell_angle_alpha 83.558436
_cell_angle_beta 114.570477
_cell_angle_gamma 150.270162
_cell_volume 580.172090
_symmetry_space_group_name_H-M "P -1"
_symmetry_group_IT_number 2
_symmetry_cell_setting 'triclinic'
loop_
_space_group_symop_operation_xyz
x,y,z
-x,-y,-z
loop_
_atom_site_type_symbol
_atom_site_label
_atom_site_fract_x
_atom_site_fract_y
_atom_site_fract_z
Si Si1 0.761817 0.155416 0.808853
Si Si2 0.740591 0.874712 0.485526
Si Si3 0.124218 0.887372 0.687848
Si Si4 0.640420 0.942215 0.647353
Si Si5 0.589494 0.680057 0.476909
Si Si6 0.368408 0.410096 0.154434
Si Si7 0.814614 0.424505 0.096078
O O1 0.668744 0.178700 0.675694
O O2 0.500000 0.000000 0.500000
O O3 0.799793 0.143254 0.139910
O O4 0.044329 0.272250 0.901943
O O5 0.708709 0.908801 0.653762
O O6 0.726144 0.804387 0.634938
O O7 0.452979 0.740577 0.093004
O O8 0.000000 0.000000 0.500000
O O9 0.807015 0.749390 0.484677
O O10 0.193313 0.943740 0.451321
O O11 0.276708 0.998827 0.006403
O O12 0.557945 0.623181 0.714653
O O13 0.321153 0.575268 0.093076
O O14 0.500000 0.500000 0.500000
O O15 0.500000 0.500000 0.000000
O O16 0.000000 0.500000 0.500000
O O17 0.000000 0.500000 0.000000
#
# Coordination Sequence:
#
# PCOD9006177 Si02
#       7
#     2   2   2   2   2   2   2
#     4   9  22  43  71 103 140 182 239 307 358 414
#     4  10  22  45  73 106 143 192 242 295 358 442
#     4  10  21  38  65 102 141 181 228 298 359 416
#     4  11  21  38  64 105 141 178 235 295 357 421
#     4   9  23  45  71 102 146 185 243 295 361 431
#     4  11  26  48  75 103 139 195 245 295 364 436
#     4  10  24  44  66  97 145 189 229 290 362 419
#
# _framework density 24.130772
#
# number of rings (size 3 to 8) (size 9 to 14) (size 15 to 20)
#    0.857    1.143    1.429    0.429    0.000   15.429 
#    0.000    1.429    0.000    0.000    0.000    0.000 
#    0.000    0.000    0.000    0.000    0.000    0.000 
#
# Total GULP energy -78260.486809 kJ/mol
# GULP energy per Si atom -5590.034772 kJ/mol
# Density = 2.407585 g / cm^3
# Si number density = 24.130772 Si / 1000 Ang^3
#
#
#
# Elastic Constant Matrix: (Units=GPa)
#
#
# Indices 1 2 3 4 5 6 
#
# 1 116.8591 48.6978 52.7372 -5.9143 18.8096 -10.1378
# 2 48.6978 153.8657 62.8502 -6.7737 4.7083 6.4924
# 3 52.7372 62.8502 154.6325 10.7257 10.0822 10.5792
# 4 -5.9143 -6.7737 10.7257 41.4482 2.5284 8.7279
# 5 18.8096 4.7083 10.0822 2.5284 50.6498 2.9462
# 6 -10.1378 6.4924 10.5792 8.7279 2.9462 45.0208
#
#
#
# Elastic Compliance Matrix: (Units=1/GPa)
#
#
# Indices 1 2 3 4 5 6 
#
# 1 0.012086 -0.002475 -0.003230 0.001598 -0.003915 0.003784
# 2 -0.002475 0.008519 -0.002693 0.002031 0.000654 -0.001590
# 3 -0.003230 -0.002693 0.008995 -0.002823 -0.000089 -0.001900
# 4 0.001598 0.002031 -0.002823 0.026402 -0.001288 -0.004304
# 5 -0.003915 0.000654 -0.000089 -0.001288 0.021341 -0.002102
# 6 0.003784 -0.001590 -0.001900 -0.004304 -0.002102 0.024711
#
#
# Mechanical properties :
#
#
# Convention : Reuss Voigt Hill
#
# Bulk Modulus (GPa) = 78.10954 83.76974 80.93964
# Shear Modulus (GPa) = 40.61119 44.82857 42.71988
#
# Velocity S-wave (km/s) = 4.10684 4.31482 4.21212
# Velocity P-wave (km/s) = 7.41133 7.72100 7.56775
#
# Compressibility (1/GPa) = 0.01280253
#
# Stress axis : x y z
#
# Youngs Moduli (GPa) = 82.74119 117.38320 111.17420
#
# Poissons Ratio (x) = 0.29054 0.35913
# Poissons Ratio (y) = 0.20480 0.29942
# Poissons Ratio (z) = 0.26728 0.31614
#
# Static dielectric constant tensor:
#      x y z
#    x 2.030200 -0.045610 0.013470 
#    y -0.045610 1.925770 0.015560 
#    z 0.013470 0.015560 1.977610 
# 
# From -- ./inp_files/101513.got.cif
#   From: 2010.05.17/outbox.cif.g08.bks.cpg/sg2_51_cif.got.tgz:101513.got - 2010.06.03 11:33:40.
