data_PCOD9006447
_publ_section_title
;
Structure prediction by ZEFSAII (Michael W. Deem and Ramdas Pophale) SiO2 
 PCOD9006447
Probable space group: P -1
;
_chemical_formula_sum "Si O2"
_cell_formula_units_Z 16
_cell_length_a 11.646180
_cell_length_b 6.842849
_cell_length_c 18.780277
_cell_angle_alpha 125.014944
_cell_angle_beta 45.573741
_cell_angle_gamma 91.621000
_cell_volume 673.830705
_symmetry_space_group_name_H-M "P -1"
_symmetry_group_IT_number 2
_symmetry_cell_setting 'triclinic'
loop_
_space_group_symop_operation_xyz
x,y,z
-x,-y,-z
loop_
_atom_site_type_symbol
_atom_site_label
_atom_site_fract_x
_atom_site_fract_y
_atom_site_fract_z
Si Si1 0.013273 0.169864 0.782747
Si Si2 0.726407 0.153826 0.201994
Si Si3 0.538806 0.441330 0.203432
Si Si4 0.682690 0.545869 0.480907
Si Si5 0.529051 0.551111 0.079804
Si Si6 0.837758 0.746882 0.566152
Si Si7 0.835768 0.891394 0.449508
Si Si8 0.859635 0.473681 0.130476
O O1 0.035396 0.168495 0.687699
O O2 0.137512 0.270775 0.784404
O O3 0.767400 0.414917 0.953982
O O4 0.131780 0.820031 0.685294
O O5 0.641863 0.176360 0.162956
O O6 0.549214 0.333936 0.376950
O O7 0.824988 0.321283 0.179747
O O8 0.916753 0.797044 0.057968
O O9 0.681991 0.548366 0.169659
O O10 0.323952 0.743811 0.390723
O O11 0.520758 0.380394 0.116846
O O12 0.725488 0.626865 0.555792
O O13 0.712571 0.754232 0.462977
O O14 0.500000 0.500000 0.000000
O O15 0.340689 0.911376 0.254715
O O16 0.946353 0.753724 0.449256
O O17 0.000000 0.500000 0.500000
#
# Coordination Sequence:
#
# PCOD9006447 Si02
#       8
#     2   2   2   2   2   2   2   2
#     4  12  22  42  64  98 134 159 216 273 311 370
#     4   9  18  41  62  93 127 177 207 259 322 381
#     4   9  19  43  64  89 128 170 215 247 327 386
#     4  10  21  38  66  88 133 173 208 264 316 387
#     4  11  24  41  67  97 125 163 220 275 313 378
#     4   9  20  44  62  87 129 166 218 260 313 390
#     4   9  22  39  63  92 127 174 210 255 320 391
#     4   9  21  36  67  95 132 166 216 263 315 384
#
# _framework density 23.744834000000001
#
# number of rings (size 3 to 8) (size 9 to 14) (size 15 to 20)
#    1.500    0.750    1.250    1.500    0.000    3.500 
#    2.250    3.750    0.000    0.000    0.000    0.000 
#    0.000    0.000    0.000    0.000    0.000    0.000 
#
# Total GULP energy -89217.022546 kJ/mol
# GULP energy per Si atom -5576.063909 kJ/mol
# Density = 2.369079 g / cm^3
# Si number density = 23.744834 Si / 1000 Ang^3
#
#
#
# Elastic Constant Matrix: (Units=GPa)
#
#
# Indices 1 2 3 4 5 6 
#
# 1 64.2401 10.7844 18.5798 -0.2006 17.8604 -25.5036
# 2 10.7844 65.9804 20.0778 -3.0258 2.7458 -20.3575
# 3 18.5798 20.0778 92.7435 -12.6191 5.6024 -23.4972
# 4 -0.2006 -3.0258 -12.6191 37.7637 -1.3762 4.1413
# 5 17.8604 2.7458 5.6024 -1.3762 36.3193 0.8608
# 6 -25.5036 -20.3575 -23.4972 4.1413 0.8608 43.9578
#
#
#
# Elastic Compliance Matrix: (Units=1/GPa)
#
#
# Indices 1 2 3 4 5 6 
#
# 1 0.025197 0.001291 -0.001026 -0.002230 -0.012773 0.015128
# 2 0.001291 0.018139 -0.002040 -0.000180 -0.001891 0.008113
# 3 -0.001026 -0.002040 0.013349 0.003662 -0.001386 0.005277
# 4 -0.002230 -0.000180 0.003662 0.027967 0.001655 -0.002087
# 5 -0.012773 -0.001891 -0.001386 0.001655 0.034468 -0.009858
# 6 0.015128 0.008113 0.005277 -0.002087 -0.009858 0.038494
#
#
# Mechanical properties :
#
#
# Convention : Reuss Voigt Hill
#
# Bulk Modulus (GPa) = 18.82044 35.76088 27.29066
# Shear Modulus (GPa) = 27.95204 35.17627 31.56416
#
# Velocity S-wave (km/s) = 3.43473 3.85311 3.64992
# Velocity P-wave (km/s) = 4.86551 5.90664 5.41117
#
# Compressibility (1/GPa) = 0.05313373
#
# Stress axis : x y z
#
# Youngs Moduli (GPa) = 39.68709 55.12836 74.91274
#
# Poissons Ratio (x) = -0.07116 0.07688
# Poissons Ratio (y) = -0.05123 0.15285
# Poissons Ratio (z) = 0.04073 0.11248
#
# Static dielectric constant tensor:
#      x y z
#    x 1.998290 0.023070 -0.020990 
#    y 0.023070 1.966820 -0.049540 
#    z -0.020990 -0.049540 1.880670 
# 
# From -- ./inp_files/593738.got.cif
#   From: 2010.05.17/outbox.cif.g08.bks.cpg/sg2_297_cif.got.tgz:593738.got - 2010.06.03 11:33:40.
