data_PCOD9006732
_publ_section_title
;
Structure prediction by ZEFSAII (Michael W. Deem and Ramdas Pophale) SiO2 
 PCOD9006732
Probable space group: P -1
;
_chemical_formula_sum "Si O2"
_cell_formula_units_Z 16
_cell_length_a 8.884747
_cell_length_b 13.309470
_cell_length_c 8.395318
_cell_angle_alpha 104.580666
_cell_angle_beta 131.253325
_cell_angle_gamma 75.901410
_cell_volume 718.199897
_symmetry_space_group_name_H-M "P -1"
_symmetry_group_IT_number 2
_symmetry_cell_setting 'triclinic'
loop_
_space_group_symop_operation_xyz
x,y,z
-x,-y,-z
loop_
_atom_site_type_symbol
_atom_site_label
_atom_site_fract_x
_atom_site_fract_y
_atom_site_fract_z
Si Si1 0.633860 0.132875 0.947084
Si Si2 0.711410 0.950946 0.695805
Si Si3 0.463890 0.661744 0.245301
Si Si4 0.937170 0.015257 0.281656
Si Si5 0.239095 0.187439 0.868279
Si Si6 0.317173 0.279097 0.280219
Si Si7 0.926544 0.414664 0.180292
Si Si8 0.911867 0.637322 0.396923
O O1 0.623665 0.230548 0.861153
O O2 0.409108 0.127921 0.850209
O O3 0.737543 0.032744 0.886315
O O4 0.770385 0.115714 0.191745
O O5 0.704390 0.832584 0.696622
O O6 0.500000 0.000000 0.500000
O O7 0.878188 0.958324 0.684081
O O8 0.513831 0.675185 0.472717
O O9 0.683881 0.631987 0.306344
O O10 0.290478 0.588795 0.054146
O O11 0.872348 0.899384 0.156016
O O12 0.000000 0.000000 0.500000
O O13 0.101195 0.264301 0.688780
O O14 0.344497 0.254493 0.102345
O O15 0.107231 0.352706 0.182701
O O16 0.967206 0.532704 0.292895
O O17 0.944471 0.361726 0.348524
#
# Coordination Sequence:
#
# PCOD9006732 Si02
#       8
#     2   2   2   2   2   2   2   2
#     4  11  23  41  63  89 133 174 214 267 317 382
#     4  12  24  42  62  89 132 175 214 258 318 390
#     4  10  21  38  68  93 123 171 223 258 324 399
#     4  12  27  37  64  97 130 172 222 265 324 390
#     4  11  25  43  61  97 136 169 217 276 327 378
#     4  11  24  39  64  93 131 172 220 264 328 383
#     4  10  21  42  69  93 123 171 219 271 326 392
#     4   9  22  43  66  94 129 165 215 277 328 384
#
# _framework density 22.277922
#
# number of rings (size 3 to 8) (size 9 to 14) (size 15 to 20)
#    0.000    1.250    2.500    2.625    8.750    0.500 
#    0.000    0.625    0.000    0.000    0.000    0.000 
#    0.000    0.000    0.000    0.000    0.000    0.000 
#
# Total GULP energy -89349.630196 kJ/mol
# GULP energy per Si atom -5584.351887 kJ/mol
# Density = 2.222722 g / cm^3
# Si number density = 22.277922 Si / 1000 Ang^3
#
#
#
# Elastic Constant Matrix: (Units=GPa)
#
#
# Indices 1 2 3 4 5 6 
#
# 1 20.9112 8.0375 -1.8963 1.4667 -2.5876 -4.2666
# 2 8.0375 57.5818 -12.4819 -13.4626 -1.0761 -20.4228
# 3 -1.8963 -12.4819 99.6347 3.8924 0.0576 -0.7678
# 4 1.4667 -13.4626 3.8924 33.8543 -1.6405 -6.6950
# 5 -2.5876 -1.0761 0.0576 -1.6405 24.4990 -1.1070
# 6 -4.2666 -20.4228 -0.7678 -6.6950 -1.1070 24.7768
#
#
#
# Elastic Compliance Matrix: (Units=1/GPa)
#
#
# Indices 1 2 3 4 5 6 
#
# 1 0.052061 -0.007700 0.000223 -0.004799 0.004909 0.001548
# 2 -0.007700 0.036978 0.003906 0.021762 0.003855 0.035328
# 3 0.000223 0.003906 0.010516 0.001128 0.000422 0.003907
# 4 -0.004799 0.021762 0.001128 0.044300 0.004738 0.029329
# 5 0.004909 0.003855 0.000422 0.004738 0.042147 0.007199
# 6 0.001548 0.035328 0.003907 0.029329 0.007199 0.078114
#
#
# Mechanical properties :
#
#
# Convention : Reuss Voigt Hill
#
# Bulk Modulus (GPa) = 10.82114 18.38293 14.60203
# Shear Modulus (GPa) = 16.55281 28.92391 22.73836
#
# Velocity S-wave (km/s) = 2.72879 3.60713 3.19826
# Velocity P-wave (km/s) = 3.84659 5.06143 4.49524
#
# Compressibility (1/GPa) = 0.09241174
#
# Stress axis : x y z
#
# Youngs Moduli (GPa) = 19.20831 27.04317 95.09304
#
# Poissons Ratio (x) = 0.20823 -0.02118
# Poissons Ratio (y) = 0.14790 -0.37141
# Poissons Ratio (z) = -0.00428 -0.10562
#
# Static dielectric constant tensor:
#      x y z
#    x 1.830350 -0.028010 -0.064120 
#    y -0.028010 1.834100 -0.007670 
#    z -0.064120 -0.007670 2.497940 
# 
# From -- ./inp_files/203367.got.cif
#   From: 2010.05.17/outbox.cif.g08.bks.cpg/sg2_102_cif.got.tgz:203367.got - 2010.06.03 11:33:40.
