data_PCOD9006122
_publ_section_title
;
Structure prediction by ZEFSAII (Michael W. Deem and Ramdas Pophale) SiO2 
 PCOD9006122
Probable space group: P -1
;
_chemical_formula_sum "Si O2"
_cell_formula_units_Z 14
_cell_length_a 7.962337
_cell_length_b 9.313099
_cell_length_c 9.397746
_cell_angle_alpha 102.865873
_cell_angle_beta 90.271729
_cell_angle_gamma 93.129725
_cell_volume 678.269321
_symmetry_space_group_name_H-M "P -1"
_symmetry_group_IT_number 2
_symmetry_cell_setting 'triclinic'
loop_
_space_group_symop_operation_xyz
x,y,z
-x,-y,-z
loop_
_atom_site_type_symbol
_atom_site_label
_atom_site_fract_x
_atom_site_fract_y
_atom_site_fract_z
Si Si1 0.384967 0.926515 0.243616
Si Si2 0.907024 0.300020 0.086126
Si Si3 0.216086 0.111492 0.046285
Si Si4 0.047792 0.370624 0.799446
Si Si5 0.717494 0.113088 0.237598
Si Si6 0.586034 0.661683 0.064628
Si Si7 0.887528 0.139517 0.535692
O O1 0.465108 0.773323 0.166592
O O2 0.275612 0.902559 0.378149
O O3 0.269464 0.992933 0.134507
O O4 0.536776 0.052278 0.279613
O O5 0.040806 0.178814 0.092940
O O6 0.965524 0.456461 0.187374
O O7 0.734563 0.239402 0.144550
O O8 0.924786 0.325220 0.922362
O O9 0.349719 0.250062 0.057385
O O10 0.217604 0.030636 0.875340
O O11 0.239490 0.353813 0.849915
O O12 0.992431 0.271208 0.644537
O O13 0.828586 0.169092 0.382591
O O14 0.500000 0.500000 0.000000
O O15 0.000000 0.000000 0.500000
#
# Coordination Sequence:
#
# PCOD9006122 Si02
#       7
#     2   2   2   2   2   2   2
#     4  11  24  40  66  96 127 166 221 261 319 368
#     4  10  21  40  65  93 129 162 219 264 311 371
#     4  10  21  38  64  98 122 165 218 263 314 370
#     4  10  24  39  65  95 127 171 212 260 321 376
#     4  11  22  38  61  94 128 167 210 263 312 377
#     4  10  22  38  64  97 129 159 208 272 319 367
#     4  12  24  41  64  89 131 173 212 258 317 390
#
# _framework density 20.640768000000001
#
# number of rings (size 3 to 8) (size 9 to 14) (size 15 to 20)
#    0.000    1.429    0.000    6.857   10.000    0.571 
#    0.000    0.000    0.000    2.571    0.000    0.000 
#    0.000    0.000    0.000    0.000    0.000    0.000 
#
# Total GULP energy -78215.319983 kJ/mol
# GULP energy per Si atom -5586.808570 kJ/mol
# Density = 2.059379 g / cm^3
# Si number density = 20.640768 Si / 1000 Ang^3
#
#
#
# Elastic Constant Matrix: (Units=GPa)
#
#
# Indices 1 2 3 4 5 6 
#
# 1 98.2939 27.2112 27.6265 1.1881 -4.4983 12.3110
# 2 27.2112 108.6653 35.4811 10.1704 -0.0219 26.0546
# 3 27.6265 35.4811 98.0024 12.8011 15.2539 5.4931
# 4 1.1881 10.1704 12.8011 32.0444 8.7207 -0.8630
# 5 -4.4983 -0.0219 15.2539 8.7207 36.8280 2.6312
# 6 12.3110 26.0546 5.4931 -0.8630 2.6312 35.7863
#
#
#
# Elastic Compliance Matrix: (Units=1/GPa)
#
#
# Indices 1 2 3 4 5 6 
#
# 1 0.011927 -0.001271 -0.003244 0.000387 0.002914 -0.002885
# 2 -0.001271 0.013295 -0.003942 -0.003652 0.002989 -0.008945
# 3 -0.003244 -0.003942 0.013617 -0.002481 -0.005612 0.002249
# 4 0.000387 -0.003652 -0.002481 0.035542 -0.007653 0.004327
# 5 0.002914 0.002989 -0.005612 -0.007653 0.031994 -0.004854
# 6 -0.002885 -0.008945 0.002249 0.004327 -0.004854 0.035565
#
#
# Mechanical properties :
#
#
# Convention : Reuss Voigt Hill
#
# Bulk Modulus (GPa) = 45.61159 53.95547 49.78353
# Shear Modulus (GPa) = 30.09076 35.24125 32.66601
#
# Velocity S-wave (km/s) = 3.82230 4.13651 3.98250
# Velocity P-wave (km/s) = 6.45180 7.00080 6.73190
#
# Compressibility (1/GPa) = 0.02192425
#
# Stress axis : x y z
#
# Youngs Moduli (GPa) = 83.84055 75.21483 73.43747
#
# Poissons Ratio (x) = 0.09563 0.23826
# Poissons Ratio (y) = 0.10659 0.28948
# Poissons Ratio (z) = 0.27202 0.29649
#
# Static dielectric constant tensor:
#      x y z
#    x 1.814970 0.034720 0.029930 
#    y 0.034720 1.753420 -0.006260 
#    z 0.029930 -0.006260 1.719340 
# 
# From -- ./inp_files/155475.got.cif
#   From: 2010.05.17/outbox.cif.g08.bks.cpg/sg2_78_cif.got.tgz:155475.got - 2010.06.03 11:33:40.
