data_PCOD9006325
_publ_section_title
;
Structure prediction by ZEFSAII (Michael W. Deem and Ramdas Pophale) SiO2 
 PCOD9006325
Probable space group: P -1
;
_chemical_formula_sum "Si O2"
_cell_formula_units_Z 14
_cell_length_a 10.856174
_cell_length_b 12.235922
_cell_length_c 9.959346
_cell_angle_alpha 44.388694
_cell_angle_beta 49.705469
_cell_angle_gamma 38.459878
_cell_volume 563.925230
_symmetry_space_group_name_H-M "P -1"
_symmetry_group_IT_number 2
_symmetry_cell_setting 'triclinic'
loop_
_space_group_symop_operation_xyz
x,y,z
-x,-y,-z
loop_
_atom_site_type_symbol
_atom_site_label
_atom_site_fract_x
_atom_site_fract_y
_atom_site_fract_z
Si Si1 0.580562 0.267990 0.463993
Si Si2 0.145048 0.015036 0.283173
Si Si3 0.818370 0.446596 0.171479
Si Si4 0.237840 0.452778 0.168932
Si Si5 0.164722 0.427152 0.655952
Si Si6 0.096805 0.118148 0.938682
Si Si7 0.629394 0.087103 0.320718
O O1 0.664570 0.390723 0.321746
O O2 0.344382 0.409902 0.470686
O O3 0.687468 0.113222 0.403842
O O4 0.635647 0.139640 0.672637
O O5 0.041192 0.244196 0.166795
O O6 0.137767 0.985256 0.155370
O O7 0.000000 0.000000 0.500000
O O8 0.821402 0.520013 0.249272
O O9 0.763976 0.574941 0.965452
O O10 0.935145 0.568508 0.638667
O O11 0.459368 0.303342 0.195434
O O12 0.133129 0.681884 0.069373
O O13 0.214186 0.214395 0.798994
O O14 0.184119 0.018533 0.821444
O O15 0.500000 0.000000 0.500000
#
# Coordination Sequence:
#
# PCOD9006325 Si02
#       7
#     2   2   2   2   2   2   2
#     4  11  24  38  64  99 133 168 219 269 330 389
#     4   9  21  42  64  95 131 166 217 275 320 386
#     4  10  21  42  63  92 131 169 218 273 328 380
#     4   9  23  42  65  93 129 174 219 266 325 389
#     4  10  21  38  65  95 123 174 216 273 318 375
#     4   9  22  41  69  95 125 173 222 262 325 384
#     4  12  24  42  65  98 135 173 214 273 325 395
#
# _framework density 24.825984999999999
#
# number of rings (size 3 to 8) (size 9 to 14) (size 15 to 20)
#    0.857    1.143    1.429    0.857    4.000    3.429 
#    0.000    6.429    0.000    0.000    0.000    0.000 
#    0.000    0.000    0.000    0.000    0.000    0.000 
#
# Total GULP energy -78164.562170 kJ/mol
# GULP energy per Si atom -5583.183012 kJ/mol
# Density = 2.476948 g / cm^3
# Si number density = 24.825985 Si / 1000 Ang^3
#
#
#
# Elastic Constant Matrix: (Units=GPa)
#
#
# Indices 1 2 3 4 5 6 
#
# 1 81.3827 14.0992 6.1757 -4.5884 -6.0088 6.5382
# 2 14.0992 67.1335 16.2316 23.4966 19.1489 1.8733
# 3 6.1757 16.2316 64.5737 12.9303 16.0222 9.2854
# 4 -4.5884 23.4966 12.9303 31.4199 2.9125 10.5963
# 5 -6.0088 19.1489 16.0222 2.9125 40.6339 7.4327
# 6 6.5382 1.8733 9.2854 10.5963 7.4327 43.0656
#
#
#
# Elastic Compliance Matrix: (Units=1/GPa)
#
#
# Indices 1 2 3 4 5 6 
#
# 1 0.015519 -0.008356 -0.002612 0.010703 0.007475 -0.005353
# 2 -0.008356 0.029243 0.000986 -0.024970 -0.015179 0.008548
# 3 -0.002612 0.000986 0.019090 -0.008113 -0.007717 -0.000434
# 4 0.010703 -0.024970 -0.008113 0.059398 0.015224 -0.016032
# 5 0.007475 -0.015179 -0.007717 0.015224 0.036438 -0.008846
# 6 -0.005353 0.008548 -0.000434 -0.016032 -0.008846 0.029226
#
#
# Mechanical properties :
#
#
# Convention : Reuss Voigt Hill
#
# Bulk Modulus (GPa) = 22.78566 31.78922 27.28744
# Shear Modulus (GPa) = 22.37059 34.79612 28.58336
#
# Velocity S-wave (km/s) = 3.00508 3.74786 3.39683
# Velocity P-wave (km/s) = 4.60855 5.61794 5.13809
#
# Compressibility (1/GPa) = 0.04388726
#
# Stress axis : x y z
#
# Youngs Moduli (GPa) = 64.43765 34.19612 52.38358
#
# Poissons Ratio (x) = 0.28576 0.13681
# Poissons Ratio (y) = 0.53846 -0.05164
# Poissons Ratio (z) = 0.16829 -0.03371
#
# Static dielectric constant tensor:
#      x y z
#    x 2.004430 0.001260 -0.016870 
#    y 0.001260 1.998900 0.028180 
#    z -0.016870 0.028180 2.069300 
# 
# From -- ./inp_files/218899.got.cif
#   From: 2010.05.17/outbox.cif.g08.bks.cpg/sg2_110_cif.got.tgz:218899.got - 2010.06.03 11:33:40.
