data_PCOD9006860
_publ_section_title
;
Structure prediction by ZEFSAII (Michael W. Deem and Ramdas Pophale) SiO2 
 PCOD9006860
Probable space group: P -1
;
_chemical_formula_sum "Si O2"
_cell_formula_units_Z 16
_cell_length_a 5.368605
_cell_length_b 12.048038
_cell_length_c 11.798744
_cell_angle_alpha 53.232306
_cell_angle_beta 99.327795
_cell_angle_gamma 98.162749
_cell_volume 602.280431
_symmetry_space_group_name_H-M "P -1"
_symmetry_group_IT_number 2
_symmetry_cell_setting 'triclinic'
loop_
_space_group_symop_operation_xyz
x,y,z
-x,-y,-z
loop_
_atom_site_type_symbol
_atom_site_label
_atom_site_fract_x
_atom_site_fract_y
_atom_site_fract_z
Si Si1 0.695771 0.102002 0.024714
Si Si2 0.665774 0.818940 0.283207
Si Si3 0.227454 0.573794 0.752137
Si Si4 0.335441 0.791175 0.813626
Si Si5 0.204725 0.068769 0.358616
Si Si6 0.094071 0.211914 0.461439
Si Si7 0.698663 0.389177 0.536676
Si Si8 0.927063 0.688650 0.196760
O O1 0.633412 0.216767 0.043594
O O2 0.776494 0.975097 0.187614
O O3 0.905191 0.178459 0.915465
O O4 0.500000 0.000000 0.000000
O O5 0.397974 0.771531 0.344194
O O6 0.839779 0.750810 0.429433
O O7 0.689586 0.745419 0.210106
O O8 0.361240 0.656014 0.816671
O O9 0.961802 0.646341 0.688459
O O10 0.311631 0.599563 0.609510
O O11 0.165937 0.410637 0.851111
O O12 0.571582 0.895177 0.732502
O O13 0.055428 0.851064 0.734587
O O14 0.289520 0.133923 0.446971
O O15 0.130251 0.907684 0.470969
O O16 0.500000 0.500000 0.500000
O O17 0.927646 0.397724 0.642370
#
# Coordination Sequence:
#
# PCOD9006860 Si02
#       8
#     2   2   2   2   2   2   2   2
#     4  12  28  48  73 103 141 198 253 301 353 437
#     4  12  23  43  71 102 142 192 238 303 359 435
#     4  11  24  44  72 106 146 185 236 305 371 446
#     4  11  26  47  73 106 145 196 244 304 365 436
#     4  10  23  42  68 111 146 184 239 300 380 431
#     4  10  21  38  71 105 147 184 231 307 370 442
#     4  12  23  41  72 108 144 182 235 299 380 433
#     4  12  26  46  67 103 146 191 245 292 363 433
#
# _framework density 26.565695999999999
#
# number of rings (size 3 to 8) (size 9 to 14) (size 15 to 20)
#    0.000    0.750    5.000    2.250    3.500    7.000 
#    0.000    0.000    0.000    6.750    0.000    0.000 
#    0.000    0.000    0.000    0.000    0.000    0.000 
#
# Total GULP energy -89188.727842 kJ/mol
# GULP energy per Si atom -5574.295490 kJ/mol
# Density = 2.650523 g / cm^3
# Si number density = 26.565696 Si / 1000 Ang^3
#
#
#
# Elastic Constant Matrix: (Units=GPa)
#
#
# Indices 1 2 3 4 5 6 
#
# 1 70.2562 10.8880 16.4304 11.4233 -10.4295 -0.4257
# 2 10.8880 180.3275 26.9673 20.7565 0.8227 13.9590
# 3 16.4304 26.9673 68.8566 10.3764 -17.3492 11.8874
# 4 11.4233 20.7565 10.3764 53.5551 -1.6492 -3.0530
# 5 -10.4295 0.8227 -17.3492 -1.6492 43.1892 -4.5915
# 6 -0.4257 13.9590 11.8874 -3.0530 -4.5915 31.2036
#
#
#
# Elastic Compliance Matrix: (Units=1/GPa)
#
#
# Indices 1 2 3 4 5 6 
#
# 1 0.015778 -0.000382 -0.002825 -0.002493 0.002760 0.001624
# 2 -0.000382 0.006311 -0.001964 -0.002167 -0.001349 -0.002491
# 3 -0.002825 -0.001964 0.018885 -0.002426 0.006246 -0.005673
# 4 -0.002493 -0.002167 -0.002426 0.020723 -0.000336 0.003838
# 5 0.002760 -0.001349 0.006246 -0.000336 0.026570 0.002138
# 6 0.001624 -0.002491 -0.005673 0.003838 0.002138 0.036035
#
#
# Mechanical properties :
#
#
# Convention : Reuss Voigt Hill
#
# Bulk Modulus (GPa) = 32.64421 47.55688 40.10054
# Shear Modulus (GPa) = 34.51786 43.26654 38.89220
#
# Velocity S-wave (km/s) = 3.60855 4.04005 3.83038
# Velocity P-wave (km/s) = 5.44765 6.30104 5.88982
#
# Compressibility (1/GPa) = 0.03063330
#
# Stress axis : x y z
#
# Youngs Moduli (GPa) = 63.37825 158.46328 52.95293
#
# Poissons Ratio (x) = 0.06048 0.14958
# Poissons Ratio (y) = 0.02419 0.10398
# Poissons Ratio (z) = 0.17903 0.31117
#
# Static dielectric constant tensor:
#      x y z
#    x 2.259770 0.058890 0.102950 
#    y 0.058890 2.111620 0.018860 
#    z 0.102950 0.018860 2.353880 
# 
# From -- ./inp_files/363900.got.cif
#   From: 2010.05.17/outbox.cif.g08.bks.cpg/sg2_182_cif.got.tgz:363900.got - 2010.06.03 11:33:40.
