data_PCOD9006102
_publ_section_title
;
Structure prediction by ZEFSAII (Michael W. Deem and Ramdas Pophale) SiO2 
 PCOD9006102
Probable space group: P -1
;
_chemical_formula_sum "Si O2"
_cell_formula_units_Z 16
_cell_length_a 9.454912
_cell_length_b 14.591905
_cell_length_c 13.496109
_cell_angle_alpha 30.117308
_cell_angle_beta 132.886830
_cell_angle_gamma 117.753252
_cell_volume 645.101699
_symmetry_space_group_name_H-M "P -1"
_symmetry_group_IT_number 2
_symmetry_cell_setting 'triclinic'
loop_
_space_group_symop_operation_xyz
x,y,z
-x,-y,-z
loop_
_atom_site_type_symbol
_atom_site_label
_atom_site_fract_x
_atom_site_fract_y
_atom_site_fract_z
Si Si1 0.067452 0.220918 0.212944
Si Si2 0.961448 0.352112 0.261119
Si Si3 0.677253 0.659402 0.111843
Si Si4 0.818946 0.217660 0.592914
Si Si5 0.617619 0.734547 0.379881
Si Si6 0.610089 0.350122 0.838156
Si Si7 0.367340 0.821081 0.654503
Si Si8 0.756529 0.992113 0.956500
O O1 0.045102 0.238818 0.304425
O O2 0.250273 0.036547 0.436517
O O3 0.089400 0.421485 0.998176
O O4 0.847171 0.216272 0.074404
O O5 0.148301 0.280515 0.494191
O O6 0.767098 0.305992 0.250697
O O7 0.816648 0.436792 0.381352
O O8 0.489825 0.660072 0.094284
O O9 0.586202 0.737986 0.888121
O O10 0.773523 0.806373 0.070851
O O11 0.654931 0.190331 0.462979
O O12 0.767211 0.161511 0.730049
O O13 0.045813 0.066962 0.824125
O O14 0.615290 0.563397 0.614837
O O15 0.530889 0.691924 0.274598
O O16 0.458146 0.931709 0.161206
#
# Coordination Sequence:
#
# PCOD9006102 Si02
#       8
#     2   2   2   2   2   2   2   2
#     4  10  21  40  60  96 134 167 203 257 324 379
#     4  10  22  38  65  99 133 165 201 263 326 381
#     4  12  25  43  67  95 130 171 214 267 317 379
#     4  11  27  48  64  92 129 172 224 266 309 373
#     4  10  21  40  66  98 128 166 207 262 328 377
#     4  10  21  38  64  96 133 162 205 266 319 380
#     4  12  25  41  68  97 132 169 216 260 313 393
#     4  11  25  46  70  90 127 173 217 268 317 376
#
# _framework density 24.802289999999999
#
# number of rings (size 3 to 8) (size 9 to 14) (size 15 to 20)
#    0.000    1.250    2.500    2.625    3.500    3.000 
#    0.000    0.000    0.000    0.000    0.000    0.000 
#    0.000    0.000    0.000    0.000    0.000    0.000 
#
# Total GULP energy -89724.295232 kJ/mol
# GULP energy per Si atom -5607.768452 kJ/mol
# Density = 2.474584 g / cm^3
# Si number density = 24.802290 Si / 1000 Ang^3
#
#
#
# Elastic Constant Matrix: (Units=GPa)
#
#
# Indices 1 2 3 4 5 6 
#
# 1 51.1815 -3.2163 11.6433 5.1351 -11.2411 4.0789
# 2 -3.2163 81.2392 24.1388 15.5841 0.6991 -1.7352
# 3 11.6433 24.1388 112.1112 7.2945 -2.6677 -9.8673
# 4 5.1351 15.5841 7.2945 40.8852 -1.5753 3.7650
# 5 -11.2411 0.6991 -2.6677 -1.5753 18.3437 -6.2188
# 6 4.0789 -1.7352 -9.8673 3.7650 -6.2188 28.1562
#
#
#
# Elastic Compliance Matrix: (Units=1/GPa)
#
#
# Indices 1 2 3 4 5 6 
#
# 1 0.023521 0.002047 -0.002458 -0.002702 0.013473 -0.000805
# 2 0.002047 0.014262 -0.002927 -0.005196 -0.000082 0.000233
# 3 -0.002458 -0.002927 0.010256 -0.000735 0.001454 0.004189
# 4 -0.002702 -0.005196 -0.000735 0.027252 -0.000566 -0.003955
# 5 0.013473 -0.000082 0.001454 -0.000566 0.067528 0.013543
# 6 -0.000805 0.000233 0.004189 -0.003955 0.013543 0.040636
#
#
# Mechanical properties :
#
#
# Convention : Reuss Voigt Hill
#
# Bulk Modulus (GPa) = 24.17589 34.40705 29.29147
# Shear Modulus (GPa) = 24.51950 31.60808 28.06379
#
# Velocity S-wave (km/s) = 3.14761 3.57375 3.36743
# Velocity P-wave (km/s) = 4.79359 5.56161 5.19182
#
# Compressibility (1/GPa) = 0.04136353
#
# Stress axis : x y z
#
# Youngs Moduli (GPa) = 42.51604 70.11432 97.50084
#
# Poissons Ratio (x) = -0.14351 0.23964
# Poissons Ratio (y) = -0.08702 0.28536
# Poissons Ratio (z) = 0.10450 0.20521
#
# Static dielectric constant tensor:
#      x y z
#    x 1.929090 -0.000560 -0.027870 
#    y -0.000560 1.933580 -0.001060 
#    z -0.027870 -0.001060 1.929590 
# 
# From -- ./inp_files/271716.got.cif
#   From: 2010.05.17/outbox.cif.g08.bks.cpg/sg2_136_cif.got.tgz:271716.got - 2010.06.03 11:33:40.
