data_PCOD9006938
_publ_section_title
;
Structure prediction by ZEFSAII (Michael W. Deem and Ramdas Pophale) SiO2 
 PCOD9006938
Probable space group: P -1
;
_chemical_formula_sum "Si O2"
_cell_formula_units_Z 14
_cell_length_a 10.213072
_cell_length_b 13.843431
_cell_length_c 10.830292
_cell_angle_alpha 29.373967
_cell_angle_beta 79.297971
_cell_angle_gamma 60.866103
_cell_volume 544.953296
_symmetry_space_group_name_H-M "P -1"
_symmetry_group_IT_number 2
_symmetry_cell_setting 'triclinic'
loop_
_space_group_symop_operation_xyz
x,y,z
-x,-y,-z
loop_
_atom_site_type_symbol
_atom_site_label
_atom_site_fract_x
_atom_site_fract_y
_atom_site_fract_z
Si Si1 0.751626 0.173941 0.376688
Si Si2 0.767334 0.680367 0.485446
Si Si3 0.670254 0.524452 0.311148
Si Si4 0.506722 0.676417 0.436828
Si Si5 0.004832 0.763002 0.275256
Si Si6 0.060940 0.604136 0.971587
Si Si7 0.420122 0.682258 0.995773
O O1 0.555734 0.393976 0.224546
O O2 0.724017 0.123203 0.297472
O O3 0.119453 0.109269 0.265107
O O4 0.837240 0.307898 0.205852
O O5 0.820366 0.590213 0.718167
O O6 0.816706 0.849847 0.244969
O O7 0.446235 0.294735 0.988531
O O8 0.560929 0.653571 0.312873
O O9 0.864287 0.414025 0.431976
O O10 0.671635 0.280644 0.568786
O O11 0.437341 0.181368 0.662385
O O12 0.901207 0.426356 0.651116
O O13 0.645979 0.382285 0.806686
O O14 0.000000 0.000000 0.000000
O O15 0.000000 0.500000 0.000000
#
# Coordination Sequence:
#
# PCOD9006938 Si02
#       7
#     2   2   2   2   2   2   2
#     4  10  22  38  62  87 119 167 202 256 297 348
#     4  10  21  39  57  85 124 152 199 261 293 366
#     4   8  16  31  59  86 114 155 194 243 304 371
#     4   8  15  33  58  83 118 153 191 248 302 359
#     4  10  22  36  61  90 115 154 198 248 320 363
#     4  11  24  39  59  87 124 164 211 245 303 357
#     4   9  17  36  62  87 120 157 206 250 302 356
#
# _framework density 25.690273000000001
#
# number of rings (size 3 to 8) (size 9 to 14) (size 15 to 20)
#    0.857    1.714    1.429    0.000    4.000    1.143 
#    0.000    3.571    0.000    5.143    0.000    0.000 
#    0.000    0.000    0.000    0.000    0.000    0.000 
#
# Total GULP energy -78043.809911 kJ/mol
# GULP energy per Si atom -5574.557851 kJ/mol
# Density = 2.563180 g / cm^3
# Si number density = 25.690273 Si / 1000 Ang^3
#
#
#
# Elastic Constant Matrix: (Units=GPa)
#
#
# Indices 1 2 3 4 5 6 
#
# 1 128.2851 34.0210 11.9157 -5.8003 -1.0349 26.3747
# 2 34.0210 89.0597 35.2991 7.9032 -0.0998 36.6778
# 3 11.9157 35.2991 66.5649 -1.5494 -8.0697 14.5102
# 4 -5.8003 7.9032 -1.5494 30.0647 15.3622 14.8666
# 5 -1.0349 -0.0998 -8.0697 15.3622 39.0459 4.8209
# 6 26.3747 36.6778 14.5102 14.8666 4.8209 43.9738
#
#
#
# Elastic Compliance Matrix: (Units=1/GPa)
#
#
# Indices 1 2 3 4 5 6 
#
# 1 0.009859 -0.001892 0.000658 0.006332 -0.001290 -0.006551
# 2 -0.001892 0.020537 -0.007562 0.000706 -0.000144 -0.013722
# 3 0.000658 -0.007562 0.019761 0.002252 0.003411 -0.001743
# 4 0.006332 0.000706 0.002252 0.054275 -0.018064 -0.021498
# 5 -0.001290 -0.000144 0.003411 -0.018064 0.033111 0.002245
# 6 -0.006551 -0.013722 -0.001743 -0.021498 0.002245 0.045713
#
#
# Mechanical properties :
#
#
# Convention : Reuss Voigt Hill
#
# Bulk Modulus (GPa) = 30.70834 49.59791 40.15312
# Shear Modulus (GPa) = 23.61811 36.12848 29.87330
#
# Velocity S-wave (km/s) = 3.03535 3.75415 3.41372
# Velocity P-wave (km/s) = 4.92582 6.17572 5.58584
#
# Compressibility (1/GPa) = 0.03256445
#
# Stress axis : x y z
#
# Youngs Moduli (GPa) = 101.43475 48.69323 50.60435
#
# Poissons Ratio (x) = 0.09213 -0.03328
# Poissons Ratio (y) = 0.19191 0.38265
# Poissons Ratio (z) = -0.06670 0.36820
#
# Static dielectric constant tensor:
#      x y z
#    x 2.120700 0.065750 0.029490 
#    y 0.065750 2.124490 0.031810 
#    z 0.029490 0.031810 2.062800 
# 
# From -- ./inp_files/430766.got.cif
#   From: 2010.05.17/outbox.cif.g08.bks.cpg/sg2_216_cif.got.tgz:430766.got - 2010.06.03 11:33:40.
