data_PCOD9006965
_publ_section_title
;
Structure prediction by ZEFSAII (Michael W. Deem and Ramdas Pophale) SiO2 
 PCOD9006965
Probable space group: P -1
;
_chemical_formula_sum "Si O2"
_cell_formula_units_Z 15
_cell_length_a 7.219791
_cell_length_b 11.954145
_cell_length_c 7.713901
_cell_angle_alpha 100.423122
_cell_angle_beta 103.076017
_cell_angle_gamma 65.586236
_cell_volume 587.636802
_symmetry_space_group_name_H-M "P -1"
_symmetry_group_IT_number 2
_symmetry_cell_setting 'triclinic'
loop_
_space_group_symop_operation_xyz
x,y,z
-x,-y,-z
loop_
_atom_site_type_symbol
_atom_site_label
_atom_site_fract_x
_atom_site_fract_y
_atom_site_fract_z
Si Si1 0.461665 0.338231 0.591006
Si Si2 0.865319 0.173866 0.486972
Si Si3 0.690787 0.513579 0.756000
Si Si4 0.282672 0.161800 0.096228
Si Si5 0.129105 0.295692 0.745581
Si Si6 0.139917 0.712048 0.822229
Si Si7 0.500000 0.500000 0.000000
Si Si8 0.249297 0.925121 0.867129
O O1 0.661480 0.212446 0.570224
O O2 0.554527 0.426640 0.739922
O O3 0.373196 0.410281 0.412937
O O4 0.285035 0.318812 0.654451
O O5 0.800168 0.290261 0.366903
O O6 0.897597 0.062130 0.329284
O O7 0.050451 0.192151 0.625684
O O8 0.925925 0.420797 0.765920
O O9 0.596179 0.589493 0.928995
O O10 0.229995 0.236033 0.928515
O O11 0.244814 0.037263 0.013759
O O12 0.519983 0.128103 0.179417
O O13 0.106786 0.243849 0.212645
O O14 0.198972 0.823818 0.937772
O O15 0.259439 0.590666 0.917001
#
# Coordination Sequence:
#
# PCOD9006965 Si02
#       8
#     2   2   2   2   2   2   1   2
#     4  10  21  39  58  83 132 169 196 254 317 368
#     4   9  22  39  61  86 127 162 207 252 319 363
#     4  10  21  40  57  89 127 163 206 255 310 370
#     4  11  22  41  67  94 125 161 224 252 320 367
#     4  11  23  37  62  95 119 168 210 257 303 389
#     4  10  22  41  64  90 128 164 206 263 316 371
#     4  12  20  40  66  94 122 162 210 260 302 380
#     4   9  23  42  64  92 126 171 202 272 311 370
#
# _framework density 25.525970999999998
#
# number of rings (size 3 to 8) (size 9 to 14) (size 15 to 20)
#    0.800    1.067    2.667    0.800    3.733    0.533 
#    0.000    2.000    0.000    0.000    0.000    0.000 
#    0.000    0.000    0.000    0.000    0.000    0.000 
#
# Total GULP energy -83687.590164 kJ/mol
# GULP energy per Si atom -5579.172678 kJ/mol
# Density = 2.546787 g / cm^3
# Si number density = 25.525971 Si / 1000 Ang^3
#
#
#
# Elastic Constant Matrix: (Units=GPa)
#
#
# Indices 1 2 3 4 5 6 
#
# 1 168.5032 14.9979 24.7975 11.6707 -25.8815 -13.2805
# 2 14.9979 35.0222 -9.3208 13.4497 1.8844 7.8434
# 3 24.7975 -9.3208 51.0401 4.9357 -0.5945 16.8269
# 4 11.6707 13.4497 4.9357 22.9231 12.1688 -6.7313
# 5 -25.8815 1.8844 -0.5945 12.1688 45.7347 12.6822
# 6 -13.2805 7.8434 16.8269 -6.7313 12.6822 30.0770
#
#
#
# Elastic Compliance Matrix: (Units=1/GPa)
#
#
# Indices 1 2 3 4 5 6 
#
# 1 0.005055 0.023995 0.016624 -0.041146 0.021838 -0.031743
# 2 0.023995 -0.205179 -0.177150 0.308477 -0.143532 0.292769
# 3 0.016624 -0.177150 -0.119300 0.245976 -0.112007 0.222560
# 4 -0.041146 0.308477 0.245976 -0.380597 0.178462 -0.396654
# 5 0.021838 -0.143532 -0.112007 0.178462 -0.056969 0.173698
# 6 -0.031743 0.292769 0.222560 -0.396654 0.173698 -0.343643
#
#
# Mechanical properties :
#
#
# Convention : Reuss Voigt Hill
#
# Bulk Modulus (GPa) = -1.68781 35.05720 16.68469
# Shear Modulus (GPa) = -4.87773 34.68633 14.90430
#
# Velocity S-wave (km/s) = -1.38385 3.69028 2.41900
# Velocity P-wave (km/s) = 1.79333 5.64989 3.78849
#
# Compressibility (1/GPa) = -0.59248462
#
# Stress axis : x y z
#
# Youngs Moduli (GPa) = 197.84080 -4.87378 -8.38226
#
# Poissons Ratio (x) = 0.11695 0.13935
# Poissons Ratio (y) = -4.74724 -1.48491
# Poissons Ratio (z) = -3.28900 -0.86339
#
# Static dielectric constant tensor:
#      x y z
#    x 1.959520 0.087860 0.303940 
#    y 0.087860 1.963660 -0.243860 
#    z 0.303940 -0.243860 1.170870 
# 
# From -- ./inp_files/135543.got.cif
#   From: 2010.05.17/outbox.cif.g08.bks.cpg/sg2_68_cif.got.tgz:135543.got - 2010.06.03 11:33:40.
