data_PCOD9006264
_publ_section_title
;
Structure prediction by ZEFSAII (Michael W. Deem and Ramdas Pophale) SiO2 
 PCOD9006264
Probable space group: P -1
;
_chemical_formula_sum "Si O2"
_cell_formula_units_Z 16
_cell_length_a 14.561621
_cell_length_b 7.579689
_cell_length_c 21.767346
_cell_angle_alpha 79.235263
_cell_angle_beta 161.857902
_cell_angle_gamma 92.343484
_cell_volume 657.570342
_symmetry_space_group_name_H-M "P -1"
_symmetry_group_IT_number 2
_symmetry_cell_setting 'triclinic'
loop_
_space_group_symop_operation_xyz
x,y,z
-x,-y,-z
loop_
_atom_site_type_symbol
_atom_site_label
_atom_site_fract_x
_atom_site_fract_y
_atom_site_fract_z
Si Si1 0.845388 0.987496 0.337895
Si Si2 0.205168 0.106927 0.995429
Si Si3 0.978395 0.571261 0.412330
Si Si4 0.708085 0.804366 0.825157
Si Si5 0.477489 0.221175 0.989209
Si Si6 0.557005 0.067173 0.598215
Si Si7 0.426987 0.548381 0.279419
Si Si8 0.858960 0.468104 0.667605
O O1 0.026031 0.773157 0.434995
O O2 0.000000 0.000000 0.500000
O O3 0.484073 0.009023 0.127453
O O4 0.783868 0.154382 0.235457
O O5 0.938517 0.025705 0.840461
O O6 0.976672 0.333960 0.811850
O O7 0.386922 0.101452 0.174613
O O8 0.290470 0.422748 0.580231
O O9 0.000000 0.500000 0.500000
O O10 0.627512 0.647180 0.148724
O O11 0.679593 0.597977 0.816173
O O12 0.522489 0.941463 0.641250
O O13 0.096837 0.745925 0.070161
O O14 0.175730 0.367757 0.831062
O O15 0.500000 0.000000 0.000000
O O16 0.301870 0.298425 0.433494
O O17 0.500000 0.000000 0.500000
O O18 0.583936 0.448641 0.451015
#
# Coordination Sequence:
#
# PCOD9006264 Si02
#       8
#     2   2   2   2   2   2   2   2
#     4  10  21  40  64  93 127 171 214 267 327 397
#     4  11  23  40  67  94 134 173 222 270 336 399
#     4  10  21  38  65  92 125 167 218 269 325 385
#     4  11  24  39  64  94 131 174 219 273 328 405
#     4   8  18  39  65  92 122 166 216 261 325 396
#     4  12  26  40  60  97 137 175 224 269 331 391
#     4  10  22  40  65  91 130 174 222 267 339 394
#     4  10  21  40  65  94 133 173 213 275 331 400
#
# _framework density 24.331997000000001
#
# number of rings (size 3 to 8) (size 9 to 14) (size 15 to 20)
#    0.000    1.750    1.250    2.250    5.250    1.000 
#    0.000    1.875    0.000    0.000    0.000    0.000 
#    0.000    0.000    0.000    0.000    0.000    0.000 
#
# Total GULP energy -89315.894042 kJ/mol
# GULP energy per Si atom -5582.243378 kJ/mol
# Density = 2.427662 g / cm^3
# Si number density = 24.331997 Si / 1000 Ang^3
#
#
#
# Elastic Constant Matrix: (Units=GPa)
#
#
# Indices 1 2 3 4 5 6 
#
# 1 127.7794 6.6820 44.7378 -8.0774 -21.4811 -14.9165
# 2 6.6820 36.3867 9.4410 8.4662 7.2028 -22.4343
# 3 44.7378 9.4410 101.7699 -8.1299 -24.7157 -6.1360
# 4 -8.0774 8.4662 -8.1299 28.1331 -16.5799 -7.8009
# 5 -21.4811 7.2028 -24.7157 -16.5799 64.3021 -7.9994
# 6 -14.9165 -22.4343 -6.1360 -7.8009 -7.9994 37.2650
#
#
#
# Elastic Compliance Matrix: (Units=1/GPa)
#
#
# Indices 1 2 3 4 5 6 
#
# 1 0.010847 -0.000101 -0.002438 0.007488 0.005452 0.006618
# 2 -0.000101 0.048902 -0.006598 -0.015701 -0.009229 0.023045
# 3 -0.002438 -0.006598 0.014555 0.010964 0.008543 0.001577
# 4 0.007488 -0.015701 0.010964 0.065848 0.027319 0.014999
# 5 0.005452 -0.009229 0.008543 0.027319 0.030002 0.010192
# 6 0.006618 0.023045 0.001577 0.014999 0.010192 0.048945
#
#
# Mechanical properties :
#
#
# Convention : Reuss Voigt Hill
#
# Bulk Modulus (GPa) = 17.84750 43.07308 30.46029
# Shear Modulus (GPa) = 19.52744 39.61171 29.56958
#
# Velocity S-wave (km/s) = 2.83599 4.03919 3.48983
# Velocity P-wave (km/s) = 4.25144 6.28443 5.36511
#
# Compressibility (1/GPa) = 0.05603025
#
# Stress axis : x y z
#
# Youngs Moduli (GPa) = 92.18955 20.44912 68.70281
#
# Poissons Ratio (x) = 0.00206 0.16748
# Poissons Ratio (y) = 0.00931 0.45333
# Poissons Ratio (z) = 0.22473 0.13493
#
# Static dielectric constant tensor:
#      x y z
#    x 1.956330 0.063540 0.002670 
#    y 0.063540 1.948890 0.032610 
#    z 0.002670 0.032610 2.010610 
# 
# From -- ./inp_files/217483.got.cif
#   From: 2010.05.17/outbox.cif.g08.bks.cpg/sg2_109_cif.got.tgz:217483.got - 2010.06.03 11:33:40.
