data_PCOD9006939
_publ_section_title
;
Structure prediction by ZEFSAII (Michael W. Deem and Ramdas Pophale) SiO2 
 PCOD9006939
Probable space group: P -1
;
_chemical_formula_sum "Si O2"
_cell_formula_units_Z 16
_cell_length_a 9.387468
_cell_length_b 12.532656
_cell_length_c 13.214617
_cell_angle_alpha 94.498111
_cell_angle_beta 31.812317
_cell_angle_gamma 91.652131
_cell_volume 814.899286
_symmetry_space_group_name_H-M "P -1"
_symmetry_group_IT_number 2
_symmetry_cell_setting 'triclinic'
loop_
_space_group_symop_operation_xyz
x,y,z
-x,-y,-z
loop_
_atom_site_type_symbol
_atom_site_label
_atom_site_fract_x
_atom_site_fract_y
_atom_site_fract_z
Si Si1 0.355087 0.669746 0.893788
Si Si2 0.038363 0.881955 0.515065
Si Si3 0.894463 0.572464 0.665049
Si Si4 0.573668 0.111377 0.081142
Si Si5 0.410481 0.658480 0.625150
Si Si6 0.955761 0.525140 0.224329
Si Si7 0.539073 0.870283 0.084456
Si Si8 0.090988 0.773422 0.671460
O O1 0.606717 0.629577 0.810596
O O2 0.246546 0.792208 0.991783
O O3 0.441247 0.672913 0.726010
O O4 0.137349 0.584476 0.040999
O O5 0.295564 0.829187 0.294961
O O6 0.107881 0.871857 0.591034
O O7 0.730807 0.847069 0.694274
O O8 0.000000 0.000000 0.500000
O O9 0.000000 0.500000 0.500000
O O10 0.892342 0.500709 0.762575
O O11 0.078793 0.668973 0.597104
O O12 0.620407 0.988572 0.080403
O O13 0.572352 0.109727 0.960224
O O14 0.686859 0.600253 0.414823
O O15 0.160605 0.583126 0.754679
O O16 0.325167 0.757856 0.611307
O O17 0.805886 0.791870 0.904018
#
# Coordination Sequence:
#
# PCOD9006939 Si02
#       8
#     2   2   2   2   2   2   2   2
#     4  12  21  38  60  86 113 151 194 234 291 334
#     4   9  17  33  59  86 113 146 187 232 289 337
#     4  11  21  39  58  88 119 143 191 251 282 326
#     4   9  19  33  55  90 115 139 189 240 282 339
#     4  10  23  41  55  79 120 158 191 232 281 343
#     4  10  23  40  59  80 116 158 193 233 283 341
#     4   9  17  34  58  83 115 147 182 236 289 334
#     4  10  21  39  57  86 117 151 193 233 284 346
#
# _framework density 19.634326999999999
#
# number of rings (size 3 to 8) (size 9 to 14) (size 15 to 20)
#    0.000    2.000    3.750    1.500    0.000    3.000 
#    4.500    0.625    0.000    3.750    0.000    0.000 
#    0.000    0.000    0.000    0.000    0.000    0.000 
#
# Total GULP energy -89087.844761 kJ/mol
# GULP energy per Si atom -5567.990298 kJ/mol
# Density = 1.958964 g / cm^3
# Si number density = 19.634327 Si / 1000 Ang^3
#
#
#
# Elastic Constant Matrix: (Units=GPa)
#
#
# Indices 1 2 3 4 5 6 
#
# 1 62.4176 -3.8950 4.3238 -3.2992 -0.8915 -30.6921
# 2 -3.8950 37.5170 5.2157 2.9551 -10.9222 -22.2876
# 3 4.3238 5.2157 68.8513 -1.7553 4.9257 -13.7424
# 4 -3.2992 2.9551 -1.7553 27.0187 -0.0558 5.9675
# 5 -0.8915 -10.9222 4.9257 -0.0558 8.8174 -8.4221
# 6 -30.6921 -22.2876 -13.7424 5.9675 -8.4221 20.9534
#
#
#
# Elastic Compliance Matrix: (Units=1/GPa)
#
#
# Indices 1 2 3 4 5 6 
#
# 1 0.009953 -0.012892 0.000176 0.004900 -0.025040 -0.010479
# 2 -0.012892 0.003384 -0.003218 0.003743 -0.020979 -0.026895
# 3 0.000176 -0.003218 0.016129 0.000683 -0.009868 0.003253
# 4 0.004900 0.003743 0.000683 0.036070 0.010150 0.005413
# 5 -0.025040 -0.020979 -0.009868 0.010150 0.040868 -0.051930
# 6 -0.010479 -0.026895 0.003253 0.005413 -0.051930 -0.016513
#
#
# Mechanical properties :
#
#
# Convention : Reuss Voigt Hill
#
# Bulk Modulus (GPa) = -416.20606 20.00831 -198.09887
# Shear Modulus (GPa) = 41.33625 22.23397 31.78511
#
# Velocity S-wave (km/s) = 4.59334 3.36877 4.02786
# Velocity P-wave (km/s) = 13.57598 5.03429 8.91525
#
# Compressibility (1/GPa) = -0.00240266
#
# Stress axis : x y z
#
# Youngs Moduli (GPa) = 100.47324 295.51840 61.99869
#
# Poissons Ratio (x) = 3.80992 -0.01093
# Poissons Ratio (y) = 1.29533 0.19954
# Poissons Ratio (z) = -0.01772 0.95110
#
# Static dielectric constant tensor:
#      x y z
#    x 1.698860 0.007250 -0.005010 
#    y 0.007250 1.761640 -0.000190 
#    z -0.005010 -0.000190 1.697390 
# 
# From -- ./inp_files/390144.got.cif
#   From: 2010.05.17/outbox.cif.g08.bks.cpg/sg2_196_cif.got.tgz:390144.got - 2010.06.03 11:33:40.
