data_PCOD9006184
_publ_section_title
;
Structure prediction by ZEFSAII (Michael W. Deem and Ramdas Pophale) SiO2 
 PCOD9006184
Probable space group: P -1
;
_chemical_formula_sum "Si O2"
_cell_formula_units_Z 16
_cell_length_a 12.975271
_cell_length_b 10.303788
_cell_length_c 8.062797
_cell_angle_alpha 59.439334
_cell_angle_beta 123.812890
_cell_angle_gamma 94.346021
_cell_volume 738.176646
_symmetry_space_group_name_H-M "P -1"
_symmetry_group_IT_number 2
_symmetry_cell_setting 'triclinic'
loop_
_space_group_symop_operation_xyz
x,y,z
-x,-y,-z
loop_
_atom_site_type_symbol
_atom_site_label
_atom_site_fract_x
_atom_site_fract_y
_atom_site_fract_z
Si Si1 0.397444 0.789993 0.483274
Si Si2 0.183425 0.208885 0.354978
Si Si3 0.623816 0.540992 0.408420
Si Si4 0.011359 0.822965 0.567414
Si Si5 0.602498 0.598409 0.992596
Si Si6 0.481530 0.132507 0.760634
Si Si7 0.112743 0.930988 0.276212
Si Si8 0.794232 0.484711 0.927865
O O1 0.425099 0.612220 0.553289
O O2 0.507309 0.767648 0.738787
O O3 0.418688 0.896597 0.282516
O O4 0.251726 0.839344 0.385035
O O5 0.338266 0.163444 0.534804
O O6 0.135584 0.377732 0.113290
O O7 0.123379 0.209456 0.484540
O O8 0.140061 0.077547 0.301535
O O9 0.672839 0.581003 0.245459
O O10 0.518206 0.704156 0.255819
O O11 0.722903 0.500082 0.676659
O O12 0.061226 0.820929 0.426794
O O13 0.115677 0.690387 0.849715
O O14 0.000000 0.000000 0.500000
O O15 0.698538 0.530229 0.971194
O O16 0.500000 0.500000 0.000000
O O17 0.500000 0.000000 0.000000
O O18 0.000000 0.000000 0.000000
#
# Coordination Sequence:
#
# PCOD9006184 Si02
#       8
#     2   2   2   2   2   2   2   2
#     4  11  23  43  68  98 142 179 228 293 334 411
#     4  10  24  46  67 100 137 180 227 289 350 406
#     4  10  23  40  70 101 135 182 229 273 342 423
#     4  10  23  44  69  94 132 184 229 280 337 407
#     4  10  21  38  65 105 135 177 226 277 343 404
#     4  11  25  41  68 104 137 182 223 281 361 405
#     4  11  27  46  68 100 135 184 239 281 346 415
#     4  11  22  45  69 102 140 180 229 290 345 404
#
# _framework density 21.675027
#
# number of rings (size 3 to 8) (size 9 to 14) (size 15 to 20)
#    0.000    1.500    2.500    2.250    8.750    2.500 
#    2.250    0.625    0.000    0.000    0.000    0.000 
#    0.000    0.000    0.000    0.000    0.000    0.000 
#
# Total GULP energy -89274.922991 kJ/mol
# GULP energy per Si atom -5579.682687 kJ/mol
# Density = 2.162569 g / cm^3
# Si number density = 21.675027 Si / 1000 Ang^3
#
#
#
# Elastic Constant Matrix: (Units=GPa)
#
#
# Indices 1 2 3 4 5 6 
#
# 1 158.3240 22.9485 31.2746 -4.8475 -27.6972 -7.0145
# 2 22.9485 62.0661 26.0144 -8.5813 -12.2105 2.5751
# 3 31.2746 26.0144 118.9296 -10.5746 -28.1778 -13.7150
# 4 -4.8475 -8.5813 -10.5746 40.6935 -0.9475 -5.5909
# 5 -27.6972 -12.2105 -28.1778 -0.9475 42.3404 -4.6519
# 6 -7.0145 2.5751 -13.7150 -5.5909 -4.6519 20.0897
#
#
#
# Elastic Compliance Matrix: (Units=1/GPa)
#
#
# Indices 1 2 3 4 5 6 
#
# 1 0.007706 -0.001958 0.000310 0.001359 0.005234 0.004743
# 2 -0.001958 0.019154 -0.003721 0.002215 0.001293 -0.004763
# 3 0.000310 -0.003721 0.013365 0.004770 0.009588 0.013257
# 4 0.001359 0.002215 0.004770 0.028373 0.006755 0.012908
# 5 0.005234 0.001293 0.009588 0.006755 0.035970 0.018416
# 6 0.004743 -0.004763 0.013257 0.012908 0.018416 0.068951
#
#
# Mechanical properties :
#
#
# Convention : Reuss Voigt Hill
#
# Bulk Modulus (GPa) = 33.91393 55.53276 44.72334
# Shear Modulus (GPa) = 25.76176 37.89684 31.82930
#
# Velocity S-wave (km/s) = 3.45127 4.18594 3.83623
# Velocity P-wave (km/s) = 5.61802 7.00278 6.34827
#
# Compressibility (1/GPa) = 0.02948641
#
# Stress axis : x y z
#
# Youngs Moduli (GPa) = 129.76502 52.20949 74.82105
#
# Poissons Ratio (x) = 0.10225 -0.02318
# Poissons Ratio (y) = 0.25413 0.27839
# Poissons Ratio (z) = -0.04021 0.19426
#
# Static dielectric constant tensor:
#      x y z
#    x 1.838280 -0.027000 -0.020810 
#    y -0.027000 1.858070 0.018640 
#    z -0.020810 0.018640 1.832870 
# 
# From -- ./inp_files/261719.got.cif
#   From: 2010.05.17/outbox.cif.g08.bks.cpg/sg2_131_cif.got.tgz:261719.got - 2010.06.03 11:33:40.
