data_PCOD9006033
_publ_section_title
;
Structure prediction by ZEFSAII (Michael W. Deem and Ramdas Pophale) SiO2 
 PCOD9006033
Probable space group: P -1
;
_chemical_formula_sum "Si O2"
_cell_formula_units_Z 12
_cell_length_a 13.420063
_cell_length_b 7.984519
_cell_length_c 15.161296
_cell_angle_alpha 71.517069
_cell_angle_beta 18.438962
_cell_angle_gamma 70.034982
_cell_volume 482.832272
_symmetry_space_group_name_H-M "P -1"
_symmetry_group_IT_number 2
_symmetry_cell_setting 'triclinic'
loop_
_space_group_symop_operation_xyz
x,y,z
-x,-y,-z
loop_
_atom_site_type_symbol
_atom_site_label
_atom_site_fract_x
_atom_site_fract_y
_atom_site_fract_z
Si Si1 0.259638 0.862960 0.614972
Si Si2 0.708480 0.102427 0.113452
Si Si3 0.590899 0.847145 0.829762
Si Si4 0.855960 0.603492 0.928151
Si Si5 0.472152 0.605216 0.634651
Si Si6 0.282526 0.769324 0.279232
O O1 0.999183 0.790004 0.783464
O O2 0.385558 0.697091 0.598714
O O3 0.531952 0.938423 0.320364
O O4 0.073384 0.022889 0.802774
O O5 0.550969 0.177101 0.142351
O O6 0.640916 0.247783 0.221322
O O7 0.924847 0.728094 0.591971
O O8 0.675518 0.049324 0.733128
O O9 0.348081 0.813635 0.115590
O O10 0.153661 0.465701 0.668290
O O11 0.724220 0.551507 0.142714
O O12 0.446132 0.376206 0.885535
#
# Coordination Sequence:
#
# PCOD9006033 Si02
#       6
#     2   2   2   2   2   2
#     4  12  24  43  69  93 125 175 223 253 305 383
#     4  12  24  43  67  97 127 169 216 262 316 375
#     4  10  21  38  64  94 120 161 216 263 304 369
#     4  12  24  43  65  97 129 170 211 261 323 375
#     4  12  26  43  63  96 138 166 204 269 325 374
#     4  10  21  38  64  93 122 161 213 264 306 371
#
# _framework density 24.853351
#
# number of rings (size 3 to 8) (size 9 to 14) (size 15 to 20)
#    0.000    0.667    1.667    7.000    4.667    0.000 
#    0.000    5.000    0.000    0.000    0.000    0.000 
#    0.000    0.000    0.000    0.000    0.000    0.000 
#
# Total GULP energy -67306.732783 kJ/mol
# GULP energy per Si atom -5608.894399 kJ/mol
# Density = 2.479678 g / cm^3
# Si number density = 24.853351 Si / 1000 Ang^3
#
#
#
# Elastic Constant Matrix: (Units=GPa)
#
#
# Indices 1 2 3 4 5 6 
#
# 1 62.5693 11.7353 -6.6548 5.3903 11.9372 -14.8822
# 2 11.7353 71.4457 13.3558 24.8704 -5.1975 -1.1961
# 3 -6.6548 13.3558 90.0907 13.9143 2.1911 -1.3301
# 4 5.3903 24.8704 13.9143 52.5435 -7.5660 -7.6159
# 5 11.9372 -5.1975 2.1911 -7.5660 27.4718 6.4253
# 6 -14.8822 -1.1961 -1.3301 -7.6159 6.4253 33.7752
#
#
#
# Elastic Compliance Matrix: (Units=1/GPa)
#
#
# Indices 1 2 3 4 5 6 
#
# 1 0.023076 -0.004808 0.003137 -0.001177 -0.014460 0.012607
# 2 -0.004808 0.018020 -0.002051 -0.007429 0.004576 -0.004107
# 3 0.003137 -0.002051 0.012205 -0.002879 -0.003960 0.001895
# 4 -0.001177 -0.007429 -0.002879 0.024725 0.005286 0.003675
# 5 -0.014460 0.004576 -0.003960 0.005286 0.048698 -0.014438
# 6 0.012607 -0.004107 0.001895 0.003675 -0.014438 0.038666
#
#
# Mechanical properties :
#
#
# Convention : Reuss Voigt Hill
#
# Bulk Modulus (GPa) = 21.80690 28.99756 25.40223
# Shear Modulus (GPa) = 26.57870 36.46940 31.52405
#
# Velocity S-wave (km/s) = 3.27375 3.83480 3.56533
# Velocity P-wave (km/s) = 4.80450 5.59467 5.21457
#
# Compressibility (1/GPa) = 0.04585704
#
# Stress axis : x y z
#
# Youngs Moduli (GPa) = 43.33461 55.49345 81.93624
#
# Poissons Ratio (x) = 0.26680 -0.25703
# Poissons Ratio (y) = 0.20835 0.16806
# Poissons Ratio (z) = -0.13594 0.11382
#
# Static dielectric constant tensor:
#      x y z
#    x 1.928210 0.029230 -0.019830 
#    y 0.029230 2.025680 0.013700 
#    z -0.019830 0.013700 1.906430 
# 
# From -- ./inp_files/360690.got.cif
#   From: 2010.05.17/outbox.cif.g08.bks.cpg/sg2_181_cif.got.tgz:360690.got - 2010.06.03 11:33:40.
