data_PCOD9006270
_publ_section_title
;
Structure prediction by ZEFSAII (Michael W. Deem and Ramdas Pophale) SiO2 
 PCOD9006270
Probable space group: P -1
;
_chemical_formula_sum "Si O2"
_cell_formula_units_Z 16
_cell_length_a 5.422078
_cell_length_b 7.892593
_cell_length_c 23.474507
_cell_angle_alpha 127.490150
_cell_angle_beta 82.902899
_cell_angle_gamma 122.316018
_cell_volume 642.396562
_symmetry_space_group_name_H-M "P -1"
_symmetry_group_IT_number 2
_symmetry_cell_setting 'triclinic'
loop_
_space_group_symop_operation_xyz
x,y,z
-x,-y,-z
loop_
_atom_site_type_symbol
_atom_site_label
_atom_site_fract_x
_atom_site_fract_y
_atom_site_fract_z
Si Si1 0.507810 0.039188 0.411771
Si Si2 0.356805 0.232646 0.549448
Si Si3 0.948913 0.318941 0.838537
Si Si4 0.189428 0.408582 0.687378
Si Si5 0.812173 0.693972 0.063069
Si Si6 0.294864 0.946898 0.804908
Si Si7 0.139128 0.835470 0.972462
Si Si8 0.210004 0.100943 0.713977
O O1 0.522989 0.872085 0.427811
O O2 0.760541 0.087420 0.368790
O O3 0.160789 0.854779 0.359854
O O4 0.533959 0.275656 0.494266
O O5 0.349072 0.448335 0.629245
O O6 0.000000 0.000000 0.500000
O O7 0.221974 0.412733 0.894149
O O8 0.992436 0.590775 0.881953
O O9 0.953154 0.138330 0.753649
O O10 0.652538 0.129173 0.846467
O O11 0.176377 0.649460 0.749397
O O12 0.365118 0.358661 0.720702
O O13 0.872194 0.973010 0.132781
O O14 0.500000 0.500000 0.000000
O O15 0.045121 0.726205 0.016947
O O16 0.304800 0.041770 0.758894
O O17 0.500000 0.000000 0.000000
O O18 0.000000 0.000000 0.000000
#
# Coordination Sequence:
#
# PCOD9006270 Si02
#       8
#     2   2   2   2   2   2   2   2
#     4   9  17  36  64  92 131 169 217 271 329 397
#     4   8  16  32  61  97 126 169 216 266 328 397
#     4  11  25  44  65  89 133 172 223 283 354 413
#     4  10  21  38  65  92 128 173 220 268 337 407
#     4  11  24  47  68  91 131 180 226 290 362 418
#     4  11  25  42  65  94 130 175 224 277 347 421
#     4  12  28  43  71 103 131 172 237 294 353 435
#     4  10  23  39  61  93 132 168 216 275 334 400
#
# _framework density 24.906734
#
# number of rings (size 3 to 8) (size 9 to 14) (size 15 to 20)
#    0.000    1.750    1.250    1.875    5.250    5.000 
#    0.000    0.625    0.000   26.250    0.000    0.000 
#    0.000    0.000    0.000    0.000    0.000    0.000 
#
# Total GULP energy -89081.410800 kJ/mol
# GULP energy per Si atom -5567.588175 kJ/mol
# Density = 2.485005 g / cm^3
# Si number density = 24.906734 Si / 1000 Ang^3
#
#
#
# Elastic Constant Matrix: (Units=GPa)
#
#
# Indices 1 2 3 4 5 6 
#
# 1 65.6064 20.2230 17.0271 -14.6791 -13.7814 -3.0826
# 2 20.2230 53.0054 37.3496 -6.2282 -2.0703 -8.6437
# 3 17.0271 37.3496 108.3976 -27.7667 -29.7322 -5.8605
# 4 -14.6791 -6.2282 -27.7667 32.0714 -0.3978 -5.4084
# 5 -13.7814 -2.0703 -29.7322 -0.3978 57.6174 -10.3206
# 6 -3.0826 -8.6437 -5.8605 -5.4084 -10.3206 41.7643
#
#
#
# Elastic Compliance Matrix: (Units=1/GPa)
#
#
# Indices 1 2 3 4 5 6 
#
# 1 0.022178 -0.010293 0.006667 0.014826 0.009313 0.004664
# 2 -0.010293 0.031355 -0.014521 -0.011300 -0.008902 0.000029
# 3 0.006667 -0.014521 0.023016 0.021526 0.014362 0.007053
# 4 0.014826 -0.011300 0.021526 0.056871 0.017032 0.013350
# 5 0.009313 -0.008902 0.014362 0.017032 0.028608 0.010135
# 6 0.004664 0.000029 0.007053 0.013350 0.010135 0.029517
#
#
# Mechanical properties :
#
#
# Convention : Reuss Voigt Hill
#
# Bulk Modulus (GPa) = 24.84207 41.80096 33.32152
# Shear Modulus (GPa) = 20.72479 36.45126 28.58803
#
# Velocity S-wave (km/s) = 2.88774 3.82974 3.39160
# Velocity P-wave (km/s) = 4.59504 6.03119 5.36142
#
# Compressibility (1/GPa) = 0.04025429
#
# Stress axis : x y z
#
# Youngs Moduli (GPa) = 45.09054 31.89322 43.44778
#
# Poissons Ratio (x) = 0.32828 -0.28968
# Poissons Ratio (y) = 0.46412 0.63092
# Poissons Ratio (z) = -0.30064 0.46313
#
# Static dielectric constant tensor:
#      x y z
#    x 2.164310 -0.071200 0.015180 
#    y -0.071200 1.990480 -0.035760 
#    z 0.015180 -0.035760 2.054900 
# 
# From -- ./inp_files/604063.got.cif
#   From: 2010.05.17/outbox.cif.g08.bks.cpg/sg2_303_cif.got.tgz:604063.got - 2010.06.03 11:33:40.
