data_PCOD9006266
_publ_section_title
;
Structure prediction by ZEFSAII (Michael W. Deem and Ramdas Pophale) SiO2 
 PCOD9006266
Probable space group: P -1
;
_chemical_formula_sum "Si O2"
_cell_formula_units_Z 16
_cell_length_a 16.591406
_cell_length_b 9.107677
_cell_length_c 9.599429
_cell_angle_alpha 97.638183
_cell_angle_beta 36.758260
_cell_angle_gamma 107.154669
_cell_volume 815.784657
_symmetry_space_group_name_H-M "P -1"
_symmetry_group_IT_number 2
_symmetry_cell_setting 'triclinic'
loop_
_space_group_symop_operation_xyz
x,y,z
-x,-y,-z
loop_
_atom_site_type_symbol
_atom_site_label
_atom_site_fract_x
_atom_site_fract_y
_atom_site_fract_z
Si Si1 0.891902 0.107775 0.526589
Si Si2 0.870303 0.894421 0.261888
Si Si3 0.788860 0.868215 0.865185
Si Si4 0.884690 0.547764 0.253171
Si Si5 0.864296 0.435109 0.578870
Si Si6 0.353204 0.233249 0.664349
Si Si7 0.403567 0.459539 0.991271
Si Si8 0.388524 0.553483 0.541010
O O1 0.845198 0.253156 0.564385
O O2 0.059729 0.160632 0.335010
O O3 0.868502 0.982922 0.419186
O O4 0.814121 0.024861 0.762959
O O5 0.890873 0.726545 0.241183
O O6 0.721180 0.858972 0.380444
O O7 0.000000 0.000000 0.000000
O O8 0.680766 0.724731 0.915868
O O9 0.727558 0.862390 0.103874
O O10 0.897026 0.520125 0.395506
O O11 0.735740 0.435047 0.384317
O O12 0.000000 0.500000 0.000000
O O13 0.718488 0.458999 0.836327
O O14 0.000000 0.500000 0.500000
O O15 0.326177 0.402145 0.706827
O O16 0.520400 0.295358 0.479345
O O17 0.500000 0.500000 0.000000
O O18 0.503787 0.490491 0.720956
#
# Coordination Sequence:
#
# PCOD9006266 Si02
#       8
#     2   2   2   2   2   2   2   2
#     4  11  23  38  62  95 134 166 214 269 328 381
#     4  11  21  37  63  93 129 171 207 260 335 387
#     4  10  21  38  65  92 125 171 213 264 324 388
#     4  11  24  40  66  95 130 163 220 275 320 380
#     4  12  25  40  64 100 128 165 222 275 310 378
#     4   9  19  36  64  88 115 165 218 253 306 394
#     4  11  21  41  67  92 129 172 217 260 325 388
#     4   9  20  37  66  92 121 169 216 261 319 383
#
# _framework density 19.613021
#
# number of rings (size 3 to 8) (size 9 to 14) (size 15 to 20)
#    0.000    1.500    3.750    1.500    5.250    1.000 
#    0.000    0.625    0.000    3.750    0.000    0.000 
#    0.000    0.000    0.000    0.000    0.000    0.000 
#
# Total GULP energy -89286.062091 kJ/mol
# GULP energy per Si atom -5580.378881 kJ/mol
# Density = 1.956838 g / cm^3
# Si number density = 19.613021 Si / 1000 Ang^3
#
#
#
# Elastic Constant Matrix: (Units=GPa)
#
#
# Indices 1 2 3 4 5 6 
#
# 1 162.5907 31.1195 45.8711 -5.0318 -7.1884 13.9014
# 2 31.1195 75.3750 27.5870 -2.7651 -1.4025 -7.4442
# 3 45.8711 27.5870 87.1336 -0.9133 1.8580 -7.0987
# 4 -5.0318 -2.7651 -0.9133 31.6323 -7.7472 1.6012
# 5 -7.1884 -1.4025 1.8580 -7.7472 32.4275 -8.2744
# 6 13.9014 -7.4442 -7.0987 1.6012 -8.2744 32.4902
#
#
#
# Elastic Compliance Matrix: (Units=1/GPa)
#
#
# Indices 1 2 3 4 5 6 
#
# 1 0.008217 -0.002325 -0.003981 0.001498 0.001105 -0.004711
# 2 -0.002325 0.016013 -0.003522 0.001139 0.001744 0.004282
# 3 -0.003981 -0.003522 0.015022 -0.000982 -0.001125 0.003940
# 4 0.001498 0.001139 -0.000982 0.034019 0.008541 -0.000096
# 5 0.001105 0.001744 -0.001125 0.008541 0.035373 0.008269
# 6 -0.004711 0.004282 0.003940 -0.000096 0.008269 0.036747
#
#
# Mechanical properties :
#
#
# Convention : Reuss Voigt Hill
#
# Bulk Modulus (GPa) = 51.03245 59.36163 55.19704
# Shear Modulus (GPa) = 29.14101 34.01143 31.57622
#
# Velocity S-wave (km/s) = 3.85879 4.16880 4.01679
# Velocity P-wave (km/s) = 6.77715 7.31464 7.05102
#
# Compressibility (1/GPa) = 0.01959538
#
# Stress axis : x y z
#
# Youngs Moduli (GPa) = 121.70605 62.44867 66.56750
#
# Poissons Ratio (x) = 0.14519 0.26501
# Poissons Ratio (y) = 0.28296 0.23447
# Poissons Ratio (z) = 0.48452 0.21996
#
# Static dielectric constant tensor:
#      x y z
#    x 1.721450 0.013350 -0.004790 
#    y 0.013350 1.672810 -0.025180 
#    z -0.004790 -0.025180 1.705860 
# 
# From -- ./inp_files/298496.got.cif
#   From: 2010.05.17/outbox.cif.g08.bks.cpg/sg2_150_cif.got.tgz:298496.got - 2010.06.03 11:33:40.
