data_PCOD9006090
_publ_section_title
;
Structure prediction by ZEFSAII (Michael W. Deem and Ramdas Pophale) SiO2 
 PCOD9006090
Probable space group: P -1
;
_chemical_formula_sum "Si O2"
_cell_formula_units_Z 12
_cell_length_a 14.153031
_cell_length_b 7.163840
_cell_length_c 10.219853
_cell_angle_alpha 45.757177
_cell_angle_beta 128.280273
_cell_angle_gamma 98.388986
_cell_volume 501.517566
_symmetry_space_group_name_H-M "P -1"
_symmetry_group_IT_number 2
_symmetry_cell_setting 'triclinic'
loop_
_space_group_symop_operation_xyz
x,y,z
-x,-y,-z
loop_
_atom_site_type_symbol
_atom_site_label
_atom_site_fract_x
_atom_site_fract_y
_atom_site_fract_z
Si Si1 0.578117 0.666045 0.542870
Si Si2 0.059362 0.727079 0.459396
Si Si3 0.113430 0.120356 0.140383
Si Si4 0.812358 0.716857 0.600722
Si Si5 0.289351 0.167758 0.037740
Si Si6 0.772546 0.123348 0.124086
O O1 0.500000 0.500000 0.500000
O O2 0.691064 0.637938 0.548608
O O3 0.452891 0.008024 0.287989
O O4 0.332156 0.521910 0.162233
O O5 0.197427 0.528737 0.760850
O O6 0.000000 0.500000 0.500000
O O7 0.932961 0.022021 0.275895
O O8 0.090803 0.843612 0.295513
O O9 0.181217 0.159276 0.311738
O O10 0.210822 0.080443 0.121744
O O11 0.964229 0.426467 0.847769
O O12 0.774644 0.965469 0.336632
O O13 0.274148 0.032154 0.952461
#
# Coordination Sequence:
#
# PCOD9006090 Si02
#       6
#     2   2   2   2   2   2
#     4  10  23  42  64  94 132 170 207 265 320 381
#     4  10  21  38  64  96 123 163 215 263 307 372
#     4  11  24  41  65  98 129 168 212 268 318 378
#     4  11  24  41  66  95 131 169 214 259 324 383
#     4  10  23  40  64  98 128 164 215 268 318 369
#     4  10  21  40  66  95 125 170 214 262 312 383
#
# _framework density 23.927378000000001
#
# number of rings (size 3 to 8) (size 9 to 14) (size 15 to 20)
#    0.000    1.667    3.333    0.000    0.000   14.667 
#    0.000    1.667    0.000    0.000    0.000    0.000 
#    0.000    0.000    0.000    0.000    0.000    0.000 
#
# Total GULP energy -67168.645748 kJ/mol
# GULP energy per Si atom -5597.387146 kJ/mol
# Density = 2.387292 g / cm^3
# Si number density = 23.927378 Si / 1000 Ang^3
#
#
#
# Elastic Constant Matrix: (Units=GPa)
#
#
# Indices 1 2 3 4 5 6 
#
# 1 107.1006 13.9358 67.9642 0.3386 -4.8013 -4.2145
# 2 13.9358 69.2091 20.5715 13.0202 -11.6323 -2.6720
# 3 67.9642 20.5715 236.2758 -15.9891 6.7781 -16.4736
# 4 0.3386 13.0202 -15.9891 31.6077 -10.6564 -4.0537
# 5 -4.8013 -11.6323 6.7781 -10.6564 61.9958 -9.7699
# 6 -4.2145 -2.6720 -16.4736 -4.0537 -9.7699 17.3076
#
#
#
# Elastic Compliance Matrix: (Units=1/GPa)
#
#
# Indices 1 2 3 4 5 6 
#
# 1 0.011646 -0.000985 -0.003395 -0.001206 0.000824 -0.000365
# 2 -0.000985 0.016842 -0.001700 -0.007042 0.002103 0.000280
# 3 -0.003395 -0.001700 0.006093 0.004789 0.000542 0.006139
# 4 -0.001206 -0.007042 0.004789 0.041931 0.008032 0.017533
# 5 0.000824 0.002103 0.000542 0.008032 0.020164 0.014305
# 6 -0.000365 0.000280 0.006139 0.017533 0.014305 0.075757
#
#
# Mechanical properties :
#
#
# Convention : Reuss Voigt Hill
#
# Bulk Modulus (GPa) = 44.60107 68.61427 56.60767
# Shear Modulus (GPa) = 26.03260 42.85649 34.44454
#
# Velocity S-wave (km/s) = 3.30204 4.23674 3.79825
# Velocity P-wave (km/s) = 5.76356 7.25752 6.55325
#
# Compressibility (1/GPa) = 0.02242098
#
# Stress axis : x y z
#
# Youngs Moduli (GPa) = 85.86782 59.37584 164.11079
#
# Poissons Ratio (x) = 0.05847 0.55712
# Poissons Ratio (y) = 0.08456 0.27907
# Poissons Ratio (z) = 0.29150 0.10097
#
# Static dielectric constant tensor:
#      x y z
#    x 1.885270 0.008220 0.054770 
#    y 0.008220 2.075730 -0.030240 
#    z 0.054770 -0.030240 1.955040 
# 
# From -- ./inp_files/233118.got.cif
#   From: 2010.05.17/outbox.cif.g08.bks.cpg/sg2_117_cif.got.tgz:233118.got - 2010.06.03 11:33:40.
