data_PCOD9006198
_publ_section_title
;
Structure prediction by ZEFSAII (Michael W. Deem and Ramdas Pophale) SiO2 
 PCOD9006198
Probable space group: P -1
;
_chemical_formula_sum "Si O2"
_cell_formula_units_Z 14
_cell_length_a 13.740057
_cell_length_b 11.746757
_cell_length_c 8.554316
_cell_angle_alpha 58.962285
_cell_angle_beta 94.330035
_cell_angle_gamma 45.032693
_cell_volume 575.929664
_symmetry_space_group_name_H-M "P -1"
_symmetry_group_IT_number 2
_symmetry_cell_setting 'triclinic'
loop_
_space_group_symop_operation_xyz
x,y,z
-x,-y,-z
loop_
_atom_site_type_symbol
_atom_site_label
_atom_site_fract_x
_atom_site_fract_y
_atom_site_fract_z
Si Si1 0.850126 0.631517 0.662818
Si Si2 0.897334 0.274956 0.435934
Si Si3 0.412891 0.858826 0.314115
Si Si4 0.045290 0.235553 0.216908
Si Si5 0.545330 0.899550 0.900306
Si Si6 0.281643 0.684406 0.348182
Si Si7 0.876685 0.879283 0.142860
O O1 0.931102 0.667880 0.729811
O O2 0.978622 0.407776 0.700248
O O3 0.644237 0.915132 0.356381
O O4 0.871601 0.490183 0.896927
O O5 0.805519 0.265946 0.535305
O O6 0.001328 0.153781 0.364875
O O7 0.056450 0.160211 0.649811
O O8 0.711721 0.591724 0.152492
O O9 0.641044 0.538780 0.578190
O O10 0.250764 0.982924 0.320321
O O11 0.388463 0.041989 0.215020
O O12 0.336639 0.924998 0.078769
O O13 0.500000 0.000000 0.000000
O O14 0.500000 0.500000 0.500000
O O15 0.129827 0.968219 0.050960
#
# Coordination Sequence:
#
# PCOD9006198 Si02
#       7
#     2   2   2   2   2   2   2
#     4  10  21  42  60  95 133 165 195 259 321 369
#     4  12  23  38  63  97 118 164 218 253 308 373
#     4  10  22  43  60  92 129 166 201 257 321 361
#     4  10  24  40  63  92 132 167 198 252 326 375
#     4  12  22  35  65  99 124 156 213 262 304 364
#     4  10  22  41  63  88 123 164 215 263 303 357
#     4  10  21  38  65  86 126 167 211 259 298 365
#
# _framework density 24.308524999999999
#
# number of rings (size 3 to 8) (size 9 to 14) (size 15 to 20)
#    0.000    1.429    2.857    3.000    2.000    3.429 
#    0.000    7.143    0.000    1.714    0.000    3.000 
#    0.000    0.000    0.000    0.000    0.000    0.000 
#
# Total GULP energy -78099.037987 kJ/mol
# GULP energy per Si atom -5578.502713 kJ/mol
# Density = 2.425320 g / cm^3
# Si number density = 24.308525 Si / 1000 Ang^3
#
#
#
# Elastic Constant Matrix: (Units=GPa)
#
#
# Indices 1 2 3 4 5 6 
#
# 1 73.7832 22.2364 35.3517 8.7707 -14.8152 -14.3432
# 2 22.2364 124.7450 38.5911 -3.7189 -23.1594 -18.6061
# 3 35.3517 38.5911 153.8212 -2.3711 -17.2936 -6.5173
# 4 8.7707 -3.7189 -2.3711 40.7379 -6.2394 -14.9826
# 5 -14.8152 -23.1594 -17.2936 -6.2394 43.0806 9.5109
# 6 -14.3432 -18.6061 -6.5173 -14.9826 9.5109 34.3445
#
#
#
# Elastic Compliance Matrix: (Units=1/GPa)
#
#
# Indices 1 2 3 4 5 6 
#
# 1 0.017011 -0.000917 -0.003204 -0.001883 0.002828 0.004395
# 2 -0.000917 0.010331 -0.001657 0.003629 0.003907 0.005401
# 3 -0.003204 -0.001657 0.007798 0.000939 0.001438 -0.000745
# 4 -0.001883 0.003629 0.000939 0.030963 0.003070 0.014015
# 5 0.002828 0.003907 0.001438 0.003070 0.027930 -0.002825
# 6 0.004395 0.005401 -0.000745 0.014015 -0.002825 0.040633
#
#
# Mechanical properties :
#
#
# Convention : Reuss Voigt Hill
#
# Bulk Modulus (GPa) = 42.40253 60.52309 51.46281
# Shear Modulus (GPa) = 32.44971 40.71061 36.58016
#
# Velocity S-wave (km/s) = 3.65761 4.09681 3.88342
# Velocity P-wave (km/s) = 5.94296 6.87971 6.42842
#
# Compressibility (1/GPa) = 0.02358350
#
# Stress axis : x y z
#
# Youngs Moduli (GPa) = 58.78615 96.79139 128.24055
#
# Poissons Ratio (x) = 0.08871 0.41094
# Poissons Ratio (y) = 0.05388 0.21254
# Poissons Ratio (z) = 0.18838 0.16042
#
# Static dielectric constant tensor:
#      x y z
#    x 2.113210 -0.013970 -0.050770 
#    y -0.013970 2.017350 -0.002440 
#    z -0.050770 -0.002440 1.927320 
# 
# From -- ./inp_files/314644.got.cif
#   From: 2010.05.17/outbox.cif.g08.bks.cpg/sg2_158_cif.got.tgz:314644.got - 2010.06.03 11:33:40.
