data_PCOD9006124
_publ_section_title
;
Structure prediction by ZEFSAII (Michael W. Deem and Ramdas Pophale) SiO2 
 PCOD9006124
Probable space group: P -1
;
_chemical_formula_sum "Si O2"
_cell_formula_units_Z 14
_cell_length_a 9.104126
_cell_length_b 16.793261
_cell_length_c 11.272363
_cell_angle_alpha 53.240406
_cell_angle_beta 84.578242
_cell_angle_gamma 40.039356
_cell_volume 629.352712
_symmetry_space_group_name_H-M "P -1"
_symmetry_group_IT_number 2
_symmetry_cell_setting 'triclinic'
loop_
_space_group_symop_operation_xyz
x,y,z
-x,-y,-z
loop_
_atom_site_type_symbol
_atom_site_label
_atom_site_fract_x
_atom_site_fract_y
_atom_site_fract_z
Si Si1 0.676970 0.642689 0.513149
Si Si2 0.193640 0.065969 0.863084
Si Si3 0.966705 0.042869 0.601895
Si Si4 0.296747 0.646478 0.002083
Si Si5 0.816571 0.329277 0.444390
Si Si6 0.683829 0.935584 0.882136
Si Si7 0.728373 0.598165 0.277140
O O1 0.402698 0.751225 0.510103
O O2 0.727732 0.570952 0.441223
O O3 0.025218 0.456719 0.707949
O O4 0.532463 0.838770 0.328622
O O5 0.448188 0.984163 0.848672
O O6 0.370205 0.853472 0.048938
O O7 0.867492 0.263500 0.635832
O O8 0.182091 0.123264 0.942497
O O9 0.050012 0.107964 0.561835
O O10 0.000000 0.000000 0.500000
O O11 0.172294 0.834867 0.837254
O O12 0.495731 0.513330 0.226050
O O13 0.500000 0.500000 0.000000
O O14 0.987631 0.759853 0.929802
O O15 0.856598 0.424404 0.355811
#
# Coordination Sequence:
#
# PCOD9006124 Si02
#       7
#     2   2   2   2   2   2   2
#     4   9  20  40  64  92 131 163 200 255 313 378
#     4  10  21  38  64  98 126 159 203 256 318 370
#     4  11  24  43  63  88 124 170 212 254 311 368
#     4  11  24  43  63  88 124 170 212 254 311 368
#     4  12  24  41  65  98 127 160 214 266 303 369
#     4   9  20  40  64  92 131 163 200 255 313 378
#     4  10  21  38  64  98 126 159 203 256 318 370
#
# _framework density 22.245076999999998
#
# number of rings (size 3 to 8) (size 9 to 14) (size 15 to 20)
#    0.000    1.714    2.857    0.857    4.000    2.286 
#    0.000    7.143    0.000    3.429    0.000    0.000 
#    0.000    0.000    0.000    0.000    0.000    0.000 
#
# Total GULP energy -78113.173363 kJ/mol
# GULP energy per Si atom -5579.512383 kJ/mol
# Density = 2.219445 g / cm^3
# Si number density = 22.245077 Si / 1000 Ang^3
#
#
#
# Elastic Constant Matrix: (Units=GPa)
#
#
# Indices 1 2 3 4 5 6 
#
# 1 91.9030 52.3923 28.9723 -7.1157 -15.9073 20.2087
# 2 52.3923 110.3793 9.3438 -13.1803 7.6646 -10.9000
# 3 28.9723 9.3438 137.6144 -9.1037 -5.1094 3.0414
# 4 -7.1157 -13.1803 -9.1037 20.0453 3.7697 -2.7364
# 5 -15.9073 7.6646 -5.1094 3.7697 35.4127 -9.7466
# 6 20.2087 -10.9000 3.0414 -2.7364 -9.7466 34.0240
#
#
#
# Elastic Compliance Matrix: (Units=1/GPa)
#
#
# Indices 1 2 3 4 5 6 
#
# 1 0.026002 -0.015284 -0.004131 -0.007033 0.010300 -0.017586
# 2 -0.015284 0.019468 0.002063 0.011737 -0.008258 0.013709
# 3 -0.004131 0.002063 0.008181 0.004107 -0.000882 0.002461
# 4 -0.007033 0.011737 0.004107 0.059971 -0.008771 0.009881
# 5 0.010300 -0.008258 -0.000882 -0.008771 0.035689 0.000833
# 6 -0.017586 0.013709 0.002461 0.009881 0.000833 0.045041
#
#
# Mechanical properties :
#
#
# Convention : Reuss Voigt Hill
#
# Bulk Modulus (GPa) = 52.77812 57.92370 55.35091
# Shear Modulus (GPa) = 21.24308 34.50896 27.87602
#
# Velocity S-wave (km/s) = 3.09359 3.94294 3.54380
# Velocity P-wave (km/s) = 6.04464 6.84284 6.45609
#
# Compressibility (1/GPa) = 0.01894725
#
# Stress axis : x y z
#
# Youngs Moduli (GPa) = 38.45920 51.36567 122.23690
#
# Poissons Ratio (x) = 0.78507 0.50491
# Poissons Ratio (y) = 0.58780 -0.25214
# Poissons Ratio (z) = 0.15886 -0.10595
#
# Static dielectric constant tensor:
#      x y z
#    x 1.860920 -0.010170 0.004400 
#    y -0.010170 1.788820 -0.008680 
#    z 0.004400 -0.008680 1.898050 
# 
# From -- ./inp_files/245989.got.cif
#   From: 2010.05.17/outbox.cif.g08.bks.cpg/sg2_123_cif.got.tgz:245989.got - 2010.06.03 11:33:40.
