data_PCOD9006725
_publ_section_title
;
Structure prediction by ZEFSAII (Michael W. Deem and Ramdas Pophale) SiO2 
 PCOD9006725
Probable space group: P -1
;
_chemical_formula_sum "Si O2"
_cell_formula_units_Z 16
_cell_length_a 15.993845
_cell_length_b 9.815256
_cell_length_c 9.566744
_cell_angle_alpha 115.258083
_cell_angle_beta 144.110600
_cell_angle_gamma 75.197840
_cell_volume 784.621796
_symmetry_space_group_name_H-M "P -1"
_symmetry_group_IT_number 2
_symmetry_cell_setting 'triclinic'
loop_
_space_group_symop_operation_xyz
x,y,z
-x,-y,-z
loop_
_atom_site_type_symbol
_atom_site_label
_atom_site_fract_x
_atom_site_fract_y
_atom_site_fract_z
Si Si1 0.958628 0.657460 0.951059
Si Si2 0.504621 0.831558 0.495993
Si Si3 0.736193 0.616670 0.377290
Si Si4 0.176654 0.828567 0.793743
Si Si5 0.800426 0.274713 0.908762
Si Si6 0.116397 0.379425 0.715901
Si Si7 0.189195 0.165654 0.942765
Si Si8 0.454610 0.709460 0.077016
O O1 0.827085 0.632246 0.649792
O O2 0.912808 0.758169 0.058200
O O3 0.000000 0.500000 0.000000
O O4 0.093052 0.742771 0.080240
O O5 0.365995 0.778265 0.381944
O O6 0.655322 0.827054 0.770853
O O7 0.500000 0.000000 0.500000
O O8 0.479768 0.714910 0.280645
O O9 0.842905 0.626285 0.394004
O O10 0.635348 0.451208 0.163786
O O11 0.618483 0.731096 0.252098
O O12 0.335864 0.819755 0.944837
O O13 0.053651 0.686962 0.522487
O O14 0.182568 0.818958 0.966939
O O15 0.133149 0.987704 0.764001
O O16 0.837887 0.451667 0.086032
O O17 0.200506 0.265399 0.862766
#
# Coordination Sequence:
#
# PCOD9006725 Si02
#       8
#     2   2   2   2   2   2   2   2
#     4  12  25  43  65 103 132 167 222 283 322 381
#     4  11  21  44  67  96 132 174 219 270 332 390
#     4  11  22  41  67  95 127 169 222 266 317 393
#     4  11  22  43  68  94 131 176 217 263 332 398
#     4  11  22  41  70  92 129 177 220 261 329 386
#     4  12  23  43  66  99 129 175 221 267 323 399
#     4  12  26  42  67  97 137 171 216 276 335 381
#     4  10  21  38  68  91 123 175 217 257 324 388
#
# _framework density 20.391988999999999
#
# number of rings (size 3 to 8) (size 9 to 14) (size 15 to 20)
#    0.000    0.750    8.750    1.500    0.000    1.000 
#    6.750    0.625    0.000    0.000    0.000    0.000 
#    0.000    0.000    0.000    0.000    0.000    0.000 
#
# Total GULP energy -89327.815650 kJ/mol
# GULP energy per Si atom -5582.988478 kJ/mol
# Density = 2.034558 g / cm^3
# Si number density = 20.391989 Si / 1000 Ang^3
#
#
#
# Elastic Constant Matrix: (Units=GPa)
#
#
# Indices 1 2 3 4 5 6 
#
# 1 68.1372 28.2885 40.3175 -2.8495 13.4072 -16.6006
# 2 28.2885 107.7413 28.3437 -17.6089 5.1736 -9.1904
# 3 40.3175 28.3437 65.7053 -5.9139 29.8248 -1.9649
# 4 -2.8495 -17.6089 -5.9139 30.5582 -0.1596 3.1882
# 5 13.4072 5.1736 29.8248 -0.1596 33.4523 -7.8527
# 6 -16.6006 -9.1904 -1.9649 3.1882 -7.8527 25.3020
#
#
#
# Elastic Compliance Matrix: (Units=1/GPa)
#
#
# Indices 1 2 3 4 5 6 
#
# 1 0.034909 -0.001084 -0.028917 -0.005648 0.018180 0.026618
# 2 -0.001084 0.012216 -0.006385 0.005293 0.005247 0.004192
# 3 -0.028917 -0.006385 0.055590 0.007457 -0.044388 -0.031691
# 4 -0.005648 0.005293 0.007457 0.037498 -0.006921 -0.008077
# 5 0.018180 0.005247 -0.044388 -0.006921 0.069008 0.032676
# 6 0.026618 0.004192 -0.031691 -0.008077 0.032676 0.067207
#
#
# Mechanical properties :
#
#
# Convention : Reuss Voigt Hill
#
# Bulk Modulus (GPa) = 33.39622 48.38701 40.89162
# Shear Modulus (GPa) = 13.92058 27.50477 20.71267
#
# Velocity S-wave (km/s) = 2.61559 3.67659 3.19050
# Velocity P-wave (km/s) = 5.05316 6.46553 5.80248
#
# Compressibility (1/GPa) = 0.02994351
#
# Stress axis : x y z
#
# Youngs Moduli (GPa) = 28.64618 81.85762 17.98888
#
# Poissons Ratio (x) = 0.08871 0.52019
# Poissons Ratio (y) = 0.03105 0.11485
# Poissons Ratio (z) = 0.82837 0.52263
#
# Static dielectric constant tensor:
#      x y z
#    x 1.743910 -0.045210 0.034150 
#    y -0.045210 1.747080 -0.010850 
#    z 0.034150 -0.010850 1.759000 
# 
# From -- ./inp_files/277793.got.cif
#   From: 2010.05.17/outbox.cif.g08.bks.cpg/sg2_139_cif.got.tgz:277793.got - 2010.06.03 11:33:40.
