data_PCOD9006834
_publ_section_title
;
Structure prediction by ZEFSAII (Michael W. Deem and Ramdas Pophale) SiO2 
 PCOD9006834
Probable space group: P -1
;
_chemical_formula_sum "Si O2"
_cell_formula_units_Z 12
_cell_length_a 12.837240
_cell_length_b 8.765722
_cell_length_c 8.553482
_cell_angle_alpha 96.120633
_cell_angle_beta 139.500818
_cell_angle_gamma 64.747394
_cell_volume 525.055105
_symmetry_space_group_name_H-M "P -1"
_symmetry_group_IT_number 2
_symmetry_cell_setting 'triclinic'
loop_
_space_group_symop_operation_xyz
x,y,z
-x,-y,-z
loop_
_atom_site_type_symbol
_atom_site_label
_atom_site_fract_x
_atom_site_fract_y
_atom_site_fract_z
Si Si1 0.529361 0.306923 0.540572
Si Si2 0.437931 0.807047 0.795929
Si Si3 0.123868 0.038813 0.032191
Si Si4 0.831814 0.663935 0.731552
Si Si5 0.903802 0.200133 0.486631
Si Si6 0.193182 0.242132 0.636354
O O1 0.500000 0.500000 0.500000
O O2 0.552811 0.225071 0.383698
O O3 0.350886 0.336913 0.431977
O O4 0.704537 0.162961 0.832380
O O5 0.318564 0.728655 0.733364
O O6 0.311767 0.023944 0.710822
O O7 0.650962 0.732953 0.092942
O O8 0.197712 0.149886 0.216990
O O9 0.995915 0.161293 0.758719
O O10 0.000000 0.000000 0.000000
O O11 0.861564 0.657483 0.580651
O O12 0.000000 0.500000 0.000000
O O13 0.000068 0.290342 0.510449
O O14 0.000000 0.000000 0.500000
#
# Coordination Sequence:
#
# PCOD9006834 Si02
#       6
#     2   2   2   2   2   2
#     4  12  26  44  69 105 144 188 242 292 349 428
#     4  10  21  42  71 106 135 184 235 291 361 425
#     4  12  22  44  74 101 142 188 237 293 353 425
#     4  12  27  46  70 104 141 189 243 297 356 422
#     4  10  21  38  70 104 139 180 231 287 362 424
#     4  10  22  43  72 103 139 183 238 293 365 422
#
# _framework density 22.854745000000001
#
# number of rings (size 3 to 8) (size 9 to 14) (size 15 to 20)
#    0.000    1.000    3.333    3.500    7.000    0.000 
#    0.000    5.833    0.000    0.000    0.000    0.000 
#    0.000    0.000    0.000    0.000    0.000    0.000 
#
# Total GULP energy -67112.373414 kJ/mol
# GULP energy per Si atom -5592.697784 kJ/mol
# Density = 2.280273 g / cm^3
# Si number density = 22.854745 Si / 1000 Ang^3
#
#
#
# Elastic Constant Matrix: (Units=GPa)
#
#
# Indices 1 2 3 4 5 6 
#
# 1 204.5408 22.2805 62.6803 8.9195 14.6762 47.1635
# 2 22.2805 84.8541 26.6992 2.4038 1.8428 20.1941
# 3 62.6803 26.6992 101.1526 -1.8684 11.0896 27.6679
# 4 8.9195 2.4038 -1.8684 36.7478 -6.1378 2.1064
# 5 14.6762 1.8428 11.0896 -6.1378 39.5632 14.1885
# 6 47.1635 20.1941 27.6679 2.1064 14.1885 34.1460
#
#
#
# Elastic Compliance Matrix: (Units=1/GPa)
#
#
# Indices 1 2 3 4 5 6 
#
# 1 0.007771 0.001083 -0.002614 -0.001368 0.001030 -0.009600
# 2 0.001083 0.014376 -0.002223 -0.000301 0.002865 -0.009369
# 3 -0.002614 -0.002223 0.013885 0.001803 -0.000271 -0.006325
# 4 -0.001368 -0.000301 0.001803 0.028824 0.005767 -0.003569
# 5 0.001030 0.002865 -0.000271 0.005767 0.031608 -0.016387
# 6 -0.009600 -0.009369 -0.006325 -0.003569 -0.016387 0.060242
#
#
# Mechanical properties :
#
#
# Convention : Reuss Voigt Hill
#
# Bulk Modulus (GPa) = 35.05582 68.20752 51.63167
# Shear Modulus (GPa) = 28.78167 40.68390 34.73279
#
# Velocity S-wave (km/s) = 3.55255 4.22371 3.90259
# Velocity P-wave (km/s) = 5.67445 7.32769 6.55341
#
# Compressibility (1/GPa) = 0.02852594
#
# Stress axis : x y z
#
# Youngs Moduli (GPa) = 128.67682 69.56114 72.01792
#
# Poissons Ratio (x) = -0.07533 0.18823
# Poissons Ratio (y) = -0.13935 0.16007
# Poissons Ratio (z) = 0.33633 0.15461
#
# Static dielectric constant tensor:
#      x y z
#    x 1.852320 -0.052000 -0.052420 
#    y -0.052000 1.906260 0.071980 
#    z -0.052420 0.071980 1.839420 
# 
# From -- ./inp_files/160149.got.cif
#   From: 2010.05.17/outbox.cif.g08.bks.cpg/sg2_81_cif.got.tgz:160149.got - 2010.06.03 11:33:40.
