data_PCOD9006572
_publ_section_title
;
Structure prediction by ZEFSAII (Michael W. Deem and Ramdas Pophale) SiO2 
 PCOD9006572
Probable space group: P -1
;
_chemical_formula_sum "Si O2"
_cell_formula_units_Z 14
_cell_length_a 9.970560
_cell_length_b 14.780889
_cell_length_c 8.486128
_cell_angle_alpha 90.328754
_cell_angle_beta 83.399932
_cell_angle_gamma 27.913733
_cell_volume 565.898822
_symmetry_space_group_name_H-M "P -1"
_symmetry_group_IT_number 2
_symmetry_cell_setting 'triclinic'
loop_
_space_group_symop_operation_xyz
x,y,z
-x,-y,-z
loop_
_atom_site_type_symbol
_atom_site_label
_atom_site_fract_x
_atom_site_fract_y
_atom_site_fract_z
Si Si1 0.617567 0.896255 0.738702
Si Si2 0.600749 0.706990 0.808894
Si Si3 0.780255 0.131707 0.886277
Si Si4 0.659962 0.176928 0.492271
Si Si5 0.357928 0.640583 0.339627
Si Si6 0.246673 0.258205 0.624765
Si Si7 0.051864 0.789288 0.702232
O O1 0.550128 0.844509 0.837653
O O2 0.749216 0.784997 0.551433
O O3 0.855959 0.821297 0.779770
O O4 0.337747 0.125043 0.731725
O O5 0.399404 0.796269 0.686229
O O6 0.935122 0.487806 0.709936
O O7 0.530633 0.700157 0.982469
O O8 0.772030 0.230764 0.792741
O O9 0.883477 0.980405 0.777707
O O10 0.000000 0.000000 0.000000
O O11 0.493053 0.363883 0.585901
O O12 0.501518 0.182924 0.582634
O O13 0.124422 0.743050 0.501890
O O14 0.618793 0.414662 0.269688
O O15 0.000000 0.000000 0.500000
#
# Coordination Sequence:
#
# PCOD9006572 Si02
#       7
#     2   2   2   2   2   2   2
#     4  10  21  39  66  97 128 166 224 275 326 396
#     4  11  24  42  66  97 137 177 216 274 342 403
#     4  12  27  44  64  97 140 180 221 278 345 406
#     4  11  20  40  71  98 130 175 228 278 326 391
#     4  11  23  42  70  96 128 173 230 281 331 396
#     4  10  21  38  66  99 132 174 222 276 332 392
#     4  11  24  43  69  98 127 174 230 282 332 397
#
# _framework density 24.739404
#
# number of rings (size 3 to 8) (size 9 to 14) (size 15 to 20)
#    0.000    1.143    0.000    8.143    0.000    5.714 
#    0.000    5.000    0.000    0.000    0.000    0.000 
#    0.000    0.000    0.000    0.000    0.000    0.000 
#
# Total GULP energy -78243.767782 kJ/mol
# GULP energy per Si atom -5588.840556 kJ/mol
# Density = 2.468310 g / cm^3
# Si number density = 24.739404 Si / 1000 Ang^3
#
#
#
# Elastic Constant Matrix: (Units=GPa)
#
#
# Indices 1 2 3 4 5 6 
#
# 1 99.3683 23.5465 15.4100 7.7441 2.4617 -4.8348
# 2 23.5465 141.2171 49.6565 5.4050 -13.2835 -3.0248
# 3 15.4100 49.6565 80.6021 -3.5456 -0.7358 -18.7809
# 4 7.7441 5.4050 -3.5456 38.6939 2.4904 -9.1786
# 5 2.4617 -13.2835 -0.7358 2.4904 17.7396 3.5301
# 6 -4.8348 -3.0248 -18.7809 -9.1786 3.5301 35.0163
#
#
#
# Elastic Compliance Matrix: (Units=1/GPa)
#
#
# Indices 1 2 3 4 5 6 
#
# 1 0.010835 -0.001611 -0.001035 -0.001723 -0.002634 0.000616
# 2 -0.001611 0.011076 -0.007878 -0.003884 0.009830 -0.005500
# 3 -0.001035 -0.007878 0.020688 0.006807 -0.008421 0.012905
# 4 -0.001723 -0.003884 0.006807 0.030805 -0.009113 0.012071
# 5 -0.002634 0.009830 -0.008421 -0.009113 0.067662 -0.013241
# 6 0.000616 -0.005500 0.012905 0.012071 -0.013241 0.039589
#
#
# Mechanical properties :
#
#
# Convention : Reuss Voigt Hill
#
# Bulk Modulus (GPa) = 46.40500 55.37928 50.89214
# Shear Modulus (GPa) = 23.93645 33.79494 28.86570
#
# Velocity S-wave (km/s) = 3.11391 3.70000 3.41954
# Velocity P-wave (km/s) = 5.63266 6.37864 6.01722
#
# Compressibility (1/GPa) = 0.02154940
#
# Stress axis : x y z
#
# Youngs Moduli (GPa) = 92.29008 90.28846 48.33825
#
# Poissons Ratio (x) = 0.14548 0.05005
# Poissons Ratio (y) = 0.14870 0.38081
# Poissons Ratio (z) = 0.09555 0.71129
#
# Static dielectric constant tensor:
#      x y z
#    x 2.036600 -0.004720 -0.022070 
#    y -0.004720 2.057550 -0.010130 
#    z -0.022070 -0.010130 2.065080 
# 
# From -- ./inp_files/431457.got.cif
#   From: 2010.05.17/outbox.cif.g08.bks.cpg/sg2_216_cif.got.tgz:431457.got - 2010.06.03 11:33:40.
