data_PCOD9006024
_publ_section_title
;
Structure prediction by ZEFSAII (Michael W. Deem and Ramdas Pophale) SiO2 
 PCOD9006024
Probable space group: P -1
;
_chemical_formula_sum "Si O2"
_cell_formula_units_Z 16
_cell_length_a 11.286712
_cell_length_b 7.599002
_cell_length_c 10.285457
_cell_angle_alpha 82.224368
_cell_angle_beta 55.988117
_cell_angle_gamma 105.335944
_cell_volume 659.456713
_symmetry_space_group_name_H-M "P -1"
_symmetry_group_IT_number 2
_symmetry_cell_setting 'triclinic'
loop_
_space_group_symop_operation_xyz
x,y,z
-x,-y,-z
loop_
_atom_site_type_symbol
_atom_site_label
_atom_site_fract_x
_atom_site_fract_y
_atom_site_fract_z
Si Si1 0.689714 0.757266 0.875884
Si Si2 0.095841 0.818782 0.241158
Si Si3 0.350859 0.033833 0.640564
Si Si4 0.616008 0.223484 0.934735
Si Si5 0.746322 0.487019 0.041293
Si Si6 0.968979 0.200879 0.009133
Si Si7 0.502272 0.583927 0.347185
Si Si8 0.233830 0.240470 0.462861
O O1 0.238460 0.393047 0.113652
O O2 0.713543 0.803642 0.704691
O O3 0.791759 0.953454 0.870951
O O4 0.506441 0.682875 0.032413
O O5 0.215434 0.735628 0.235616
O O6 0.949220 0.808654 0.415057
O O7 0.032948 0.734940 0.145445
O O8 0.420493 0.186563 0.701363
O O9 0.284510 0.127830 0.556095
O O10 0.500000 0.000000 0.500000
O O11 0.195428 0.857977 0.808190
O O12 0.666132 0.270778 0.051056
O O13 0.500000 0.000000 0.000000
O O14 0.612841 0.514113 0.203508
O O15 0.901184 0.615877 0.013476
O O16 0.000000 0.000000 0.000000
O O17 0.500000 0.500000 0.500000
O O18 0.328458 0.470945 0.410926
#
# Coordination Sequence:
#
# PCOD9006024 Si02
#       8
#     2   2   2   2   2   2   2   2
#     4  11  22  41  68  91 132 178 219 265 332 398
#     4  11  23  42  64  96 135 168 224 275 327 391
#     4  11  24  40  63  99 135 168 220 280 328 388
#     4  10  25  42  64 101 130 170 220 276 324 391
#     4  12  22  43  72  96 130 179 226 265 331 405
#     4  12  21  41  69  95 127 176 219 271 329 391
#     4  10  21  38  64  92 133 171 217 265 331 393
#     4  11  22  40  63  93 130 181 217 264 336 394
#
# _framework density 24.262398000000001
#
# number of rings (size 3 to 8) (size 9 to 14) (size 15 to 20)
#    0.000    1.000    5.000    1.500    1.750    1.500 
#    2.250    0.625    0.000    0.000    0.000    0.000 
#    0.000    0.000    0.000    0.000    0.000    0.000 
#
# Total GULP energy -89345.195629 kJ/mol
# GULP energy per Si atom -5584.074727 kJ/mol
# Density = 2.420718 g / cm^3
# Si number density = 24.262398 Si / 1000 Ang^3
#
#
#
# Elastic Constant Matrix: (Units=GPa)
#
#
# Indices 1 2 3 4 5 6 
#
# 1 116.2020 33.3023 36.9515 -7.3264 -24.2608 13.9856
# 2 33.3023 134.1016 13.6722 5.1813 -8.9518 41.9022
# 3 36.9515 13.6722 109.0578 0.2219 -29.0925 -0.0975
# 4 -7.3264 5.1813 0.2219 32.9768 3.7411 -8.7148
# 5 -24.2608 -8.9518 -29.0925 3.7411 55.7343 2.0815
# 6 13.9856 41.9022 -0.0975 -8.7148 2.0815 40.0735
#
#
#
# Elastic Compliance Matrix: (Units=1/GPa)
#
#
# Indices 1 2 3 4 5 6 
#
# 1 0.010922 -0.001788 -0.002682 0.001940 0.003000 -0.001683
# 2 -0.001788 0.012773 -0.000464 -0.006386 0.001991 -0.014225
# 3 -0.002682 -0.000464 0.011401 -0.000868 0.004729 0.001015
# 4 0.001940 -0.006386 -0.000868 0.035864 -0.003564 0.013983
# 5 0.003000 0.001991 0.004729 -0.003564 0.022465 -0.005059
# 6 -0.001683 -0.014225 0.001015 0.013983 -0.005059 0.043722
#
#
# Mechanical properties :
#
#
# Convention : Reuss Voigt Hill
#
# Bulk Modulus (GPa) = 39.63847 58.57926 49.10886
# Shear Modulus (GPa) = 32.17033 44.11929 38.14481
#
# Velocity S-wave (km/s) = 3.64529 4.26892 3.96937
# Velocity P-wave (km/s) = 5.83870 6.96382 6.42593
#
# Compressibility (1/GPa) = 0.02522802
#
# Stress axis : x y z
#
# Youngs Moduli (GPa) = 91.55792 78.29118 87.71486
#
# Poissons Ratio (x) = 0.13997 0.23523
# Poissons Ratio (y) = 0.16369 0.04071
# Poissons Ratio (z) = 0.24553 0.03634
#
# Static dielectric constant tensor:
#      x y z
#    x 2.047000 -0.093690 0.008560 
#    y -0.093690 2.083960 0.001090 
#    z 0.008560 0.001090 1.915980 
# 
# From -- ./inp_files/419524.got.cif
#   From: 2010.05.17/outbox.cif.g08.bks.cpg/sg2_210_cif.got.tgz:419524.got - 2010.06.03 11:33:40.
