data_PCOD9006292
_publ_section_title
;
Structure prediction by ZEFSAII (Michael W. Deem and Ramdas Pophale) SiO2 
 PCOD9006292
Probable space group: P -1
;
_chemical_formula_sum "Si O2"
_cell_formula_units_Z 16
_cell_length_a 8.619327
_cell_length_b 11.551975
_cell_length_c 15.535538
_cell_angle_alpha 47.949351
_cell_angle_beta 71.741257
_cell_angle_gamma 40.785926
_cell_volume 687.824241
_symmetry_space_group_name_H-M "P -1"
_symmetry_group_IT_number 2
_symmetry_cell_setting 'triclinic'
loop_
_space_group_symop_operation_xyz
x,y,z
-x,-y,-z
loop_
_atom_site_type_symbol
_atom_site_label
_atom_site_fract_x
_atom_site_fract_y
_atom_site_fract_z
Si Si1 0.061262 0.264037 0.714748
Si Si2 0.819456 0.368693 0.367646
Si Si3 0.444249 0.512087 0.226062
Si Si4 0.521724 0.741687 0.980397
Si Si5 0.771115 0.712679 0.094902
Si Si6 0.590598 0.009594 0.572011
Si Si7 0.330529 0.382303 0.167636
Si Si8 0.799946 0.502495 0.480935
O O1 0.072093 0.443521 0.617284
O O2 0.816349 0.362666 0.750546
O O3 0.017925 0.259512 0.623206
O O4 0.309216 0.020918 0.843958
O O5 0.657847 0.375764 0.330131
O O6 0.765981 0.577497 0.230946
O O7 0.722256 0.447983 0.443459
O O8 0.129099 0.121595 0.429785
O O9 0.503283 0.343981 0.225475
O O10 0.408035 0.701610 0.087341
O O11 0.610620 0.602255 0.945201
O O12 0.763716 0.640283 0.037727
O O13 0.021395 0.631155 0.109220
O O14 0.500000 0.000000 0.000000
O O15 0.630906 0.830921 0.717111
O O16 0.500000 0.000000 0.500000
O O17 0.409902 0.263968 0.532474
#
# Coordination Sequence:
#
# PCOD9006292 Si02
#       8
#     2   2   2   2   2   2   2   2
#     4  11  22  41  68  96 128 167 224 270 331 392
#     4  10  24  42  63  98 137 172 220 269 333 398
#     4  11  24  43  61  94 141 175 209 269 337 405
#     4  11  22  40  63  98 130 172 217 269 335 399
#     4  10  21  38  65  93 129 169 220 279 323 381
#     4  11  22  42  71  98 130 173 225 283 323 380
#     4  11  22  40  64  96 133 171 225 268 329 397
#     4  11  22  43  71 100 125 172 232 274 323 391
#
# _framework density 23.261756999999999
#
# number of rings (size 3 to 8) (size 9 to 14) (size 15 to 20)
#    0.000    1.250    1.250    6.375    0.000    1.500 
#    2.250    2.500    0.000    0.000    0.000    0.000 
#    0.000    0.000    0.000    0.000    0.000    0.000 
#
# Total GULP energy -89333.170497 kJ/mol
# GULP energy per Si atom -5583.323156 kJ/mol
# Density = 2.320881 g / cm^3
# Si number density = 23.261757 Si / 1000 Ang^3
#
#
#
# Elastic Constant Matrix: (Units=GPa)
#
#
# Indices 1 2 3 4 5 6 
#
# 1 127.1473 54.7454 47.2215 32.4786 44.2659 7.4903
# 2 54.7454 104.6003 35.5538 11.2809 17.4864 0.1586
# 3 47.2215 35.5538 143.0164 16.4702 14.2651 2.8976
# 4 32.4786 11.2809 16.4702 35.1031 4.8346 6.2350
# 5 44.2659 17.4864 14.2651 4.8346 52.6039 14.5897
# 6 7.4903 0.1586 2.8976 6.2350 14.5897 36.5199
#
#
#
# Elastic Compliance Matrix: (Units=1/GPa)
#
#
# Indices 1 2 3 4 5 6 
#
# 1 0.018886 -0.005492 -0.002051 -0.013613 -0.013363 0.003975
# 2 -0.005492 0.012729 -0.001591 0.001539 0.000473 0.000745
# 3 -0.002051 -0.001591 0.008217 -0.001463 0.000173 -0.000044
# 4 -0.013613 0.001539 -0.001463 0.041361 0.009776 -0.008066
# 5 -0.013363 0.000473 0.000173 0.009776 0.032455 -0.011910
# 6 0.003975 0.000745 -0.000044 -0.008066 -0.011910 0.032702
#
#
# Mechanical properties :
#
#
# Convention : Reuss Voigt Hill
#
# Bulk Modulus (GPa) = 46.36937 72.20061 59.28499
# Shear Modulus (GPa) = 29.10281 40.66162 34.88221
#
# Velocity S-wave (km/s) = 3.54093 4.18545 3.87661
# Velocity P-wave (km/s) = 6.05760 7.37991 6.75121
#
# Compressibility (1/GPa) = 0.02156596
#
# Stress axis : x y z
#
# Youngs Moduli (GPa) = 52.94844 78.56154 121.70092
#
# Poissons Ratio (x) = 0.43143 0.24957
# Poissons Ratio (y) = 0.29077 0.19359
# Poissons Ratio (z) = 0.10858 0.12497
#
# Static dielectric constant tensor:
#      x y z
#    x 1.931410 0.059100 0.023380 
#    y 0.059100 2.005740 0.011350 
#    z 0.023380 0.011350 1.862910 
# 
# From -- ./inp_files/500019.got.cif
#   From: 2010.05.17/outbox.cif.g08.bks.cpg/sg2_251_cif.got.tgz:500019.got - 2010.06.03 11:33:40.
