data_PCOD9006595
_publ_section_title
;
Structure prediction by ZEFSAII (Michael W. Deem and Ramdas Pophale) SiO2 
 PCOD9006595
Probable space group: P -1
;
_chemical_formula_sum "Si O2"
_cell_formula_units_Z 14
_cell_length_a 9.034127
_cell_length_b 8.534492
_cell_length_c 15.570808
_cell_angle_alpha 31.029679
_cell_angle_beta 109.655248
_cell_angle_gamma 114.348370
_cell_volume 563.444491
_symmetry_space_group_name_H-M "P -1"
_symmetry_group_IT_number 2
_symmetry_cell_setting 'triclinic'
loop_
_space_group_symop_operation_xyz
x,y,z
-x,-y,-z
loop_
_atom_site_type_symbol
_atom_site_label
_atom_site_fract_x
_atom_site_fract_y
_atom_site_fract_z
Si Si1 0.140104 0.916458 0.621607
Si Si2 0.684281 0.102783 0.026394
Si Si3 0.526223 0.694622 0.998878
Si Si4 0.921330 0.702679 0.827576
Si Si5 0.925613 0.729313 0.180853
Si Si6 0.232342 0.879512 0.272774
Si Si7 0.485429 0.975443 0.611743
O O1 0.138348 0.568623 0.751571
O O2 0.326131 0.084255 0.560083
O O3 0.068163 0.914491 0.702968
O O4 0.000000 0.000000 0.500000
O O5 0.627189 0.163204 0.082050
O O6 0.796640 0.449756 0.861244
O O7 0.500000 0.000000 0.000000
O O8 0.787717 0.854153 0.145796
O O9 0.527724 0.401667 0.199514
O O10 0.500000 0.500000 0.000000
O O11 0.679571 0.973655 0.868626
O O12 0.831221 0.884087 0.788265
O O13 0.000000 0.500000 0.000000
O O14 0.061952 0.665810 0.303072
O O15 0.000000 0.000000 0.000000
O O16 0.369580 0.824071 0.392012
O O17 0.500000 0.000000 0.500000
#
# Coordination Sequence:
#
# PCOD9006595 Si02
#       7
#     2   2   2   2   2   2   2
#     4  12  28  47  69  98 144 189 227 285 358 415
#     4  12  23  37  68 109 140 174 230 293 341 400
#     4  10  21  38  67 104 134 172 226 285 340 401
#     4  12  22  42  70 104 138 181 231 282 346 414
#     4  12  24  44  70 108 139 177 235 297 342 407
#     4  11  23  41  73 103 135 174 235 293 339 405
#     4  11  23  42  66  97 137 187 226 272 345 424
#
# _framework density 24.847169999999998
#
# number of rings (size 3 to 8) (size 9 to 14) (size 15 to 20)
#    0.000    0.571    5.714    4.286    2.000    0.000 
#    0.000    3.571    0.000    0.000    0.000    0.000 
#    0.000    0.000    0.000    0.000    0.000    0.000 
#
# Total GULP energy -78034.090146 kJ/mol
# GULP energy per Si atom -5573.863582 kJ/mol
# Density = 2.479062 g / cm^3
# Si number density = 24.847170 Si / 1000 Ang^3
#
#
#
# Elastic Constant Matrix: (Units=GPa)
#
#
# Indices 1 2 3 4 5 6 
#
# 1 204.6411 5.9109 40.1134 22.3654 7.6152 -12.6469
# 2 5.9109 51.8851 -3.6009 6.2488 -3.3645 16.0484
# 3 40.1134 -3.6009 95.6981 39.0913 -3.1928 -8.1252
# 4 22.3654 6.2488 39.0913 36.1307 -4.7831 13.7101
# 5 7.6152 -3.3645 -3.1928 -4.7831 28.4765 14.7846
# 6 -12.6469 16.0484 -8.1252 13.7101 14.7846 55.5937
#
#
#
# Elastic Compliance Matrix: (Units=1/GPa)
#
#
# Indices 1 2 3 4 5 6 
#
# 1 0.006089 -0.001801 0.000135 -0.006171 -0.005397 0.004882
# 2 -0.001801 0.022833 0.000606 0.001190 0.008340 -0.009424
# 3 0.000135 0.000606 0.025747 -0.035261 -0.010899 0.015213
# 4 -0.006171 0.001190 -0.035261 0.087673 0.031756 -0.036967
# 5 -0.005397 0.008340 -0.010899 0.031756 0.056197 -0.028005
# 6 0.004882 -0.009424 0.015213 -0.036967 -0.028005 0.040606
#
#
# Mechanical properties :
#
#
# Convention : Reuss Voigt Hill
#
# Bulk Modulus (GPa) = 19.02983 48.56345 33.79664
# Shear Modulus (GPa) = 19.32123 44.69359 32.00741
#
# Velocity S-wave (km/s) = 2.79158 4.24576 3.59300
# Velocity P-wave (km/s) = 4.25040 6.60474 5.55376
#
# Compressibility (1/GPa) = 0.05254908
#
# Stress axis : x y z
#
# Youngs Moduli (GPa) = 164.22717 43.79639 38.83886
#
# Poissons Ratio (x) = 0.07888 -0.00524
# Poissons Ratio (y) = 0.29580 -0.02354
# Poissons Ratio (z) = -0.02217 -0.02654
#
# Static dielectric constant tensor:
#      x y z
#    x 2.160340 -0.481440 -0.194030 
#    y -0.481440 4.948680 0.515680 
#    z -0.194030 0.515680 2.226280 
# 
# From -- ./inp_files/491863.got.cif
#   From: 2010.05.17/outbox.cif.g08.bks.cpg/sg2_246_cif.got.tgz:491863.got - 2010.06.03 11:33:40.
