data_PCOD9006427
_publ_section_title
;
Structure prediction by ZEFSAII (Michael W. Deem and Ramdas Pophale) SiO2 
 PCOD9006427
Probable space group: P -1
;
_chemical_formula_sum "Si O2"
_cell_formula_units_Z 16
_cell_length_a 7.347890
_cell_length_b 24.787215
_cell_length_c 11.304247
_cell_angle_alpha 21.099774
_cell_angle_beta 58.384704
_cell_angle_gamma 61.850516
_cell_volume 630.177861
_symmetry_space_group_name_H-M "P -1"
_symmetry_group_IT_number 2
_symmetry_cell_setting 'triclinic'
loop_
_space_group_symop_operation_xyz
x,y,z
-x,-y,-z
loop_
_atom_site_type_symbol
_atom_site_label
_atom_site_fract_x
_atom_site_fract_y
_atom_site_fract_z
Si Si1 0.902774 0.864789 0.144859
Si Si2 0.165244 0.379693 0.042342
Si Si3 0.439552 0.132443 0.568914
Si Si4 0.766480 0.302151 0.495527
Si Si5 0.787712 0.921298 0.792185
Si Si6 0.644300 0.623815 0.634799
Si Si7 0.225948 0.360269 0.782623
Si Si8 0.753749 0.398287 0.881630
O O1 0.720757 0.945530 0.117630
O O2 0.792352 0.697841 0.531992
O O3 0.132430 0.835388 0.183607
O O4 0.874555 0.890735 0.961001
O O5 0.229790 0.542510 0.746397
O O6 0.206230 0.378542 0.891382
O O7 0.285083 0.231103 0.343317
O O8 0.925403 0.338267 0.256892
O O9 0.589460 0.025181 0.666895
O O10 0.618612 0.267611 0.262759
O O11 0.526801 0.277272 0.575854
O O12 0.702950 0.788471 0.002322
O O13 0.000000 0.000000 0.500000
O O14 0.790280 0.539893 0.665987
O O15 0.500000 0.500000 0.000000
O O16 0.341905 0.512780 0.378566
O O17 0.973168 0.345032 0.866944
#
# Coordination Sequence:
#
# PCOD9006427 Si02
#       8
#     2   2   2   2   2   2   2   2
#     4  11  24  43  68  97 135 174 222 281 323 393
#     4  10  21  39  60  97 136 162 212 282 326 391
#     4  11  23  43  67  93 131 174 222 266 333 391
#     4  10  21  38  66 105 130 164 221 280 334 380
#     4  12  26  45  64  93 133 183 220 264 337 404
#     4  12  19  36  70 102 132 165 213 277 335 382
#     4  11  24  39  64  93 135 173 217 269 337 393
#     4  11  21  38  61  99 124 169 218 264 328 395
#
# _framework density 25.389655999999999
#
# number of rings (size 3 to 8) (size 9 to 14) (size 15 to 20)
#    0.000    1.000    5.000    3.375    1.750    1.000 
#    2.250    1.250    0.000    3.750    0.000    0.000 
#    0.000    0.000    0.000    0.000    0.000    0.000 
#
# Total GULP energy -89225.136812 kJ/mol
# GULP energy per Si atom -5576.571051 kJ/mol
# Density = 2.533187 g / cm^3
# Si number density = 25.389656 Si / 1000 Ang^3
#
#
#
# Elastic Constant Matrix: (Units=GPa)
#
#
# Indices 1 2 3 4 5 6 
#
# 1 97.6535 50.0298 20.6866 -7.0598 15.4842 -10.4743
# 2 50.0298 196.3675 46.8083 -11.0503 26.9159 -3.2965
# 3 20.6866 46.8083 64.7181 3.7509 13.3901 6.0261
# 4 -7.0598 -11.0503 3.7509 50.4835 0.8898 9.1650
# 5 15.4842 26.9159 13.3901 0.8898 31.3622 -0.6934
# 6 -10.4743 -3.2965 6.0261 9.1650 -0.6934 51.2108
#
#
#
# Elastic Compliance Matrix: (Units=1/GPa)
#
#
# Indices 1 2 3 4 5 6 
#
# 1 0.012678 -0.002158 -0.002057 0.001069 -0.003505 0.002458
# 2 -0.002158 0.007125 -0.003855 0.001579 -0.003445 0.000142
# 3 -0.002057 -0.003855 0.020157 -0.002058 -0.004284 -0.002731
# 4 0.001069 0.001579 -0.002058 0.021073 -0.001674 -0.003231
# 5 -0.003505 -0.003445 -0.004284 -0.001674 0.038458 0.000386
# 6 0.002458 0.000142 -0.002731 -0.003231 0.000386 0.020944
#
#
# Mechanical properties :
#
#
# Convention : Reuss Voigt Hill
#
# Bulk Modulus (GPa) = 41.98247 65.97650 53.97949
# Shear Modulus (GPa) = 34.59842 42.69226 38.64534
#
# Velocity S-wave (km/s) = 3.69548 4.10504 3.90563
# Velocity P-wave (km/s) = 5.89745 6.96494 6.45331
#
# Compressibility (1/GPa) = 0.02381946
#
# Stress axis : x y z
#
# Youngs Moduli (GPa) = 78.87490 140.35733 49.60942
#
# Poissons Ratio (x) = 0.30287 0.10207
# Poissons Ratio (y) = 0.17020 0.19126
# Poissons Ratio (z) = 0.16228 0.54111
#
# Static dielectric constant tensor:
#      x y z
#    x 2.081070 0.017590 0.030390 
#    y 0.017590 2.063940 0.017660 
#    z 0.030390 0.017660 2.188900 
# 
# From -- ./inp_files/392808.got.cif
#   From: 2010.05.17/outbox.cif.g08.bks.cpg/sg2_197_cif.got.tgz:392808.got - 2010.06.03 11:33:40.
