data_PCOD9006272
_publ_section_title
;
Structure prediction by ZEFSAII (Michael W. Deem and Ramdas Pophale) SiO2 
 PCOD9006272
Probable space group: P -1
;
_chemical_formula_sum "Si O2"
_cell_formula_units_Z 14
_cell_length_a 16.032447
_cell_length_b 5.371204
_cell_length_c 8.173224
_cell_angle_alpha 65.414981
_cell_angle_beta 68.493926
_cell_angle_gamma 61.922288
_cell_volume 551.754907
_symmetry_space_group_name_H-M "P -1"
_symmetry_group_IT_number 2
_symmetry_cell_setting 'triclinic'
loop_
_space_group_symop_operation_xyz
x,y,z
-x,-y,-z
loop_
_atom_site_type_symbol
_atom_site_label
_atom_site_fract_x
_atom_site_fract_y
_atom_site_fract_z
Si Si1 0.021324 0.227956 0.184135
Si Si2 0.100202 0.466414 0.533343
Si Si3 0.555240 0.532894 0.705757
Si Si4 0.871296 0.419884 0.844185
Si Si5 0.363526 0.890397 0.957856
Si Si6 0.403982 0.380306 0.674089
Si Si7 0.773305 0.128785 0.219204
O O1 0.105129 0.291628 0.206689
O O2 0.935233 0.294654 0.360148
O O3 0.050090 0.914761 0.161457
O O4 0.000000 0.500000 0.000000
O O5 0.169329 0.507624 0.331488
O O6 0.000000 0.500000 0.500000
O O7 0.152265 0.156972 0.669724
O O8 0.463415 0.729061 0.826840
O O9 0.507722 0.355237 0.672467
O O10 0.591151 0.708433 0.496502
O O11 0.630459 0.306309 0.835221
O O12 0.822608 0.347293 0.058000
O O13 0.272450 0.940549 0.895150
O O14 0.369994 0.206938 0.885795
O O15 0.319274 0.701671 0.649880
#
# Coordination Sequence:
#
# PCOD9006272 Si02
#       7
#     2   2   2   2   2   2   2
#     4  11  22  43  72  92 125 173 228 278 335 399
#     4  10  24  45  66  91 128 177 228 272 335 398
#     4   9  20  40  64  93 123 169 215 253 328 398
#     4  11  25  44  66  96 131 173 222 280 336 398
#     4  10  21  39  63  93 127 168 209 266 324 397
#     4  10  21  38  65  92 131 164 213 264 323 394
#     4  11  25  41  59  98 131 167 217 278 332 390
#
# _framework density 25.373584000000001
#
# number of rings (size 3 to 8) (size 9 to 14) (size 15 to 20)
#    0.000    1.714    1.429    1.714    4.000    2.286 
#    7.714    2.857    0.000    0.000    0.000    0.000 
#    0.000    0.000    0.000    0.000    0.000    0.000 
#
# Total GULP energy -78053.529687 kJ/mol
# GULP energy per Si atom -5575.252121 kJ/mol
# Density = 2.531583 g / cm^3
# Si number density = 25.373584 Si / 1000 Ang^3
#
#
#
# Elastic Constant Matrix: (Units=GPa)
#
#
# Indices 1 2 3 4 5 6 
#
# 1 65.6430 27.3217 16.5685 -19.0556 12.7635 -11.8015
# 2 27.3217 93.5979 38.6460 -0.0398 9.8067 -14.0489
# 3 16.5685 38.6460 146.6849 -19.4352 24.4513 -24.8167
# 4 -19.0556 -0.0398 -19.4352 47.1331 -0.5509 3.1529
# 5 12.7635 9.8067 24.4513 -0.5509 31.9478 -8.9318
# 6 -11.8015 -14.0489 -24.8167 3.1529 -8.9318 23.1404
#
#
#
# Elastic Compliance Matrix: (Units=1/GPa)
#
#
# Indices 1 2 3 4 5 6 
#
# 1 0.022366 -0.005860 0.002584 0.009580 -0.007112 0.006569
# 2 -0.005860 0.014064 -0.003254 -0.003891 0.001313 0.003097
# 3 0.002584 -0.003254 0.010214 0.004688 -0.005683 0.007464
# 4 0.009580 -0.003891 0.004688 0.026833 -0.005234 0.001875
# 5 -0.007112 0.001313 -0.005683 -0.005234 0.040022 0.007236
# 6 0.006569 0.003097 0.007464 0.001875 0.007236 0.058987
#
#
# Mechanical properties :
#
#
# Convention : Reuss Voigt Hill
#
# Bulk Modulus (GPa) = 29.77655 52.33314 41.05485
# Shear Modulus (GPa) = 25.41420 35.33691 30.37555
#
# Velocity S-wave (km/s) = 3.16824 3.73589 3.46371
# Velocity P-wave (km/s) = 5.01442 6.26730 5.67554
#
# Compressibility (1/GPa) = 0.03358347
#
# Stress axis : x y z
#
# Youngs Moduli (GPa) = 44.71082 71.10476 97.90500
#
# Poissons Ratio (x) = 0.41670 -0.25299
# Poissons Ratio (y) = 0.26202 0.31856
# Poissons Ratio (z) = -0.11553 0.23136
#
# Static dielectric constant tensor:
#      x y z
#    x 2.222160 0.024340 -0.162850 
#    y 0.024340 2.072230 0.034450 
#    z -0.162850 0.034450 2.143530 
# 
# From -- ./inp_files/43440.got.cif
#   From: 2010.05.17/outbox.cif.g08.bks.cpg/sg2_22_cif.got.tgz:43440.got - 2010.06.03 11:33:40.
