data_PCOD9006522
_publ_section_title
;
Structure prediction by ZEFSAII (Michael W. Deem and Ramdas Pophale) SiO2 
 PCOD9006522
Probable space group: P -1
;
_chemical_formula_sum "Si O2"
_cell_formula_units_Z 14
_cell_length_a 9.382548
_cell_length_b 9.893313
_cell_length_c 9.979831
_cell_angle_alpha 42.476264
_cell_angle_beta 125.586783
_cell_angle_gamma 112.052593
_cell_volume 506.288725
_symmetry_space_group_name_H-M "P -1"
_symmetry_group_IT_number 2
_symmetry_cell_setting 'triclinic'
loop_
_space_group_symop_operation_xyz
x,y,z
-x,-y,-z
loop_
_atom_site_type_symbol
_atom_site_label
_atom_site_fract_x
_atom_site_fract_y
_atom_site_fract_z
Si Si1 0.980401 0.373227 0.854605
Si Si2 0.230084 0.049700 0.093076
Si Si3 0.229367 0.272052 0.653042
Si Si4 0.772135 0.834741 0.564884
Si Si5 0.588202 0.228727 0.234028
Si Si6 0.168790 0.650713 0.943583
Si Si7 0.423439 0.629155 0.589319
O O1 0.061787 0.164847 0.991157
O O2 0.119008 0.455856 0.974436
O O3 0.934685 0.556686 0.591939
O O4 0.820995 0.360069 0.882180
O O5 0.212484 0.125582 0.874771
O O6 0.396839 0.157628 0.162428
O O7 0.287875 0.814216 0.323361
O O8 0.260467 0.145247 0.627698
O O9 0.378400 0.421582 0.653219
O O10 0.617703 0.691480 0.620622
O O11 0.983472 0.789559 0.719463
O O12 0.717937 0.028598 0.482793
O O13 0.667659 0.288900 0.092946
O O14 0.600538 0.374153 0.260016
#
# Coordination Sequence:
#
# PCOD9006522 Si02
#       7
#     2   2   2   2   2   2   2
#     4  10  22  41  62  94 133 170 212 266 320 378
#     4  11  24  42  65  95 133 167 213 269 317 379
#     4  11  25  41  66  96 131 171 213 262 322 382
#     4  10  22  42  65  93 131 167 211 267 317 379
#     4  11  23  40  68  98 125 168 220 264 318 381
#     4  10  21  38  66  95 127 170 216 263 319 379
#     4  11  24  43  68  97 128 170 215 264 322 379
#
# _framework density 27.652206
#
# number of rings (size 3 to 8) (size 9 to 14) (size 15 to 20)
#    0.000    1.429    0.000    5.571    0.000   12.000 
#    0.000    0.000    0.000    0.000    0.000    0.000 
#    0.000    0.000    0.000    0.000    0.000    0.000 
#
# Total GULP energy -78410.291747 kJ/mol
# GULP energy per Si atom -5600.735125 kJ/mol
# Density = 2.758927 g / cm^3
# Si number density = 27.652206 Si / 1000 Ang^3
#
#
#
# Elastic Constant Matrix: (Units=GPa)
#
#
# Indices 1 2 3 4 5 6 
#
# 1 133.3277 17.2057 58.3646 -8.9035 8.5361 -22.0944
# 2 17.2057 101.3878 13.1735 -10.7937 9.3600 -19.8594
# 3 58.3646 13.1735 157.7078 9.7977 -3.0400 -12.7811
# 4 -8.9035 -10.7937 9.7977 42.4908 -1.9827 -4.2942
# 5 8.5361 9.3600 -3.0400 -1.9827 56.3204 -2.1880
# 6 -22.0944 -19.8594 -12.7811 -4.2942 -2.1880 42.1771
#
#
#
# Elastic Compliance Matrix: (Units=1/GPa)
#
#
# Indices 1 2 3 4 5 6 
#
# 1 0.010149 0.000137 -0.003638 0.003392 -0.001461 0.004548
# 2 0.000137 0.011576 -0.000825 0.003644 -0.001645 0.005558
# 3 -0.003638 -0.000825 0.007938 -0.002767 0.001015 -0.000118
# 4 0.003392 0.003644 -0.002767 0.026341 -0.000135 0.005329
# 5 -0.001461 -0.001645 0.001015 -0.000135 0.018289 -0.000297
# 6 0.004548 0.005558 -0.000118 0.005329 -0.000297 0.029201
#
#
# Mechanical properties :
#
#
# Convention : Reuss Voigt Hill
#
# Bulk Modulus (GPa) = 47.59479 63.32344 55.45912
# Shear Modulus (GPa) = 41.96462 48.44297 45.20380
#
# Velocity S-wave (km/s) = 3.89985 4.19007 4.04756
# Velocity P-wave (km/s) = 6.12599 6.80871 6.47635
#
# Compressibility (1/GPa) = 0.02101070
#
# Stress axis : x y z
#
# Youngs Moduli (GPa) = 98.53462 86.38870 125.97795
#
# Poissons Ratio (x) = -0.01186 0.45826
# Poissons Ratio (y) = -0.01352 0.10398
# Poissons Ratio (z) = 0.35843 0.07130
#
# Static dielectric constant tensor:
#      x y z
#    x 2.114200 0.088640 -0.054260 
#    y 0.088640 2.145450 -0.141580 
#    z -0.054260 -0.141580 2.443200 
# 
# From -- ./inp_files/184502.got.cif
#   From: 2010.05.17/outbox.cif.g08.bks.cpg/sg2_93_cif.got.tgz:184502.got - 2010.06.03 11:33:40.
