data_PCOD9006331
_publ_section_title
;
Structure prediction by ZEFSAII (Michael W. Deem and Ramdas Pophale) SiO2 
 PCOD9006331
Probable space group: P -1
;
_chemical_formula_sum "Si O2"
_cell_formula_units_Z 14
_cell_length_a 17.689277
_cell_length_b 15.869663
_cell_length_c 10.887865
_cell_angle_alpha 42.227563
_cell_angle_beta 31.997707
_cell_angle_gamma 23.451658
_cell_volume 634.260933
_symmetry_space_group_name_H-M "P -1"
_symmetry_group_IT_number 2
_symmetry_cell_setting 'triclinic'
loop_
_space_group_symop_operation_xyz
x,y,z
-x,-y,-z
loop_
_atom_site_type_symbol
_atom_site_label
_atom_site_fract_x
_atom_site_fract_y
_atom_site_fract_z
Si Si1 0.724226 0.650712 0.571154
Si Si2 0.572577 0.963395 0.599224
Si Si3 0.414946 0.851529 0.244868
Si Si4 0.806896 0.990391 0.874406
Si Si5 0.370416 0.535005 0.520544
Si Si6 0.807673 0.783191 0.722724
Si Si7 0.554195 0.379865 0.929984
O O1 0.772518 0.734447 0.501874
O O2 0.937069 0.461191 0.392390
O O3 0.505756 0.862306 0.560303
O O4 0.655204 0.577725 0.822380
O O5 0.682361 0.920878 0.622524
O O6 0.343810 0.028813 0.860752
O O7 0.518281 0.683516 0.383691
O O8 0.340856 0.852910 0.211425
O O9 0.182074 0.102783 0.330292
O O10 0.629737 0.800364 0.992608
O O11 0.081486 0.758557 0.707810
O O12 0.784863 0.117303 0.870137
O O13 0.500000 0.500000 0.500000
O O14 0.439636 0.538251 0.287565
O O15 0.500000 0.500000 0.000000
#
# Coordination Sequence:
#
# PCOD9006331 Si02
#       7
#     2   2   2   2   2   2   2
#     4  10  21  40  60  90 132 168 203 265 328 372
#     4   9  20  39  64  94 122 168 209 261 329 380
#     4  10  23  40  65  99 122 166 220 262 317 379
#     4  10  22  45  69  90 131 166 215 270 318 370
#     4  12  25  44  70  91 125 180 220 254 315 389
#     4  10  21  38  65  95 126 159 214 274 312 376
#     4  11  26  43  64  96 133 169 215 263 318 381
#
# _framework density 22.072934
#
# number of rings (size 3 to 8) (size 9 to 14) (size 15 to 20)
#    0.000    1.714    1.429    1.714    4.000    0.000 
#    7.714    5.714    0.000    0.000    0.000    0.000 
#    0.000    0.000    0.000    0.000    0.000    0.000 
#
# Total GULP energy -78022.468232 kJ/mol
# GULP energy per Si atom -5573.033445 kJ/mol
# Density = 2.202270 g / cm^3
# Si number density = 22.072934 Si / 1000 Ang^3
#
#
#
# Elastic Constant Matrix: (Units=GPa)
#
#
# Indices 1 2 3 4 5 6 
#
# 1 49.7335 71.7874 -121.6763 -22.3484 40.3880 43.1420
# 2 71.7874 102.9899 188.7743 35.7556 -3.0809 -8.6635
# 3 -121.6763 188.7743 -471.1216 -95.9618 91.5523 95.1255
# 4 -22.3484 35.7556 -95.9618 10.4475 9.0187 34.9002
# 5 40.3880 -3.0809 91.5523 9.0187 18.9489 -7.8812
# 6 43.1420 -8.6635 95.1255 34.9002 -7.8812 19.7354
#
#
#
# Elastic Compliance Matrix: (Units=1/GPa)
#
#
# Indices 1 2 3 4 5 6 
#
# 1 0.014649 -0.000012 -0.005934 0.000147 -0.004987 -0.005679
# 2 -0.000012 0.007345 0.000688 0.001606 -0.004889 -0.004858
# 3 -0.005934 0.000688 0.004810 -0.012437 0.000554 0.012302
# 4 0.000147 0.001606 -0.012437 0.055500 0.021453 -0.029252
# 5 -0.004987 -0.004889 0.000554 0.021453 0.043738 -0.014386
# 6 -0.005679 -0.004858 0.012302 -0.029252 -0.014386 0.047640
#
#
# Mechanical properties :
#
#
# Convention : Reuss Voigt Hill
#
# Bulk Modulus (GPa) = 61.39586 -4.51416 28.44085
# Shear Modulus (GPa) = 26.36757 -20.65921 2.85418
#
# Velocity S-wave (km/s) = 3.46000 -3.06265 1.13836
# Velocity P-wave (km/s) = 6.62099 3.81523 3.82632
#
# Compressibility (1/GPa) = 0.01628774
#
# Stress axis : x y z
#
# Youngs Moduli (GPa) = 68.26435 136.15409 207.88370
#
# Poissons Ratio (x) = 0.00167 1.23357
# Poissons Ratio (y) = 0.00084 -0.14305
# Poissons Ratio (z) = 0.40508 -0.09369
#
# Static dielectric constant tensor:
#      x y z
#    x 1.854610 0.066120 0.023610 
#    y 0.066120 1.852820 0.028220 
#    z 0.023610 0.028220 1.874110 
# 
# From -- ./inp_files/472381.got.cif
#   From: 2010.05.17/outbox.cif.g08.bks.cpg/sg2_237_cif.got.tgz:472381.got - 2010.06.03 11:33:40.
