data_PCOD9006967
_publ_section_title
;
Structure prediction by ZEFSAII (Michael W. Deem and Ramdas Pophale) SiO2 
 PCOD9006967
Probable space group: P -1
;
_chemical_formula_sum "Si O2"
_cell_formula_units_Z 10
_cell_length_a 5.048341
_cell_length_b 24.622014
_cell_length_c 10.370845
_cell_angle_alpha 25.151294
_cell_angle_beta 59.112974
_cell_angle_gamma 64.640180
_cell_volume 467.836401
_symmetry_space_group_name_H-M "P -1"
_symmetry_group_IT_number 2
_symmetry_cell_setting 'triclinic'
loop_
_space_group_symop_operation_xyz
x,y,z
-x,-y,-z
loop_
_atom_site_type_symbol
_atom_site_label
_atom_site_fract_x
_atom_site_fract_y
_atom_site_fract_z
Si Si1 0.266242 0.425723 0.316362
Si Si2 0.171662 0.002583 0.816540
Si Si3 0.597879 0.140092 0.240381
Si Si4 0.436917 0.580515 0.469423
Si Si5 0.242329 0.137203 0.987162
O O1 0.354078 0.443325 0.407964
O O2 0.272754 0.274195 0.617250
O O3 0.916378 0.456916 0.318594
O O4 0.500000 0.500000 0.000000
O O5 0.910261 0.967640 0.849646
O O6 0.392063 0.128824 0.445533
O O7 0.420576 0.897225 0.984645
O O8 0.000000 0.000000 0.000000
O O9 0.500000 0.000000 0.500000
O O10 0.972383 0.144290 0.147721
O O11 0.500000 0.500000 0.500000
O O12 0.463260 0.731379 0.097165
#
# Coordination Sequence:
#
# PCOD9006967 Si02
#       5
#     2   2   2   2   2
#     4  11  23  41  64  87 120 166 208 250 303 369
#     4  11  22  36  58  91 120 152 198 259 306 347
#     4   9  20  39  63  84 118 162 199 239 297 371
#     4  11  24  41  62  94 125 159 206 257 307 358
#     4  10  21  39  58  84 118 159 205 243 298 371
#
# _framework density 21.374997
#
# number of rings (size 3 to 8) (size 9 to 14) (size 15 to 20)
#    0.000    1.600    0.000    6.000    0.000    8.000 
#    0.000    0.000    0.000    0.000    0.000    0.000 
#    0.000    0.000    0.000    0.000    0.000    0.000 
#
# Total GULP energy -55813.702513 kJ/mol
# GULP energy per Si atom -5581.370251 kJ/mol
# Density = 2.132635 g / cm^3
# Si number density = 21.374997 Si / 1000 Ang^3
#
#
#
# Elastic Constant Matrix: (Units=GPa)
#
#
# Indices 1 2 3 4 5 6 
#
# 1 51.2855 5.9327 -0.5404 -6.1404 -7.3089 -0.0450
# 2 5.9327 76.2175 39.8768 13.0485 -3.9425 3.8125
# 3 -0.5404 39.8768 160.3891 25.6290 -19.7323 -10.8973
# 4 -6.1404 13.0485 25.6290 37.5860 -2.2548 1.8414
# 5 -7.3089 -3.9425 -19.7323 -2.2548 25.8557 6.0349
# 6 -0.0450 3.8125 -10.8973 1.8414 6.0349 25.5266
#
#
#
# Elastic Compliance Matrix: (Units=1/GPa)
#
#
# Indices 1 2 3 4 5 6 
#
# 1 0.021268 -0.002354 0.000738 0.004261 0.006875 -0.001228
# 2 -0.002354 0.015987 -0.003785 -0.003208 -0.000545 -0.003648
# 3 0.000738 -0.003785 0.008741 -0.004385 0.005126 0.003403
# 4 0.004261 -0.003208 -0.004385 0.031660 0.001044 -0.003916
# 5 0.006875 -0.000545 0.005126 0.001044 0.046595 -0.008809
# 6 -0.001228 -0.003648 0.003403 -0.003916 -0.008809 0.043535
#
#
# Mechanical properties :
#
#
# Convention : Reuss Voigt Hill
#
# Bulk Modulus (GPa) = 28.41377 42.04782 35.23080
# Shear Modulus (GPa) = 26.27166 33.96854 30.12010
#
# Velocity S-wave (km/s) = 3.50963 3.99077 3.75791
# Velocity P-wave (km/s) = 5.45392 6.39915 5.94535
#
# Compressibility (1/GPa) = 0.03519420
#
# Stress axis : x y z
#
# Youngs Moduli (GPa) = 47.01980 62.54929 114.40573
#
# Poissons Ratio (x) = 0.14726 -0.08448
# Poissons Ratio (y) = 0.11070 0.43303
# Poissons Ratio (z) = -0.03472 0.23675
#
# Static dielectric constant tensor:
#      x y z
#    x 1.795140 0.038340 0.001850 
#    y 0.038340 1.828560 0.021970 
#    z 0.001850 0.021970 1.805020 
# 
# From -- ./inp_files/2928.got.cif
#   From: 2010.05.17/outbox.cif.g08.bks.cpg/sg2_2_cif.got.tgz:2928.got - 2010.06.03 11:33:40.
