data_PCOD9006489
_publ_section_title
;
Structure prediction by ZEFSAII (Michael W. Deem and Ramdas Pophale) SiO2 
 PCOD9006489
Probable space group: P -1
;
_chemical_formula_sum "Si O2"
_cell_formula_units_Z 15
_cell_length_a 9.452275
_cell_length_b 14.611346
_cell_length_c 14.297465
_cell_angle_alpha 20.326035
_cell_angle_beta 122.709268
_cell_angle_gamma 123.830668
_cell_volume 568.629433
_symmetry_space_group_name_H-M "P -1"
_symmetry_group_IT_number 2
_symmetry_cell_setting 'triclinic'
loop_
_space_group_symop_operation_xyz
x,y,z
-x,-y,-z
loop_
_atom_site_type_symbol
_atom_site_label
_atom_site_fract_x
_atom_site_fract_y
_atom_site_fract_z
Si Si1 0.721129 0.293658 0.754099
Si Si2 0.363596 0.258844 0.823492
Si Si3 0.160461 0.849123 0.437586
Si Si4 0.889730 0.483393 0.809585
Si Si5 0.610139 0.576849 0.759387
Si Si6 0.000000 0.500000 0.000000
Si Si7 0.681848 0.140185 0.322645
Si Si8 0.109175 0.311408 0.835147
O O1 0.654444 0.559413 0.446146
O O2 0.759137 0.296186 0.876119
O O3 0.908489 0.308896 0.761536
O O4 0.610002 0.031171 0.922080
O O5 0.495732 0.427188 0.780265
O O6 0.187501 0.231051 0.844503
O O7 0.294174 0.898877 0.521907
O O8 0.194967 0.609394 0.611649
O O9 0.982783 0.712588 0.555594
O O10 0.141875 0.103670 0.125871
O O11 0.805063 0.582180 0.781031
O O12 0.021167 0.347053 0.046745
O O13 0.593316 0.873194 0.494810
O O14 0.588222 0.383965 0.025481
O O15 0.132921 0.768343 0.746620
#
# Coordination Sequence:
#
# PCOD9006489 Si02
#       8
#     2   2   2   2   2   1   2   2
#     4  11  23  40  64  88 119 156 211 258 295 349
#     4  12  25  42  61  87 123 169 204 248 301 357
#     4  10  21  38  66  93 120 151 203 261 305 352
#     4   9  21  38  62  94 120 154 196 250 309 359
#     4  11  24  40  60  88 131 165 199 239 303 376
#     4   8  18  36  64  88 120 152 190 246 298 354
#     4  10  21  39  61  93 124 162 200 245 303 362
#     4  11  22  41  64  91 118 155 208 261 305 350
#
# _framework density 26.379218999999999
#
# number of rings (size 3 to 8) (size 9 to 14) (size 15 to 20)
#    0.000    1.600    0.000    4.800    0.000   14.400 
#    0.000    4.000    0.000    0.000    0.000    0.000 
#    0.000    0.000    0.000    0.000    0.000    0.000 
#
# Total GULP energy -83844.450156 kJ/mol
# GULP energy per Si atom -5589.630010 kJ/mol
# Density = 2.631918 g / cm^3
# Si number density = 26.379219 Si / 1000 Ang^3
#
#
#
# Elastic Constant Matrix: (Units=GPa)
#
#
# Indices 1 2 3 4 5 6 
#
# 1 71.9062 -45.4270 -27.3462 13.4701 -32.7794 -0.2449
# 2 -45.4270 94.9790 -18.6573 10.7615 -46.3379 21.6251
# 3 -27.3462 -18.6573 54.1231 8.7031 -28.4788 8.6009
# 4 13.4701 10.7615 8.7031 43.3369 3.9998 -10.0017
# 5 -32.7794 -46.3379 -28.4788 3.9998 -0.3890 1.5942
# 6 -0.2449 21.6251 8.6009 -10.0017 1.5942 40.0111
#
#
#
# Elastic Compliance Matrix: (Units=1/GPa)
#
#
# Indices 1 2 3 4 5 6 
#
# 1 0.006689 -0.002655 -0.003008 0.000666 -0.009391 0.002663
# 2 -0.002655 0.004538 -0.004122 0.001057 -0.008233 -0.000990
# 3 -0.003008 -0.004122 0.010444 0.000841 -0.009256 0.000543
# 4 0.000666 0.001057 0.000841 0.022702 0.008588 0.004584
# 5 -0.009391 -0.008233 -0.009256 0.008588 0.001996 0.008449
# 6 0.002663 -0.000990 0.000543 0.004584 0.008449 0.026237
#
#
# Mechanical properties :
#
#
# Convention : Reuss Voigt Hill
#
# Bulk Modulus (GPa) = 476.04350 4.23859 240.14105
# Shear Modulus (GPa) = 53.83516 37.42107 45.62812
#
# Velocity S-wave (km/s) = 4.52244 3.77049 4.16348
# Velocity P-wave (km/s) = 14.42648 4.53495 10.69320
#
# Compressibility (1/GPa) = 0.00210065
#
# Stress axis : x y z
#
# Youngs Moduli (GPa) = 149.50276 220.36162 95.75189
#
# Poissons Ratio (x) = 0.58512 0.28799
# Poissons Ratio (y) = 0.39697 0.39469
# Poissons Ratio (z) = 0.44965 0.90833
#
# Static dielectric constant tensor:
#      x y z
#    x 2.264220 0.180140 0.091970 
#    y 0.180140 2.219540 0.073140 
#    z 0.091970 0.073140 2.053790 
# 
# From -- ./inp_files/433006.got.cif
#   From: 2010.05.17/outbox.cif.g08.bks.cpg/sg2_217_cif.got.tgz:433006.got - 2010.06.03 11:33:40.
