data_PCOD9006400
_publ_section_title
;
Structure prediction by ZEFSAII (Michael W. Deem and Ramdas Pophale) SiO2 
 PCOD9006400
Probable space group: P -1
;
_chemical_formula_sum "Si O2"
_cell_formula_units_Z 12
_cell_length_a 8.998279
_cell_length_b 11.093733
_cell_length_c 7.458907
_cell_angle_alpha 132.059880
_cell_angle_beta 112.216394
_cell_angle_gamma 92.550580
_cell_volume 461.242059
_symmetry_space_group_name_H-M "P -1"
_symmetry_group_IT_number 2
_symmetry_cell_setting 'triclinic'
loop_
_space_group_symop_operation_xyz
x,y,z
-x,-y,-z
loop_
_atom_site_type_symbol
_atom_site_label
_atom_site_fract_x
_atom_site_fract_y
_atom_site_fract_z
Si Si1 0.949123 0.306255 0.513370
Si Si2 0.505893 0.610132 0.295319
Si Si3 0.328657 0.811217 0.235049
Si Si4 0.185235 0.082812 0.062210
Si Si5 0.026922 0.187793 0.787400
Si Si6 0.259531 0.541658 0.619691
O O1 0.047640 0.314075 0.752767
O O2 0.836070 0.422209 0.559885
O O3 0.102694 0.386673 0.511182
O O4 0.816600 0.095737 0.208097
O O5 0.353464 0.675969 0.254835
O O6 0.664205 0.804830 0.616283
O O7 0.563690 0.489905 0.336495
O O8 0.500000 0.500000 0.000000
O O9 0.152570 0.833370 0.220163
O O10 0.500000 0.000000 0.500000
O O11 0.309029 0.717678 0.940968
O O12 0.172740 0.214563 0.032243
O O13 0.000000 0.000000 0.000000
O O14 0.000000 0.000000 0.500000
#
# Coordination Sequence:
#
# PCOD9006400 Si02
#       6
#     2   2   2   2   2   2
#     4  10  21  38  65  99 134 163 231 278 325 379
#     4  10  22  39  63  97 132 168 221 271 331 394
#     4  11  23  41  66  94 132 180 223 267 342 404
#     4  11  19  39  70  94 124 178 229 265 323 401
#     4  10  24  41  66 103 130 171 228 286 320 389
#     4  10  21  39  65  97 131 177 217 276 328 399
#
# _framework density 26.01671
#
# number of rings (size 3 to 8) (size 9 to 14) (size 15 to 20)
#    0.000    1.667    1.667    3.000    4.667    0.667 
#    0.000    8.333    0.000    0.000    0.000    0.000 
#    0.000    0.000    0.000    0.000    0.000    0.000 
#
# Total GULP energy -67027.011204 kJ/mol
# GULP energy per Si atom -5585.584267 kJ/mol
# Density = 2.595749 g / cm^3
# Si number density = 26.016710 Si / 1000 Ang^3
#
#
#
# Elastic Constant Matrix: (Units=GPa)
#
#
# Indices 1 2 3 4 5 6 
#
# 1 52.9237 56.3390 22.4094 6.3815 1.5135 -11.5583
# 2 56.3390 236.1247 37.5308 -23.1149 0.4955 -35.5426
# 3 22.4094 37.5308 171.9126 4.4130 24.7451 14.1448
# 4 6.3815 -23.1149 4.4130 52.3323 -4.5648 -4.2680
# 5 1.5135 0.4955 24.7451 -4.5648 31.2075 0.9400
# 6 -11.5583 -35.5426 14.1448 -4.2680 0.9400 49.9201
#
#
#
# Elastic Compliance Matrix: (Units=1/GPa)
#
#
# Indices 1 2 3 4 5 6 
#
# 1 0.028045 -0.006674 -0.002119 -0.006085 -0.000520 0.001832
# 2 -0.006674 0.007153 -0.001438 0.004611 0.001895 0.004313
# 3 -0.002119 -0.001438 0.007637 -0.001855 -0.006089 -0.003722
# 4 -0.006085 0.004611 -0.001855 0.022819 0.004903 0.004259
# 5 -0.000520 0.001895 -0.006089 0.004903 0.037504 0.002667
# 6 0.001832 0.004313 -0.003722 0.004259 0.002667 0.024896
#
#
# Mechanical properties :
#
#
# Convention : Reuss Voigt Hill
#
# Bulk Modulus (GPa) = 44.69177 77.05771 60.87474
# Shear Modulus (GPa) = 32.05719 49.67076 40.86397
#
# Velocity S-wave (km/s) = 3.51405 4.37416 3.96748
# Velocity P-wave (km/s) = 5.80345 7.42926 6.66611
#
# Compressibility (1/GPa) = 0.02237548
#
# Stress axis : x y z
#
# Youngs Moduli (GPa) = 35.65685 139.81050 130.93658
#
# Poissons Ratio (x) = 0.93304 0.27740
# Poissons Ratio (y) = 0.23796 0.18822
# Poissons Ratio (z) = 0.07554 0.20098
#
# Static dielectric constant tensor:
#      x y z
#    x 2.280460 0.047390 -0.116980 
#    y 0.047390 2.141090 -0.007360 
#    z -0.116980 -0.007360 2.110160 
# 
# From -- ./inp_files/255605.got.cif
#   From: 2010.05.17/outbox.cif.g08.bks.cpg/sg2_128_cif.got.tgz:255605.got - 2010.06.03 11:33:40.
