data_PCOD9006176
_publ_section_title
;
Structure prediction by ZEFSAII (Michael W. Deem and Ramdas Pophale) SiO2 
 PCOD9006176
Probable space group: P -1
;
_chemical_formula_sum "Si O2"
_cell_formula_units_Z 16
_cell_length_a 9.118081
_cell_length_b 12.207023
_cell_length_c 11.447749
_cell_angle_alpha 47.313475
_cell_angle_beta 123.472907
_cell_angle_gamma 94.785369
_cell_volume 688.020631
_symmetry_space_group_name_H-M "P -1"
_symmetry_group_IT_number 2
_symmetry_cell_setting 'triclinic'
loop_
_space_group_symop_operation_xyz
x,y,z
-x,-y,-z
loop_
_atom_site_type_symbol
_atom_site_label
_atom_site_fract_x
_atom_site_fract_y
_atom_site_fract_z
Si Si1 0.289323 0.480716 0.183064
Si Si2 0.122542 0.086969 0.543264
Si Si3 0.665041 0.164846 0.497107
Si Si4 0.043604 0.535045 0.796364
Si Si5 0.763951 0.716251 0.153028
Si Si6 0.622772 0.211944 0.953134
Si Si7 0.925938 0.954313 0.119558
Si Si8 0.518552 0.053424 0.331667
O O1 0.514614 0.324888 0.390440
O O2 0.152377 0.470267 0.234705
O O3 0.189556 0.477702 0.016038
O O4 0.302226 0.653648 0.078066
O O5 0.994394 0.277959 0.386929
O O6 0.266201 0.954961 0.796491
O O7 0.267703 0.098482 0.499373
O O8 0.000000 0.000000 0.500000
O O9 0.580496 0.192107 0.308305
O O10 0.895927 0.092407 0.675124
O O11 0.616706 0.010718 0.613472
O O12 0.124153 0.428130 0.790098
O O13 0.900151 0.787521 0.218212
O O14 0.615122 0.699398 0.193388
O O15 0.613134 0.869171 0.895315
O O16 0.717560 0.120455 0.939014
O O17 0.000000 0.000000 0.000000
#
# Coordination Sequence:
#
# PCOD9006176 Si02
#       8
#     2   2   2   2   2   2   2   2
#     4  11  23  41  67 107 139 178 230 289 332 405
#     4  11  21  39  65 104 141 177 219 285 348 406
#     4  11  22  39  68 101 136 176 234 281 336 398
#     4  11  23  41  70 103 142 179 229 280 347 405
#     4  11  24  45  67  99 140 181 223 283 346 410
#     4  11  26  43  69  99 139 180 232 281 349 410
#     4  12  25  46  71  99 136 187 232 280 345 417
#     4  10  21  38  65 101 135 173 225 284 332 400
#
# _framework density 23.255116999999998
#
# number of rings (size 3 to 8) (size 9 to 14) (size 15 to 20)
#    0.000    1.000    5.000    1.875    0.000    2.500 
#    0.000    7.500    0.000    0.000    0.000    0.000 
#    0.000    0.000    0.000    0.000    0.000    0.000 
#
# Total GULP energy -89293.124722 kJ/mol
# GULP energy per Si atom -5580.820295 kJ/mol
# Density = 2.320219 g / cm^3
# Si number density = 23.255117 Si / 1000 Ang^3
#
#
#
# Elastic Constant Matrix: (Units=GPa)
#
#
# Indices 1 2 3 4 5 6 
#
# 1 140.2628 69.1546 19.4183 -16.5162 14.9075 -3.3548
# 2 69.1546 137.2073 17.8078 -18.5204 15.2368 4.1531
# 3 19.4183 17.8078 40.0267 -10.5974 7.8113 6.6037
# 4 -16.5162 -18.5204 -10.5974 32.6895 -4.2057 10.0307
# 5 14.9075 15.2368 7.8113 -4.2057 23.9814 -2.0128
# 6 -3.3548 4.1531 6.6037 10.0307 -2.0128 46.1223
#
#
#
# Elastic Compliance Matrix: (Units=1/GPa)
#
#
# Indices 1 2 3 4 5 6 
#
# 1 0.010019 -0.004353 -0.002315 0.001203 -0.002407 0.001086
# 2 -0.004353 0.010499 -0.000552 0.003807 -0.003298 -0.002155
# 3 -0.002315 -0.000552 0.031617 0.010013 -0.007352 -0.007144
# 4 0.001203 0.003807 0.010013 0.039734 -0.000328 -0.010345
# 5 -0.002407 -0.003298 -0.007352 -0.000328 0.047908 0.003337
# 6 0.001086 -0.002155 -0.007144 -0.010345 0.003337 0.025373
#
#
# Mechanical properties :
#
#
# Convention : Reuss Voigt Hill
#
# Bulk Modulus (GPa) = 26.52886 58.91756 42.72321
# Shear Modulus (GPa) = 26.02073 34.63305 30.32689
#
# Velocity S-wave (km/s) = 3.34866 3.86329 3.61514
# Velocity P-wave (km/s) = 5.13653 6.72981 5.98641
#
# Compressibility (1/GPa) = 0.03769479
#
# Stress axis : x y z
#
# Youngs Moduli (GPa) = 99.80619 95.24619 31.62892
#
# Poissons Ratio (x) = 0.41458 0.07323
# Poissons Ratio (y) = 0.43443 0.01747
# Poissons Ratio (z) = 0.23107 0.05260
#
# Static dielectric constant tensor:
#      x y z
#    x 2.204760 -0.303260 -0.152640 
#    y -0.303260 2.064480 0.132820 
#    z -0.152640 0.132820 1.948990 
# 
# From -- ./inp_files/273329.got.cif
#   From: 2010.05.17/outbox.cif.g08.bks.cpg/sg2_137_cif.got.tgz:273329.got - 2010.06.03 11:33:40.
