data_PCOD9006724
_publ_section_title
;
Structure prediction by ZEFSAII (Michael W. Deem and Ramdas Pophale) SiO2 
 PCOD9006724
Probable space group: P -1
;
_chemical_formula_sum "Si O2"
_cell_formula_units_Z 14
_cell_length_a 8.588851
_cell_length_b 17.124085
_cell_length_c 9.064717
_cell_angle_alpha 91.134185
_cell_angle_beta 67.663556
_cell_angle_gamma 144.664419
_cell_volume 599.131319
_symmetry_space_group_name_H-M "P -1"
_symmetry_group_IT_number 2
_symmetry_cell_setting 'triclinic'
loop_
_space_group_symop_operation_xyz
x,y,z
-x,-y,-z
loop_
_atom_site_type_symbol
_atom_site_label
_atom_site_fract_x
_atom_site_fract_y
_atom_site_fract_z
Si Si1 0.496108 0.126655 0.398303
Si Si2 0.340344 0.517558 0.507111
Si Si3 0.479164 0.833912 0.286113
Si Si4 0.149840 0.311028 0.109837
Si Si5 0.509808 0.679469 0.158687
Si Si6 0.180915 0.586093 0.781732
Si Si7 0.555957 0.037251 0.148969
O O1 0.373112 0.106418 0.598842
O O2 0.321825 0.995566 0.341216
O O3 0.584908 0.242219 0.286081
O O4 0.848284 0.219249 0.321651
O O5 0.500000 0.500000 0.500000
O O6 0.518345 0.633807 0.307169
O O7 0.939310 0.343294 0.593946
O O8 0.354928 0.580933 0.646297
O O9 0.609402 0.808865 0.156724
O O10 0.573909 0.957491 0.200266
O O11 0.270451 0.271511 0.048947
O O12 0.500000 0.500000 0.000000
O O13 0.117115 0.515420 0.235164
O O14 0.076555 0.768389 0.959828
O O15 0.000000 0.500000 0.000000
O O16 0.500000 0.000000 0.000000
#
# Coordination Sequence:
#
# PCOD9006724 Si02
#       7
#     2   2   2   2   2   2   2
#     4  10  21  41  65  87 128 169 215 255 325 385
#     4  11  24  37  65  98 129 170 217 271 327 384
#     4  11  21  43  64  89 131 176 213 263 333 391
#     4  10  21  38  68  91 123 168 220 265 311 386
#     4  11  21  40  65  94 132 166 220 272 321 389
#     4  11  22  37  63  98 128 168 215 273 324 381
#     4  10  25  39  66  96 131 171 216 270 330 384
#
# _framework density 23.367163000000001
#
# number of rings (size 3 to 8) (size 9 to 14) (size 15 to 20)
#    0.857    0.571    4.286    1.286    8.000    1.714 
#    0.000    0.000    0.000    1.714    0.000    0.000 
#    0.000    0.000    0.000    0.000    0.000    0.000 
#
# Total GULP energy -77971.946326 kJ/mol
# GULP energy per Si atom -5569.424738 kJ/mol
# Density = 2.331398 g / cm^3
# Si number density = 23.367163 Si / 1000 Ang^3
#
#
#
# Elastic Constant Matrix: (Units=GPa)
#
#
# Indices 1 2 3 4 5 6 
#
# 1 83.4509 13.0162 28.0542 18.7256 3.3468 -42.0573
# 2 13.0162 109.5715 23.1574 30.6736 5.3841 -21.7953
# 3 28.0542 23.1574 51.2625 26.7160 3.8899 -24.7616
# 4 18.7256 30.6736 26.7160 44.9373 -8.3498 -12.6278
# 5 3.3468 5.3841 3.8899 -8.3498 53.2551 6.3919
# 6 -42.0573 -21.7953 -24.7616 -12.6278 6.3919 46.4603
#
#
#
# Elastic Compliance Matrix: (Units=1/GPa)
#
#
# Indices 1 2 3 4 5 6 
#
# 1 0.025138 0.004184 0.000437 -0.008101 -0.006137 0.023594
# 2 0.004184 0.012995 0.001426 -0.009848 -0.004251 0.008552
# 3 0.000437 0.001426 0.038177 -0.020621 -0.008226 0.016939
# 4 -0.008101 -0.009848 -0.020621 0.043121 0.011306 -0.012779
# 5 -0.006137 -0.004251 -0.008226 0.011306 0.023417 -0.012083
# 6 0.023594 0.008552 0.016939 -0.012779 -0.012083 0.054110
#
#
# Mechanical properties :
#
#
# Convention : Reuss Voigt Hill
#
# Bulk Modulus (GPa) = 11.31165 41.41560 26.36362
# Shear Modulus (GPa) = 23.32821 40.93435 32.13128
#
# Velocity S-wave (km/s) = 3.16307 4.18998 3.71220
# Velocity P-wave (km/s) = 4.26513 6.41640 5.44801
#
# Compressibility (1/GPa) = 0.08840445
#
# Stress axis : x y z
#
# Youngs Moduli (GPa) = 39.77963 76.95272 26.19364
#
# Poissons Ratio (x) = -0.32197 -0.01145
# Poissons Ratio (y) = -0.16644 -0.03735
# Poissons Ratio (z) = -0.01739 -0.10972
#
# Static dielectric constant tensor:
#      x y z
#    x 1.990800 0.099120 -0.024530 
#    y 0.099120 1.979050 -0.009970 
#    z -0.024530 -0.009970 2.020610 
# 
# From -- ./inp_files/217829.got.cif
#   From: 2010.05.17/outbox.cif.g08.bks.cpg/sg2_109_cif.got.tgz:217829.got - 2010.06.03 11:33:40.
