data_PCOD9006435
_publ_section_title
;
Structure prediction by ZEFSAII (Michael W. Deem and Ramdas Pophale) SiO2 
 PCOD9006435
Probable space group: P -1
;
_chemical_formula_sum "Si O2"
_cell_formula_units_Z 14
_cell_length_a 13.000131
_cell_length_b 6.706742
_cell_length_c 7.884948
_cell_angle_alpha 63.831561
_cell_angle_beta 67.217607
_cell_angle_gamma 83.584220
_cell_volume 567.424286
_symmetry_space_group_name_H-M "P -1"
_symmetry_group_IT_number 2
_symmetry_cell_setting 'triclinic'
loop_
_space_group_symop_operation_xyz
x,y,z
-x,-y,-z
loop_
_atom_site_type_symbol
_atom_site_label
_atom_site_fract_x
_atom_site_fract_y
_atom_site_fract_z
Si Si1 0.973372 0.745837 0.462936
Si Si2 0.809748 0.449876 0.068873
Si Si3 0.988845 0.185626 0.197159
Si Si4 0.658871 0.786538 0.173275
Si Si5 0.484020 0.049953 0.292710
Si Si6 0.717233 0.721866 0.549211
Si Si7 0.689152 0.269532 0.895676
O O1 0.841761 0.764375 0.521228
O O2 0.000000 0.500000 0.500000
O O3 0.019275 0.791711 0.603573
O O4 0.020140 0.936678 0.233133
O O5 0.868318 0.241622 0.185758
O O6 0.698327 0.555591 0.166705
O O7 0.782526 0.380569 0.921004
O O8 0.907180 0.642212 0.977079
O O9 0.702729 0.797962 0.335493
O O10 0.526480 0.831901 0.251636
O O11 0.707283 0.007013 0.955180
O O12 0.363658 0.144183 0.329206
O O13 0.500000 0.000000 0.500000
O O14 0.573490 0.237340 0.089192
O O15 0.685707 0.454530 0.683180
#
# Coordination Sequence:
#
# PCOD9006435 Si02
#       7
#     2   2   2   2   2   2   2
#     4  11  23  39  62  91 119 163 208 243 307 363
#     4  11  21  42  61  90 125 160 201 254 309 358
#     4  10  24  38  59  90 126 156 202 259 296 361
#     4   9  22  38  62  90 123 155 209 245 301 375
#     4   8  19  38  63  87 123 158 202 251 305 364
#     4  11  19  40  64  88 120 164 199 255 306 353
#     4  10  21  38  66  86 121 166 198 252 310 360
#
# _framework density 24.672896000000001
#
# number of rings (size 3 to 8) (size 9 to 14) (size 15 to 20)
#    0.857    1.143    1.429    2.143    2.000    0.000 
#    0.000    7.143    6.286    0.000    0.000    0.000 
#    0.000    0.000    0.000    0.000    0.000    0.000 
#
# Total GULP energy -78071.537218 kJ/mol
# GULP energy per Si atom -5576.538373 kJ/mol
# Density = 2.461674 g / cm^3
# Si number density = 24.672896 Si / 1000 Ang^3
#
#
#
# Elastic Constant Matrix: (Units=GPa)
#
#
# Indices 1 2 3 4 5 6 
#
# 1 97.3156 38.5657 4.8941 -2.6418 -1.5571 -23.8142
# 2 38.5657 107.0502 19.4533 -6.4677 7.8408 -32.8713
# 3 4.8941 19.4533 59.5591 -27.5171 4.6185 -5.5971
# 4 -2.6418 -6.4677 -27.5171 26.1714 -5.6270 1.8275
# 5 -1.5571 7.8408 4.6185 -5.6270 27.0191 0.9141
# 6 -23.8142 -32.8713 -5.5971 1.8275 0.9141 41.0407
#
#
#
# Elastic Compliance Matrix: (Units=1/GPa)
#
#
# Indices 1 2 3 4 5 6 
#
# 1 0.012796 -0.003381 0.001156 0.001709 0.001716 0.004761
# 2 -0.003381 0.014366 -0.004797 -0.003457 -0.004573 0.009146
# 3 0.001156 -0.004797 0.034668 0.036044 0.003043 -0.000116
# 4 0.001709 -0.003457 0.036044 0.077869 0.011177 -0.000578
# 5 0.001716 -0.004573 0.003043 0.011177 0.040368 -0.003649
# 6 0.004761 0.009146 -0.000116 -0.000578 -0.003649 0.034545
#
#
# Mechanical properties :
#
#
# Convention : Reuss Voigt Hill
#
# Bulk Modulus (GPa) = 20.92644 43.30568 32.11606
# Shear Modulus (GPa) = 20.44295 32.24704 26.34499
#
# Velocity S-wave (km/s) = 2.88159 3.61914 3.27122
# Velocity P-wave (km/s) = 4.42396 5.92067 5.22617
#
# Compressibility (1/GPa) = 0.04778644
#
# Stress axis : x y z
#
# Youngs Moduli (GPa) = 78.14768 69.61081 28.84520
#
# Poissons Ratio (x) = 0.23533 -0.03336
# Poissons Ratio (y) = 0.26419 0.13838
# Poissons Ratio (z) = -0.09037 0.33395
#
# Static dielectric constant tensor:
#      x y z
#    x 1.936970 -0.026730 -0.029820 
#    y -0.026730 2.063930 -0.082320 
#    z -0.029820 -0.082320 2.035050 
# 
# From -- ./inp_files/287696.got.cif
#   From: 2010.05.17/outbox.cif.g08.bks.cpg/sg2_144_cif.got.tgz:287696.got - 2010.06.03 11:33:40.
