data_PCOD9006850
_publ_section_title
;
Structure prediction by ZEFSAII (Michael W. Deem and Ramdas Pophale) SiO2 
 PCOD9006850
Probable space group: P -1
;
_chemical_formula_sum "Si O2"
_cell_formula_units_Z 10
_cell_length_a 9.441048
_cell_length_b 13.045237
_cell_length_c 11.523911
_cell_angle_alpha 147.056412
_cell_angle_beta 38.448708
_cell_angle_gamma 123.373369
_cell_volume 455.205514
_symmetry_space_group_name_H-M "P -1"
_symmetry_group_IT_number 2
_symmetry_cell_setting 'triclinic'
loop_
_space_group_symop_operation_xyz
x,y,z
-x,-y,-z
loop_
_atom_site_type_symbol
_atom_site_label
_atom_site_fract_x
_atom_site_fract_y
_atom_site_fract_z
Si Si1 0.631897 0.164740 0.095560
Si Si2 0.941496 0.065943 0.234837
Si Si3 0.435086 0.507164 0.712827
Si Si4 0.032383 0.478179 0.594711
Si Si5 0.574475 0.657659 0.181353
O O1 0.437438 0.337862 0.458103
O O2 0.700977 0.273560 0.041691
O O3 0.500000 0.000000 0.000000
O O4 0.869012 0.088269 0.950471
O O5 0.001871 0.263556 0.426814
O O6 0.649563 0.140935 0.494743
O O7 0.000000 0.000000 0.000000
O O8 0.705408 0.514481 0.545831
O O9 0.386895 0.432307 0.798865
O O10 0.000000 0.500000 0.500000
O O11 0.828965 0.647099 0.953828
O O12 0.500000 0.500000 0.000000
#
# Coordination Sequence:
#
# PCOD9006850 Si02
#       5
#     2   2   2   2   2
#     4  11  23  40  69  97 134 176 215 274 333 389
#     4  11  20  39  67  96 131 167 223 271 314 394
#     4  11  22  42  68  93 135 177 214 272 337 383
#     4  11  20  39  70  96 129 173 218 274 327 383
#     4  10  21  38  70  96 131 173 222 268 328 391
#
# _framework density 21.9681
#
# number of rings (size 3 to 8) (size 9 to 14) (size 15 to 20)
#    0.000    1.200    8.000    0.000    0.000    0.000 
#    0.000   12.000   22.000    0.000    0.000    0.000 
#    0.000    0.000    0.000    0.000    0.000    0.000 
#
# Total GULP energy -55741.401674 kJ/mol
# GULP energy per Si atom -5574.140167 kJ/mol
# Density = 2.191810 g / cm^3
# Si number density = 21.968100 Si / 1000 Ang^3
#
#
#
# Elastic Constant Matrix: (Units=GPa)
#
#
# Indices 1 2 3 4 5 6 
#
# 1 143.6280 57.3075 44.4693 1.1349 -8.3702 -27.4087
# 2 57.3075 85.9568 42.3475 1.3956 -8.0218 -9.4024
# 3 44.4693 42.3475 116.4985 -7.7568 -13.7761 -12.7381
# 4 1.1349 1.3956 -7.7568 45.0383 1.2511 5.0204
# 5 -8.3702 -8.0218 -13.7761 1.2511 46.0015 16.1776
# 6 -27.4087 -9.4024 -12.7381 5.0204 16.1776 51.2221
#
#
#
# Elastic Compliance Matrix: (Units=1/GPa)
#
#
# Indices 1 2 3 4 5 6 
#
# 1 0.010638 -0.005887 -0.001608 -0.000850 -0.001192 0.004672
# 2 -0.005887 0.017632 -0.004224 -0.001020 0.001204 -0.001244
# 3 -0.001608 -0.004224 0.011150 0.002003 0.002165 0.000257
# 4 -0.000850 -0.001020 0.002003 0.022871 0.000545 -0.002558
# 5 -0.001192 0.001204 0.002165 0.000545 0.025133 -0.007870
# 6 0.004672 -0.001244 0.000257 -0.002558 -0.007870 0.024594
#
#
# Mechanical properties :
#
#
# Convention : Reuss Voigt Hill
#
# Bulk Modulus (GPa) = 62.56230 70.48130 66.52180
# Shear Modulus (GPa) = 35.51577 41.91632 38.71605
#
# Velocity S-wave (km/s) = 4.02518 4.37287 4.20262
# Velocity P-wave (km/s) = 7.08119 7.59270 7.34140
#
# Compressibility (1/GPa) = 0.01598407
#
# Stress axis : x y z
#
# Youngs Moduli (GPa) = 94.00582 56.71458 89.68335
#
# Poissons Ratio (x) = 0.33386 0.14417
# Poissons Ratio (y) = 0.55337 0.37881
# Poissons Ratio (z) = 0.15112 0.23956
#
# Static dielectric constant tensor:
#      x y z
#    x 1.906770 0.033260 -0.067840 
#    y 0.033260 2.026470 0.012760 
#    z -0.067840 0.012760 1.875770 
# 
# From -- ./inp_files/161810.got.cif
#   From: 2010.05.17/outbox.cif.g08.bks.cpg/sg2_81_cif.got.tgz:161810.got - 2010.06.03 11:33:40.
