data_PCOD9006758
_publ_section_title
;
Structure prediction by ZEFSAII (Michael W. Deem and Ramdas Pophale) SiO2 
 PCOD9006758
Probable space group: P -1
;
_chemical_formula_sum "Si O2"
_cell_formula_units_Z 14
_cell_length_a 5.262069
_cell_length_b 16.720792
_cell_length_c 8.625217
_cell_angle_alpha 47.783175
_cell_angle_beta 95.841468
_cell_angle_gamma 105.094002
_cell_volume 539.804022
_symmetry_space_group_name_H-M "P -1"
_symmetry_group_IT_number 2
_symmetry_cell_setting 'triclinic'
loop_
_space_group_symop_operation_xyz
x,y,z
-x,-y,-z
loop_
_atom_site_type_symbol
_atom_site_label
_atom_site_fract_x
_atom_site_fract_y
_atom_site_fract_z
Si Si1 0.358165 0.951563 0.710010
Si Si2 0.436104 0.704919 0.109682
Si Si3 0.939975 0.859001 0.997185
Si Si4 0.272533 0.628279 0.542861
Si Si5 0.015161 0.419108 0.963314
Si Si6 0.773416 0.069656 0.791172
Si Si7 0.855093 0.723989 0.588284
O O1 0.046618 0.918884 0.765277
O O2 0.500000 0.000000 0.500000
O O3 0.493184 0.046593 0.720455
O O4 0.406112 0.828405 0.901167
O O5 0.306975 0.654556 0.329414
O O6 0.273655 0.626547 0.069492
O O7 0.752250 0.737486 0.115286
O O8 0.801500 0.943278 0.966883
O O9 0.181347 0.869735 0.119288
O O10 0.208890 0.496497 0.750946
O O11 0.551418 0.690432 0.559967
O O12 0.031111 0.666912 0.558106
O O13 0.114860 0.320388 0.179284
O O14 0.000000 0.500000 0.000000
O O15 0.994061 0.146814 0.594106
#
# Coordination Sequence:
#
# PCOD9006758 Si02
#       7
#     2   2   2   2   2   2   2
#     4  11  24  41  62 102 144 181 231 283 355 418
#     4  11  23  44  68 101 136 183 234 290 349 416
#     4  10  22  41  65 101 133 184 230 283 340 420
#     4  11  24  45  72 102 139 182 242 285 350 414
#     4  10  24  48  68 100 138 182 233 298 354 415
#     4  10  21  38  68  97 138 181 230 277 342 414
#     4  11  23  44  71 106 139 184 231 291 348 415
#
# _framework density 25.935338999999999
#
# number of rings (size 3 to 8) (size 9 to 14) (size 15 to 20)
#    0.000    1.429    1.429    3.000    2.000    2.286 
#   15.429    3.571    0.000    0.000    0.000    0.000 
#    0.000    0.000    0.000    0.000    0.000    0.000 
#
# Total GULP energy -78238.832245 kJ/mol
# GULP energy per Si atom -5588.488018 kJ/mol
# Density = 2.587631 g / cm^3
# Si number density = 25.935339 Si / 1000 Ang^3
#
#
#
# Elastic Constant Matrix: (Units=GPa)
#
#
# Indices 1 2 3 4 5 6 
#
# 1 64.6824 45.3278 16.0233 3.0208 -17.0749 16.7582
# 2 45.3278 179.9055 56.7237 -2.5735 -16.0169 45.4818
# 3 16.0233 56.7237 201.1676 0.4636 -31.2368 5.4690
# 4 3.0208 -2.5735 0.4636 39.1156 4.6740 -6.9505
# 5 -17.0749 -16.0169 -31.2368 4.6740 36.3548 -8.7323
# 6 16.7582 45.4818 5.4690 -6.9505 -8.7323 31.8466
#
#
#
# Elastic Compliance Matrix: (Units=1/GPa)
#
#
# Indices 1 2 3 4 5 6 
#
# 1 0.021538 -0.003859 0.000828 -0.003736 0.008542 -0.004439
# 2 -0.003859 0.010556 -0.002702 -0.001069 -0.002594 -0.013525
# 3 0.000828 -0.002702 0.006448 -0.000322 0.005695 0.003807
# 4 -0.003736 -0.001069 -0.000322 0.027780 -0.004031 0.008506
# 5 0.008542 -0.002594 0.005695 -0.004031 0.037629 0.007671
# 6 -0.004439 -0.013525 0.003807 0.008506 0.007671 0.056358
#
#
# Mechanical properties :
#
#
# Convention : Reuss Voigt Hill
#
# Bulk Modulus (GPa) = 36.93058 75.76723 56.34890
# Shear Modulus (GPa) = 27.65476 43.30878 35.48177
#
# Velocity S-wave (km/s) = 3.26896 4.09084 3.70278
# Velocity P-wave (km/s) = 5.34028 7.18266 6.32887
#
# Compressibility (1/GPa) = 0.02707783
#
# Stress axis : x y z
#
# Youngs Moduli (GPa) = 46.42873 94.73723 155.07743
#
# Poissons Ratio (x) = 0.36555 -0.12841
# Poissons Ratio (y) = 0.17915 0.41898
# Poissons Ratio (z) = -0.03845 0.25595
#
# Static dielectric constant tensor:
#      x y z
#    x 2.263810 0.007670 0.085060 
#    y 0.007670 2.023760 0.028980 
#    z 0.085060 0.028980 2.138190 
# 
# From -- ./inp_files/28197.got.cif
#   From: 2010.05.17/outbox.cif.g08.bks.cpg/sg2_15_cif.got.tgz:28197.got - 2010.06.03 11:33:40.
