data_PCOD9006972
_publ_section_title
;
Structure prediction by ZEFSAII (Michael W. Deem and Ramdas Pophale) SiO2 
 PCOD9006972
Probable space group: P -1
;
_chemical_formula_sum "Si O2"
_cell_formula_units_Z 16
_cell_length_a 16.935360
_cell_length_b 8.564821
_cell_length_c 19.596973
_cell_angle_alpha 123.437349
_cell_angle_beta 159.416889
_cell_angle_gamma 68.095021
_cell_volume 728.503890
_symmetry_space_group_name_H-M "P -1"
_symmetry_group_IT_number 2
_symmetry_cell_setting 'triclinic'
loop_
_space_group_symop_operation_xyz
x,y,z
-x,-y,-z
loop_
_atom_site_type_symbol
_atom_site_label
_atom_site_fract_x
_atom_site_fract_y
_atom_site_fract_z
Si Si1 0.947889 0.031629 0.588982
Si Si2 0.576039 0.523089 0.889506
Si Si3 0.601466 0.575436 0.523821
Si Si4 0.174704 0.524635 0.059184
Si Si5 0.990676 0.638926 0.588724
Si Si6 0.510151 0.303519 0.923069
Si Si7 0.308412 0.796452 0.470686
Si Si8 0.702576 0.019682 0.727481
O O1 0.010285 0.854725 0.627290
O O2 0.782983 0.086010 0.522455
O O3 0.759144 0.919086 0.344619
O O4 0.218445 0.248997 0.857316
O O5 0.686703 0.474474 0.899366
O O6 0.292814 0.492896 0.639045
O O7 0.539579 0.359986 0.880746
O O8 0.500000 0.500000 0.500000
O O9 0.361855 0.532159 0.271662
O O10 0.698144 0.406358 0.544157
O O11 0.778262 0.835173 0.727148
O O12 0.120429 0.724990 0.066004
O O13 0.906591 0.308676 0.787775
O O14 0.000000 0.500000 0.500000
O O15 0.237081 0.699093 0.848449
O O16 0.500000 0.500000 0.000000
O O17 0.564744 0.946682 0.672409
O O18 0.500000 0.000000 0.500000
#
# Coordination Sequence:
#
# PCOD9006972 Si02
#       8
#     2   2   2   2   2   2   2   2
#     4  10  23  40  62  91 122 167 209 253 318 370
#     4  10  23  40  62  93 123 166 211 252 312 375
#     4   9  20  36  59  89 121 155 200 248 296 361
#     4  10  21  39  60  85 125 160 203 252 302 365
#     4  11  22  42  62  88 124 158 203 262 315 368
#     4  11  22  42  62  89 126 157 202 264 310 370
#     4  10  21  39  58  84 124 159 201 252 305 364
#     4   9  18  34  57  87 117 157 198 244 296 358
#
# _framework density 21.962820000000001
#
# number of rings (size 3 to 8) (size 9 to 14) (size 15 to 20)
#    0.000    2.000    2.500    1.500    0.000   11.000 
#    0.000    3.750    0.000    0.000    0.000    0.000 
#    0.000    0.000    0.000    0.000    0.000    0.000 
#
# Total GULP energy -89295.765627 kJ/mol
# GULP energy per Si atom -5580.985352 kJ/mol
# Density = 2.191283 g / cm^3
# Si number density = 21.962820 Si / 1000 Ang^3
#
#
#
# Elastic Constant Matrix: (Units=GPa)
#
#
# Indices 1 2 3 4 5 6 
#
# 1 55.0248 25.0636 12.4891 -5.0395 -3.3179 1.0645
# 2 25.0636 151.0430 47.7169 -0.9141 -11.4699 -18.4938
# 3 12.4891 47.7169 157.2226 -0.9245 -11.1027 2.2426
# 4 -5.0395 -0.9141 -0.9245 49.9154 1.6266 -6.5323
# 5 -3.3179 -11.4699 -11.1027 1.6266 32.1776 -1.7964
# 6 1.0645 -18.4938 2.2426 -6.5323 -1.7964 25.8527
#
#
#
# Elastic Compliance Matrix: (Units=1/GPa)
#
#
# Indices 1 2 3 4 5 6 
#
# 1 0.020096 -0.003500 -0.000454 0.001567 0.000429 -0.002866
# 2 -0.003500 0.009013 -0.002386 0.000621 0.002395 0.007122
# 3 -0.000454 -0.002386 0.007257 -0.000304 0.001494 -0.002291
# 4 0.001567 0.000621 -0.000304 0.020955 -0.000464 0.005669
# 5 0.000429 0.002395 0.001494 -0.000464 0.032722 0.003722
# 6 -0.002866 0.007122 -0.002291 0.005669 0.003722 0.045783
#
#
# Mechanical properties :
#
#
# Convention : Reuss Voigt Hill
#
# Bulk Modulus (GPa) = 42.21971 59.31438 50.76705
# Shear Modulus (GPa) = 31.96910 40.12388 36.04649
#
# Velocity S-wave (km/s) = 3.81937 4.27886 4.05563
# Velocity P-wave (km/s) = 6.22215 7.17474 6.71536
#
# Compressibility (1/GPa) = 0.02368562
#
# Stress axis : x y z
#
# Youngs Moduli (GPa) = 49.76179 110.95211 137.79704
#
# Poissons Ratio (x) = 0.38835 0.06251
# Poissons Ratio (y) = 0.17418 0.32881
# Poissons Ratio (z) = 0.02257 0.26475
#
# Static dielectric constant tensor:
#      x y z
#    x 1.785990 -0.027640 0.013190 
#    y -0.027640 1.805170 0.014110 
#    z 0.013190 0.014110 1.914860 
# 
# From -- ./inp_files/599577.got.cif
#   From: 2010.05.17/outbox.cif.g08.bks.cpg/sg2_300_cif.got.tgz:599577.got - 2010.06.03 11:33:40.
