data_PCOD9006935
_publ_section_title
;
Structure prediction by ZEFSAII (Michael W. Deem and Ramdas Pophale) SiO2 
 PCOD9006935
Probable space group: P -1
;
_chemical_formula_sum "Si O2"
_cell_formula_units_Z 16
_cell_length_a 14.302037
_cell_length_b 7.218823
_cell_length_c 15.272592
_cell_angle_alpha 47.314750
_cell_angle_beta 141.239104
_cell_angle_gamma 122.096008
_cell_volume 725.661038
_symmetry_space_group_name_H-M "P -1"
_symmetry_group_IT_number 2
_symmetry_cell_setting 'triclinic'
loop_
_space_group_symop_operation_xyz
x,y,z
-x,-y,-z
loop_
_atom_site_type_symbol
_atom_site_label
_atom_site_fract_x
_atom_site_fract_y
_atom_site_fract_z
Si Si1 0.606482 0.348095 0.820387
Si Si2 0.789803 0.953245 0.530046
Si Si3 0.361923 0.660463 0.954403
Si Si4 0.628306 0.466096 0.532919
Si Si5 0.972033 0.344302 0.281689
Si Si6 0.098423 0.365016 0.043255
Si Si7 0.522015 0.865283 0.838969
Si Si8 0.853430 0.167993 0.699893
O O1 0.444626 0.440807 0.641576
O O2 0.728887 0.566927 0.830060
O O3 0.627600 0.109147 0.848498
O O4 0.613124 0.257751 0.954023
O O5 0.749809 0.656472 0.599572
O O6 0.937839 0.913876 0.590868
O O7 0.636810 0.071626 0.342659
O O8 0.819703 0.075909 0.606249
O O9 0.193026 0.713219 0.783889
O O10 0.475584 0.778510 0.930280
O O11 0.393855 0.361561 0.072708
O O12 0.500000 0.500000 0.500000
O O13 0.710193 0.214700 0.643614
O O14 0.062633 0.561064 0.331015
O O15 0.933634 0.495624 0.115520
O O16 0.065585 0.068980 0.120763
O O17 0.000000 0.500000 0.000000
#
# Coordination Sequence:
#
# PCOD9006935 Si02
#       8
#     2   2   2   2   2   2   2   2
#     4  10  22  38  60  85 119 150 191 243 290 345
#     4  10  21  39  57  85 118 155 197 239 294 351
#     4  10  22  40  61  91 110 151 202 242 304 345
#     4  10  22  36  57  88 118 156 200 235 288 351
#     4  10  23  38  58  88 119 156 198 241 288 356
#     4  11  22  36  58  86 117 157 197 228 286 354
#     4  10  22  40  64  84 117 148 196 255 293 351
#     4  11  22  38  59  81 126 160 189 242 288 342
#
# _framework density 22.048860999999999
#
# number of rings (size 3 to 8) (size 9 to 14) (size 15 to 20)
#    0.000    1.750    1.250    2.250    3.500    6.500 
#    0.000    0.625    0.000    0.000    0.000    0.000 
#    0.000    0.000    0.000    0.000    0.000    0.000 
#
# Total GULP energy -89217.190930 kJ/mol
# GULP energy per Si atom -5576.074433 kJ/mol
# Density = 2.199868 g / cm^3
# Si number density = 22.048861 Si / 1000 Ang^3
#
#
#
# Elastic Constant Matrix: (Units=GPa)
#
#
# Indices 1 2 3 4 5 6 
#
# 1 51.8935 24.0391 7.6250 3.0390 19.8469 -16.3575
# 2 24.0391 116.2043 33.4210 10.4377 9.9128 -34.4434
# 3 7.6250 33.4210 76.0909 5.8480 8.3967 -23.6247
# 4 3.0390 10.4377 5.8480 38.7584 -10.2404 6.0661
# 5 19.8469 9.9128 8.3967 -10.2404 37.5044 -7.6158
# 6 -16.3575 -34.4434 -23.6247 6.0661 -7.6158 26.1534
#
#
#
# Elastic Compliance Matrix: (Units=1/GPa)
#
#
# Indices 1 2 3 4 5 6 
#
# 1 0.034019 0.002085 0.007694 -0.013705 -0.018157 0.028865
# 2 0.002085 0.016528 0.001691 -0.009787 -0.003260 0.025919
# 3 0.007694 0.001691 0.021510 -0.010280 -0.006677 0.026910
# 4 -0.013705 -0.009787 -0.010280 0.040875 0.016084 -0.035545
# 5 -0.018157 -0.003260 -0.006677 0.016084 0.040239 -0.013693
# 6 0.028865 0.025919 0.026910 -0.035545 -0.013693 0.118989
#
#
# Mechanical properties :
#
#
# Convention : Reuss Voigt Hill
#
# Bulk Modulus (GPa) = 10.52663 41.59543 26.06103
# Shear Modulus (GPa) = 17.80084 32.42348 25.11216
#
# Velocity S-wave (km/s) = 2.84445 3.83891 3.37847
# Velocity P-wave (km/s) = 3.94619 6.20932 5.20231
#
# Compressibility (1/GPa) = 0.09499718
#
# Stress axis : x y z
#
# Youngs Moduli (GPa) = 29.39528 60.50519 46.48942
#
# Poissons Ratio (x) = -0.12616 -0.35769
# Poissons Ratio (y) = -0.06129 -0.07861
# Poissons Ratio (z) = -0.22617 -0.10232
#
# Static dielectric constant tensor:
#      x y z
#    x 1.901990 0.041390 0.034400 
#    y 0.041390 1.832190 -0.020120 
#    z 0.034400 -0.020120 1.867560 
# 
# From -- ./inp_files/39466.got.cif
#   From: 2010.05.17/outbox.cif.g08.bks.cpg/sg2_20_cif.got.tgz:39466.got - 2010.06.03 11:33:40.
