data_PCOD9006463
_publ_section_title
;
Structure prediction by ZEFSAII (Michael W. Deem and Ramdas Pophale) SiO2 
 PCOD9006463
Probable space group: P -1
;
_chemical_formula_sum "Si O2"
_cell_formula_units_Z 16
_cell_length_a 20.537465
_cell_length_b 16.035901
_cell_length_c 10.595453
_cell_angle_alpha 143.824931
_cell_angle_beta 142.060496
_cell_angle_gamma 20.582174
_cell_volume 714.882564
_symmetry_space_group_name_H-M "P -1"
_symmetry_group_IT_number 2
_symmetry_cell_setting 'triclinic'
loop_
_space_group_symop_operation_xyz
x,y,z
-x,-y,-z
loop_
_atom_site_type_symbol
_atom_site_label
_atom_site_fract_x
_atom_site_fract_y
_atom_site_fract_z
Si Si1 0.207171 0.516540 0.855838
Si Si2 0.267005 0.890055 0.394507
Si Si3 0.212014 0.970416 0.123597
Si Si4 0.764578 0.909643 0.165388
Si Si5 0.188161 0.408527 0.279945
Si Si6 0.827993 0.306937 0.260082
Si Si7 0.292582 0.169521 0.404927
Si Si8 0.493682 0.605223 0.743251
O O1 0.210105 0.593891 0.818298
O O2 0.221036 0.335818 0.620381
O O3 0.007319 0.765289 0.915505
O O4 0.365322 0.416448 0.059374
O O5 0.425580 0.594376 0.276445
O O6 0.244516 0.973797 0.323561
O O7 0.308311 0.959493 0.649959
O O8 0.058461 0.055479 0.312659
O O9 0.313485 0.978706 0.210762
O O10 0.247938 0.764930 0.917955
O O11 0.988067 0.654415 0.209846
O O12 0.705006 0.097387 0.205212
O O13 0.699374 0.827028 0.919544
O O14 0.258143 0.485873 0.520629
O O15 0.170035 0.350529 0.317639
O O16 0.500000 0.000000 0.500000
O O17 0.500000 0.500000 0.500000
#
# Coordination Sequence:
#
# PCOD9006463 Si02
#       8
#     2   2   2   2   2   2   2   2
#     4  10  18  34  57  90 122 151 193 248 296 355
#     4   9  16  31  57  95 117 146 194 248 300 346
#     4  11  19  35  63  94 119 150 196 254 306 349
#     4   9  18  31  58  81 117 167 198 226 285 359
#     4   9  19  37  55  82 114 166 203 223 291 368
#     4   9  16  31  60  87 118 149 193 244 301 352
#     4  11  24  38  59  88 120 158 198 248 307 358
#     4  10  17  28  55  92 117 151 189 241 292 345
#
# _framework density 22.381298999999999
#
# number of rings (size 3 to 8) (size 9 to 14) (size 15 to 20)
#    0.000    2.250    2.500    2.625    0.000    0.000 
#    0.000    2.500    0.000   23.250    0.000    0.000 
#    0.000    0.000    0.000    0.000    0.000    0.000 
#
# Total GULP energy -89208.343560 kJ/mol
# GULP energy per Si atom -5575.521472 kJ/mol
# Density = 2.233036 g / cm^3
# Si number density = 22.381299 Si / 1000 Ang^3
#
#
#
# Elastic Constant Matrix: (Units=GPa)
#
#
# Indices 1 2 3 4 5 6 
#
# 1 36.8900 17.4067 43.8892 3.4506 20.9270 9.0382
# 2 17.4067 98.4152 22.9990 6.4781 7.3308 15.9365
# 3 43.8892 22.9990 167.3352 22.1813 6.4722 9.5376
# 4 3.4506 6.4781 22.1813 40.9535 9.2589 2.6585
# 5 20.9270 7.3308 6.4722 9.2589 30.2299 5.6374
# 6 9.0382 15.9365 9.5376 2.6585 5.6374 16.7826
#
#
#
# Elastic Compliance Matrix: (Units=1/GPa)
#
#
# Indices 1 2 3 4 5 6 
#
# 1 0.095884 -0.005654 -0.023869 0.021078 -0.063615 -0.014674
# 2 -0.005654 0.012543 0.000442 -0.001824 0.003182 -0.009897
# 3 -0.023869 0.000442 0.012626 -0.008622 0.016129 0.001208
# 4 0.021078 -0.001824 -0.008622 0.032705 -0.021842 -0.002563
# 5 -0.063615 0.003182 0.016129 -0.021842 0.079822 -0.001281
# 6 -0.014674 -0.009897 0.001208 -0.002563 -0.001281 0.077036
#
#
# Mechanical properties :
#
#
# Convention : Reuss Voigt Hill
#
# Bulk Modulus (GPa) = 15.90035 52.35890 34.12962
# Shear Modulus (GPa) = 12.82900 32.14957 22.48929
#
# Velocity S-wave (km/s) = 2.39676 3.79416 3.17334
# Velocity P-wave (km/s) = 3.84435 6.52986 5.35808
#
# Compressibility (1/GPa) = 0.06289170
#
# Stress axis : x y z
#
# Youngs Moduli (GPa) = 10.42929 79.72261 79.20187
#
# Poissons Ratio (x) = 0.45072 1.89045
# Poissons Ratio (y) = 0.05896 -0.03498
# Poissons Ratio (z) = 0.24893 -0.03521
#
# Static dielectric constant tensor:
#      x y z
#    x 1.830450 -0.014900 -0.024520 
#    y -0.014900 1.880810 0.044120 
#    z -0.024520 0.044120 1.921880 
# 
# From -- ./inp_files/475402.got.cif
#   From: 2010.05.17/outbox.cif.g08.bks.cpg/sg2_238_cif.got.tgz:475402.got - 2010.06.03 11:33:40.
