data_PCOD9006312
_publ_section_title
;
Structure prediction by ZEFSAII (Michael W. Deem and Ramdas Pophale) SiO2 
 PCOD9006312
Probable space group: P -1
;
_chemical_formula_sum "Si O2"
_cell_formula_units_Z 12
_cell_length_a 13.184059
_cell_length_b 10.799986
_cell_length_c 5.240445
_cell_angle_alpha 75.419241
_cell_angle_beta 93.107143
_cell_angle_gamma 45.496321
_cell_volume 485.426155
_symmetry_space_group_name_H-M "P -1"
_symmetry_group_IT_number 2
_symmetry_cell_setting 'triclinic'
loop_
_space_group_symop_operation_xyz
x,y,z
-x,-y,-z
loop_
_atom_site_type_symbol
_atom_site_label
_atom_site_fract_x
_atom_site_fract_y
_atom_site_fract_z
Si Si1 0.647037 0.981409 0.280233
Si Si2 0.499346 0.352644 0.027227
Si Si3 0.081417 0.550857 0.581499
Si Si4 0.707421 0.778112 0.887101
Si Si5 0.045814 0.876807 0.322434
Si Si6 0.331671 0.472319 0.444898
O O1 0.465806 0.114408 0.193053
O O2 0.646470 0.134751 0.226526
O O3 0.724870 0.844707 0.602199
O O4 0.708039 0.873919 0.078314
O O5 0.374486 0.432724 0.179625
O O6 0.500000 0.500000 0.000000
O O7 0.465403 0.351949 0.729108
O O8 0.002546 0.764301 0.421023
O O9 0.236733 0.433876 0.508432
O O10 0.000000 0.500000 0.500000
O O11 0.154554 0.448211 0.920247
O O12 0.225455 0.688184 0.404005
O O13 0.000000 0.000000 0.500000
O O14 0.000000 0.000000 0.000000
#
# Coordination Sequence:
#
# PCOD9006312 Si02
#       6
#     2   2   2   2   2   2
#     4  10  21  38  65  94 129 167 219 276 334 405
#     4  12  23  44  66  99 134 181 221 281 358 416
#     4  10  24  46  72 100 144 185 236 282 352 415
#     4  10  21  38  65  94 128 171 213 276 342 393
#     4  10  22  44  71  95 133 181 229 285 340 399
#     4  10  24  42  70  92 140 173 227 286 350 401
#
# _framework density 24.720545999999999
#
# number of rings (size 3 to 8) (size 9 to 14) (size 15 to 20)
#    1.000    0.667    1.667    2.500    4.667    1.333 
#    9.000    5.833    0.000    0.000    0.000    0.000 
#    0.000    0.000    0.000    0.000    0.000    0.000 
#
# Total GULP energy -66974.476141 kJ/mol
# GULP energy per Si atom -5581.206345 kJ/mol
# Density = 2.466428 g / cm^3
# Si number density = 24.720546 Si / 1000 Ang^3
#
#
#
# Elastic Constant Matrix: (Units=GPa)
#
#
# Indices 1 2 3 4 5 6 
#
# 1 58.8361 29.3089 33.6916 -6.6705 4.7298 30.4457
# 2 29.3089 170.1633 77.1952 -15.1353 -15.7295 29.0823
# 3 33.6916 77.1952 194.3049 -25.9896 -2.8450 26.5524
# 4 -6.6705 -15.1353 -25.9896 51.1039 1.0195 -1.5837
# 5 4.7298 -15.7295 -2.8450 1.0195 20.7299 -8.9205
# 6 30.4457 29.0823 26.5524 -1.5837 -8.9205 43.5251
#
#
#
# Elastic Compliance Matrix: (Units=1/GPa)
#
#
# Indices 1 2 3 4 5 6 
#
# 1 0.034419 -0.002642 -0.001358 0.002646 -0.021251 -0.025741
# 2 -0.002642 0.008246 -0.002524 0.000665 0.006117 -0.000844
# 3 -0.001358 -0.002524 0.006959 0.002589 -0.001568 -0.001836
# 4 0.002646 0.000665 0.002589 0.021363 -0.002333 -0.003575
# 5 -0.021251 0.006117 -0.001568 -0.002333 0.068701 0.025729
# 6 -0.025741 -0.000844 -0.001836 -0.003575 0.025729 0.047808
#
#
# Mechanical properties :
#
#
# Convention : Reuss Voigt Hill
#
# Bulk Modulus (GPa) = 27.34074 78.18841 52.76457
# Shear Modulus (GPa) = 23.50345 41.94569 32.72457
#
# Velocity S-wave (km/s) = 3.08679 4.12369 3.64233
# Velocity P-wave (km/s) = 4.87733 7.37364 6.25136
#
# Compressibility (1/GPa) = 0.03657546
#
# Stress axis : x y z
#
# Youngs Moduli (GPa) = 29.05406 121.27701 143.69980
#
# Poissons Ratio (x) = 0.32039 0.19516
# Poissons Ratio (y) = 0.07676 0.36268
# Poissons Ratio (z) = 0.03946 0.30609
#
# Static dielectric constant tensor:
#      x y z
#    x 2.199880 0.006870 -0.073940 
#    y 0.006870 2.006700 -0.082230 
#    z -0.073940 -0.082230 2.044500 
# 
# From -- ./inp_files/88619.got.cif
#   From: 2010.05.17/outbox.cif.g08.bks.cpg/sg2_45_cif.got.tgz:88619.got - 2010.06.03 11:33:40.
