data_PCOD9006362
_publ_section_title
;
Structure prediction by ZEFSAII (Michael W. Deem and Ramdas Pophale) SiO2 
 PCOD9006362
Probable space group: P -1
;
_chemical_formula_sum "Si O2"
_cell_formula_units_Z 14
_cell_length_a 18.670590
_cell_length_b 22.180415
_cell_length_c 11.924874
_cell_angle_alpha 27.739327
_cell_angle_beta 150.911462
_cell_angle_gamma 164.744886
_cell_volume 596.684388
_symmetry_space_group_name_H-M "P -1"
_symmetry_group_IT_number 2
_symmetry_cell_setting 'triclinic'
loop_
_space_group_symop_operation_xyz
x,y,z
-x,-y,-z
loop_
_atom_site_type_symbol
_atom_site_label
_atom_site_fract_x
_atom_site_fract_y
_atom_site_fract_z
Si Si1 0.529670 0.055886 0.792195
Si Si2 0.208316 0.343925 0.997982
Si Si3 0.546023 0.722733 0.637530
Si Si4 0.093005 0.422504 0.055359
Si Si5 0.309316 0.348853 0.376931
Si Si6 0.607703 0.337009 0.710318
Si Si7 0.419039 0.026892 0.240859
O O1 0.362530 0.061696 0.577506
O O2 0.539515 0.031063 0.715994
O O3 0.837355 0.309598 0.841678
O O4 0.444279 0.854313 0.058287
O O5 0.385563 0.559563 0.797823
O O6 0.896175 0.160569 0.879221
O O7 0.219148 0.206539 0.187662
O O8 0.339804 0.436826 0.149980
O O9 0.356084 0.578255 0.503271
O O10 0.371288 0.696482 0.937821
O O11 0.063859 0.254636 0.246095
O O12 0.143114 0.463636 0.189183
O O13 0.500000 0.500000 0.500000
O O14 0.358350 0.235343 0.595448
O O15 0.500000 0.000000 0.500000
#
# Coordination Sequence:
#
# PCOD9006362 Si02
#       7
#     2   2   2   2   2   2   2
#     4  11  22  40  68  93 127 174 212 272 322 370
#     4  10  21  42  67  93 132 170 214 264 320 388
#     4  10  22  40  66  91 132 177 208 259 327 385
#     4  10  21  38  65  97 125 162 223 264 320 373
#     4   9  18  38  64  94 123 164 210 269 318 369
#     4   9  21  40  60  94 131 166 221 259 314 391
#     4  11  24  40  65 100 130 163 219 270 319 385
#
# _framework density 23.462990999999999
#
# number of rings (size 3 to 8) (size 9 to 14) (size 15 to 20)
#    0.000    2.000    1.429    1.286    2.000    2.286 
#   12.857    2.143    6.286    0.000    0.000    0.000 
#    0.000    0.000    0.000    0.000    0.000    0.000 
#
# Total GULP energy -78107.184457 kJ/mol
# GULP energy per Si atom -5579.084604 kJ/mol
# Density = 2.340959 g / cm^3
# Si number density = 23.462991 Si / 1000 Ang^3
#
#
#
# Elastic Constant Matrix: (Units=GPa)
#
#
# Indices 1 2 3 4 5 6 
#
# 1 133.6684 46.2457 67.7887 -4.2460 -8.1071 -20.1256
# 2 46.2457 69.0741 40.7953 -5.5351 -12.5600 -16.5828
# 3 67.7887 40.7953 146.1800 2.3289 -8.2101 -13.2360
# 4 -4.2460 -5.5351 2.3289 18.3818 -19.0674 2.7633
# 5 -8.1071 -12.5600 -8.2101 -19.0674 68.6400 6.6186
# 6 -20.1256 -16.5828 -13.2360 2.7633 6.6186 23.3659
#
#
#
# Elastic Compliance Matrix: (Units=1/GPa)
#
#
# Indices 1 2 3 4 5 6 
#
# 1 0.011642 -0.004350 -0.003781 0.001156 -0.000002 0.004663
# 2 -0.004350 0.023356 -0.003652 0.011209 0.005682 0.007826
# 3 -0.003781 -0.003652 0.009663 -0.004621 -0.001295 0.000538
# 4 0.001156 0.011209 -0.004621 0.088957 0.027501 -0.011977
# 5 -0.000002 0.005682 -0.001295 0.027501 0.023737 -0.006678
# 6 0.004663 0.007826 0.000538 -0.011977 -0.006678 0.055980
#
#
# Mechanical properties :
#
#
# Convention : Reuss Voigt Hill
#
# Bulk Modulus (GPa) = 47.40230 73.17576 60.28903
# Shear Modulus (GPa) = 20.49734 35.01705 27.75719
#
# Velocity S-wave (km/s) = 2.95888 3.86740 3.44324
# Velocity P-wave (km/s) = 5.64980 7.15526 6.44663
#
# Compressibility (1/GPa) = 0.02109602
#
# Stress axis : x y z
#
# Youngs Moduli (GPa) = 85.89267 42.81475 103.48444
#
# Poissons Ratio (x) = 0.18623 0.39132
# Poissons Ratio (y) = 0.37361 0.37792
# Poissons Ratio (z) = 0.32480 0.15636
#
# Static dielectric constant tensor:
#      x y z
#    x 1.915200 0.035350 0.031670 
#    y 0.035350 1.897300 -0.004450 
#    z 0.031670 -0.004450 1.926900 
# 
# From -- ./inp_files/428689.got.cif
#   From: 2010.05.17/outbox.cif.g08.bks.cpg/sg2_215_cif.got.tgz:428689.got - 2010.06.03 11:33:40.
