data_PCOD9006892
_publ_section_title
;
Structure prediction by ZEFSAII (Michael W. Deem and Ramdas Pophale) SiO2 
 PCOD9006892
Probable space group: P -1
;
_chemical_formula_sum "Si O2"
_cell_formula_units_Z 14
_cell_length_a 13.013892
_cell_length_b 8.665171
_cell_length_c 7.568481
_cell_angle_alpha 92.909917
_cell_angle_beta 45.653375
_cell_angle_gamma 70.662086
_cell_volume 523.114954
_symmetry_space_group_name_H-M "P -1"
_symmetry_group_IT_number 2
_symmetry_cell_setting 'triclinic'
loop_
_space_group_symop_operation_xyz
x,y,z
-x,-y,-z
loop_
_atom_site_type_symbol
_atom_site_label
_atom_site_fract_x
_atom_site_fract_y
_atom_site_fract_z
Si Si1 0.042325 0.762140 0.783208
Si Si2 0.488138 0.074845 0.784975
Si Si3 0.480983 0.766040 0.604101
Si Si4 0.690365 0.395248 0.834517
Si Si5 0.250423 0.618632 0.838264
Si Si6 0.870821 0.709827 0.694047
Si Si7 0.170740 0.985916 0.470852
O O1 0.191780 0.613575 0.467577
O O2 0.079106 0.700368 0.937829
O O3 0.883806 0.770448 0.882548
O O4 0.062165 0.933668 0.725106
O O5 0.472282 0.164004 0.620794
O O6 0.668406 0.029941 0.630489
O O7 0.478771 0.895364 0.765428
O O8 0.324688 0.217100 0.099672
O O9 0.314519 0.759824 0.763295
O O10 0.619962 0.556436 0.440530
O O11 0.752537 0.183394 0.764344
O O12 0.500000 0.500000 0.000000
O O13 0.722377 0.444957 0.994046
O O14 0.000000 0.500000 0.500000
O O15 0.918054 0.829028 0.518766
#
# Coordination Sequence:
#
# PCOD9006892 Si02
#       7
#     2   2   2   2   2   2   2
#     4  10  25  44  67 104 144 189 237 292 359 437
#     4  11  23  45  69 105 140 188 240 302 361 420
#     4  10  22  39  71 103 142 175 247 299 344 428
#     4  10  21  38  78 107 138 181 250 295 341 425
#     4  11  20  42  72 108 136 188 240 297 355 424
#     4  12  28  43  69 103 153 190 236 299 379 425
#     4  10  23  47  70 100 139 193 247 292 344 434
#
# _framework density 26.762757000000001
#
# number of rings (size 3 to 8) (size 9 to 14) (size 15 to 20)
#    0.857    0.571    1.429    4.286    6.000    0.000 
#    0.000    6.429    0.000    0.000    0.000    0.000 
#    0.000    0.000    0.000    0.000    0.000    0.000 
#
# Total GULP energy -78315.725952 kJ/mol
# GULP energy per Si atom -5593.980425 kJ/mol
# Density = 2.670184 g / cm^3
# Si number density = 26.762757 Si / 1000 Ang^3
#
#
#
# Elastic Constant Matrix: (Units=GPa)
#
#
# Indices 1 2 3 4 5 6 
#
# 1 163.0345 57.8379 32.8237 6.3807 -4.6263 -12.7753
# 2 57.8379 116.9962 33.4371 23.1867 13.8298 1.6739
# 3 32.8237 33.4371 86.9422 18.8249 -2.2442 -5.2791
# 4 6.3807 23.1867 18.8249 55.2056 -3.3246 12.7371
# 5 -4.6263 13.8298 -2.2442 -3.3246 41.9820 -8.3910
# 6 -12.7753 1.6739 -5.2791 12.7371 -8.3910 46.8448
#
#
#
# Elastic Compliance Matrix: (Units=1/GPa)
#
#
# Indices 1 2 3 4 5 6 
#
# 1 0.008130 -0.004141 -0.001451 0.000894 0.002743 0.002450
# 2 -0.004141 0.012835 -0.002789 -0.003869 -0.005507 -0.001837
# 3 -0.001451 -0.002789 0.014203 -0.004025 0.001741 0.002711
# 4 0.000894 -0.003869 -0.004025 0.022468 0.001765 -0.005864
# 5 0.002743 -0.005507 0.001741 0.001765 0.027278 0.005547
# 6 0.002450 -0.001837 0.002711 -0.005864 0.005547 0.024974
#
#
# Mechanical properties :
#
#
# Convention : Reuss Voigt Hill
#
# Bulk Modulus (GPa) = 54.32667 68.35227 61.33947
# Shear Modulus (GPa) = 37.65497 44.99811 41.32654
#
# Velocity S-wave (km/s) = 3.75506 4.10490 3.93387
# Velocity P-wave (km/s) = 6.25652 6.93271 6.60328
#
# Compressibility (1/GPa) = 0.01840717
#
# Stress axis : x y z
#
# Youngs Moduli (GPa) = 123.00878 77.90915 70.40653
#
# Poissons Ratio (x) = 0.32260 0.10214
# Poissons Ratio (y) = 0.50935 0.19637
# Poissons Ratio (z) = 0.17846 0.21729
#
# Static dielectric constant tensor:
#      x y z
#    x 2.118390 0.014440 0.010970 
#    y 0.014440 2.089650 0.006130 
#    z 0.010970 0.006130 2.127060 
# 
# From -- ./inp_files/295708.got.cif
#   From: 2010.05.17/outbox.cif.g08.bks.cpg/sg2_148_cif.got.tgz:295708.got - 2010.06.03 11:33:40.
