data_PCOD9006891
_publ_section_title
;
Structure prediction by ZEFSAII (Michael W. Deem and Ramdas Pophale) SiO2 
 PCOD9006891
Probable space group: P -1
;
_chemical_formula_sum "Si O2"
_cell_formula_units_Z 14
_cell_length_a 10.829922
_cell_length_b 14.885544
_cell_length_c 14.492450
_cell_angle_alpha 23.287000
_cell_angle_beta 34.658111
_cell_angle_gamma 38.094993
_cell_volume 520.089282
_symmetry_space_group_name_H-M "P -1"
_symmetry_group_IT_number 2
_symmetry_cell_setting 'triclinic'
loop_
_space_group_symop_operation_xyz
x,y,z
-x,-y,-z
loop_
_atom_site_type_symbol
_atom_site_label
_atom_site_fract_x
_atom_site_fract_y
_atom_site_fract_z
Si Si1 0.578042 0.860460 0.859402
Si Si2 0.181402 0.239093 0.763325
Si Si3 0.504106 0.467560 0.638219
Si Si4 0.972193 0.838104 0.865787
Si Si5 0.433836 0.786370 0.690620
Si Si6 0.927816 0.298775 0.346098
Si Si7 0.284004 0.618616 0.132235
O O1 0.535357 0.774944 0.069899
O O2 0.476357 0.702126 0.995201
O O3 0.840399 0.806244 0.741033
O O4 0.399935 0.082069 0.745680
O O5 0.269525 0.476889 0.510662
O O6 0.965262 0.274511 0.799454
O O7 0.110548 0.141576 0.997061
O O8 0.500000 0.500000 0.500000
O O9 0.290818 0.644757 0.634195
O O10 0.233152 0.845749 0.689856
O O11 0.878886 0.085209 0.642939
O O12 0.949196 0.566982 0.110559
O O13 0.655567 0.652367 0.639808
O O14 0.500000 0.000000 0.500000
O O15 0.325471 0.655768 0.963167
#
# Coordination Sequence:
#
# PCOD9006891 Si02
#       7
#     2   2   2   2   2   2   2
#     4  12  27  47  75 113 154 200 259 326 388 451
#     4  11  27  45  76 108 156 209 249 318 388 466
#     4  12  28  49  76 106 155 204 263 317 386 464
#     4  11  25  47  80 111 153 201 258 310 386 462
#     4  10  21  38  76 107 152 197 250 313 382 463
#     4  12  27  49  80 112 153 200 260 323 380 452
#     4  10  23  44  68 113 151 193 258 309 391 455
#
# _framework density 26.918455999999999
#
# number of rings (size 3 to 8) (size 9 to 14) (size 15 to 20)
#    0.000    0.857    2.857    2.571    8.000    4.571 
#    0.000    0.000    0.000    0.000    0.000    0.000 
#    0.000    0.000    0.000    0.000    0.000    0.000 
#
# Total GULP energy -78141.224299 kJ/mol
# GULP energy per Si atom -5581.516021 kJ/mol
# Density = 2.685719 g / cm^3
# Si number density = 26.918456 Si / 1000 Ang^3
#
#
#
# Elastic Constant Matrix: (Units=GPa)
#
#
# Indices 1 2 3 4 5 6 
#
# 1 66.9542 25.6739 17.0548 -2.8291 3.7617 -20.8659
# 2 25.6739 168.3297 33.8093 -0.0548 -9.5476 -35.4171
# 3 17.0548 33.8093 95.2831 -12.6693 21.6849 -20.0945
# 4 -2.8291 -0.0548 -12.6693 51.7276 -1.8158 -5.8046
# 5 3.7617 -9.5476 21.6849 -1.8158 59.8704 6.9998
# 6 -20.8659 -35.4171 -20.0945 -5.8046 6.9998 48.0137
#
#
#
# Elastic Compliance Matrix: (Units=1/GPa)
#
#
# Indices 1 2 3 4 5 6 
#
# 1 0.017949 -0.001221 -0.000654 0.001550 -0.001867 0.007085
# 2 -0.001221 0.007424 -0.001939 -0.000042 0.001505 0.003910
# 3 -0.000654 -0.001939 0.014382 0.003908 -0.006020 0.005654
# 4 0.001550 -0.000042 0.003908 0.020885 -0.001473 0.005017
# 5 -0.001867 0.001505 -0.006020 -0.001473 0.019814 -0.005287
# 6 0.007085 0.003910 0.005654 0.005017 -0.005287 0.030535
#
#
# Mechanical properties :
#
#
# Convention : Reuss Voigt Hill
#
# Bulk Modulus (GPa) = 31.12667 53.73811 42.43239
# Shear Modulus (GPa) = 38.66150 48.85760 43.75955
#
# Velocity S-wave (km/s) = 3.79389 4.26493 4.03629
# Velocity P-wave (km/s) = 5.54797 6.65278 6.12533
#
# Compressibility (1/GPa) = 0.03212679
#
# Stress axis : x y z
#
# Youngs Moduli (GPa) = 55.71385 134.69026 69.52897
#
# Poissons Ratio (x) = 0.16442 0.04550
# Poissons Ratio (y) = 0.06801 0.13485
# Poissons Ratio (z) = 0.03646 0.26122
#
# Static dielectric constant tensor:
#      x y z
#    x 2.304190 0.258650 0.190640 
#    y 0.258650 2.446690 0.210160 
#    z 0.190640 0.210160 2.421420 
# 
# From -- ./inp_files/550581.got.cif
#   From: 2010.05.17/outbox.cif.g08.bks.cpg/sg2_276_cif.got.tgz:550581.got - 2010.06.03 11:33:40.
