data_PCOD9006048
_publ_section_title
;
Structure prediction by ZEFSAII (Michael W. Deem and Ramdas Pophale) SiO2 
 PCOD9006048
Probable space group: P -1
;
_chemical_formula_sum "Si O2"
_cell_formula_units_Z 16
_cell_length_a 5.849027
_cell_length_b 14.986095
_cell_length_c 14.259228
_cell_angle_alpha 37.824578
_cell_angle_beta 72.855625
_cell_angle_gamma 67.802529
_cell_volume 709.662716
_symmetry_space_group_name_H-M "P -1"
_symmetry_group_IT_number 2
_symmetry_cell_setting 'triclinic'
loop_
_space_group_symop_operation_xyz
x,y,z
-x,-y,-z
loop_
_atom_site_type_symbol
_atom_site_label
_atom_site_fract_x
_atom_site_fract_y
_atom_site_fract_z
Si Si1 0.793675 0.847970 0.176000
Si Si2 0.296533 0.974096 0.467961
Si Si3 0.810476 0.742335 0.882728
Si Si4 0.958370 0.138807 0.680745
Si Si5 0.759297 0.509991 0.921461
Si Si6 0.339810 0.311512 0.404677
Si Si7 0.544735 0.613327 0.478345
Si Si8 0.293152 0.104591 0.064309
O O1 0.003403 0.870213 0.203236
O O2 0.742469 0.692888 0.344502
O O3 0.549676 0.980761 0.118697
O O4 0.819378 0.840396 0.068280
O O5 0.292332 0.098992 0.286484
O O6 0.500000 0.000000 0.500000
O O7 0.404436 0.803756 0.561518
O O8 0.000000 0.000000 0.500000
O O9 0.816170 0.625418 0.895432
O O10 0.660335 0.767919 0.977592
O O11 0.080752 0.661506 0.956934
O O12 0.176607 0.197455 0.556238
O O13 0.712902 0.263524 0.584399
O O14 0.899398 0.980949 0.793574
O O15 0.764859 0.589083 0.754934
O O16 0.500000 0.500000 0.000000
O O17 0.370966 0.419302 0.397570
O O18 0.500000 0.500000 0.500000
#
# Coordination Sequence:
#
# PCOD9006048 Si02
#       8
#     2   2   2   2   2   2   2   2
#     4   9  20  39  60  95 127 165 218 280 351 412
#     4  12  26  45  77 106 138 185 242 300 362 423
#     4  11  25  41  65  98 130 178 228 283 347 425
#     4  10  21  39  66  91 131 165 227 286 351 413
#     4  11  26  45  61  90 138 179 225 284 351 425
#     4  11  25  44  67 100 132 182 232 294 350 428
#     4  10  23  39  63  92 131 176 230 283 344 425
#     4  10  21  38  64  93 130 167 218 285 349 419
#
# _framework density 22.545922000000001
#
# number of rings (size 3 to 8) (size 9 to 14) (size 15 to 20)
#    0.000    1.500    1.250    3.375    3.500    8.000 
#    0.000    0.000    0.000    0.000    0.000    0.000 
#    0.000    0.000    0.000    0.000    0.000    0.000 
#
# Total GULP energy -89117.530244 kJ/mol
# GULP energy per Si atom -5569.845640 kJ/mol
# Density = 2.249461 g / cm^3
# Si number density = 22.545922 Si / 1000 Ang^3
#
#
#
# Elastic Constant Matrix: (Units=GPa)
#
#
# Indices 1 2 3 4 5 6 
#
# 1 65.3791 27.7705 29.9691 18.9919 18.1812 19.6937
# 2 27.7705 108.3536 35.1419 16.7437 14.1372 36.8491
# 3 29.9691 35.1419 70.4417 18.2373 26.6352 13.0479
# 4 18.9919 16.7437 18.2373 34.2794 3.4611 7.5745
# 5 18.1812 14.1372 26.6352 3.4611 22.3137 7.4708
# 6 19.6937 36.8491 13.0479 7.5745 7.4708 41.3803
#
#
#
# Elastic Compliance Matrix: (Units=1/GPa)
#
#
# Indices 1 2 3 4 5 6 
#
# 1 0.025110 -0.000263 -0.000757 -0.010314 -0.015517 -0.006788
# 2 -0.000263 0.015038 -0.005076 -0.002059 0.000899 -0.011451
# 3 -0.000757 -0.005076 0.032327 -0.011519 -0.033948 0.002924
# 4 -0.010314 -0.002059 -0.011519 0.040305 0.017246 -0.000117
# 5 -0.015517 0.000899 -0.033948 0.017246 0.095796 -0.003163
# 6 -0.006788 -0.011451 0.002924 -0.000117 -0.003163 0.037264
#
#
# Mechanical properties :
#
#
# Convention : Reuss Voigt Hill
#
# Bulk Modulus (GPa) = 16.58838 47.77083 32.17961
# Shear Modulus (GPa) = 17.97748 29.68087 23.82917
#
# Velocity S-wave (km/s) = 2.82684 3.63225 3.25455
# Velocity P-wave (km/s) = 4.24597 6.23099 5.33167
#
# Compressibility (1/GPa) = 0.06028315
#
# Stress axis : x y z
#
# Youngs Moduli (GPa) = 39.82477 66.49867 30.93384
#
# Poissons Ratio (x) = 0.01752 0.02341
# Poissons Ratio (y) = 0.01049 0.15701
# Poissons Ratio (z) = 0.03013 0.33753
#
# Static dielectric constant tensor:
#      x y z
#    x 1.959560 0.121470 -0.027820 
#    y 0.121470 2.014720 -0.003760 
#    z -0.027820 -0.003760 1.851150 
# 
# From -- ./inp_files/484212.got.cif
#   From: 2010.05.17/outbox.cif.g08.bks.cpg/sg2_243_cif.got.tgz:484212.got - 2010.06.03 11:33:40.
