data_PCOD9006858
_publ_section_title
;
Structure prediction by ZEFSAII (Michael W. Deem and Ramdas Pophale) SiO2 
 PCOD9006858
Probable space group: P -1
;
_chemical_formula_sum "Si O2"
_cell_formula_units_Z 16
_cell_length_a 24.060139
_cell_length_b 8.785969
_cell_length_c 21.080320
_cell_angle_alpha 33.610796
_cell_angle_beta 19.355151
_cell_angle_gamma 33.462359
_cell_volume 788.442956
_symmetry_space_group_name_H-M "P -1"
_symmetry_group_IT_number 2
_symmetry_cell_setting 'triclinic'
loop_
_space_group_symop_operation_xyz
x,y,z
-x,-y,-z
loop_
_atom_site_type_symbol
_atom_site_label
_atom_site_fract_x
_atom_site_fract_y
_atom_site_fract_z
Si Si1 0.101734 0.676418 0.511260
Si Si2 0.342276 0.437070 0.654531
Si Si3 0.526723 0.295395 0.842073
Si Si4 0.311904 0.717733 0.458167
Si Si5 0.936536 0.600032 0.233464
Si Si6 0.080711 0.864894 0.872656
Si Si7 0.223560 0.869125 0.984703
Si Si8 0.943390 0.698451 0.430084
O O1 0.296961 0.655884 0.332866
O O2 0.992519 0.574052 0.719951
O O3 0.100119 0.491245 0.514583
O O4 0.000000 0.000000 0.500000
O O5 0.500000 0.500000 0.500000
O O6 0.372123 0.510089 0.524571
O O7 0.175295 0.669503 0.781793
O O8 0.313722 0.127641 0.805104
O O9 0.553222 0.271647 0.745916
O O10 0.366834 0.568959 0.931249
O O11 0.500000 0.000000 0.000000
O O12 0.172169 0.582388 0.621711
O O13 0.218610 0.035777 0.471362
O O14 0.830667 0.900628 0.275133
O O15 0.057727 0.678301 0.022506
O O16 0.895679 0.038555 0.982121
O O17 0.094220 0.833517 0.193147
O O18 0.000000 0.500000 0.500000
#
# Coordination Sequence:
#
# PCOD9006858 Si02
#       8
#     2   2   2   2   2   2   2   2
#     4  11  23  44  72  97 137 177 229 285 339 406
#     4  12  27  43  66 104 142 180 228 282 347 416
#     4  11  27  47  67 104 138 179 236 284 341 410
#     4  11  23  43  69  95 143 173 228 283 343 402
#     4  10  21  38  71 100 124 176 227 272 340 405
#     4  11  22  43  70  97 137 172 229 277 342 412
#     4  12  24  44  75  96 142 181 225 288 348 406
#     4  12  24  45  73 100 131 187 233 283 346 406
#
# _framework density 20.293161000000001
#
# number of rings (size 3 to 8) (size 9 to 14) (size 15 to 20)
#    0.000    0.750    3.750    4.125    5.250    2.500 
#    2.250    1.250    0.000    0.000    0.000    0.000 
#    0.000    0.000    0.000    0.000    0.000    0.000 
#
# Total GULP energy -89336.469060 kJ/mol
# GULP energy per Si atom -5583.529316 kJ/mol
# Density = 2.024697 g / cm^3
# Si number density = 20.293161 Si / 1000 Ang^3
#
#
#
# Elastic Constant Matrix: (Units=GPa)
#
#
# Indices 1 2 3 4 5 6 
#
# 1 124.1497 30.9070 42.5161 -17.6727 14.2368 2.3504
# 2 30.9070 114.4242 39.9384 -13.2324 -1.1646 -1.1372
# 3 42.5161 39.9384 88.4252 -22.6645 18.8882 -7.3052
# 4 -17.6727 -13.2324 -22.6645 43.0546 -4.3375 -1.4062
# 5 14.2368 -1.1646 18.8882 -4.3375 47.7010 -11.4877
# 6 2.3504 -1.1372 -7.3052 -1.4062 -11.4877 31.8123
#
#
#
# Elastic Compliance Matrix: (Units=1/GPa)
#
#
# Indices 1 2 3 4 5 6 
#
# 1 0.010125 -0.001334 -0.003622 0.001560 -0.002031 -0.002292
# 2 -0.001334 0.010813 -0.004613 0.000627 0.002644 0.000408
# 3 -0.003622 -0.004613 0.017993 0.006158 -0.004941 0.002723
# 4 0.001560 0.000627 0.006158 0.027410 0.000234 0.002617
# 5 -0.002031 0.002644 -0.004941 0.000234 0.025629 0.008375
# 6 -0.002292 0.000408 0.002723 0.002617 0.008375 0.035384
#
#
# Mechanical properties :
#
#
# Convention : Reuss Voigt Hill
#
# Bulk Modulus (GPa) = 50.51923 61.52467 56.02195
# Shear Modulus (GPa) = 32.66066 38.75609 35.70838
#
# Velocity S-wave (km/s) = 4.01614 4.37488 4.19934
# Velocity P-wave (km/s) = 6.81576 7.47684 7.15394
#
# Compressibility (1/GPa) = 0.01979444
#
# Stress axis : x y z
#
# Youngs Moduli (GPa) = 98.76072 92.47884 55.57869
#
# Poissons Ratio (x) = 0.12336 0.20129
# Poissons Ratio (y) = 0.13174 0.25638
# Poissons Ratio (z) = 0.35768 0.42659
#
# Static dielectric constant tensor:
#      x y z
#    x 1.718340 -0.016560 -0.011360 
#    y -0.016560 1.722270 -0.016560 
#    z -0.011360 -0.016560 1.748430 
# 
# From -- ./inp_files/544291.got.cif
#   From: 2010.05.17/outbox.cif.g08.bks.cpg/sg2_273_cif.got.tgz:544291.got - 2010.06.03 11:33:40.
