data_PCOD9006278
_publ_section_title
;
Structure prediction by ZEFSAII (Michael W. Deem and Ramdas Pophale) SiO2 
 PCOD9006278
Probable space group: P -1
;
_chemical_formula_sum "Si O2"
_cell_formula_units_Z 12
_cell_length_a 14.256974
_cell_length_b 7.803168
_cell_length_c 8.791649
_cell_angle_alpha 145.445539
_cell_angle_beta 94.538165
_cell_angle_gamma 71.587512
_cell_volume 495.681991
_symmetry_space_group_name_H-M "P -1"
_symmetry_group_IT_number 2
_symmetry_cell_setting 'triclinic'
loop_
_space_group_symop_operation_xyz
x,y,z
-x,-y,-z
loop_
_atom_site_type_symbol
_atom_site_label
_atom_site_fract_x
_atom_site_fract_y
_atom_site_fract_z
Si Si1 0.607135 0.438861 0.054216
Si Si2 0.024138 0.660855 0.847070
Si Si3 0.936879 0.151127 0.451946
Si Si4 0.268559 0.245109 0.547559
Si Si5 0.293646 0.515736 0.410996
Si Si6 0.592899 0.177124 0.197408
O O1 0.645595 0.720861 0.305466
O O2 0.600274 0.298096 0.117077
O O3 0.500000 0.500000 0.000000
O O4 0.699548 0.145350 0.758196
O O5 0.149200 0.458044 0.737960
O O6 0.980884 0.411616 0.590003
O O7 0.000000 0.000000 0.000000
O O8 0.961529 0.830136 0.114950
O O9 0.813055 0.363262 0.604627
O O10 0.000000 0.000000 0.500000
O O11 0.278906 0.380134 0.477559
O O12 0.314335 0.831172 0.688829
O O13 0.387015 0.207710 0.107256
O O14 0.500000 0.500000 0.500000
#
# Coordination Sequence:
#
# PCOD9006278 Si02
#       6
#     2   2   2   2   2   2
#     4  10  21  39  60  89 128 156 202 274 324 360
#     4  12  24  42  72  97 126 172 228 260 305 408
#     4  12  26  44  64  99 140 168 208 273 335 370
#     4  10  21  38  65  93 120 165 216 259 312 379
#     4  10  21  39  65  88 125 168 209 262 316 379
#     4  10  21  39  62  88 119 165 216 254 310 391
#
# _framework density 24.209070000000001
#
# number of rings (size 3 to 8) (size 9 to 14) (size 15 to 20)
#    0.000    1.333    1.667    4.000    4.667    0.000 
#    9.000    0.000    0.000    0.000    0.000    0.000 
#    0.000    0.000    0.000    0.000    0.000    0.000 
#
# Total GULP energy -67019.432430 kJ/mol
# GULP energy per Si atom -5584.952702 kJ/mol
# Density = 2.415397 g / cm^3
# Si number density = 24.209070 Si / 1000 Ang^3
#
#
#
# Elastic Constant Matrix: (Units=GPa)
#
#
# Indices 1 2 3 4 5 6 
#
# 1 66.1527 22.5977 39.6275 1.0367 -8.2447 -32.8296
# 2 22.5977 71.1158 24.5338 -2.0019 6.0063 -28.2562
# 3 39.6275 24.5338 175.1962 5.9520 -3.2657 -14.9403
# 4 1.0367 -2.0019 5.9520 19.2402 -11.3578 7.5255
# 5 -8.2447 6.0063 -3.2657 -11.3578 50.3530 7.8159
# 6 -32.8296 -28.2562 -14.9403 7.5255 7.8159 41.1373
#
#
#
# Elastic Compliance Matrix: (Units=1/GPa)
#
#
# Indices 1 2 3 4 5 6 
#
# 1 0.030139 0.002502 -0.004525 -0.011917 -0.002502 0.026783
# 2 0.002502 0.022061 -0.001801 -0.009396 -0.007507 0.019641
# 3 -0.004525 -0.001801 0.006844 -0.001248 -0.000033 -0.002128
# 4 -0.011917 -0.009396 -0.001248 0.078947 0.022345 -0.035105
# 5 -0.002502 -0.007507 -0.000033 0.022345 0.027955 -0.016564
# 6 0.026783 0.019641 -0.002128 -0.035105 -0.016564 0.067970
#
#
# Mechanical properties :
#
#
# Convention : Reuss Voigt Hill
#
# Bulk Modulus (GPa) = 19.45719 53.99810 36.72764
# Shear Modulus (GPa) = 19.32763 37.19312 28.26038
#
# Velocity S-wave (km/s) = 2.82860 3.92386 3.42035
# Velocity P-wave (km/s) = 4.32696 6.54845 5.54999
#
# Compressibility (1/GPa) = 0.05139489
#
# Stress axis : x y z
#
# Youngs Moduli (GPa) = 33.17935 45.32819 146.11432
#
# Poissons Ratio (x) = -0.11339 0.66121
# Poissons Ratio (y) = -0.08300 0.26315
# Poissons Ratio (z) = 0.15015 0.08164
#
# Static dielectric constant tensor:
#      x y z
#    x 2.007180 -0.007350 -0.053890 
#    y -0.007350 1.945740 0.037360 
#    z -0.053890 0.037360 1.955560 
# 
# From -- ./inp_files/130923.got.cif
#   From: 2010.05.17/outbox.cif.g08.bks.cpg/sg2_66_cif.got.tgz:130923.got - 2010.06.03 11:33:40.
