data_PCOD9006692
_publ_section_title
;
Structure prediction by ZEFSAII (Michael W. Deem and Ramdas Pophale) SiO2 
 PCOD9006692
Probable space group: P -1
;
_chemical_formula_sum "Si O2"
_cell_formula_units_Z 16
_cell_length_a 11.437071
_cell_length_b 11.178335
_cell_length_c 10.991297
_cell_angle_alpha 29.871782
_cell_angle_beta 101.116776
_cell_angle_gamma 101.986912
_cell_volume 684.385384
_symmetry_space_group_name_H-M "P -1"
_symmetry_group_IT_number 2
_symmetry_cell_setting 'triclinic'
loop_
_space_group_symop_operation_xyz
x,y,z
-x,-y,-z
loop_
_atom_site_type_symbol
_atom_site_label
_atom_site_fract_x
_atom_site_fract_y
_atom_site_fract_z
Si Si1 0.801916 0.215673 0.258844
Si Si2 0.631615 0.616627 0.904210
Si Si3 0.792534 0.490869 0.606173
Si Si4 0.815928 0.951924 0.741265
Si Si5 0.955734 0.248604 0.044136
Si Si6 0.640835 0.819941 0.454138
Si Si7 0.450923 0.767384 0.278544
Si Si8 0.008890 0.170403 0.733419
O O1 0.838680 0.052933 0.520723
O O2 0.712779 0.074411 0.268830
O O3 0.722840 0.415206 0.117817
O O4 0.916277 0.293261 0.132652
O O5 0.680159 0.837353 0.807304
O O6 0.639713 0.697157 0.694107
O O7 0.500000 0.500000 0.000000
O O8 0.879795 0.395744 0.808930
O O9 0.713068 0.675525 0.497655
O O10 0.691915 0.287484 0.717180
O O11 0.891282 0.607116 0.427229
O O12 0.872756 0.153965 0.667759
O O13 0.902971 0.734472 0.966881
O O14 0.931507 0.970969 0.241329
O O15 0.508266 0.832489 0.363855
O O16 0.500000 0.500000 0.500000
O O17 0.500000 0.000000 0.000000
O O18 0.000000 0.000000 0.000000
#
# Coordination Sequence:
#
# PCOD9006692 Si02
#       8
#     2   2   2   2   2   2   2   2
#     4  11  20  41  71  94 138 168 232 290 353 422
#     4  11  25  42  65  97 136 180 232 293 362 426
#     4  11  21  39  68  98 138 183 231 292 353 422
#     4   9  24  39  64 101 132 176 234 276 363 423
#     4  10  21  38  68 100 131 172 227 284 352 414
#     4  10  21  40  63 100 129 181 230 289 349 420
#     4  10  23  38  68 104 142 181 240 290 349 422
#     4  10  24  43  62  97 141 177 231 287 353 429
#
# _framework density 23.378639
#
# number of rings (size 3 to 8) (size 9 to 14) (size 15 to 20)
#    0.750    1.000    2.500    1.125    5.250    4.000 
#    0.000    2.500    0.000    0.000    0.000    0.000 
#    0.000    0.000    0.000    0.000    0.000    0.000 
#
# Total GULP energy -89097.425839 kJ/mol
# GULP energy per Si atom -5568.589115 kJ/mol
# Density = 2.332543 g / cm^3
# Si number density = 23.378639 Si / 1000 Ang^3
#
#
#
# Elastic Constant Matrix: (Units=GPa)
#
#
# Indices 1 2 3 4 5 6 
#
# 1 122.0678 75.2638 43.8505 -8.8258 -32.4323 30.7597
# 2 75.2638 104.5521 25.4244 -10.2960 -10.0017 49.5387
# 3 43.8505 25.4244 67.2442 1.4243 -8.8918 27.2394
# 4 -8.8258 -10.2960 1.4243 32.5390 10.2403 5.7280
# 5 -32.4323 -10.0017 -8.8918 10.2403 40.4294 -13.0991
# 6 30.7597 49.5387 27.2394 5.7280 -13.0991 53.0894
#
#
#
# Elastic Compliance Matrix: (Units=1/GPa)
#
#
# Indices 1 2 3 4 5 6 
#
# 1 0.032324 -0.030299 -0.016317 -0.013004 0.026519 0.025863
# 2 -0.030299 0.048913 0.015429 0.024047 -0.029790 -0.045948
# 3 -0.016317 0.015429 0.027064 0.007197 -0.012495 -0.022688
# 4 -0.013004 0.024047 0.007197 0.047476 -0.024575 -0.029783
# 5 0.026519 -0.029790 -0.012495 -0.024575 0.053343 0.034656
# 6 0.025863 -0.045948 -0.022688 -0.029783 0.034656 0.070132
#
#
# Mechanical properties :
#
#
# Convention : Reuss Voigt Hill
#
# Bulk Modulus (GPa) = 21.77399 64.77128 43.27264
# Shear Modulus (GPa) = 14.00811 35.16661 24.58736
#
# Velocity S-wave (km/s) = 2.45048 3.88263 3.24651
# Velocity P-wave (km/s) = 4.16417 6.91847 5.70989
#
# Compressibility (1/GPa) = 0.04592635
#
# Stress axis : x y z
#
# Youngs Moduli (GPa) = 30.93687 20.44440 36.94887
#
# Poissons Ratio (x) = 0.61944 0.60291
# Poissons Ratio (y) = 0.93735 -0.57007
# Poissons Ratio (z) = 0.50481 -0.31543
#
# Static dielectric constant tensor:
#      x y z
#    x 1.999980 -0.019860 -0.126230 
#    y -0.019860 1.995110 -0.045890 
#    z -0.126230 -0.045890 2.175850 
# 
# From -- ./inp_files/427263.got.cif
#   From: 2010.05.17/outbox.cif.g08.bks.cpg/sg2_214_cif.got.tgz:427263.got - 2010.06.03 11:33:40.
