data_PCOD9006046
_publ_section_title
;
Structure prediction by ZEFSAII (Michael W. Deem and Ramdas Pophale) SiO2 
 PCOD9006046
Probable space group: P -1
;
_chemical_formula_sum "Si O2"
_cell_formula_units_Z 12
_cell_length_a 8.153712
_cell_length_b 12.915722
_cell_length_c 5.052305
_cell_angle_alpha 88.992316
_cell_angle_beta 87.915660
_cell_angle_gamma 56.898456
_cell_volume 445.415333
_symmetry_space_group_name_H-M "P -1"
_symmetry_group_IT_number 2
_symmetry_cell_setting 'triclinic'
loop_
_space_group_symop_operation_xyz
x,y,z
-x,-y,-z
loop_
_atom_site_type_symbol
_atom_site_label
_atom_site_fract_x
_atom_site_fract_y
_atom_site_fract_z
Si Si1 0.208961 0.209548 0.691998
Si Si2 0.683207 0.294677 0.523772
Si Si3 0.045068 0.089309 0.336205
Si Si4 0.395024 0.875960 0.101359
Si Si5 0.759315 0.683046 0.816698
Si Si6 0.342171 0.500850 0.202137
O O1 0.140354 0.133559 0.540887
O O2 0.442980 0.117735 0.738235
O O3 0.177686 0.314474 0.482209
O O4 0.139236 0.274461 0.980690
O O5 0.654451 0.211439 0.732413
O O6 0.474037 0.401462 0.425102
O O7 0.770340 0.365505 0.663764
O O8 0.832559 0.210480 0.286960
O O9 0.196225 0.010258 0.097578
O O10 0.000000 0.000000 0.500000
O O11 0.528127 0.796934 0.849771
O O12 0.770456 0.559161 0.904297
O O13 0.500000 0.500000 0.000000
#
# Coordination Sequence:
#
# PCOD9006046 Si02
#       6
#     2   2   2   2   2   2
#     4  10  21  42  65  95 128 168 212 254 319 383
#     4  10  21  38  64  93 129 161 216 262 318 367
#     4  10  22  43  63  96 129 163 206 268 324 376
#     4   9  19  39  65  92 127 164 210 253 314 384
#     4  10  21  38  68  93 122 172 216 253 307 381
#     4  11  19  38  64  90 122 172 215 261 306 379
#
# _framework density 26.941148999999999
#
# number of rings (size 3 to 8) (size 9 to 14) (size 15 to 20)
#    1.000    1.000    3.333    0.500    2.333    0.667 
#    3.000    3.333    0.000    0.000    0.000    0.000 
#    0.000    0.000    0.000    0.000    0.000    0.000 
#
# Total GULP energy -67121.707719 kJ/mol
# GULP energy per Si atom -5593.475643 kJ/mol
# Density = 2.687983 g / cm^3
# Si number density = 26.941149 Si / 1000 Ang^3
#
#
#
# Elastic Constant Matrix: (Units=GPa)
#
#
# Indices 1 2 3 4 5 6 
#
# 1 115.0011 17.6301 0.1672 -0.6786 15.4432 26.9742
# 2 17.6301 98.6283 -0.8223 25.5201 -1.6913 6.3935
# 3 0.1672 -0.8223 83.2422 -0.8644 -3.0884 -2.4134
# 4 -0.6786 25.5201 -0.8644 24.4276 1.5796 -1.4381
# 5 15.4432 -1.6913 -3.0884 1.5796 35.9097 7.0819
# 6 26.9742 6.3935 -2.4134 -1.4381 7.0819 43.9462
#
#
#
# Elastic Compliance Matrix: (Units=1/GPa)
#
#
# Indices 1 2 3 4 5 6 
#
# 1 0.010915 -0.002336 -0.000324 0.002646 -0.003829 -0.005674
# 2 -0.002336 0.014801 0.000040 -0.015802 0.002731 -0.001674
# 3 -0.000324 0.000040 0.012076 0.000352 0.001026 0.000703
# 4 0.002646 -0.015802 0.000352 0.058061 -0.005079 0.003412
# 5 -0.003829 0.002731 0.001026 -0.005079 0.030542 -0.003078
# 6 -0.005674 -0.001674 0.000703 0.003412 -0.003078 0.027128
#
#
# Mechanical properties :
#
#
# Convention : Reuss Voigt Hill
#
# Bulk Modulus (GPa) = 30.72151 36.75797 33.73974
# Shear Modulus (GPa) = 29.47860 39.51647 34.49754
#
# Velocity S-wave (km/s) = 3.31144 3.83400 3.58226
# Velocity P-wave (km/s) = 5.10380 5.76826 5.44617
#
# Compressibility (1/GPa) = 0.03255048
#
# Stress axis : x y z
#
# Youngs Moduli (GPa) = 91.61818 67.56262 82.80710
#
# Poissons Ratio (x) = 0.15785 0.02684
# Poissons Ratio (y) = 0.21405 -0.00328
# Poissons Ratio (z) = 0.02969 -0.00267
#
# Static dielectric constant tensor:
#      x y z
#    x 2.182570 -0.019600 0.041570 
#    y -0.019600 2.115220 0.015300 
#    z 0.041570 0.015300 2.048680 
# 
# From -- ./inp_files/38692.got.cif
#   From: 2010.05.17/outbox.cif.g08.bks.cpg/sg2_20_cif.got.tgz:38692.got - 2010.06.03 11:33:40.
