data_PCOD9006208
_publ_section_title
;
Structure prediction by ZEFSAII (Michael W. Deem and Ramdas Pophale) SiO2 
 PCOD9006208
Probable space group: P -1
;
_chemical_formula_sum "Si O2"
_cell_formula_units_Z 16
_cell_length_a 6.365822
_cell_length_b 23.479264
_cell_length_c 8.521023
_cell_angle_alpha 124.467932
_cell_angle_beta 78.498071
_cell_angle_gamma 130.857404
_cell_volume 763.777873
_symmetry_space_group_name_H-M "P -1"
_symmetry_group_IT_number 2
_symmetry_cell_setting 'triclinic'
loop_
_space_group_symop_operation_xyz
x,y,z
-x,-y,-z
loop_
_atom_site_type_symbol
_atom_site_label
_atom_site_fract_x
_atom_site_fract_y
_atom_site_fract_z
Si Si1 0.735970 0.045824 0.401981
Si Si2 0.607746 0.606628 0.694650
Si Si3 0.878508 0.544745 0.665427
Si Si4 0.587722 0.768558 0.409366
Si Si5 0.670239 0.145512 0.318482
Si Si6 0.704149 0.753447 0.707746
Si Si7 0.725505 0.916564 0.007961
Si Si8 0.215393 0.582274 0.972793
O O1 0.622870 0.065154 0.298277
O O2 0.065056 0.145295 0.534331
O O3 0.500000 0.000000 0.500000
O O4 0.740758 0.965914 0.235745
O O5 0.900756 0.626776 0.716363
O O6 0.457719 0.539178 0.458575
O O7 0.612601 0.686487 0.760515
O O8 0.412000 0.570855 0.825373
O O9 0.000000 0.500000 0.500000
O O10 0.003633 0.572382 0.862128
O O11 0.451801 0.815762 0.507204
O O12 0.529250 0.726079 0.528893
O O13 0.429353 0.683009 0.180797
O O14 0.009338 0.221343 0.358948
O O15 0.534432 0.119550 0.125332
O O16 0.745822 0.839299 0.900533
O O17 0.000000 0.000000 0.000000
O O18 0.000000 0.500000 0.000000
#
# Coordination Sequence:
#
# PCOD9006208 Si02
#       8
#     2   2   2   2   2   2   2   2
#     4  11  24  40  63  94 130 172 217 271 331 379
#     4  10  22  41  65  95 128 163 220 266 317 389
#     4   9  21  41  66  90 122 166 211 260 322 382
#     4  10  23  42  61  95 131 166 216 267 320 395
#     4  10  21  38  65  88 126 168 216 265 322 385
#     4  10  22  38  66  95 123 168 222 271 312 384
#     4  11  20  41  65  89 125 173 223 264 320 388
#     4  11  24  41  65  93 134 170 205 261 336 392
#
# _framework density 20.948499999999999
#
# number of rings (size 3 to 8) (size 9 to 14) (size 15 to 20)
#    0.000    1.750    3.750    1.125    0.000   12.000 
#    0.000    0.000    0.000    0.000    0.000    0.000 
#    0.000    0.000    0.000    0.000    0.000    0.000 
#
# Total GULP energy -89085.622732 kJ/mol
# GULP energy per Si atom -5567.851421 kJ/mol
# Density = 2.090082 g / cm^3
# Si number density = 20.948500 Si / 1000 Ang^3
#
#
#
# Elastic Constant Matrix: (Units=GPa)
#
#
# Indices 1 2 3 4 5 6 
#
# 1 116.7799 36.0996 50.6701 8.8210 -2.1545 -13.4957
# 2 36.0996 88.8680 50.1163 -6.7493 -9.2592 -6.2565
# 3 50.6701 50.1163 149.1044 15.2743 -7.2994 4.9372
# 4 8.8210 -6.7493 15.2743 28.5355 4.7853 -9.3224
# 5 -2.1545 -9.2592 -7.2994 4.7853 31.6378 -3.1410
# 6 -13.4957 -6.2565 4.9372 -9.3224 -3.1410 28.7375
#
#
#
# Elastic Compliance Matrix: (Units=1/GPa)
#
#
# Indices 1 2 3 4 5 6 
#
# 1 0.011335 -0.002594 -0.003064 -0.000829 -0.000072 0.005008
# 2 -0.002594 0.017254 -0.006046 0.009994 0.002672 0.007111
# 3 -0.003064 -0.006046 0.011007 -0.009003 0.001185 -0.007438
# 4 -0.000829 0.009994 -0.009003 0.049449 -0.004817 0.018848
# 5 -0.000072 0.002672 0.001185 -0.004817 0.033631 0.002458
# 6 0.005008 0.007111 -0.007438 0.018848 0.002458 0.046358
#
#
# Mechanical properties :
#
#
# Convention : Reuss Voigt Hill
#
# Bulk Modulus (GPa) = 61.78084 69.83604 65.80844
# Shear Modulus (GPa) = 25.27311 32.30658 28.78985
#
# Velocity S-wave (km/s) = 3.47715 3.93133 3.71120
# Velocity P-wave (km/s) = 6.75845 7.34960 7.06021
#
# Compressibility (1/GPa) = 0.01618625
#
# Stress axis : x y z
#
# Youngs Moduli (GPa) = 88.22502 57.95643 90.85212
#
# Poissons Ratio (x) = 0.15034 0.27840
# Poissons Ratio (y) = 0.22886 0.54933
# Poissons Ratio (z) = 0.27035 0.35043
#
# Static dielectric constant tensor:
#      x y z
#    x 1.767520 -0.041980 -0.005150 
#    y -0.041980 1.858920 0.051240 
#    z -0.005150 0.051240 1.737630 
# 
# From -- ./inp_files/142660.got.cif
#   From: 2010.05.17/outbox.cif.g08.bks.cpg/sg2_72_cif.got.tgz:142660.got - 2010.06.03 11:33:40.
