data_PCOD9006344
_publ_section_title
;
Structure prediction by ZEFSAII (Michael W. Deem and Ramdas Pophale) SiO2 
 PCOD9006344
Probable space group: P -1
;
_chemical_formula_sum "Si O2"
_cell_formula_units_Z 16
_cell_length_a 14.329245
_cell_length_b 11.449114
_cell_length_c 5.352673
_cell_angle_alpha 88.214111
_cell_angle_beta 65.041895
_cell_angle_gamma 63.575164
_cell_volume 699.567888
_symmetry_space_group_name_H-M "P -1"
_symmetry_group_IT_number 2
_symmetry_cell_setting 'triclinic'
loop_
_space_group_symop_operation_xyz
x,y,z
-x,-y,-z
loop_
_atom_site_type_symbol
_atom_site_label
_atom_site_fract_x
_atom_site_fract_y
_atom_site_fract_z
Si Si1 0.323912 0.408788 0.339935
Si Si2 0.593910 0.276120 0.000996
Si Si3 0.195242 0.681405 0.278786
Si Si4 0.144239 0.173148 0.845759
Si Si5 0.072554 0.860240 0.792817
Si Si6 0.022300 0.586755 0.261039
Si Si7 0.237623 0.340029 0.922661
Si Si8 0.704063 0.136580 0.367187
O O1 0.235928 0.566577 0.454747
O O2 0.317119 0.334659 0.600599
O O3 0.457444 0.375947 0.157721
O O4 0.283833 0.365105 0.132147
O O5 0.678306 0.341724 0.945373
O O6 0.630863 0.204294 0.694334
O O7 0.627826 0.173880 0.200573
O O8 0.119225 0.831821 0.457037
O O9 0.106127 0.651885 0.226063
O O10 0.216249 0.213278 0.954388
O O11 0.099860 0.286595 0.677086
O O12 0.220735 0.022703 0.679701
O O13 0.019910 0.195413 0.093271
O O14 0.199147 0.811685 0.780119
O O15 0.000000 0.000000 0.000000
O O16 0.000000 0.500000 0.500000
O O17 0.110986 0.466865 0.992965
#
# Coordination Sequence:
#
# PCOD9006344 Si02
#       8
#     2   2   2   2   2   2   2   2
#     4  11  24  43  65  91 125 164 213 271 314 357
#     4  11  23  44  64  90 124 164 214 271 311 356
#     4  10  21  38  65  96 126 166 210 253 317 382
#     4  11  21  39  63  91 130 172 201 251 317 378
#     4   9  19  36  60  93 129 164 201 249 307 378
#     4  11  22  38  64  99 133 165 201 253 313 383
#     4  11  24  41  63  96 126 162 212 256 310 382
#     4  10  24  41  64  94 125 163 214 256 308 380
#
# _framework density 22.871262000000002
#
# number of rings (size 3 to 8) (size 9 to 14) (size 15 to 20)
#    0.000    1.500    0.000    5.250    0.000    7.000 
#    0.000   17.500    0.000    0.000    0.000    0.000 
#    0.000    0.000    0.000    0.000    0.000    0.000 
#
# Total GULP energy -89164.984169 kJ/mol
# GULP energy per Si atom -5572.811511 kJ/mol
# Density = 2.281921 g / cm^3
# Si number density = 22.871262 Si / 1000 Ang^3
#
#
#
# Elastic Constant Matrix: (Units=GPa)
#
#
# Indices 1 2 3 4 5 6 
#
# 1 89.4732 28.9958 38.3369 3.2528 -1.8008 13.1446
# 2 28.9958 70.1069 21.0916 4.3192 6.5320 0.3390
# 3 38.3369 21.0916 107.3878 0.1589 -8.3847 -7.1922
# 4 3.2528 4.3192 0.1589 31.9953 -2.9012 1.6398
# 5 -1.8008 6.5320 -8.3847 -2.9012 27.0294 -0.0445
# 6 13.1446 0.3390 -7.1922 1.6398 -0.0445 36.7193
#
#
#
# Elastic Compliance Matrix: (Units=1/GPa)
#
#
# Indices 1 2 3 4 5 6 
#
# 1 0.016030 -0.005085 -0.005120 -0.000518 0.000642 -0.006670
# 2 -0.005085 0.017613 -0.001975 -0.002417 -0.005465 0.001372
# 3 -0.005120 -0.001975 0.012119 0.000875 0.003996 0.004190
# 4 -0.000518 -0.002417 0.000875 0.032069 0.004261 -0.001048
# 5 0.000642 -0.005465 0.003996 0.004261 0.040058 0.000462
# 6 -0.006670 0.001372 0.004190 -0.001048 0.000462 0.030477
#
#
# Mechanical properties :
#
#
# Convention : Reuss Voigt Hill
#
# Bulk Modulus (GPa) = 46.72516 49.31294 48.01905
# Shear Modulus (GPa) = 27.79946 31.05172 29.42559
#
# Velocity S-wave (km/s) = 3.49015 3.68866 3.59078
# Velocity P-wave (km/s) = 6.05933 6.30472 6.18324
#
# Compressibility (1/GPa) = 0.02140175
#
# Stress axis : x y z
#
# Youngs Moduli (GPa) = 62.38375 56.77686 82.51499
#
# Poissons Ratio (x) = 0.28873 0.42244
# Poissons Ratio (y) = 0.31724 0.16297
# Poissons Ratio (z) = 0.31938 0.11214
#
# Static dielectric constant tensor:
#      x y z
#    x 1.909960 -0.003410 0.049520 
#    y -0.003410 1.893910 -0.058170 
#    z 0.049520 -0.058170 1.922500 
# 
# From -- ./inp_files/94879.got.cif
#   From: 2010.05.17/outbox.cif.g08.bks.cpg/sg2_48_cif.got.tgz:94879.got - 2010.06.03 11:33:40.
