data_PCOD9006762
_publ_section_title
;
Structure prediction by ZEFSAII (Michael W. Deem and Ramdas Pophale) SiO2 
 PCOD9006762
Probable space group: P -1
;
_chemical_formula_sum "Si O2"
_cell_formula_units_Z 14
_cell_length_a 22.580879
_cell_length_b 8.339848
_cell_length_c 15.635664
_cell_angle_alpha 139.557382
_cell_angle_beta 17.689965
_cell_angle_gamma 142.252250
_cell_volume 547.275285
_symmetry_space_group_name_H-M "P -1"
_symmetry_group_IT_number 2
_symmetry_cell_setting 'triclinic'
loop_
_space_group_symop_operation_xyz
x,y,z
-x,-y,-z
loop_
_atom_site_type_symbol
_atom_site_label
_atom_site_fract_x
_atom_site_fract_y
_atom_site_fract_z
Si Si1 0.900687 0.775267 0.113841
Si Si2 0.696500 0.977339 0.633319
Si Si3 0.603992 0.242981 0.316610
Si Si4 0.274710 0.491758 0.276660
Si Si5 0.912779 0.923842 0.772248
Si Si6 0.415385 0.442962 0.821057
Si Si7 0.713310 0.296739 0.480867
O O1 0.721891 0.518115 0.220245
O O2 0.807444 0.878597 0.363357
O O3 0.102064 0.704014 0.835473
O O4 0.000000 0.000000 0.000000
O O5 0.697590 0.263437 0.724666
O O6 0.843427 0.972718 0.508853
O O7 0.474447 0.752931 0.853868
O O8 0.493537 0.311954 0.580362
O O9 0.428875 0.998301 0.415014
O O10 0.788999 0.127700 0.035418
O O11 0.152086 0.228972 0.289462
O O12 0.180459 0.544077 0.517126
O O13 0.500000 0.500000 0.000000
O O14 0.817092 0.711339 0.893777
O O15 0.554916 0.402444 0.691471
#
# Coordination Sequence:
#
# PCOD9006762 Si02
#       7
#     2   2   2   2   2   2   2
#     4  11  22  40  65 100 133 161 209 279 327 374
#     4  11  24  43  67  98 127 169 223 268 317 387
#     4  10  21  38  68  98 125 170 214 260 329 389
#     4  12  24  45  65  91 138 178 213 265 317 386
#     4  11  22  43  67  94 131 174 219 261 317 387
#     4  10  21  40  70  96 128 167 217 271 323 380
#     4  11  21  42  65  95 134 169 212 265 326 378
#
# _framework density 25.581275000000002
#
# number of rings (size 3 to 8) (size 9 to 14) (size 15 to 20)
#    0.000    1.143    4.286    4.714    0.000    3.429 
#    2.571    4.286    0.000    0.000    0.000    0.000 
#    0.000    0.000    0.000    0.000    0.000    0.000 
#
# Total GULP energy -78431.666826 kJ/mol
# GULP energy per Si atom -5602.261916 kJ/mol
# Density = 2.552305 g / cm^3
# Si number density = 25.581275 Si / 1000 Ang^3
#
#
#
# Elastic Constant Matrix: (Units=GPa)
#
#
# Indices 1 2 3 4 5 6 
#
# 1 84.1681 20.7470 11.7853 12.8021 11.5719 20.8684
# 2 20.7470 122.9671 21.9962 -11.2574 5.5981 13.5196
# 3 11.7853 21.9962 83.7123 0.7853 0.0233 7.6052
# 4 12.8021 -11.2574 0.7853 32.4767 0.8157 3.4168
# 5 11.5719 5.5981 0.0233 0.8157 41.2361 -0.7937
# 6 20.8684 13.5196 7.6052 3.4168 -0.7937 31.1295
#
#
#
# Elastic Compliance Matrix: (Units=1/GPa)
#
#
# Indices 1 2 3 4 5 6 
#
# 1 0.016302 -0.001913 -0.000887 -0.005976 -0.004376 -0.009337
# 2 -0.001913 0.009585 -0.002028 0.004453 -0.000907 -0.002897
# 3 -0.000887 -0.002028 0.012751 -0.000509 0.000497 -0.001571
# 4 -0.005976 0.004453 -0.000509 0.034865 0.000352 -0.001622
# 5 -0.004376 -0.000907 0.000497 0.000352 0.025668 0.003822
# 6 -0.009337 -0.002897 -0.001571 -0.001622 0.003822 0.040300
#
#
# Mechanical properties :
#
#
# Convention : Reuss Voigt Hill
#
# Bulk Modulus (GPa) = 34.50317 44.43383 39.46850
# Shear Modulus (GPa) = 31.48859 36.72306 34.10582
#
# Velocity S-wave (km/s) = 3.51226 3.79297 3.65531
# Velocity P-wave (km/s) = 5.47402 6.04893 5.76864
#
# Compressibility (1/GPa) = 0.02898284
#
# Stress axis : x y z
#
# Youngs Moduli (GPa) = 61.34126 104.32714 78.42708
#
# Poissons Ratio (x) = 0.19960 0.06955
# Poissons Ratio (y) = 0.11736 0.15902
# Poissons Ratio (z) = 0.05440 0.21153
#
# Static dielectric constant tensor:
#      x y z
#    x 2.012180 -0.022470 0.009030 
#    y -0.022470 2.051240 0.052490 
#    z 0.009030 0.052490 2.065220 
# 
# From -- ./inp_files/579643.got.cif
#   From: 2010.05.17/outbox.cif.g08.bks.cpg/sg2_290_cif.got.tgz:579643.got - 2010.06.03 11:33:40.
