data_PCOD9006905
_publ_section_title
;
Structure prediction by ZEFSAII (Michael W. Deem and Ramdas Pophale) SiO2 
 PCOD9006905
Probable space group: P -1
;
_chemical_formula_sum "Si O2"
_cell_formula_units_Z 16
_cell_length_a 14.140044
_cell_length_b 14.465855
_cell_length_c 5.910898
_cell_angle_alpha 94.040449
_cell_angle_beta 78.421579
_cell_angle_gamma 39.979071
_cell_volume 711.082074
_symmetry_space_group_name_H-M "P -1"
_symmetry_group_IT_number 2
_symmetry_cell_setting 'triclinic'
loop_
_space_group_symop_operation_xyz
x,y,z
-x,-y,-z
loop_
_atom_site_type_symbol
_atom_site_label
_atom_site_fract_x
_atom_site_fract_y
_atom_site_fract_z
Si Si1 0.435139 0.287163 0.182677
Si Si2 0.130965 0.923621 0.616098
Si Si3 0.263829 0.329505 0.654675
Si Si4 0.055503 0.812287 0.877681
Si Si5 0.827353 0.446912 0.921323
Si Si6 0.242632 0.989348 0.269054
Si Si7 0.347024 0.163977 0.987460
Si Si8 0.875046 0.732956 0.552046
O O1 0.382705 0.310578 0.468902
O O2 0.341957 0.436285 0.109847
O O3 0.351510 0.260969 0.112317
O O4 0.619225 0.133933 0.002792
O O5 0.253588 0.896668 0.424681
O O6 0.175578 0.792609 0.692149
O O7 0.000000 0.000000 0.500000
O O8 0.045019 0.051187 0.869053
O O9 0.155892 0.343933 0.558313
O O10 0.167913 0.468259 0.897326
O O11 0.359807 0.177588 0.722725
O O12 0.926827 0.880222 0.761082
O O13 0.131238 0.671198 0.958607
O O14 0.954578 0.366169 0.643487
O O15 0.241444 0.089251 0.415292
O O16 0.183082 0.239358 0.155221
O O17 0.500000 0.000000 0.000000
#
# Coordination Sequence:
#
# PCOD9006905 Si02
#       8
#     2   2   2   2   2   2   2   2
#     4  10  24  41  57  89 134 168 210 260 316 370
#     4   9  20  41  67 100 124 150 209 269 315 377
#     4  10  25  39  59  85 135 174 214 256 312 363
#     4  10  22  39  70  97 122 161 208 263 322 375
#     4  11  24  41  61  94 128 173 210 260 315 376
#     4  11  22  40  66  96 124 164 216 263 311 376
#     4  10  21  39  55  86 125 165 217 265 303 354
#     4  11  23  37  63  90 123 171 223 256 303 367
#
# _framework density 22.500917999999999
#
# number of rings (size 3 to 8) (size 9 to 14) (size 15 to 20)
#    0.000    1.750    2.500    0.375    3.500    9.500 
#    0.000    0.625    0.000    7.500    0.000    0.000 
#    0.000    0.000    0.000    0.000    0.000    0.000 
#
# Total GULP energy -89101.125725 kJ/mol
# GULP energy per Si atom -5568.820358 kJ/mol
# Density = 2.244970 g / cm^3
# Si number density = 22.500918 Si / 1000 Ang^3
#
#
#
# Elastic Constant Matrix: (Units=GPa)
#
#
# Indices 1 2 3 4 5 6 
#
# 1 48.0078 24.0372 22.4924 -0.7620 -3.0722 22.4827
# 2 24.0372 126.1078 37.4278 -14.1704 -13.7194 17.1922
# 3 22.4924 37.4278 99.0287 3.4048 -17.4335 6.4960
# 4 -0.7620 -14.1704 3.4048 32.2901 7.1680 -9.1047
# 5 -3.0722 -13.7194 -17.4335 7.1680 33.8451 -7.4471
# 6 22.4827 17.1922 6.4960 -9.1047 -7.4471 20.9081
#
#
#
# Elastic Compliance Matrix: (Units=1/GPa)
#
#
# Indices 1 2 3 4 5 6 
#
# 1 0.056566 -0.001815 -0.009380 -0.014719 -0.012087 -0.067134
# 2 -0.001815 0.010202 -0.003194 0.003582 0.000773 -0.003611
# 3 -0.009380 -0.003194 0.014214 -0.001979 0.007845 0.010229
# 4 -0.014719 0.003582 -0.001979 0.041693 -0.003005 0.030582
# 5 -0.012087 0.000773 0.007845 -0.003005 0.038340 0.022272
# 6 -0.067134 -0.003611 0.010229 0.030582 0.022272 0.141059
#
#
# Mechanical properties :
#
#
# Convention : Reuss Voigt Hill
#
# Bulk Modulus (GPa) = 19.15533 49.00656 34.08095
# Shear Modulus (GPa) = 14.35739 30.02113 22.18926
#
# Velocity S-wave (km/s) = 2.52877 3.65666 3.14371
# Velocity P-wave (km/s) = 4.13011 6.29724 5.32509
#
# Compressibility (1/GPa) = 0.05220478
#
# Stress axis : x y z
#
# Youngs Moduli (GPa) = 17.67856 98.01691 70.35358
#
# Poissons Ratio (x) = 0.17786 0.65991
# Poissons Ratio (y) = 0.03208 0.22472
# Poissons Ratio (z) = 0.16582 0.31308
#
# Static dielectric constant tensor:
#      x y z
#    x 1.873250 -0.052230 0.018240 
#    y -0.052230 1.655810 -0.104380 
#    z 0.018240 -0.104380 1.965880 
# 
# From -- ./inp_files/98027.got.cif
#   From: 2010.05.17/outbox.cif.g08.bks.cpg/sg2_50_cif.got.tgz:98027.got - 2010.06.03 11:33:40.
