data_PCOD9006040
_publ_section_title
;
Structure prediction by ZEFSAII (Michael W. Deem and Ramdas Pophale) SiO2 
 PCOD9006040
Probable space group: P -1
;
_chemical_formula_sum "Si O2"
_cell_formula_units_Z 14
_cell_length_a 9.395369
_cell_length_b 27.406755
_cell_length_c 12.418303
_cell_angle_alpha 159.133401
_cell_angle_beta 34.980536
_cell_angle_gamma 143.138995
_cell_volume 643.601643
_symmetry_space_group_name_H-M "P -1"
_symmetry_group_IT_number 2
_symmetry_cell_setting 'triclinic'
loop_
_space_group_symop_operation_xyz
x,y,z
-x,-y,-z
loop_
_atom_site_type_symbol
_atom_site_label
_atom_site_fract_x
_atom_site_fract_y
_atom_site_fract_z
Si Si1 0.879419 0.364850 0.174866
Si Si2 0.137239 0.151606 0.248555
Si Si3 0.726502 0.609304 0.638481
Si Si4 0.483886 0.832686 0.150954
Si Si5 0.124721 0.643152 0.270685
Si Si6 0.530463 0.621257 0.117557
Si Si7 0.511042 0.306557 0.483654
O O1 0.818233 0.515939 0.485623
O O2 0.728631 0.321621 0.290282
O O3 0.777800 0.255100 0.915742
O O4 0.171727 0.366862 0.024830
O O5 0.291582 0.186159 0.332605
O O6 0.928729 0.245838 0.553465
O O7 0.337334 0.187254 0.102488
O O8 0.000000 0.000000 0.000000
O O9 0.500000 0.500000 0.500000
O O10 0.963294 0.643545 0.481245
O O11 0.604606 0.751614 0.005004
O O12 0.500000 0.000000 0.500000
O O13 0.415086 0.665004 0.169194
O O14 0.000000 0.500000 0.000000
O O15 0.428653 0.702836 0.448085
O O16 0.418633 0.456424 0.848192
#
# Coordination Sequence:
#
# PCOD9006040 Si02
#       7
#     2   2   2   2   2   2   2
#     4  10  21  38  64  93 126 159 206 256 316 367
#     4  10  22  39  63  88 124 166 205 261 306 365
#     4   9  19  35  59  91 119 158 199 260 307 352
#     4   9  20  37  60  90 125 163 209 252 304 376
#     4  11  22  39  60  94 123 156 218 255 304 381
#     4  11  22  37  66  91 128 166 195 266 321 356
#     4  10  21  39  60  95 126 156 209 254 305 379
#
# _framework density 21.752586999999998
#
# number of rings (size 3 to 8) (size 9 to 14) (size 15 to 20)
#    0.000    2.000    1.429    3.000    2.000    1.143 
#    0.000    0.714    3.143    1.714    0.000    0.000 
#    0.000    0.000    0.000    0.000    0.000    0.000 
#
# Total GULP energy -78053.098386 kJ/mol
# GULP energy per Si atom -5575.221313 kJ/mol
# Density = 2.170308 g / cm^3
# Si number density = 21.752587 Si / 1000 Ang^3
#
#
#
# Elastic Constant Matrix: (Units=GPa)
#
#
# Indices 1 2 3 4 5 6 
#
# 1 161.4794 47.4350 62.5547 3.0040 3.5016 27.0469
# 2 47.4350 74.2235 25.3326 -5.0493 1.3111 14.5321
# 3 62.5547 25.3326 111.3431 20.2558 -0.2621 10.5148
# 4 3.0040 -5.0493 20.2558 45.5318 1.9457 5.2247
# 5 3.5016 1.3111 -0.2621 1.9457 34.7423 -0.4470
# 6 27.0469 14.5321 10.5148 5.2247 -0.4470 30.3383
#
#
#
# Elastic Compliance Matrix: (Units=1/GPa)
#
#
# Indices 1 2 3 4 5 6 
#
# 1 0.009980 -0.003525 -0.004557 0.001705 -0.001079 -0.005939
# 2 -0.003525 0.017807 -0.002275 0.003851 -0.000617 -0.005271
# 3 -0.004557 -0.002275 0.012987 -0.005966 0.000999 0.001693
# 4 0.001705 0.003851 -0.005966 0.025671 -0.001874 -0.005746
# 5 -0.001079 -0.000617 0.000999 -0.001874 0.029049 0.001662
# 6 -0.005939 -0.005271 0.001693 -0.005746 0.001662 0.041208
#
#
# Mechanical properties :
#
#
# Convention : Reuss Voigt Hill
#
# Bulk Modulus (GPa) = 49.85145 68.63229 59.24187
# Shear Modulus (GPa) = 30.46882 36.23738 33.35310
#
# Velocity S-wave (km/s) = 3.74665 4.08596 3.91998
# Velocity P-wave (km/s) = 6.45630 7.34029 6.91244
#
# Compressibility (1/GPa) = 0.02005960
#
# Stress axis : x y z
#
# Youngs Moduli (GPa) = 100.20191 56.15810 77.00084
#
# Poissons Ratio (x) = 0.19795 0.35088
# Poissons Ratio (y) = 0.35319 0.17520
# Poissons Ratio (z) = 0.45661 0.12778
#
# Static dielectric constant tensor:
#      x y z
#    x 1.792360 -0.245110 -0.058890 
#    y -0.245110 0.566450 -0.341690 
#    z -0.058890 -0.341690 1.753670 
# 
# From -- ./inp_files/177730.got.cif
#   From: 2010.05.17/outbox.cif.g08.bks.cpg/sg2_89_cif.got.tgz:177730.got - 2010.06.03 11:33:40.
