data_PCOD9006354
_publ_section_title
;
Structure prediction by ZEFSAII (Michael W. Deem and Ramdas Pophale) SiO2 
 PCOD9006354
Probable space group: P -1
;
_chemical_formula_sum "Si O2"
_cell_formula_units_Z 16
_cell_length_a 16.077334
_cell_length_b 11.891080
_cell_length_c 5.130067
_cell_angle_alpha 85.444275
_cell_angle_beta 109.091873
_cell_angle_gamma 131.626400
_cell_volume 679.460224
_symmetry_space_group_name_H-M "P -1"
_symmetry_group_IT_number 2
_symmetry_cell_setting 'triclinic'
loop_
_space_group_symop_operation_xyz
x,y,z
-x,-y,-z
loop_
_atom_site_type_symbol
_atom_site_label
_atom_site_fract_x
_atom_site_fract_y
_atom_site_fract_z
Si Si1 0.987410 0.860557 0.612050
Si Si2 0.709262 0.119519 0.802228
Si Si3 0.564080 0.440060 0.302628
Si Si4 0.564967 0.943941 0.171535
Si Si5 0.666920 0.346598 0.803002
Si Si6 0.234556 0.376171 0.868995
Si Si7 0.124138 0.907535 0.251790
Si Si8 0.315893 0.258100 0.294151
O O1 0.060486 0.851138 0.474884
O O2 0.849905 0.706644 0.450708
O O3 0.036988 0.883848 0.946143
O O4 0.000000 0.000000 0.500000
O O5 0.706482 0.252399 0.810414
O O6 0.830393 0.171029 0.804793
O O7 0.615273 0.009362 0.498115
O O8 0.667838 0.021182 0.044934
O O9 0.625779 0.383568 0.504835
O O10 0.624478 0.509495 0.074010
O O11 0.422671 0.305025 0.212143
O O12 0.614905 0.596522 0.470387
O O13 0.454462 0.763911 0.125932
O O14 0.500000 0.000000 0.000000
O O15 0.771765 0.510288 0.014485
O O16 0.218911 0.251990 0.049572
O O17 0.241163 0.090122 0.365376
#
# Coordination Sequence:
#
# PCOD9006354 Si02
#       8
#     2   2   2   2   2   2   2   2
#     4  12  26  47  72  95 130 176 236 278 330 391
#     4  11  24  43  65 101 138 175 226 269 331 397
#     4  10  22  39  63  97 136 170 212 266 348 405
#     4  10  21  38  65  96 137 180 217 262 323 399
#     4  10  23  37  64  96 133 179 217 265 331 408
#     4  11  24  40  66  93 131 176 222 271 339 391
#     4  12  26  44  72  98 131 175 228 284 330 383
#     4  10  22  39  63  99 130 167 217 279 338 400
#
# _framework density 23.548105
#
# number of rings (size 3 to 8) (size 9 to 14) (size 15 to 20)
#    0.000    1.250    1.250    4.500   10.500    0.000 
#    0.000    1.250    0.000    0.000    0.000    0.000 
#    0.000    0.000    0.000    0.000    0.000    0.000 
#
# Total GULP energy -89445.496935 kJ/mol
# GULP energy per Si atom -5590.343558 kJ/mol
# Density = 2.349451 g / cm^3
# Si number density = 23.548105 Si / 1000 Ang^3
#
#
#
# Elastic Constant Matrix: (Units=GPa)
#
#
# Indices 1 2 3 4 5 6 
#
# 1 110.8792 27.1192 -6.6092 1.5526 -5.9967 -0.4125
# 2 27.1192 82.2256 16.5391 4.1788 2.0682 -12.5158
# 3 -6.6092 16.5391 71.4489 10.2227 3.4857 -6.3089
# 4 1.5526 4.1788 10.2227 35.0042 6.7267 -1.8739
# 5 -5.9967 2.0682 3.4857 6.7267 32.5299 -3.8121
# 6 -0.4125 -12.5158 -6.3089 -1.8739 -3.8121 43.1388
#
#
#
# Elastic Compliance Matrix: (Units=1/GPa)
#
#
# Indices 1 2 3 4 5 6 
#
# 1 0.010182 -0.003817 0.001808 -0.000951 0.002052 -0.000606
# 2 -0.003817 0.014684 -0.003354 -0.000255 -0.000797 0.003652
# 3 0.001808 -0.003354 0.015642 -0.004161 -0.000136 0.001139
# 4 -0.000951 -0.000255 -0.004161 0.031038 -0.006118 0.000116
# 5 0.002052 -0.000797 -0.000136 -0.006118 0.032730 0.002395
# 6 -0.000606 0.003652 0.001139 0.000116 0.002395 0.024618
#
#
# Mechanical properties :
#
#
# Convention : Reuss Voigt Hill
#
# Bulk Modulus (GPa) = 33.57825 37.62797 35.60311
# Shear Modulus (GPa) = 33.43380 37.30155 35.36768
#
# Velocity S-wave (km/s) = 3.77212 3.98434 3.87968
# Velocity P-wave (km/s) = 5.76734 6.09758 5.93476
#
# Compressibility (1/GPa) = 0.02978118
#
# Stress axis : x y z
#
# Youngs Moduli (GPa) = 98.20974 68.10000 63.92939
#
# Poissons Ratio (x) = 0.25997 -0.11558
# Poissons Ratio (y) = 0.37491 0.21444
# Poissons Ratio (z) = -0.17756 0.22843
#
# Static dielectric constant tensor:
#      x y z
#    x 1.977110 0.017110 0.056120 
#    y 0.017110 1.903230 0.118560 
#    z 0.056120 0.118560 0.611000 
# 
# From -- ./inp_files/95033.got.cif
#   From: 2010.05.17/outbox.cif.g08.bks.cpg/sg2_48_cif.got.tgz:95033.got - 2010.06.03 11:33:40.
