data_PCOD9006690
_publ_section_title
;
Structure prediction by ZEFSAII (Michael W. Deem and Ramdas Pophale) SiO2 
 PCOD9006690
Probable space group: P -1
;
_chemical_formula_sum "Si O2"
_cell_formula_units_Z 16
_cell_length_a 17.048798
_cell_length_b 22.317004
_cell_length_c 5.643513
_cell_angle_alpha 113.029753
_cell_angle_beta 66.733436
_cell_angle_gamma 157.338688
_cell_volume 757.849961
_symmetry_space_group_name_H-M "P -1"
_symmetry_group_IT_number 2
_symmetry_cell_setting 'triclinic'
loop_
_space_group_symop_operation_xyz
x,y,z
-x,-y,-z
loop_
_atom_site_type_symbol
_atom_site_label
_atom_site_fract_x
_atom_site_fract_y
_atom_site_fract_z
Si Si1 0.958976 0.510183 0.311885
Si Si2 0.954233 0.934229 0.204039
Si Si3 0.308597 0.831838 0.588118
Si Si4 0.157018 0.956269 0.802031
Si Si5 0.436760 0.403405 0.733358
Si Si6 0.181159 0.319900 0.569552
Si Si7 0.485926 0.824377 0.599498
Si Si8 0.818860 0.129528 0.986366
O O1 0.714818 0.353939 0.356626
O O2 0.000000 0.500000 0.500000
O O3 0.119979 0.681109 0.408811
O O4 0.000000 0.500000 0.000000
O O5 0.712933 0.752126 0.213988
O O6 0.000000 0.000000 0.500000
O O7 0.093926 0.965799 0.083402
O O8 0.000000 0.000000 0.000000
O O9 0.396077 0.825999 0.580905
O O10 0.230463 0.828814 0.872952
O O11 0.500000 0.000000 0.500000
O O12 0.163994 0.889240 0.801966
O O13 0.967900 0.823700 0.644425
O O14 0.367603 0.113449 0.657135
O O15 0.297728 0.347703 0.630620
O O16 0.641504 0.521183 0.543064
O O17 0.500000 0.500000 0.000000
O O18 0.030874 0.261802 0.806248
O O19 0.637643 0.960885 0.824652
#
# Coordination Sequence:
#
# PCOD9006690 Si02
#       8
#     2   2   2   2   2   2   2   2
#     4  10  23  43  65  93 135 178 222 272 338 400
#     4  12  27  45  69 100 136 178 229 286 343 419
#     4  11  21  40  68 104 128 177 233 277 328 400
#     4  11  22  43  66  99 134 180 224 280 352 405
#     4  11  21  41  73  93 131 178 231 276 351 411
#     4  10  21  38  68 100 130 177 228 280 344 411
#     4  10  23  40  69  94 137 185 219 275 348 406
#     4  11  21  38  70  96 136 170 235 283 332 403
#
# _framework density 21.112359000000001
#
# number of rings (size 3 to 8) (size 9 to 14) (size 15 to 20)
#    0.000    1.250    3.750    1.875    5.250    1.000 
#    2.250    0.000    0.000    0.000    0.000    0.000 
#    0.000    0.000    0.000    0.000    0.000    0.000 
#
# Total GULP energy -89298.613812 kJ/mol
# GULP energy per Si atom -5581.163363 kJ/mol
# Density = 2.106431 g / cm^3
# Si number density = 21.112359 Si / 1000 Ang^3
#
#
#
# Elastic Constant Matrix: (Units=GPa)
#
#
# Indices 1 2 3 4 5 6 
#
# 1 35.5981 22.2071 10.2008 -1.9096 2.8230 9.0201
# 2 22.2071 207.5963 68.3407 -27.3268 -2.3501 6.6545
# 3 10.2008 68.3407 121.3448 -12.6276 -8.4233 10.4526
# 4 -1.9096 -27.3268 -12.6276 39.4617 6.0772 0.2492
# 5 2.8230 -2.3501 -8.4233 6.0772 36.0890 -5.0212
# 6 9.0201 6.6545 10.4526 0.2492 -5.0212 35.2622
#
#
#
# Elastic Compliance Matrix: (Units=1/GPa)
#
#
# Indices 1 2 3 4 5 6 
#
# 1 0.032560 -0.003086 -0.000584 -0.000080 -0.004004 -0.008143
# 2 -0.003086 0.006642 -0.003189 0.003521 -0.000612 0.000369
# 3 -0.000584 -0.003189 0.010483 0.000846 0.001850 -0.002099
# 4 -0.000080 0.003521 0.000846 0.028775 -0.004658 -0.001762
# 5 -0.004004 -0.000612 0.001850 -0.004658 0.029878 0.004879
# 6 -0.008143 0.000369 -0.002099 -0.001762 0.004879 0.031702
#
#
# Mechanical properties :
#
#
# Convention : Reuss Voigt Hill
#
# Bulk Modulus (GPa) = 27.80266 62.89296 45.34781
# Shear Modulus (GPa) = 30.16658 39.74861 34.95760
#
# Velocity S-wave (km/s) = 3.78413 4.34374 4.07355
# Velocity P-wave (km/s) = 5.68246 7.41699 6.60689
#
# Compressibility (1/GPa) = 0.03596778
#
# Stress axis : x y z
#
# Youngs Moduli (GPa) = 30.71233 150.56339 95.38857
#
# Poissons Ratio (x) = 0.46457 0.05573
# Poissons Ratio (y) = 0.09476 0.30420
# Poissons Ratio (z) = 0.01794 0.48015
#
# Static dielectric constant tensor:
#      x y z
#    x 1.868200 -0.000730 0.070960 
#    y -0.000730 1.805780 -0.023820 
#    z 0.070960 -0.023820 1.848260 
# 
# From -- ./inp_files/56959.got.cif
#   From: 2010.05.17/outbox.cif.g08.bks.cpg/sg2_29_cif.got.tgz:56959.got - 2010.06.03 11:33:40.
