data_PCOD9006120
_publ_section_title
;
Structure prediction by ZEFSAII (Michael W. Deem and Ramdas Pophale) SiO2 
 PCOD9006120
Probable space group: P -1
;
_chemical_formula_sum "Si O2"
_cell_formula_units_Z 15
_cell_length_a 8.849523
_cell_length_b 12.589229
_cell_length_c 9.988626
_cell_angle_alpha 114.103701
_cell_angle_beta 76.170948
_cell_angle_gamma 60.640001
_cell_volume 738.139312
_symmetry_space_group_name_H-M "P -1"
_symmetry_group_IT_number 2
_symmetry_cell_setting 'triclinic'
loop_
_space_group_symop_operation_xyz
x,y,z
-x,-y,-z
loop_
_atom_site_type_symbol
_atom_site_label
_atom_site_fract_x
_atom_site_fract_y
_atom_site_fract_z
Si Si1 0.531100 0.059705 0.391373
Si Si2 0.338075 0.533645 0.943276
Si Si3 0.098566 0.821606 0.737600
Si Si4 0.021195 0.133064 0.912412
Si Si5 0.998012 0.454374 0.287675
Si Si6 0.000000 0.500000 0.000000
Si Si7 0.138954 0.252047 0.393713
Si Si8 0.539243 0.631355 0.442365
O O1 0.357171 0.116913 0.347371
O O2 0.498477 0.213420 0.507399
O O3 0.500000 0.000000 0.500000
O O4 0.760522 0.926218 0.216982
O O5 0.452435 0.447661 0.734659
O O6 0.203548 0.485013 0.980631
O O7 0.500000 0.500000 0.000000
O O8 0.167691 0.718225 0.050765
O O9 0.347834 0.691762 0.607523
O O10 0.992122 0.796987 0.634448
O O11 0.034971 0.987393 0.819209
O O12 0.016524 0.823748 0.900957
O O13 0.980588 0.598199 0.407353
O O14 0.766942 0.517642 0.402538
O O15 0.157372 0.311472 0.278707
O O16 0.016555 0.436416 0.116066
#
# Coordination Sequence:
#
# PCOD9006120 Si02
#       8
#     2   2   2   2   2   1   2   2
#     4  10  23  42  65  89 134 178 213 270 336 397
#     4  11  25  41  64 100 129 171 226 272 333 404
#     4  10  21  42  65  91 131 169 216 274 335 398
#     4  10  24  43  61  93 134 171 213 276 336 396
#     4   9  20  39  63  99 129 165 224 274 332 395
#     4  10  22  42  64  92 144 172 202 290 340 378
#     4  10  21  38  64  98 121 172 227 268 321 409
#     4   9  21  41  63  91 125 172 211 269 342 387
#
# _framework density 20.321366999999999
#
# number of rings (size 3 to 8) (size 9 to 14) (size 15 to 20)
#    0.000    2.133    0.000    1.600    7.467    3.733 
#    9.600    2.667    0.000    0.000    0.000    0.000 
#    0.000    0.000    0.000    0.000    0.000    0.000 
#
# Total GULP energy -83540.027522 kJ/mol
# GULP energy per Si atom -5569.335168 kJ/mol
# Density = 2.027512 g / cm^3
# Si number density = 20.321367 Si / 1000 Ang^3
#
#
#
# Elastic Constant Matrix: (Units=GPa)
#
#
# Indices 1 2 3 4 5 6 
#
# 1 139.1618 54.6938 62.2965 -5.7875 6.3923 -19.3385
# 2 54.6938 103.2760 60.1130 -8.8662 -16.2658 -31.1957
# 3 62.2965 60.1130 92.8632 -9.4436 -14.3878 -10.2603
# 4 -5.7875 -8.8662 -9.4436 33.6782 5.4748 3.9762
# 5 6.3923 -16.2658 -14.3878 5.4748 37.2973 -4.9717
# 6 -19.3385 -31.1957 -10.2603 3.9762 -4.9717 35.6440
#
#
#
# Elastic Compliance Matrix: (Units=1/GPa)
#
#
# Indices 1 2 3 4 5 6 
#
# 1 0.011777 -0.002805 -0.006832 0.000169 -0.005749 0.001148
# 2 -0.002805 0.023992 -0.010273 -0.000702 0.009472 0.017918
# 3 -0.006832 -0.010273 0.022219 0.002391 0.004112 -0.005995
# 4 0.000169 -0.000702 0.002391 0.031417 -0.004554 -0.003974
# 5 -0.005749 0.009472 0.004112 -0.004554 0.035762 0.011851
# 6 0.001148 0.017918 -0.005995 -0.003974 0.011851 0.044731
#
#
# Mechanical properties :
#
#
# Convention : Reuss Voigt Hill
#
# Bulk Modulus (GPa) = 55.03772 76.61194 65.82483
# Shear Modulus (GPa) = 23.17245 31.87040 27.52142
#
# Velocity S-wave (km/s) = 3.38050 3.96450 3.68409
# Velocity P-wave (km/s) = 6.50995 7.66410 7.11048
#
# Compressibility (1/GPa) = 0.01816936
#
# Stress axis : x y z
#
# Youngs Moduli (GPa) = 84.91124 41.68096 45.00591
#
# Poissons Ratio (x) = 0.11691 0.30746
# Poissons Ratio (y) = 0.23817 0.46234
# Poissons Ratio (z) = 0.58008 0.42819
#
# Static dielectric constant tensor:
#      x y z
#    x 1.718490 0.044280 -0.004990 
#    y 0.044280 1.743440 0.023630 
#    z -0.004990 0.023630 1.733200 
# 
# From -- ./inp_files/180041.got.cif
#   From: 2010.05.17/outbox.cif.g08.bks.cpg/sg2_91_cif.got.tgz:180041.got - 2010.06.03 11:33:40.
