data_PCOD9006152
_publ_section_title
;
Structure prediction by ZEFSAII (Michael W. Deem and Ramdas Pophale) SiO2 
 PCOD9006152
Probable space group: P -1
;
_chemical_formula_sum "Si O2"
_cell_formula_units_Z 14
_cell_length_a 7.852104
_cell_length_b 10.214254
_cell_length_c 11.872777
_cell_angle_alpha 97.050089
_cell_angle_beta 65.862929
_cell_angle_gamma 136.123767
_cell_volume 579.589497
_symmetry_space_group_name_H-M "P -1"
_symmetry_group_IT_number 2
_symmetry_cell_setting 'triclinic'
loop_
_space_group_symop_operation_xyz
x,y,z
-x,-y,-z
loop_
_atom_site_type_symbol
_atom_site_label
_atom_site_fract_x
_atom_site_fract_y
_atom_site_fract_z
Si Si1 0.609257 0.924809 0.408699
Si Si2 0.752424 0.671270 0.699885
Si Si3 0.172692 0.591860 0.343228
Si Si4 0.210864 0.208480 0.528667
Si Si5 0.686336 0.723060 0.944836
Si Si6 0.236425 0.944281 0.952759
Si Si7 0.854687 0.199166 0.793045
O O1 0.933057 0.117885 0.342863
O O2 0.003819 0.160967 0.086229
O O3 0.500000 0.000000 0.500000
O O4 0.562144 0.768372 0.477514
O O5 0.751031 0.517662 0.717109
O O6 0.674098 0.641646 0.587437
O O7 0.611551 0.694178 0.828890
O O8 0.063820 0.617960 0.268595
O O9 0.000000 0.500000 0.500000
O O10 0.453157 0.814891 0.325072
O O11 0.031948 0.190098 0.668667
O O12 0.000000 0.000000 0.500000
O O13 0.658955 0.853165 0.019729
O O14 0.500000 0.500000 0.000000
O O15 0.096735 0.805945 0.088518
O O16 0.517222 0.010256 0.856088
#
# Coordination Sequence:
#
# PCOD9006152 Si02
#       7
#     2   2   2   2   2   2   2
#     4  11  22  39  64  94 135 179 213 264 344 407
#     4  11  23  41  65  97 136 173 218 281 336 401
#     4  12  22  41  63  98 139 173 220 274 335 404
#     4  10  21  38  64  99 131 168 222 273 336 408
#     4  11  24  45  69 101 130 178 239 279 338 400
#     4  10  24  46  71  93 136 186 224 286 331 398
#     4  11  22  43  69  97 136 182 229 273 343 402
#
# _framework density 24.155028999999999
#
# number of rings (size 3 to 8) (size 9 to 14) (size 15 to 20)
#    0.000    1.143    2.857    4.286    0.000    4.000 
#    2.571    7.857    0.000    0.000    0.000    0.000 
#    0.000    0.000    0.000    0.000    0.000    0.000 
#
# Total GULP energy -78127.562984 kJ/mol
# GULP energy per Si atom -5580.540213 kJ/mol
# Density = 2.410005 g / cm^3
# Si number density = 24.155029 Si / 1000 Ang^3
#
#
#
# Elastic Constant Matrix: (Units=GPa)
#
#
# Indices 1 2 3 4 5 6 
#
# 1 95.4153 27.2109 45.7804 6.6024 17.0286 -21.5592
# 2 27.2109 123.4931 30.5181 -1.2997 4.1125 -13.8534
# 3 45.7804 30.5181 129.9075 7.5467 24.2063 -16.3407
# 4 6.6024 -1.2997 7.5467 26.0431 -2.7897 1.9168
# 5 17.0286 4.1125 24.2063 -2.7897 41.5907 -11.5464
# 6 -21.5592 -13.8534 -16.3407 1.9168 -11.5464 44.5799
#
#
#
# Elastic Compliance Matrix: (Units=1/GPa)
#
#
# Indices 1 2 3 4 5 6 
#
# 1 0.014353 -0.001759 -0.003368 -0.003378 -0.002690 0.004609
# 2 -0.001759 0.009042 -0.001624 0.001388 0.001322 0.001646
# 3 -0.003368 -0.001624 0.010340 -0.002750 -0.004493 0.000611
# 4 -0.003378 0.001388 -0.002750 0.040838 0.004832 -0.002715
# 5 -0.002690 0.001322 -0.004493 0.004832 0.029298 0.004844
# 6 0.004609 0.001646 0.000611 -0.002715 0.004844 0.026767
#
#
# Mechanical properties :
#
#
# Convention : Reuss Voigt Hill
#
# Bulk Modulus (GPa) = 49.42409 61.75940 55.59174
# Shear Modulus (GPa) = 33.13783 38.79651 35.96717
#
# Velocity S-wave (km/s) = 3.70791 4.01202 3.86296
# Velocity P-wave (km/s) = 6.23194 6.86187 6.55447
#
# Compressibility (1/GPa) = 0.02023305
#
# Stress axis : x y z
#
# Youngs Moduli (GPa) = 69.67085 110.59647 96.71184
#
# Poissons Ratio (x) = 0.19458 0.32570
# Poissons Ratio (y) = 0.12258 0.15705
# Poissons Ratio (z) = 0.23463 0.17960
#
# Static dielectric constant tensor:
#      x y z
#    x 1.881800 0.015980 0.054170 
#    y 0.015980 1.850120 -0.094780 
#    z 0.054170 -0.094780 2.110790 
# 
# From -- ./inp_files/497861.got.cif
#   From: 2010.05.17/outbox.cif.g08.bks.cpg/sg2_249_cif.got.tgz:497861.got - 2010.06.03 11:33:40.
