data_PCOD9006882
_publ_section_title
;
Structure prediction by ZEFSAII (Michael W. Deem and Ramdas Pophale) SiO2 
 PCOD9006882
Probable space group: P -1
;
_chemical_formula_sum "Si O2"
_cell_formula_units_Z 16
_cell_length_a 12.504331
_cell_length_b 12.819354
_cell_length_c 7.669309
_cell_angle_alpha 50.423465
_cell_angle_beta 84.339311
_cell_angle_gamma 49.497852
_cell_volume 607.479885
_symmetry_space_group_name_H-M "P -1"
_symmetry_group_IT_number 2
_symmetry_cell_setting 'triclinic'
loop_
_space_group_symop_operation_xyz
x,y,z
-x,-y,-z
loop_
_atom_site_type_symbol
_atom_site_label
_atom_site_fract_x
_atom_site_fract_y
_atom_site_fract_z
Si Si1 0.622308 0.944256 0.273093
Si Si2 0.001911 0.133031 0.236129
Si Si3 0.332437 0.742282 0.416426
Si Si4 0.175898 0.386743 0.657066
Si Si5 0.964205 0.722338 0.604111
Si Si6 0.220529 0.840647 0.937876
Si Si7 0.551857 0.630210 0.017978
Si Si8 0.380915 0.345830 0.394110
O O1 0.689995 0.858922 0.153932
O O2 0.791658 0.806317 0.507835
O O3 0.500842 0.186782 0.059248
O O4 0.457379 0.120671 0.590069
O O5 0.001257 0.264953 0.217908
O O6 0.173319 0.969209 0.279900
O O7 0.859514 0.224552 0.027081
O O8 0.000000 0.000000 0.500000
O O9 0.493732 0.672452 0.514916
O O10 0.653356 0.420664 0.329730
O O11 0.304991 0.759015 0.198185
O O12 0.238224 0.440128 0.454130
O O13 0.000000 0.500000 0.500000
O O14 0.124506 0.495683 0.735664
O O15 0.918643 0.907449 0.314905
O O16 0.369022 0.739394 0.889542
O O17 0.640766 0.581970 0.876457
#
# Coordination Sequence:
#
# PCOD9006882 Si02
#       8
#     2   2   2   2   2   2   2   2
#     4   8  18  37  72 113 144 191 241 305 359 442
#     4  10  22  43  70  99 142 192 247 305 365 436
#     4  12  24  43  67 109 154 196 244 305 375 443
#     4   8  17  37  71 113 150 186 244 310 366 440
#     4   9  17  40  72 105 142 188 247 310 368 433
#     4  10  23  44  68 101 146 198 246 305 366 441
#     4  11  22  43  72 107 154 197 241 302 372 445
#     4  10  21  38  73 111 155 191 245 301 371 441
#
# _framework density 26.33832
#
# number of rings (size 3 to 8) (size 9 to 14) (size 15 to 20)
#    0.750    1.500    0.000    3.750    0.000    0.000 
#   13.500    2.500    0.000    0.000    0.000   30.625 
#    0.000    0.000    0.000    0.000    0.000    0.000 
#
# Total GULP energy -89582.471587 kJ/mol
# GULP energy per Si atom -5598.904474 kJ/mol
# Density = 2.627837 g / cm^3
# Si number density = 26.338320 Si / 1000 Ang^3
#
#
#
# Elastic Constant Matrix: (Units=GPa)
#
#
# Indices 1 2 3 4 5 6 
#
# 1 120.2786 69.0726 61.9420 4.7782 -1.3370 12.9020
# 2 69.0726 182.4814 18.7777 9.9184 13.5713 12.1756
# 3 61.9420 18.7777 80.4154 12.2599 10.1111 5.2643
# 4 4.7782 9.9184 12.2599 32.8491 0.2127 -2.2563
# 5 -1.3370 13.5713 10.1111 0.2127 29.4070 0.6505
# 6 12.9020 12.1756 5.2643 -2.2563 0.6505 53.8635
#
#
#
# Elastic Compliance Matrix: (Units=1/GPa)
#
#
# Indices 1 2 3 4 5 6 
#
# 1 0.020916 -0.007128 -0.016341 0.005027 0.009861 -0.001710
# 2 -0.007128 0.008340 0.004820 -0.003292 -0.005790 -0.000717
# 3 -0.016341 0.004820 0.026794 -0.009002 -0.012115 -0.000025
# 4 0.005027 -0.003292 -0.009002 0.034158 0.004556 0.001796
# 5 0.009861 -0.005790 -0.012115 0.004556 0.041262 -0.000176
# 6 -0.001710 -0.000717 -0.000025 0.001796 -0.000176 0.019217
#
#
# Mechanical properties :
#
#
# Convention : Reuss Voigt Hill
#
# Bulk Modulus (GPa) = 53.32814 75.86220 64.59517
# Shear Modulus (GPa) = 25.74170 38.78280 32.26225
#
# Velocity S-wave (km/s) = 3.12965 3.84146 3.50368
# Velocity P-wave (km/s) = 5.77502 6.96716 6.39891
#
# Compressibility (1/GPa) = 0.01875183
#
# Stress axis : x y z
#
# Youngs Moduli (GPa) = 47.80926 119.91049 37.32123
#
# Poissons Ratio (x) = 0.85475 0.60988
# Poissons Ratio (y) = 0.34079 -0.17990
# Poissons Ratio (z) = 0.78126 -0.57799
#
# Static dielectric constant tensor:
#      x y z
#    x 2.085570 0.017880 0.044960 
#    y 0.017880 2.113150 -0.085010 
#    z 0.044960 -0.085010 2.076430 
# 
# From -- ./inp_files/311155.got.cif
#   From: 2010.05.17/outbox.cif.g08.bks.cpg/sg2_156_cif.got.tgz:311155.got - 2010.06.03 11:33:40.
