data_PCOD9006358
_publ_section_title
;
Structure prediction by ZEFSAII (Michael W. Deem and Ramdas Pophale) SiO2 
 PCOD9006358
Probable space group: P -1
;
_chemical_formula_sum "Si O2"
_cell_formula_units_Z 16
_cell_length_a 13.377648
_cell_length_b 11.761936
_cell_length_c 9.418666
_cell_angle_alpha 54.467684
_cell_angle_beta 81.996072
_cell_angle_gamma 43.138158
_cell_volume 708.402321
_symmetry_space_group_name_H-M "P -1"
_symmetry_group_IT_number 2
_symmetry_cell_setting 'triclinic'
loop_
_space_group_symop_operation_xyz
x,y,z
-x,-y,-z
loop_
_atom_site_type_symbol
_atom_site_label
_atom_site_fract_x
_atom_site_fract_y
_atom_site_fract_z
Si Si1 0.289763 0.363615 0.184274
Si Si2 0.835202 0.123641 0.864896
Si Si3 0.972273 0.104002 0.579755
Si Si4 0.530074 0.402553 0.410871
Si Si5 0.044219 0.304836 0.812330
Si Si6 0.177693 0.452642 0.610539
Si Si7 0.666408 0.376018 0.130908
Si Si8 0.487706 0.886100 0.387957
O O1 0.099197 0.550076 0.143329
O O2 0.410360 0.230901 0.396986
O O3 0.359048 0.158626 0.224747
O O4 0.304805 0.495169 0.007793
O O5 0.665827 0.388612 0.757599
O O6 0.869654 0.121142 0.696140
O O7 0.000000 0.000000 0.000000
O O8 0.828331 0.966756 0.003685
O O9 0.166619 0.897144 0.748400
O O10 0.000000 0.000000 0.500000
O O11 0.881818 0.354038 0.419083
O O12 0.500000 0.500000 0.500000
O O13 0.631479 0.388157 0.295272
O O14 0.599091 0.168478 0.571155
O O15 0.941290 0.405944 0.610239
O O16 0.139016 0.346402 0.763487
O O17 0.369977 0.254252 0.660396
O O18 0.500000 0.500000 0.000000
#
# Coordination Sequence:
#
# PCOD9006358 Si02
#       8
#     2   2   2   2   2   2   2   2
#     4  10  21  40  62  98 128 164 217 277 312 373
#     4  12  21  44  71  92 125 172 228 270 304 380
#     4  12  25  43  66  95 135 172 211 270 331 380
#     4  12  26  43  64  97 137 172 209 265 337 387
#     4  10  21  38  65  97 122 167 222 272 309 376
#     4  10  22  38  65  94 129 169 217 262 328 378
#     4  12  25  40  68 100 127 169 225 268 313 380
#     4  10  21  40  63  91 134 168 210 267 328 378
#
# _framework density 22.586036
#
# number of rings (size 3 to 8) (size 9 to 14) (size 15 to 20)
#    0.000    1.000    5.000    2.250    3.500    1.000 
#    0.000    2.500    0.000    0.000    0.000    0.000 
#    0.000    0.000    0.000    0.000    0.000    0.000 
#
# Total GULP energy -89581.832737 kJ/mol
# GULP energy per Si atom -5598.864546 kJ/mol
# Density = 2.253463 g / cm^3
# Si number density = 22.586036 Si / 1000 Ang^3
#
#
#
# Elastic Constant Matrix: (Units=GPa)
#
#
# Indices 1 2 3 4 5 6 
#
# 1 84.9093 50.0372 50.0583 2.8785 -40.9066 7.4316
# 2 50.0372 153.9021 45.1188 -2.1564 -34.4048 12.0833
# 3 50.0583 45.1188 76.8993 5.8939 -45.5559 6.4513
# 4 2.8785 -2.1564 5.8939 41.3295 -0.6794 -11.7733
# 5 -40.9066 -34.4048 -45.5559 -0.6794 56.4986 -6.6497
# 6 7.4316 12.0833 6.4513 -11.7733 -6.6497 43.6771
#
#
#
# Elastic Compliance Matrix: (Units=1/GPa)
#
#
# Indices 1 2 3 4 5 6 
#
# 1 0.021995 -0.003091 -0.007906 -0.000653 0.007573 -0.000743
# 2 -0.003091 0.008506 -0.002427 0.000691 0.000858 -0.001152
# 3 -0.007906 -0.002427 0.029837 -0.003805 0.016708 -0.000872
# 4 -0.000653 0.000691 -0.003805 0.026909 -0.001920 0.007443
# 5 0.007573 0.000858 0.016708 -0.001920 0.037291 0.001166
# 6 -0.000743 -0.001152 -0.000872 0.007443 0.001166 0.025653
#
#
# Mechanical properties :
#
#
# Convention : Reuss Voigt Hill
#
# Bulk Modulus (GPa) = 29.85885 67.34880 48.60382
# Shear Modulus (GPa) = 26.56728 39.66746 33.11737
#
# Velocity S-wave (km/s) = 3.43340 4.19535 3.83335
# Velocity P-wave (km/s) = 5.38204 7.30421 6.41552
#
# Compressibility (1/GPa) = 0.03349091
#
# Stress axis : x y z
#
# Youngs Moduli (GPa) = 45.46402 117.56456 33.51574
#
# Poissons Ratio (x) = 0.36345 0.26496
# Poissons Ratio (y) = 0.14055 0.08133
# Poissons Ratio (z) = 0.35942 0.28528
#
# Static dielectric constant tensor:
#      x y z
#    x 1.885210 0.004620 0.096430 
#    y 0.004620 1.794340 0.018590 
#    z 0.096430 0.018590 1.899400 
# 
# From -- ./inp_files/306488.got.cif
#   From: 2010.05.17/outbox.cif.g08.bks.cpg/sg2_154_cif.got.tgz:306488.got - 2010.06.03 11:33:40.
