data_PCOD9006617
_publ_section_title
;
Structure prediction by ZEFSAII (Michael W. Deem and Ramdas Pophale) SiO2 
 PCOD9006617
Probable space group: P -1
;
_chemical_formula_sum "Si O2"
_cell_formula_units_Z 12
_cell_length_a 7.085651
_cell_length_b 10.518382
_cell_length_c 16.633504
_cell_angle_alpha 42.545204
_cell_angle_beta 142.932077
_cell_angle_gamma 118.994543
_cell_volume 488.814652
_symmetry_space_group_name_H-M "P -1"
_symmetry_group_IT_number 2
_symmetry_cell_setting 'triclinic'
loop_
_space_group_symop_operation_xyz
x,y,z
-x,-y,-z
loop_
_atom_site_type_symbol
_atom_site_label
_atom_site_fract_x
_atom_site_fract_y
_atom_site_fract_z
Si Si1 0.533940 0.257227 0.058535
Si Si2 0.179115 0.330802 0.202040
Si Si3 0.693204 0.924959 0.781521
Si Si4 0.422671 0.307329 0.593610
Si Si5 0.397989 0.883566 0.103652
Si Si6 0.717733 0.519333 0.287631
O O1 0.339170 0.273860 0.783907
O O2 0.357691 0.427514 0.857463
O O3 0.897311 0.280815 0.181619
O O4 0.525535 0.062192 0.096810
O O5 0.336272 0.149809 0.282651
O O6 0.461295 0.419056 0.289810
O O7 0.000000 0.500000 0.000000
O O8 0.617487 0.774277 0.892424
O O9 0.463628 0.135869 0.623294
O O10 0.063400 0.933270 0.918397
O O11 0.500000 0.500000 0.500000
O O12 0.671113 0.217726 0.790380
O O13 0.065663 0.374076 0.477307
#
# Coordination Sequence:
#
# PCOD9006617 Si02
#       6
#     2   2   2   2   2   2
#     4  10  21  38  67  92 118 163 210 250 301 356
#     4  10  22  40  62  92 125 161 205 248 303 366
#     4  11  22  41  65  92 122 161 212 247 299 371
#     4  11  24  39  61  95 125 158 204 258 311 351
#     4  11  21  40  66  89 120 163 212 251 297 366
#     4  11  22  40  61  93 127 157 203 254 308 361
#
# _framework density 24.549184
#
# number of rings (size 3 to 8) (size 9 to 14) (size 15 to 20)
#    0.000    1.333    3.333    5.000    2.333    3.333 
#    3.000    3.333    0.000    0.000    0.000    0.000 
#    0.000    0.000    0.000    0.000    0.000    0.000 
#
# Total GULP energy -67146.050309 kJ/mol
# GULP energy per Si atom -5595.504192 kJ/mol
# Density = 2.449331 g / cm^3
# Si number density = 24.549184 Si / 1000 Ang^3
#
#
#
# Elastic Constant Matrix: (Units=GPa)
#
#
# Indices 1 2 3 4 5 6 
#
# 1 70.6942 21.0629 17.2671 -7.8796 4.5803 12.4254
# 2 21.0629 99.4798 18.4930 -3.3308 11.4510 13.4264
# 3 17.2671 18.4930 45.8901 -0.7831 15.3651 7.3231
# 4 -7.8796 -3.3308 -0.7831 21.3730 1.8127 10.8065
# 5 4.5803 11.4510 15.3651 1.8127 45.3737 -10.3226
# 6 12.4254 13.4264 7.3231 10.8065 -10.3226 52.8282
#
#
#
# Elastic Compliance Matrix: (Units=1/GPa)
#
#
# Indices 1 2 3 4 5 6 
#
# 1 0.017762 -0.001769 -0.004549 0.008830 -0.001334 -0.005164
# 2 -0.001769 0.011787 -0.002540 0.003054 -0.002833 -0.003406
# 3 -0.004549 -0.002540 0.028532 0.002100 -0.009683 -0.004561
# 4 0.008830 0.003054 0.002100 0.059980 -0.008661 -0.017106
# 5 -0.001334 -0.002833 -0.009683 -0.008661 0.028735 0.009762
# 6 -0.005164 -0.003406 -0.004561 -0.017106 0.009762 0.027049
#
#
# Mechanical properties :
#
#
# Convention : Reuss Voigt Hill
#
# Bulk Modulus (GPa) = 24.77397 36.63446 30.70421
# Shear Modulus (GPa) = 24.38828 34.53105 29.45967
#
# Velocity S-wave (km/s) = 3.15532 3.75454 3.46790
# Velocity P-wave (km/s) = 4.83613 5.80954 5.34504
#
# Compressibility (1/GPa) = 0.04036495
#
# Stress axis : x y z
#
# Youngs Moduli (GPa) = 56.30018 84.83888 35.04777
#
# Poissons Ratio (x) = 0.15007 0.15943
# Poissons Ratio (y) = 0.09959 0.08903
# Poissons Ratio (z) = 0.25611 0.21552
#
# Static dielectric constant tensor:
#      x y z
#    x 2.027960 0.013260 -0.009910 
#    y 0.013260 1.980540 0.004650 
#    z -0.009910 0.004650 1.984700 
# 
# From -- ./inp_files/586051.got.cif
#   From: 2010.05.17/outbox.cif.g08.bks.cpg/sg2_294_cif.got.tgz:586051.got - 2010.06.03 11:33:40.
