data_PCOD9006057
_publ_section_title
;
Structure prediction by ZEFSAII (Michael W. Deem and Ramdas Pophale) SiO2 
 PCOD9006057
Probable space group: P -1
;
_chemical_formula_sum "Si O2"
_cell_formula_units_Z 15
_cell_length_a 20.692018
_cell_length_b 8.896453
_cell_length_c 6.422966
_cell_angle_alpha 101.585628
_cell_angle_beta 91.988556
_cell_angle_gamma 144.860773
_cell_volume 623.796916
_symmetry_space_group_name_H-M "P -1"
_symmetry_group_IT_number 2
_symmetry_cell_setting 'triclinic'
loop_
_space_group_symop_operation_xyz
x,y,z
-x,-y,-z
loop_
_atom_site_type_symbol
_atom_site_label
_atom_site_fract_x
_atom_site_fract_y
_atom_site_fract_z
Si Si1 0.814116 0.390436 0.328165
Si Si2 0.406609 0.524102 0.840097
Si Si3 0.773381 0.595223 0.136370
Si Si4 0.413135 0.192722 0.710789
Si Si5 0.431179 0.971128 0.320742
Si Si6 0.000000 0.000000 0.000000
Si Si7 0.047139 0.807399 0.180077
Si Si8 0.069910 0.573297 0.332559
O O1 0.774200 0.482992 0.303408
O O2 0.920690 0.564631 0.227112
O O3 0.859581 0.432675 0.573594
O O4 0.695294 0.049089 0.202746
O O5 0.276286 0.336823 0.800936
O O6 0.412624 0.368505 0.697338
O O7 0.481393 0.794940 0.787438
O O8 0.468476 0.621316 0.099056
O O9 0.905290 0.854909 0.130927
O O10 0.681208 0.334996 0.887600
O O11 0.394298 0.044744 0.472821
O O12 0.500000 0.000000 0.500000
O O13 0.076392 0.038464 0.186713
O O14 0.128938 0.844321 0.314577
O O15 0.015109 0.665387 0.917821
O O16 0.000000 0.500000 0.500000
#
# Coordination Sequence:
#
# PCOD9006057 Si02
#       8
#     2   2   2   2   2   1   2   2
#     4  10  21  38  64  94 124 180 220 274 340 414
#     4  11  24  45  66 104 138 174 227 293 347 409
#     4  11  23  45  69  97 143 182 231 285 344 419
#     4  11  24  41  70 102 137 172 229 288 351 409
#     4  12  23  43  72 101 135 186 230 280 350 421
#     4  10  24  42  68  98 134 186 220 280 344 392
#     4   9  20  41  61  89 130 171 228 277 326 403
#     4   9  19  37  63  87 120 173 229 272 331 397
#
# _framework density 24.046287
#
# number of rings (size 3 to 8) (size 9 to 14) (size 15 to 20)
#    0.000    1.600    2.667    1.600    3.733    3.200 
#    2.400    6.000    0.000    0.000    0.000    0.000 
#    0.000    0.000    0.000    0.000    0.000    0.000 
#
# Total GULP energy -83536.436007 kJ/mol
# GULP energy per Si atom -5569.095734 kJ/mol
# Density = 2.399156 g / cm^3
# Si number density = 24.046287 Si / 1000 Ang^3
#
#
#
# Elastic Constant Matrix: (Units=GPa)
#
#
# Indices 1 2 3 4 5 6 
#
# 1 134.4741 31.0540 56.5645 -9.4218 24.2173 -29.5269
# 2 31.0540 47.7751 0.3219 -12.2876 6.9466 -13.6176
# 3 56.5645 0.3219 102.8382 7.4470 9.6432 -17.7117
# 4 -9.4218 -12.2876 7.4470 29.7834 -13.3694 1.6524
# 5 24.2173 6.9466 9.6432 -13.3694 50.5247 -19.0944
# 6 -29.5269 -13.6176 -17.7117 1.6524 -19.0944 37.2820
#
#
#
# Elastic Compliance Matrix: (Units=1/GPa)
#
#
# Indices 1 2 3 4 5 6 
#
# 1 0.012974 -0.006581 -0.006414 0.001778 -0.002264 0.003586
# 2 -0.006581 0.030038 0.003937 0.010948 0.004799 0.009602
# 3 -0.006414 0.003937 0.014096 -0.004122 -0.000030 0.003222
# 4 0.001778 0.010948 -0.004122 0.045323 0.013599 0.008404
# 5 -0.002264 0.004799 -0.000030 0.013599 0.029231 0.014314
# 6 0.003586 0.009602 0.003222 0.008404 0.014314 0.041659
#
#
# Mechanical properties :
#
#
# Convention : Reuss Voigt Hill
#
# Bulk Modulus (GPa) = 25.64764 51.21869 38.43316
# Shear Modulus (GPa) = 24.45764 36.66117 30.55940
#
# Velocity S-wave (km/s) = 3.19267 3.90886 3.56878
# Velocity P-wave (km/s) = 4.92747 6.45899 5.74450
#
# Compressibility (1/GPa) = 0.03898995
#
# Stress axis : x y z
#
# Youngs Moduli (GPa) = 77.07782 33.29146 70.94216
#
# Poissons Ratio (x) = 0.21911 0.45505
# Poissons Ratio (y) = 0.50729 -0.27930
# Poissons Ratio (z) = 0.49440 -0.13107
#
# Static dielectric constant tensor:
#      x y z
#    x 1.976980 -0.030300 0.033470 
#    y -0.030300 1.990200 0.054770 
#    z 0.033470 0.054770 1.919040 
# 
# From -- ./inp_files/116281.got.cif
#   From: 2010.05.17/outbox.cif.g08.bks.cpg/sg2_59_cif.got.tgz:116281.got - 2010.06.03 11:33:40.
