data_PCOD9006569
_publ_section_title
;
Structure prediction by ZEFSAII (Michael W. Deem and Ramdas Pophale) SiO2 
 PCOD9006569
Probable space group: P -1
;
_chemical_formula_sum "Si O2"
_cell_formula_units_Z 16
_cell_length_a 13.046878
_cell_length_b 13.871097
_cell_length_c 15.094081
_cell_angle_alpha 27.845825
_cell_angle_beta 141.743035
_cell_angle_gamma 147.573982
_cell_volume 675.868577
_symmetry_space_group_name_H-M "P -1"
_symmetry_group_IT_number 2
_symmetry_cell_setting 'triclinic'
loop_
_space_group_symop_operation_xyz
x,y,z
-x,-y,-z
loop_
_atom_site_type_symbol
_atom_site_label
_atom_site_fract_x
_atom_site_fract_y
_atom_site_fract_z
Si Si1 0.589838 0.393461 0.386657
Si Si2 0.971883 0.665382 0.534832
Si Si3 0.528267 0.131883 0.192831
Si Si4 0.488738 0.254942 0.721842
Si Si5 0.059471 0.930130 0.742848
Si Si6 0.661875 0.259908 0.363746
Si Si7 0.303318 0.563101 0.099843
Si Si8 0.795231 0.164611 0.903424
O O1 0.765214 0.571614 0.424798
O O2 0.675747 0.423694 0.322007
O O3 0.417090 0.442431 0.233558
O O4 0.504040 0.123213 0.587120
O O5 0.946674 0.423092 0.756692
O O6 0.144576 0.746651 0.517063
O O7 0.008546 0.875875 0.456791
O O8 0.591166 0.293536 0.192394
O O9 0.319807 0.043641 0.078090
O O10 0.684014 0.267753 0.109921
O O11 0.500000 0.500000 0.500000
O O12 0.573528 0.291568 0.849040
O O13 0.628323 0.204184 0.799389
O O14 0.263393 0.050438 0.733547
O O15 0.901311 0.660609 0.825602
O O16 0.106873 0.902149 0.899351
O O17 0.500000 0.000000 0.500000
#
# Coordination Sequence:
#
# PCOD9006569 Si02
#       8
#     2   2   2   2   2   2   2   2
#     4  10  21  42  67  94 134 175 212 279 325 384
#     4  11  21  42  65  95 134 172 219 265 330 389
#     4  10  21  41  63  93 132 169 211 270 324 375
#     4  12  24  47  65  97 134 175 219 273 321 388
#     4  12  24  41  67  95 130 177 216 266 326 382
#     4  10  21  38  66  99 129 170 219 267 328 394
#     4  12  25  43  68  97 135 172 221 271 323 389
#     4  11  23  43  68  91 136 174 216 272 323 384
#
# _framework density 23.67324
#
# number of rings (size 3 to 8) (size 9 to 14) (size 15 to 20)
#    0.000    1.000    3.750    3.750    0.000    1.500 
#    2.250    2.500    0.000   10.500    0.000    0.000 
#    0.000    0.000    0.000    0.000    0.000    0.000 
#
# Total GULP energy -89506.210132 kJ/mol
# GULP energy per Si atom -5594.138133 kJ/mol
# Density = 2.361936 g / cm^3
# Si number density = 23.673240 Si / 1000 Ang^3
#
#
#
# Elastic Constant Matrix: (Units=GPa)
#
#
# Indices 1 2 3 4 5 6 
#
# 1 96.0283 25.7029 8.0342 -10.9684 -15.6568 14.0635
# 2 25.7029 86.6554 13.8691 -14.2925 -12.1106 27.6877
# 3 8.0342 13.8691 79.6568 -7.6985 -16.3295 5.1893
# 4 -10.9684 -14.2925 -7.6985 39.3666 2.4589 -15.2530
# 5 -15.6568 -12.1106 -16.3295 2.4589 35.3547 0.0254
# 6 14.0635 27.6877 5.1893 -15.2530 0.0254 44.7134
#
#
#
# Elastic Compliance Matrix: (Units=1/GPa)
#
#
# Indices 1 2 3 4 5 6 
#
# 1 0.012202 -0.002101 0.000400 0.001632 0.004757 -0.002029
# 2 -0.002101 0.015843 -0.001050 0.001403 0.003920 -0.008551
# 3 0.000400 -0.001050 0.014193 0.001935 0.006238 -0.000466
# 4 0.001632 0.001403 0.001935 0.030101 -0.000003 0.008662
# 5 0.004757 0.003920 0.006238 -0.000003 0.034619 -0.004668
# 6 -0.002029 -0.008551 -0.000466 0.008662 -0.004668 0.031309
#
#
# Mechanical properties :
#
#
# Convention : Reuss Voigt Hill
#
# Bulk Modulus (GPa) = 27.22209 39.72808 33.47509
# Shear Modulus (GPa) = 32.04861 38.20255 35.12558
#
# Velocity S-wave (km/s) = 3.68338 4.02150 3.85615
# Velocity P-wave (km/s) = 5.44186 6.19529 5.83075
#
# Compressibility (1/GPa) = 0.03673487
#
# Stress axis : x y z
#
# Youngs Moduli (GPa) = 81.95688 63.12073 70.45911
#
# Poissons Ratio (x) = 0.13261 -0.02819
# Poissons Ratio (y) = 0.17218 0.07400
# Poissons Ratio (z) = -0.03279 0.06629
#
# Static dielectric constant tensor:
#      x y z
#    x 1.882430 -0.041170 -0.012920 
#    y -0.041170 1.948290 -0.016910 
#    z -0.012920 -0.016910 1.935490 
# 
# From -- ./inp_files/534152.got.cif
#   From: 2010.05.17/outbox.cif.g08.bks.cpg/sg2_268_cif.got.tgz:534152.got - 2010.06.03 11:33:40.
