data_PCOD9006730
_publ_section_title
;
Structure prediction by ZEFSAII (Michael W. Deem and Ramdas Pophale) SiO2 
 PCOD9006730
Probable space group: P -1
;
_chemical_formula_sum "Si O2"
_cell_formula_units_Z 16
_cell_length_a 6.558571
_cell_length_b 8.119107
_cell_length_c 19.034378
_cell_angle_alpha 117.656257
_cell_angle_beta 120.301557
_cell_angle_gamma 84.107528
_cell_volume 763.569409
_symmetry_space_group_name_H-M "P -1"
_symmetry_group_IT_number 2
_symmetry_cell_setting 'triclinic'
loop_
_space_group_symop_operation_xyz
x,y,z
-x,-y,-z
loop_
_atom_site_type_symbol
_atom_site_label
_atom_site_fract_x
_atom_site_fract_y
_atom_site_fract_z
Si Si1 0.147251 0.476289 0.168036
Si Si2 0.501208 0.066947 0.431238
Si Si3 0.331655 0.294058 0.667667
Si Si4 0.267649 0.276553 0.869616
Si Si5 0.390848 0.364431 0.061634
Si Si6 0.068692 0.697681 0.512166
Si Si7 0.849050 0.383501 0.226668
Si Si8 0.960710 0.112537 0.313447
O O1 0.415468 0.566732 0.254869
O O2 0.172840 0.373923 0.078311
O O3 0.966153 0.622434 0.152996
O O4 0.036458 0.363204 0.194173
O O5 0.579737 0.905093 0.363595
O O6 0.500000 0.000000 0.500000
O O7 0.888953 0.157492 0.387873
O O8 0.240341 0.096899 0.366384
O O9 0.166226 0.284103 0.568683
O O10 0.172097 0.396316 0.715472
O O11 0.485600 0.423619 0.901360
O O12 0.329524 0.252516 0.957220
O O13 0.197876 0.079497 0.779579
O O14 0.594167 0.296239 0.130969
O O15 0.298840 0.746305 0.510937
O O16 0.000000 0.500000 0.500000
O O17 0.914737 0.279951 0.286951
#
# Coordination Sequence:
#
# PCOD9006730 Si02
#       8
#     2   2   2   2   2   2   2   2
#     4  10  21  38  68  92 129 169 216 264 330 389
#     4  12  28  42  68  98 129 176 233 276 321 390
#     4  11  23  42  65  93 129 172 219 269 321 391
#     4  10  21  40  66  99 128 167 220 270 322 392
#     4   9  21  41  67  95 130 172 211 268 331 395
#     4  12  28  45  66  96 140 178 217 276 339 389
#     4  10  24  40  64  96 133 169 212 268 334 390
#     4  12  26  42  66  98 132 171 222 273 327 393
#
# _framework density 20.954218000000001
#
# number of rings (size 3 to 8) (size 9 to 14) (size 15 to 20)
#    0.000    1.250    3.750    0.750    8.750    1.000 
#    0.000    0.625    0.000    0.000    0.000    0.000 
#    0.000    0.000    0.000    0.000    0.000    0.000 
#
# Total GULP energy -89211.025212 kJ/mol
# GULP energy per Si atom -5575.689076 kJ/mol
# Density = 2.090653 g / cm^3
# Si number density = 20.954218 Si / 1000 Ang^3
#
#
#
# Elastic Constant Matrix: (Units=GPa)
#
#
# Indices 1 2 3 4 5 6 
#
# 1 99.7767 37.2338 20.6395 -9.2617 -6.7105 3.5054
# 2 37.2338 40.3000 23.0857 -13.1872 -1.4012 -1.3768
# 3 20.6395 23.0857 123.2842 -18.8794 -12.0175 -6.9718
# 4 -9.2617 -13.1872 -18.8794 36.7829 6.7054 -3.9230
# 5 -6.7105 -1.4012 -12.0175 6.7054 25.9179 4.7537
# 6 3.5054 -1.3768 -6.9718 -3.9230 4.7537 9.8628
#
#
#
# Elastic Compliance Matrix: (Units=1/GPa)
#
#
# Indices 1 2 3 4 5 6 
#
# 1 0.017163 -0.017468 -0.000482 -0.005034 0.007212 -0.014358
# 2 -0.017468 0.048512 -0.003649 0.015632 -0.011721 0.022268
# 3 -0.000482 -0.003649 0.010139 0.004242 0.001886 0.007607
# 4 -0.005034 0.015632 0.004242 0.039407 -0.014085 0.029433
# 5 0.007212 -0.011721 0.001886 -0.014085 0.050339 -0.032731
# 6 -0.014358 0.022268 0.007607 0.029433 -0.032731 0.142463
#
#
# Mechanical properties :
#
#
# Convention : Reuss Voigt Hill
#
# Bulk Modulus (GPa) = 30.66071 47.25321 38.95696
# Shear Modulus (GPa) = 13.80865 26.67285 20.24075
#
# Velocity S-wave (km/s) = 2.56987 3.57166 3.11135
# Velocity P-wave (km/s) = 4.84455 6.29354 5.61597
#
# Compressibility (1/GPa) = 0.03261503
#
# Stress axis : x y z
#
# Youngs Moduli (GPa) = 58.26578 20.61367 98.62880
#
# Poissons Ratio (x) = 0.36008 0.04756
# Poissons Ratio (y) = 1.01777 0.35991
# Poissons Ratio (z) = 0.02810 0.07522
#
# Static dielectric constant tensor:
#      x y z
#    x 1.778630 0.016050 -0.032680 
#    y 0.016050 1.835530 0.026410 
#    z -0.032680 0.026410 1.765150 
# 
# From -- ./inp_files/582054.got.cif
#   From: 2010.05.17/outbox.cif.g08.bks.cpg/sg2_292_cif.got.tgz:582054.got - 2010.06.03 11:33:40.
