data_PCOD9006775
_publ_section_title
;
Structure prediction by ZEFSAII (Michael W. Deem and Ramdas Pophale) SiO2 
 PCOD9006775
Probable space group: P -1
;
_chemical_formula_sum "Si O2"
_cell_formula_units_Z 12
_cell_length_a 12.740801
_cell_length_b 18.903006
_cell_length_c 7.199707
_cell_angle_alpha 114.371649
_cell_angle_beta 114.323209
_cell_angle_gamma 20.553776
_cell_volume 552.759892
_symmetry_space_group_name_H-M "P -1"
_symmetry_group_IT_number 2
_symmetry_cell_setting 'triclinic'
loop_
_space_group_symop_operation_xyz
x,y,z
-x,-y,-z
loop_
_atom_site_type_symbol
_atom_site_label
_atom_site_fract_x
_atom_site_fract_y
_atom_site_fract_z
Si Si1 0.642288 0.226098 0.955458
Si Si2 0.746032 0.675508 0.218623
Si Si3 0.655769 0.198025 0.501852
Si Si4 0.338460 0.101220 0.694610
Si Si5 0.648946 0.768509 0.689298
Si Si6 0.652968 0.486968 0.647384
O O1 0.497298 0.235450 0.926954
O O2 0.583335 0.262578 0.732346
O O3 0.478413 0.398577 0.129136
O O4 0.000000 0.000000 0.000000
O O5 0.720081 0.770854 0.188564
O O6 0.703803 0.722601 0.457545
O O7 0.064657 0.434599 0.203099
O O8 0.595126 0.145830 0.357007
O O9 0.456075 0.378784 0.428626
O O10 0.000000 0.000000 0.500000
O O11 0.013202 0.261938 0.646529
O O12 0.500000 0.000000 0.500000
O O13 0.548361 0.920068 0.786972
O O14 0.500000 0.500000 0.500000
#
# Coordination Sequence:
#
# PCOD9006775 Si02
#       6
#     2   2   2   2   2   2
#     4  11  25  43  69 103 136 186 232 282 351 417
#     4   9  19  38  66  93 133 173 229 279 338 407
#     4  11  21  42  71  95 137 185 224 280 348 410
#     4  10  21  38  68  99 132 182 228 280 345 405
#     4   9  18  37  65  97 128 177 224 279 342 401
#     4  12  26  44  67 103 142 181 234 288 346 411
#
# _framework density 21.709244999999999
#
# number of rings (size 3 to 8) (size 9 to 14) (size 15 to 20)
#    0.000    1.667    3.333    1.000    7.000    1.333 
#    0.000    2.500    0.000    0.000    0.000    0.000 
#    0.000    0.000    0.000    0.000    0.000    0.000 
#
# Total GULP energy -67018.673071 kJ/mol
# GULP energy per Si atom -5584.889423 kJ/mol
# Density = 2.165983 g / cm^3
# Si number density = 21.709245 Si / 1000 Ang^3
#
#
#
# Elastic Constant Matrix: (Units=GPa)
#
#
# Indices 1 2 3 4 5 6 
#
# 1 153.0447 67.2091 41.4248 6.1645 32.6308 14.2512
# 2 67.2091 132.2397 18.5085 5.7735 20.3841 2.8858
# 3 41.4248 18.5085 111.8460 33.1636 7.4712 -5.9853
# 4 6.1645 5.7735 33.1636 28.1002 -6.1234 -3.3128
# 5 32.6308 20.3841 7.4712 -6.1234 40.6670 -2.4471
# 6 14.2512 2.8858 -5.9853 -3.3128 -2.4471 58.2423
#
#
#
# Elastic Compliance Matrix: (Units=1/GPa)
#
#
# Indices 1 2 3 4 5 6 
#
# 1 0.010728 -0.004023 -0.003248 0.000630 -0.006079 -0.002979
# 2 -0.004023 0.009951 0.000755 -0.002505 -0.002255 0.000332
# 3 -0.003248 0.000755 0.015890 -0.018809 -0.003453 0.001175
# 4 0.000630 -0.002505 -0.018809 0.061366 0.013572 0.002098
# 5 -0.006079 -0.002255 -0.003453 0.013572 0.033482 0.003423
# 6 -0.002979 0.000332 0.001175 0.002098 0.003423 0.018266
#
#
# Mechanical properties :
#
#
# Convention : Reuss Voigt Hill
#
# Bulk Modulus (GPa) = 42.48917 72.37946 57.43432
# Shear Modulus (GPa) = 29.31494 43.40111 36.35803
#
# Velocity S-wave (km/s) = 3.67869 4.47609 4.09684
# Velocity P-wave (km/s) = 6.13662 7.75414 6.99231
#
# Compressibility (1/GPa) = 0.02353541
#
# Stress axis : x y z
#
# Youngs Moduli (GPa) = 93.21325 100.49259 62.93443
#
# Poissons Ratio (x) = 0.40431 0.20440
# Poissons Ratio (y) = 0.37502 -0.04749
# Poissons Ratio (z) = 0.30274 -0.07582
#
# Static dielectric constant tensor:
#      x y z
#    x 1.800970 -0.059650 -0.054340 
#    y -0.059650 1.927870 0.098120 
#    z -0.054340 0.098120 1.866860 
# 
# From -- ./inp_files/169102.got.cif
#   From: 2010.05.17/outbox.cif.g08.bks.cpg/sg2_85_cif.got.tgz:169102.got - 2010.06.03 11:33:40.
