data_PCOD9006043
_publ_section_title
;
Structure prediction by ZEFSAII (Michael W. Deem and Ramdas Pophale) SiO2 
 PCOD9006043
Probable space group: P -1
;
_chemical_formula_sum "Si O2"
_cell_formula_units_Z 10
_cell_length_a 5.021731
_cell_length_b 7.410688
_cell_length_c 14.081052
_cell_angle_alpha 52.712250
_cell_angle_beta 66.618621
_cell_angle_gamma 87.995690
_cell_volume 367.220525
_symmetry_space_group_name_H-M "P -1"
_symmetry_group_IT_number 2
_symmetry_cell_setting 'triclinic'
loop_
_space_group_symop_operation_xyz
x,y,z
-x,-y,-z
loop_
_atom_site_type_symbol
_atom_site_label
_atom_site_fract_x
_atom_site_fract_y
_atom_site_fract_z
Si Si1 0.473562 0.374600 0.394778
Si Si2 0.780204 0.502691 0.894847
Si Si3 0.984683 0.106132 0.073023
Si Si4 0.846789 0.314090 0.756869
Si Si5 0.678411 0.069002 0.312850
O O1 0.264813 0.546991 0.354196
O O2 0.473092 0.206660 0.355418
O O3 0.808330 0.543081 0.312896
O O4 0.379509 0.188943 0.552361
O O5 0.995259 0.626855 0.044057
O O6 0.665382 0.360655 0.860418
O O7 0.987312 0.764279 0.761781
O O8 0.500000 0.500000 0.000000
O O9 0.690618 0.055867 0.201213
O O10 0.175569 0.961573 0.151749
O O11 0.000000 0.000000 0.000000
#
# Coordination Sequence:
#
# PCOD9006043 Si02
#       5
#     2   2   2   2   2
#     4  10  23  43  68  94 126 168 214 262 313 376
#     4  10  21  38  64  93 127 170 215 261 312 377
#     4  10  22  39  60  94 130 168 209 261 319 377
#     4  10  23  42  64  96 130 165 210 262 321 375
#     4  10  22  40  65  93 127 168 216 262 313 376
#
# _framework density 27.231591000000002
#
# number of rings (size 3 to 8) (size 9 to 14) (size 15 to 20)
#    0.000    2.000    0.000    1.800    0.000   15.200 
#    0.000   12.000    0.000    0.000    0.000    0.000 
#    0.000    0.000    0.000    0.000    0.000    0.000 
#
# Total GULP energy -55908.731542 kJ/mol
# GULP energy per Si atom -5590.873154 kJ/mol
# Density = 2.716961 g / cm^3
# Si number density = 27.231591 Si / 1000 Ang^3
#
#
#
# Elastic Constant Matrix: (Units=GPa)
#
#
# Indices 1 2 3 4 5 6 
#
# 1 112.4810 11.2328 25.6552 -22.4589 23.0675 -15.7609
# 2 11.2328 70.9454 -0.9713 29.2309 2.3264 11.5266
# 3 25.6552 -0.9713 152.3444 -2.3766 -0.7362 3.4118
# 4 -22.4589 29.2309 -2.3766 57.0203 -4.1036 -0.4468
# 5 23.0675 2.3264 -0.7362 -4.1036 38.1983 -6.2926
# 6 -15.7609 11.5266 3.4118 -0.4468 -6.2926 25.6626
#
#
#
# Elastic Compliance Matrix: (Units=1/GPa)
#
#
# Indices 1 2 3 4 5 6 
#
# 1 0.015160 -0.008259 -0.002753 0.009779 -0.005649 0.012171
# 2 -0.008259 0.024872 0.001673 -0.016141 -0.001029 -0.017000
# 3 -0.002753 0.001673 0.007089 -0.001599 0.001004 -0.003167
# 4 0.009779 -0.016141 -0.001599 0.029749 0.000570 0.014126
# 5 -0.005649 -0.001029 0.001004 0.000570 0.030448 0.004335
# 6 0.012171 -0.017000 -0.003167 0.014126 0.004335 0.055808
#
#
# Mechanical properties :
#
#
# Convention : Reuss Voigt Hill
#
# Bulk Modulus (GPa) = 35.15761 45.28935 40.22348
# Shear Modulus (GPa) = 26.13903 44.16652 35.15277
#
# Velocity S-wave (km/s) = 3.10155 4.03163 3.59678
# Velocity P-wave (km/s) = 5.07590 6.19188 5.66146
#
# Compressibility (1/GPa) = 0.02844334
#
# Stress axis : x y z
#
# Youngs Moduli (GPa) = 65.96460 40.20552 141.06046
#
# Poissons Ratio (x) = 0.33207 0.38833
# Poissons Ratio (y) = 0.54482 -0.23605
# Poissons Ratio (z) = 0.18159 -0.06728
#
# Static dielectric constant tensor:
#      x y z
#    x 2.138780 0.036050 -0.016280 
#    y 0.036050 2.156720 0.067390 
#    z -0.016280 0.067390 2.086450 
# 
# From -- ./inp_files/458553.got.cif
#   From: 2010.05.17/outbox.cif.g08.bks.cpg/sg2_230_cif.got.tgz:458553.got - 2010.06.03 11:33:40.
