data_PCOD9006083
_publ_section_title
;
Structure prediction by ZEFSAII (Michael W. Deem and Ramdas Pophale) SiO2 
 PCOD9006083
Probable space group: P -1
;
_chemical_formula_sum "Si O2"
_cell_formula_units_Z 14
_cell_length_a 6.886665
_cell_length_b 8.542336
_cell_length_c 16.882152
_cell_angle_alpha 143.803412
_cell_angle_beta 113.571811
_cell_angle_gamma 60.720330
_cell_volume 511.553219
_symmetry_space_group_name_H-M "P -1"
_symmetry_group_IT_number 2
_symmetry_cell_setting 'triclinic'
loop_
_space_group_symop_operation_xyz
x,y,z
-x,-y,-z
loop_
_atom_site_type_symbol
_atom_site_label
_atom_site_fract_x
_atom_site_fract_y
_atom_site_fract_z
Si Si1 0.117794 0.313331 0.051564
Si Si2 0.287118 0.352025 0.275296
Si Si3 0.084871 0.783184 0.753811
Si Si4 0.401320 0.420468 0.767520
Si Si5 0.301731 0.944655 0.499098
Si Si6 0.070907 0.893310 0.289467
Si Si7 0.492258 0.746712 0.038862
O O1 0.215961 0.310892 0.155318
O O2 0.973911 0.637079 0.153068
O O3 0.314450 0.261169 0.996686
O O4 0.015701 0.075090 0.910425
O O5 0.354359 0.631352 0.410399
O O6 0.078100 0.380487 0.309257
O O7 0.446937 0.043141 0.194208
O O8 0.326630 0.594203 0.744778
O O9 0.046304 0.859808 0.687495
O O10 0.664379 0.253230 0.750262
O O11 0.319813 0.672125 0.918704
O O12 0.280473 0.185367 0.657470
O O13 0.098821 0.979754 0.419071
O O14 0.500000 0.000000 0.500000
O O15 0.500000 0.500000 0.000000
#
# Coordination Sequence:
#
# PCOD9006083 Si02
#       7
#     2   2   2   2   2   2   2
#     4  10  21  38  64  95 135 168 210 272 327 378
#     4  11  22  39  67  96 130 174 218 262 324 394
#     4  12  23  38  67  99 131 169 216 268 325 379
#     4  10  22  41  66  89 133 167 213 263 330 372
#     4   9  21  42  67  88 129 177 215 264 327 380
#     4   9  21  40  62  96 129 167 220 263 313 394
#     4  11  23  41  66 101 130 164 227 269 315 394
#
# _framework density 27.367630999999999
#
# number of rings (size 3 to 8) (size 9 to 14) (size 15 to 20)
#    0.000    1.714    1.429    3.857    6.000    1.143 
#    2.571    6.429    0.000    0.000    0.000    0.000 
#    0.000    0.000    0.000    0.000    0.000    0.000 
#
# Total GULP energy -78243.810529 kJ/mol
# GULP energy per Si atom -5588.843609 kJ/mol
# Density = 2.730534 g / cm^3
# Si number density = 27.367631 Si / 1000 Ang^3
#
#
#
# Elastic Constant Matrix: (Units=GPa)
#
#
# Indices 1 2 3 4 5 6 
#
# 1 69.7750 -0.2847 17.2366 15.8286 11.4167 8.2378
# 2 -0.2847 125.0733 15.4921 30.3384 10.6691 -4.8102
# 3 17.2366 15.4921 205.4693 45.5534 25.9485 1.7398
# 4 15.8286 30.3384 45.5534 47.3567 9.0875 9.3658
# 5 11.4167 10.6691 25.9485 9.0875 44.7016 7.9103
# 6 8.2378 -4.8102 1.7398 9.3658 7.9103 26.0047
#
#
#
# Elastic Compliance Matrix: (Units=1/GPa)
#
#
# Indices 1 2 3 4 5 6 
#
# 1 0.016319 0.001587 0.000184 -0.005668 -0.003168 -0.001883
# 2 0.001587 0.010502 0.001421 -0.009169 -0.002848 0.005514
# 3 0.000184 0.001421 0.006828 -0.007577 -0.003432 0.003521
# 4 -0.005668 -0.009169 -0.007577 0.038434 0.002709 -0.014060
# 5 -0.003168 -0.002848 -0.003432 0.002709 0.026791 -0.008419
# 6 -0.001883 0.005514 0.003521 -0.014060 -0.008419 0.047460
#
#
# Mechanical properties :
#
#
# Convention : Reuss Voigt Hill
#
# Bulk Modulus (GPa) = 24.97950 51.68950 38.33450
# Shear Modulus (GPa) = 32.61671 48.13749 40.37710
#
# Velocity S-wave (km/s) = 3.45599 4.19850 3.84521
# Velocity P-wave (km/s) = 5.00723 6.51393 5.80963
#
# Compressibility (1/GPa) = 0.04003283
#
# Stress axis : x y z
#
# Youngs Moduli (GPa) = 61.27715 95.21968 146.45747
#
# Poissons Ratio (x) = -0.15111 -0.02694
# Poissons Ratio (y) = -0.09725 -0.20810
# Poissons Ratio (z) = -0.01127 -0.13529
#
# Static dielectric constant tensor:
#      x y z
#    x 2.393880 0.019000 0.029280 
#    y 0.019000 2.213590 -0.030020 
#    z 0.029280 -0.030020 2.233720 
# 
# From -- ./inp_files/191672.got.cif
#   From: 2010.05.17/outbox.cif.g08.bks.cpg/sg2_96_cif.got.tgz:191672.got - 2010.06.03 11:33:40.
