data_PCOD9006373
_publ_section_title
;
Structure prediction by ZEFSAII (Michael W. Deem and Ramdas Pophale) SiO2 
 PCOD9006373
Probable space group: P -1
;
_chemical_formula_sum "Si O2"
_cell_formula_units_Z 14
_cell_length_a 9.642631
_cell_length_b 7.941276
_cell_length_c 10.687239
_cell_angle_alpha 70.202978
_cell_angle_beta 134.223701
_cell_angle_gamma 103.881722
_cell_volume 551.795031
_symmetry_space_group_name_H-M "P -1"
_symmetry_group_IT_number 2
_symmetry_cell_setting 'triclinic'
loop_
_space_group_symop_operation_xyz
x,y,z
-x,-y,-z
loop_
_atom_site_type_symbol
_atom_site_label
_atom_site_fract_x
_atom_site_fract_y
_atom_site_fract_z
Si Si1 0.051954 0.142903 0.814246
Si Si2 0.608923 0.051875 0.429756
Si Si3 0.262449 0.879233 0.159377
Si Si4 0.191250 0.530241 0.896987
Si Si5 0.778827 0.677085 0.627876
Si Si6 0.113635 0.682783 0.549583
Si Si7 0.526029 0.472780 0.703528
O O1 0.156763 0.323520 0.885542
O O2 0.861416 0.130538 0.788290
O O3 0.028669 0.176759 0.643229
O O4 0.138209 0.951326 0.948683
O O5 0.694442 0.250642 0.420271
O O6 0.500000 0.000000 0.500000
O O7 0.436168 0.022245 0.232465
O O8 0.762320 0.890583 0.542892
O O9 0.355603 0.690871 0.244192
O O10 0.185595 0.663029 0.740661
O O11 0.986519 0.593492 0.814207
O O12 0.388613 0.538067 0.099448
O O13 0.629226 0.636696 0.656156
O O14 0.688701 0.577482 0.472091
O O15 0.000000 0.500000 0.500000
#
# Coordination Sequence:
#
# PCOD9006373 Si02
#       7
#     2   2   2   2   2   2   2
#     4  10  21  39  64  97 127 176 216 273 322 385
#     4  11  23  41  68  97 127 171 226 275 322 386
#     4  10  21  38  65  98 129 160 229 276 316 383
#     4  11  23  42  65  92 139 178 215 260 341 402
#     4  10  23  39  66  99 131 169 225 278 322 383
#     4  10  24  44  63  94 135 177 214 266 338 395
#     4  10  22  40  64 101 131 172 219 276 327 387
#
# _framework density 25.371739000000002
#
# number of rings (size 3 to 8) (size 9 to 14) (size 15 to 20)
#    0.000    1.714    2.857    0.429    4.000    0.571 
#    2.571    2.857    0.000    0.000    0.000    0.000 
#    0.000    0.000    0.000    0.000    0.000    0.000 
#
# Total GULP energy -78030.006109 kJ/mol
# GULP energy per Si atom -5573.571865 kJ/mol
# Density = 2.531399 g / cm^3
# Si number density = 25.371739 Si / 1000 Ang^3
#
#
#
# Elastic Constant Matrix: (Units=GPa)
#
#
# Indices 1 2 3 4 5 6 
#
# 1 41.6531 15.7883 -0.8295 -8.0736 -11.4314 16.9390
# 2 15.7883 119.1183 13.9861 -0.1861 -7.5309 19.9910
# 3 -0.8295 13.9861 145.8359 -13.7714 -23.9284 1.8839
# 4 -8.0736 -0.1861 -13.7714 42.9817 4.2127 -0.1757
# 5 -11.4314 -7.5309 -23.9284 4.2127 28.4046 -11.0857
# 6 16.9390 19.9910 1.8839 -0.1757 -11.0857 31.3426
#
#
#
# Elastic Compliance Matrix: (Units=1/GPa)
#
#
# Indices 1 2 3 4 5 6 
#
# 1 0.034272 -0.001879 0.002636 0.006332 0.009011 -0.014259
# 2 -0.001879 0.009618 -0.001113 -0.000573 -0.001197 -0.005478
# 3 0.002636 -0.001113 0.008542 0.002424 0.008270 0.001710
# 4 0.006332 -0.000573 0.002424 0.025273 -0.000585 -0.003268
# 5 0.009011 -0.001197 0.008270 -0.000585 0.050780 0.013354
# 6 -0.014259 -0.005478 0.001710 -0.003268 0.013354 0.047708
#
#
# Mechanical properties :
#
#
# Convention : Reuss Voigt Hill
#
# Bulk Modulus (GPa) = 19.33519 40.49968 29.91743
# Shear Modulus (GPa) = 25.75386 39.05661 32.40523
#
# Velocity S-wave (km/s) = 3.18946 3.92774 3.57770
# Velocity P-wave (km/s) = 4.60444 6.04704 5.37436
#
# Compressibility (1/GPa) = 0.05171918
#
# Stress axis : x y z
#
# Youngs Moduli (GPa) = 29.17853 103.97621 117.06236
#
# Poissons Ratio (x) = 0.19541 -0.30855
# Poissons Ratio (y) = 0.05484 0.13026
# Poissons Ratio (z) = -0.07691 0.11570
#
# Static dielectric constant tensor:
#      x y z
#    x 2.097630 -0.056400 0.054300 
#    y -0.056400 2.030440 0.071710 
#    z 0.054300 0.071710 2.130900 
# 
# From -- ./inp_files/416738.got.cif
#   From: 2010.05.17/outbox.cif.g08.bks.cpg/sg2_209_cif.got.tgz:416738.got - 2010.06.03 11:33:40.
