data_PCOD9006638
_publ_section_title
;
Structure prediction by ZEFSAII (Michael W. Deem and Ramdas Pophale) SiO2 
 PCOD9006638
Probable space group: P -1
;
_chemical_formula_sum "Si O2"
_cell_formula_units_Z 16
_cell_length_a 15.266600
_cell_length_b 18.241297
_cell_length_c 24.125774
_cell_angle_alpha 20.226206
_cell_angle_beta 160.356399
_cell_angle_gamma 149.386943
_cell_volume 765.275727
_symmetry_space_group_name_H-M "P -1"
_symmetry_group_IT_number 2
_symmetry_cell_setting 'triclinic'
loop_
_space_group_symop_operation_xyz
x,y,z
-x,-y,-z
loop_
_atom_site_type_symbol
_atom_site_label
_atom_site_fract_x
_atom_site_fract_y
_atom_site_fract_z
Si Si1 0.664875 0.557002 0.136248
Si Si2 0.785942 0.028975 0.984835
Si Si3 0.118744 0.781600 0.590882
Si Si4 0.140598 0.736957 0.339378
Si Si5 0.010410 0.716388 0.816574
Si Si6 0.513876 0.299918 0.529343
Si Si7 0.444545 0.340403 0.630599
Si Si8 0.437137 0.395929 0.837162
O O1 0.798788 0.357706 0.317668
O O2 0.588988 0.485280 0.203351
O O3 0.891411 0.701881 0.177887
O O4 0.389671 0.698196 0.847375
O O5 0.690161 0.179404 0.768651
O O6 0.684358 0.141110 0.901831
O O7 0.636657 0.831489 0.032301
O O8 0.082389 0.922840 0.219372
O O9 0.851599 0.713124 0.506735
O O10 0.042302 0.045377 0.354644
O O11 0.366736 0.771624 0.407967
O O12 0.231761 0.520405 0.582095
O O13 0.780329 0.738981 0.617263
O O14 0.000000 0.500000 0.000000
O O15 0.283601 0.656420 0.989283
O O16 0.515367 0.549767 0.365127
O O17 0.500000 0.500000 0.500000
#
# Coordination Sequence:
#
# PCOD9006638 Si02
#       8
#     2   2   2   2   2   2   2   2
#     4  10  23  41  71  98 126 176 220 281 331 390
#     4  10  21  38  67  94 121 170 218 270 322 382
#     4  11  23  45  69  98 136 167 227 275 335 388
#     4  11  21  43  62  98 135 170 221 264 332 398
#     4  12  25  44  62  99 134 180 219 267 332 396
#     4  11  23  41  66  95 133 169 223 273 321 395
#     4  10  22  41  64 101 127 164 217 277 330 387
#     4  11  23  42  66  93 136 172 220 267 328 403
#
# _framework density 20.907498
#
# number of rings (size 3 to 8) (size 9 to 14) (size 15 to 20)
#    0.000    1.250    3.750    3.375    3.500    1.000 
#    6.750    2.500    0.000    0.000    0.000    0.000 
#    0.000    0.000    0.000    0.000    0.000    0.000 
#
# Total GULP energy -89088.345182 kJ/mol
# GULP energy per Si atom -5568.021574 kJ/mol
# Density = 2.085991 g / cm^3
# Si number density = 20.907498 Si / 1000 Ang^3
#
#
#
# Elastic Constant Matrix: (Units=GPa)
#
#
# Indices 1 2 3 4 5 6 
#
# 1 124.8149 37.3407 38.0982 -3.6877 41.6422 13.7352
# 2 37.3407 78.4884 18.5873 2.0243 30.0457 1.8998
# 3 38.0982 18.5873 78.4818 -20.6877 30.3501 -9.6495
# 4 -3.6877 2.0243 -20.6877 31.5477 9.8063 1.8096
# 5 41.6422 30.0457 30.3501 9.8063 42.6708 0.5173
# 6 13.7352 1.8998 -9.6495 1.8096 0.5173 14.9379
#
#
#
# Elastic Compliance Matrix: (Units=1/GPa)
#
#
# Indices 1 2 3 4 5 6 
#
# 1 0.015645 -0.001444 -0.002704 0.005217 -0.013331 -0.016118
# 2 -0.001444 0.018401 0.004720 0.006766 -0.016481 0.001787
# 3 -0.002704 0.004720 0.040033 0.035941 -0.037718 0.024699
# 4 0.005217 0.006766 0.035941 0.070943 -0.051852 0.010761
# 5 -0.013331 -0.016481 -0.037718 -0.051852 0.086875 -0.006738
# 6 -0.016118 0.001787 0.024699 0.010761 -0.006738 0.096422
#
#
# Mechanical properties :
#
#
# Convention : Reuss Voigt Hill
#
# Bulk Modulus (GPa) = 13.29378 52.20416 32.74897
# Shear Modulus (GPa) = 14.19447 30.34853 22.27150
#
# Velocity S-wave (km/s) = 2.60843 3.81407 3.26734
# Velocity P-wave (km/s) = 3.92989 6.66479 5.47099
#
# Compressibility (1/GPa) = 0.07522313
#
# Stress axis : x y z
#
# Youngs Moduli (GPa) = 63.91925 54.34398 24.97918
#
# Poissons Ratio (x) = 0.07846 0.06754
# Poissons Ratio (y) = 0.09229 -0.11789
# Poissons Ratio (z) = 0.17283 -0.25648
#
# Static dielectric constant tensor:
#      x y z
#    x 1.849410 -0.013430 0.069380 
#    y -0.013430 1.794680 -0.058050 
#    z 0.069380 -0.058050 1.831550 
# 
# From -- ./inp_files/612189.got.cif
#   From: 2010.05.17/outbox.cif.g08.bks.cpg/sg2_307_cif.got.tgz:612189.got - 2010.06.03 11:33:40.
