data_PCOD9006247
_publ_section_title
;
Structure prediction by ZEFSAII (Michael W. Deem and Ramdas Pophale) SiO2 
 PCOD9006247
Probable space group: P -1
;
_chemical_formula_sum "Si O2"
_cell_formula_units_Z 16
_cell_length_a 6.338820
_cell_length_b 17.788352
_cell_length_c 9.502385
_cell_angle_alpha 101.504070
_cell_angle_beta 103.625160
_cell_angle_gamma 45.107096
_cell_volume 736.834342
_symmetry_space_group_name_H-M "P -1"
_symmetry_group_IT_number 2
_symmetry_cell_setting 'triclinic'
loop_
_space_group_symop_operation_xyz
x,y,z
-x,-y,-z
loop_
_atom_site_type_symbol
_atom_site_label
_atom_site_fract_x
_atom_site_fract_y
_atom_site_fract_z
Si Si1 0.765931 0.834847 0.741971
Si Si2 0.723093 0.644226 0.204878
Si Si3 0.180950 0.046512 0.409183
Si Si4 0.989306 0.335493 0.512679
Si Si5 0.731662 0.439456 0.885487
Si Si6 0.079162 0.771322 0.067569
Si Si7 0.066799 0.049641 0.699386
Si Si8 0.403860 0.449496 0.608985
O O1 0.904705 0.873510 0.694792
O O2 0.405091 0.933448 0.723541
O O3 0.850060 0.742491 0.622670
O O4 0.907080 0.800020 0.905792
O O5 0.424740 0.715256 0.090940
O O6 0.678375 0.589930 0.296800
O O7 0.791856 0.701682 0.335045
O O8 0.003702 0.567775 0.116065
O O9 0.158590 0.966144 0.313590
O O10 0.500000 0.000000 0.500000
O O11 0.995562 0.090241 0.541682
O O12 0.698577 0.357789 0.528400
O O13 0.857770 0.450441 0.487247
O O14 0.896355 0.316940 0.885253
O O15 0.524833 0.491682 0.734818
O O16 0.500000 0.500000 0.000000
O O17 0.940569 0.873043 0.177745
#
# Coordination Sequence:
#
# PCOD9006247 Si02
#       8
#     2   2   2   2   2   2   2   2
#     4  11  24  40  64  98 130 176 220 275 327 396
#     4  10  23  38  66  93 126 178 221 271 333 400
#     4   9  22  40  65  92 123 169 221 274 324 393
#     4  10  21  38  65  91 132 170 223 278 331 390
#     4  10  22  42  64  92 133 174 218 273 335 398
#     4  11  25  40  64  98 136 173 220 274 335 398
#     4  10  23  42  65  92 133 175 220 272 337 392
#     4   9  20  39  60  95 127 171 223 278 327 395
#
# _framework density 21.714516
#
# number of rings (size 3 to 8) (size 9 to 14) (size 15 to 20)
#    0.000    2.000    0.000    1.500   10.500    4.500 
#    0.000    2.500    0.000    0.000    0.000    0.000 
#    0.000    0.000    0.000    0.000    0.000    0.000 
#
# Total GULP energy -89169.930270 kJ/mol
# GULP energy per Si atom -5573.120642 kJ/mol
# Density = 2.166509 g / cm^3
# Si number density = 21.714516 Si / 1000 Ang^3
#
#
#
# Elastic Constant Matrix: (Units=GPa)
#
#
# Indices 1 2 3 4 5 6 
#
# 1 97.9095 46.6964 31.0849 4.0089 -6.8102 -4.1676
# 2 46.6964 66.9317 36.1365 10.6892 1.7507 -5.3377
# 3 31.0849 36.1365 119.3124 2.3957 12.3517 -0.3203
# 4 4.0089 10.6892 2.3957 43.7363 0.4108 -0.5585
# 5 -6.8102 1.7507 12.3517 0.4108 35.6997 -0.5654
# 6 -4.1676 -5.3377 -0.3203 -0.5585 -0.5654 32.8875
#
#
#
# Elastic Compliance Matrix: (Units=1/GPa)
#
#
# Indices 1 2 3 4 5 6 
#
# 1 0.015992 -0.010682 -0.001372 0.001187 0.004042 0.000369
# 2 -0.010682 0.026078 -0.004847 -0.005080 -0.001538 0.002719
# 3 -0.001372 -0.004847 0.010573 0.000754 -0.003705 -0.000908
# 4 0.001187 -0.005080 0.000754 0.023953 -0.000065 -0.000261
# 5 0.004042 -0.001538 -0.003705 -0.000065 0.030152 0.000744
# 6 0.000369 0.002719 -0.000908 -0.000261 0.000744 0.030894
#
#
# Mechanical properties :
#
#
# Convention : Reuss Voigt Hill
#
# Bulk Modulus (GPa) = 53.07671 56.88768 54.98219
# Shear Modulus (GPa) = 28.13316 33.81375 30.97346
#
# Velocity S-wave (km/s) = 3.60334 3.95041 3.78086
# Velocity P-wave (km/s) = 6.46592 6.86021 6.66598
#
# Compressibility (1/GPa) = 0.01884066
#
# Stress axis : x y z
#
# Youngs Moduli (GPa) = 62.53067 38.34586 94.58145
#
# Poissons Ratio (x) = 0.40962 0.12980
# Poissons Ratio (y) = 0.66796 0.45842
# Poissons Ratio (z) = 0.08582 0.18586
#
# Static dielectric constant tensor:
#      x y z
#    x 1.888360 -0.006550 0.002990 
#    y -0.006550 1.847260 0.030590 
#    z 0.002990 0.030590 1.798890 
# 
# From -- ./inp_files/139168.got.cif
#   From: 2010.05.17/outbox.cif.g08.bks.cpg/sg2_70_cif.got.tgz:139168.got - 2010.06.03 11:33:40.
