data_PCOD9006168
_publ_section_title
;
Structure prediction by ZEFSAII (Michael W. Deem and Ramdas Pophale) SiO2 
 PCOD9006168
Probable space group: P -1
;
_chemical_formula_sum "Si O2"
_cell_formula_units_Z 16
_cell_length_a 15.117591
_cell_length_b 8.511699
_cell_length_c 24.391142
_cell_angle_alpha 49.202728
_cell_angle_beta 162.049059
_cell_angle_gamma 130.694790
_cell_volume 726.017974
_symmetry_space_group_name_H-M "P -1"
_symmetry_group_IT_number 2
_symmetry_cell_setting 'triclinic'
loop_
_space_group_symop_operation_xyz
x,y,z
-x,-y,-z
loop_
_atom_site_type_symbol
_atom_site_label
_atom_site_fract_x
_atom_site_fract_y
_atom_site_fract_z
Si Si1 0.797545 0.603021 0.096246
Si Si2 0.207579 0.440396 0.723480
Si Si3 0.365968 0.353451 0.633877
Si Si4 0.139160 0.224646 0.413597
Si Si5 0.594730 0.186158 0.599194
Si Si6 0.688433 0.828485 0.244905
Si Si7 0.361356 0.229706 0.334879
Si Si8 0.812468 0.935807 0.124848
O O1 0.737222 0.765149 0.071206
O O2 0.909412 0.392018 0.233934
O O3 0.088899 0.723034 0.212691
O O4 0.509574 0.544538 0.904441
O O5 0.266040 0.388996 0.706710
O O6 0.124093 0.211253 0.754196
O O7 0.940785 0.565940 0.549699
O O8 0.319280 0.257750 0.568129
O O9 0.419333 0.201880 0.749304
O O10 0.616894 0.548585 0.731836
O O11 0.348111 0.249549 0.478512
O O12 0.973357 0.992797 0.372632
O O13 0.572151 0.265681 0.504460
O O14 0.556279 0.937702 0.622673
O O15 0.447358 0.934357 0.046174
O O16 0.072223 0.108536 0.218850
#
# Coordination Sequence:
#
# PCOD9006168 Si02
#       8
#     2   2   2   2   2   2   2   2
#     4  11  22  38  66  97 124 155 205 270 312 354
#     4  12  23  42  66  91 127 163 213 262 306 362
#     4  12  25  43  62  92 130 171 202 252 319 376
#     4  12  22  40  65  94 127 161 211 259 306 373
#     4  10  21  38  65 101 121 159 208 264 311 359
#     4  12  27  40  63  93 128 170 208 252 312 378
#     4  10  21  40  64  90 133 161 201 259 315 367
#     4  11  22  41  65  95 124 160 210 266 309 356
#
# _framework density 22.038019999999999
#
# number of rings (size 3 to 8) (size 9 to 14) (size 15 to 20)
#    0.000    0.750    3.750    5.625    1.750    0.500 
#    0.000    0.000    0.000    3.750    0.000    0.000 
#    0.000    0.000    0.000    0.000    0.000    0.000 
#
# Total GULP energy -89453.382194 kJ/mol
# GULP energy per Si atom -5590.836387 kJ/mol
# Density = 2.198786 g / cm^3
# Si number density = 22.038020 Si / 1000 Ang^3
#
#
#
# Elastic Constant Matrix: (Units=GPa)
#
#
# Indices 1 2 3 4 5 6 
#
# 1 77.5496 27.3714 17.9894 9.3709 3.8042 -6.8588
# 2 27.3714 72.5715 25.7329 33.3642 -2.7056 4.5457
# 3 17.9894 25.7329 51.2436 15.6292 4.3829 6.5962
# 4 9.3709 33.3642 15.6292 36.5316 2.7103 2.9138
# 5 3.8042 -2.7056 4.3829 2.7103 31.9201 0.7517
# 6 -6.8588 4.5457 6.5962 2.9138 0.7517 30.8530
#
#
#
# Elastic Compliance Matrix: (Units=1/GPa)
#
#
# Indices 1 2 3 4 5 6 
#
# 1 0.016345 -0.006790 -0.003831 0.003413 -0.002409 0.005189
# 2 -0.006790 0.029139 -0.005484 -0.022762 0.006027 -0.002627
# 3 -0.003831 -0.005484 0.025887 -0.004452 -0.003065 -0.005083
# 4 0.003413 -0.022762 -0.004452 0.049591 -0.005948 0.000526
# 5 -0.002409 0.006027 -0.003065 -0.005948 0.033076 -0.001012
# 6 0.005189 -0.002627 -0.005083 0.000526 -0.001012 0.035014
#
#
# Mechanical properties :
#
#
# Convention : Reuss Voigt Hill
#
# Bulk Modulus (GPa) = 25.53500 38.17242 31.85371
# Shear Modulus (GPa) = 21.33863 28.54566 24.94215
#
# Velocity S-wave (km/s) = 3.11507 3.60292 3.36784
# Velocity P-wave (km/s) = 4.95481 5.88785 5.44137
#
# Compressibility (1/GPa) = 0.03916194
#
# Stress axis : x y z
#
# Youngs Moduli (GPa) = 61.18051 34.31809 38.62870
#
# Poissons Ratio (x) = 0.23302 0.14799
# Poissons Ratio (y) = 0.41542 0.21183
# Poissons Ratio (z) = 0.23438 0.18819
#
# Static dielectric constant tensor:
#      x y z
#    x 1.798060 -0.008590 0.000480 
#    y -0.008590 1.822690 0.006800 
#    z 0.000480 0.006800 1.814760 
# 
# From -- ./inp_files/611625.got.cif
#   From: 2010.05.17/outbox.cif.g08.bks.cpg/sg2_306_cif.got.tgz:611625.got - 2010.06.03 11:33:40.
