data_PCOD9006715
_publ_section_title
;
Structure prediction by ZEFSAII (Michael W. Deem and Ramdas Pophale) SiO2 
 PCOD9006715
Probable space group: P -1
;
_chemical_formula_sum "Si O2"
_cell_formula_units_Z 16
_cell_length_a 11.481845
_cell_length_b 13.118560
_cell_length_c 8.457736
_cell_angle_alpha 90.222906
_cell_angle_beta 40.897930
_cell_angle_gamma 110.016910
_cell_volume 713.275117
_symmetry_space_group_name_H-M "P -1"
_symmetry_group_IT_number 2
_symmetry_cell_setting 'triclinic'
loop_
_space_group_symop_operation_xyz
x,y,z
-x,-y,-z
loop_
_atom_site_type_symbol
_atom_site_label
_atom_site_fract_x
_atom_site_fract_y
_atom_site_fract_z
Si Si1 0.322546 0.361861 0.706908
Si Si2 0.173550 0.179098 0.132741
Si Si3 0.315902 0.666123 0.693380
Si Si4 0.056191 0.232625 0.586993
Si Si5 0.567517 0.082325 0.086533
Si Si6 0.090207 0.431530 0.731644
Si Si7 0.578677 0.904560 0.302680
Si Si8 0.195379 0.073607 0.609575
O O1 0.500000 0.500000 0.500000
O O2 0.455939 0.308586 0.495618
O O3 0.126479 0.359717 0.833695
O O4 0.246829 0.295003 0.949571
O O5 0.145509 0.209937 0.337342
O O6 0.345727 0.143957 0.921223
O O7 0.961109 0.060015 0.296358
O O8 0.227979 0.570009 0.638552
O O9 0.364708 0.793469 0.585898
O O10 0.149217 0.608075 0.003251
O O11 0.146555 0.372824 0.530751
O O12 0.094161 0.154587 0.678668
O O13 0.810046 0.178805 0.822748
O O14 0.407091 0.124659 0.289855
O O15 0.551497 0.006282 0.258159
O O16 0.500000 0.000000 0.000000
O O17 0.749538 0.939380 0.265837
#
# Coordination Sequence:
#
# PCOD9006715 Si02
#       8
#     2   2   2   2   2   2   2   2
#     4   9  20  39  63  90 119 163 215 264 307 365
#     4  11  22  39  63  90 134 168 207 262 320 379
#     4   9  20  40  61  93 118 157 219 265 312 364
#     4  12  24  41  62  97 134 171 207 259 326 382
#     4  12  25  40  61  93 137 171 204 261 325 379
#     4  10  21  38  68  87 121 166 209 268 315 369
#     4  11  23  40  65  92 127 170 220 265 309 376
#     4  12  24  41  63  97 131 171 218 259 312 385
#
# _framework density 22.431736999999998
#
# number of rings (size 3 to 8) (size 9 to 14) (size 15 to 20)
#    0.000    1.250    2.500    4.125    3.500    0.000 
#    0.000    5.625    0.000   12.000    0.000    0.000 
#    0.000    0.000    0.000    0.000    0.000    0.000 
#
# Total GULP energy -89243.624264 kJ/mol
# GULP energy per Si atom -5577.726517 kJ/mol
# Density = 2.238068 g / cm^3
# Si number density = 22.431737 Si / 1000 Ang^3
#
#
#
# Elastic Constant Matrix: (Units=GPa)
#
#
# Indices 1 2 3 4 5 6 
#
# 1 58.8700 23.2926 17.4811 -3.3785 -1.9519 7.0501
# 2 23.2926 127.2933 17.1437 9.0873 14.5591 19.1337
# 3 17.4811 17.1437 74.0794 4.3646 -7.8393 5.1889
# 4 -3.3785 9.0873 4.3646 35.0144 1.6909 5.6573
# 5 -1.9519 14.5591 -7.8393 1.6909 25.0085 3.0355
# 6 7.0501 19.1337 5.1889 5.6573 3.0355 28.6610
#
#
#
# Elastic Compliance Matrix: (Units=1/GPa)
#
#
# Indices 1 2 3 4 5 6 
#
# 1 0.020026 -0.003237 -0.003720 0.003614 0.002408 -0.003060
# 2 -0.003237 0.010218 -0.001815 -0.001682 -0.006083 -0.004720
# 3 -0.003720 -0.001815 0.015603 -0.001967 0.005904 -0.000935
# 4 0.003614 -0.001682 -0.001967 0.030491 -0.000768 -0.005348
# 5 0.002408 -0.006083 0.005904 -0.000768 0.045899 -0.002310
# 6 -0.003060 -0.004720 -0.000935 -0.005348 -0.002310 0.040264
#
#
# Mechanical properties :
#
#
# Convention : Reuss Voigt Hill
#
# Bulk Modulus (GPa) = 35.33235 41.78639 38.55937
# Shear Modulus (GPa) = 26.38816 31.22514 28.80665
#
# Velocity S-wave (km/s) = 3.43355 3.73501 3.58745
# Velocity P-wave (km/s) = 5.61287 6.10484 5.86402
#
# Compressibility (1/GPa) = 0.02830267
#
# Stress axis : x y z
#
# Youngs Moduli (GPa) = 49.93576 97.86707 64.08980
#
# Poissons Ratio (x) = 0.31678 0.23843
# Poissons Ratio (y) = 0.16163 0.11632
# Poissons Ratio (z) = 0.18578 0.17762
#
# Static dielectric constant tensor:
#      x y z
#    x 1.866990 0.032660 -0.017670 
#    y 0.032660 1.950880 0.027770 
#    z -0.017670 0.027770 1.831440 
# 
# From -- ./inp_files/273062.got.cif
#   From: 2010.05.17/outbox.cif.g08.bks.cpg/sg2_137_cif.got.tgz:273062.got - 2010.06.03 11:33:40.
