data_PCOD9006597
_publ_section_title
;
Structure prediction by ZEFSAII (Michael W. Deem and Ramdas Pophale) SiO2 
 PCOD9006597
Probable space group: P -1
;
_chemical_formula_sum "Si O2"
_cell_formula_units_Z 11
_cell_length_a 9.257635
_cell_length_b 14.793851
_cell_length_c 14.238775
_cell_angle_alpha 28.292869
_cell_angle_beta 146.587717
_cell_angle_gamma 153.920005
_cell_volume 397.246850
_symmetry_space_group_name_H-M "P -1"
_symmetry_group_IT_number 2
_symmetry_cell_setting 'triclinic'
loop_
_space_group_symop_operation_xyz
x,y,z
-x,-y,-z
loop_
_atom_site_type_symbol
_atom_site_label
_atom_site_fract_x
_atom_site_fract_y
_atom_site_fract_z
Si Si1 0.019632 0.785217 0.089730
Si Si2 0.000000 0.500000 0.500000
Si Si3 0.704844 0.575024 0.913172
Si Si4 0.973606 0.757707 0.697071
Si Si5 0.700730 0.010712 0.511525
Si Si6 0.740281 0.720603 0.286115
O O1 0.650406 0.683383 0.020186
O O2 0.146089 0.678589 0.322651
O O3 0.925136 0.667977 0.041294
O O4 0.267180 0.073048 0.951684
O O5 0.053663 0.318018 0.639167
O O6 0.934993 0.650498 0.878253
O O7 0.565490 0.733587 0.672374
O O8 0.620848 0.534080 0.666435
O O9 0.251124 0.845313 0.687663
O O10 0.000000 0.000000 0.500000
O O11 0.067562 0.159384 0.621668
O O12 0.500000 0.000000 0.500000
#
# Coordination Sequence:
#
# PCOD9006597 Si02
#       6
#     2   1   2   2   2   2
#     4  10  21  39  67 100 135 182 221 279 343 404
#     4  12  22  36  68 104 130 172 240 270 324 416
#     4   9  19  39  64  96 138 178 219 277 347 402
#     4  10  21  39  67  97 136 187 221 281 349 392
#     4  10  21  38  67 105 133 178 231 281 340 414
#     4  11  23  39  69  99 138 183 224 280 340 409
#
# _framework density 27.690591999999999
#
# number of rings (size 3 to 8) (size 9 to 14) (size 15 to 20)
#    0.000    1.818    1.818    2.182    2.545    0.000 
#    0.000    0.000    0.000   54.545    0.000    0.000 
#    0.000    0.000    0.000    0.000    0.000    0.000 
#
# Total GULP energy -61421.912028 kJ/mol
# GULP energy per Si atom -5583.810184 kJ/mol
# Density = 2.762757 g / cm^3
# Si number density = 27.690592 Si / 1000 Ang^3
#
#
#
# Elastic Constant Matrix: (Units=GPa)
#
#
# Indices 1 2 3 4 5 6 
#
# 1 169.3094 6.6720 36.5485 -5.2778 -44.2889 28.1427
# 2 6.6720 118.2198 14.6093 -42.3052 -12.5792 16.9632
# 3 36.5485 14.6093 100.4117 -7.9414 -41.1623 14.8515
# 4 -5.2778 -42.3052 -7.9414 38.9658 -0.6125 -9.4376
# 5 -44.2889 -12.5792 -41.1623 -0.6125 65.5963 -2.0992
# 6 28.1427 16.9632 14.8515 -9.4376 -2.0992 30.7774
#
#
#
# Elastic Compliance Matrix: (Units=1/GPa)
#
#
# Indices 1 2 3 4 5 6 
#
# 1 0.008845 0.001798 0.000483 0.001295 0.006361 -0.008481
# 2 0.001798 0.015097 0.001155 0.015637 0.004807 -0.005399
# 3 0.000483 0.001155 0.014778 0.002866 0.009634 -0.006674
# 4 0.001295 0.015637 0.002866 0.044171 0.006173 0.002780
# 5 0.006361 0.004807 0.009634 0.006173 0.026263 -0.009431
# 6 -0.008481 -0.005399 -0.006674 0.002780 -0.009431 0.046652
#
#
# Mechanical properties :
#
#
# Convention : Reuss Voigt Hill
#
# Bulk Modulus (GPa) = 21.93332 55.95562 38.94447
# Shear Modulus (GPa) = 30.46345 49.07531 39.76938
#
# Velocity S-wave (km/s) = 3.32043 4.21441 3.79384
# Velocity P-wave (km/s) = 4.75798 6.62819 5.76937
#
# Compressibility (1/GPa) = 0.04559274
#
# Stress axis : x y z
#
# Youngs Moduli (GPa) = 113.05545 66.23980 67.66655
#
# Poissons Ratio (x) = -0.11911 -0.03270
# Poissons Ratio (y) = -0.20329 -0.07815
# Poissons Ratio (z) = -0.05463 -0.07650
#
# Static dielectric constant tensor:
#      x y z
#    x 2.170160 -0.012100 0.066160 
#    y -0.012100 2.052930 -0.054590 
#    z 0.066160 -0.054590 2.062780 
# 
# From -- ./inp_files/502569.got.cif
#   From: 2010.05.17/outbox.cif.g08.bks.cpg/sg2_252_cif.got.tgz:502569.got - 2010.06.03 11:33:40.
