data_PCOD9006056
_publ_section_title
;
Structure prediction by ZEFSAII (Michael W. Deem and Ramdas Pophale) SiO2 
 PCOD9006056
Probable space group: P -1
;
_chemical_formula_sum "Si O2"
_cell_formula_units_Z 16
_cell_length_a 23.726580
_cell_length_b 23.729409
_cell_length_c 8.581659
_cell_angle_alpha 134.804972
_cell_angle_beta 135.069229
_cell_angle_gamma 12.483355
_cell_volume 734.721007
_symmetry_space_group_name_H-M "P -1"
_symmetry_group_IT_number 2
_symmetry_cell_setting 'triclinic'
loop_
_space_group_symop_operation_xyz
x,y,z
-x,-y,-z
loop_
_atom_site_type_symbol
_atom_site_label
_atom_site_fract_x
_atom_site_fract_y
_atom_site_fract_z
Si Si1 0.227965 0.727607 0.477695
Si Si2 0.288055 0.974834 0.714558
Si Si3 0.752720 0.800512 0.926186
Si Si4 0.796141 0.738769 0.266103
Si Si5 0.261018 0.760560 0.942608
Si Si6 0.060351 0.647663 0.730242
Si Si7 0.778234 0.443775 0.818693
Si Si8 0.610371 0.177272 0.736370
O O1 0.500000 0.500000 0.500000
O O2 0.209066 0.652904 0.258623
O O3 0.228760 0.737714 0.683299
O O4 0.000000 0.000000 0.500000
O O5 0.990760 0.238140 0.695923
O O6 0.494573 0.732568 0.755495
O O7 0.345389 0.898263 0.498930
O O8 0.311487 0.046784 0.926807
O O9 0.028464 0.505130 0.829151
O O10 0.506343 0.984071 0.736612
O O11 0.776143 0.767592 0.095445
O O12 0.949708 0.668412 0.496276
O O13 0.330230 0.785214 0.078745
O O14 0.500000 0.500000 0.000000
O O15 0.000000 0.000000 0.000000
O O16 0.319214 0.430321 0.718398
O O17 0.134929 0.576416 0.919088
O O18 0.823705 0.933192 0.789263
#
# Coordination Sequence:
#
# PCOD9006056 Si02
#       8
#     2   2   2   2   2   2   2   2
#     4  12  24  44  68  92 126 176 218 256 316 387
#     4  12  24  43  64  97 130 171 207 264 329 378
#     4  10  21  38  64  94 123 164 212 262 311 377
#     4  10  21  38  64  94 123 162 216 264 305 369
#     4  12  24  42  64  96 129 164 211 271 321 371
#     4  12  24  43  64  97 126 169 213 268 311 374
#     4  12  26  43  64  95 137 167 207 265 328 383
#     4  12  24  41  68  94 125 166 223 262 312 378
#
# _framework density 21.776973000000002
#
# number of rings (size 3 to 8) (size 9 to 14) (size 15 to 20)
#    0.000    0.500    1.250    8.250    3.500    0.000 
#    0.000    3.750    0.000    0.000    0.000    0.000 
#    0.000    0.000    0.000    0.000    0.000    0.000 
#
# Total GULP energy -89574.822157 kJ/mol
# GULP energy per Si atom -5598.426385 kJ/mol
# Density = 2.172741 g / cm^3
# Si number density = 21.776973 Si / 1000 Ang^3
#
#
#
# Elastic Constant Matrix: (Units=GPa)
#
#
# Indices 1 2 3 4 5 6 
#
# 1 35.9962 12.7044 3.3277 5.7276 14.2498 -5.1017
# 2 12.7044 116.1959 8.5729 9.1098 6.7838 -4.5856
# 3 3.3277 8.5729 85.1671 -9.3473 4.9869 -6.2220
# 4 5.7276 9.1098 -9.3473 24.0762 2.6811 4.8059
# 5 14.2498 6.7838 4.9869 2.6811 44.7326 1.8406
# 6 -5.1017 -4.5856 -6.2220 4.8059 1.8406 45.6062
#
#
#
# Elastic Compliance Matrix: (Units=1/GPa)
#
#
# Indices 1 2 3 4 5 6 
#
# 1 0.034648 -0.002335 -0.000998 -0.007539 -0.010314 0.004716
# 2 -0.002335 0.009280 -0.001144 -0.003540 -0.000361 0.000903
# 3 -0.000998 -0.001144 0.012649 0.005532 -0.001290 0.000968
# 4 -0.007539 -0.003540 0.005532 0.047946 -0.000326 -0.005484
# 5 -0.010314 -0.000361 -0.001290 -0.000326 0.025957 -0.002379
# 6 0.004716 0.000903 0.000968 -0.005484 -0.002379 0.023351
#
#
# Mechanical properties :
#
#
# Convention : Reuss Voigt Hill
#
# Bulk Modulus (GPa) = 20.99833 31.84101 26.41967
# Shear Modulus (GPa) = 27.98597 37.06660 32.52628
#
# Velocity S-wave (km/s) = 3.58874 4.13013 3.86892
# Velocity P-wave (km/s) = 5.18030 6.11532 5.66712
#
# Compressibility (1/GPa) = 0.04762283
#
# Stress axis : x y z
#
# Youngs Moduli (GPa) = 28.86154 107.75642 79.05646
#
# Poissons Ratio (x) = 0.25165 0.07887
# Poissons Ratio (y) = 0.06740 0.09047
# Poissons Ratio (z) = 0.02880 0.12331
#
# Static dielectric constant tensor:
#      x y z
#    x 1.799340 -0.007700 0.020150 
#    y -0.007700 1.736640 -0.005990 
#    z 0.020150 -0.005990 1.757380 
# 
# From -- ./inp_files/343207.got.cif
#   From: 2010.05.17/outbox.cif.g08.bks.cpg/sg2_172_cif.got.tgz:343207.got - 2010.06.03 11:33:40.
