data_PCOD9006994
_publ_section_title
;
Structure prediction by ZEFSAII (Michael W. Deem and Ramdas Pophale) SiO2 
 PCOD9006994
Probable space group: P -1
;
_chemical_formula_sum "Si O2"
_cell_formula_units_Z 16
_cell_length_a 8.222814
_cell_length_b 25.213269
_cell_length_c 5.207503
_cell_angle_alpha 91.335636
_cell_angle_beta 93.620212
_cell_angle_gamma 147.051476
_cell_volume 580.210883
_symmetry_space_group_name_H-M "P -1"
_symmetry_group_IT_number 2
_symmetry_cell_setting 'triclinic'
loop_
_space_group_symop_operation_xyz
x,y,z
-x,-y,-z
loop_
_atom_site_type_symbol
_atom_site_label
_atom_site_fract_x
_atom_site_fract_y
_atom_site_fract_z
Si Si1 0.461711 0.042787 0.154422
Si Si2 0.958558 0.935926 0.768044
Si Si3 0.276322 0.218306 0.625863
Si Si4 0.830510 0.353139 0.008282
Si Si5 0.007412 0.239580 0.920579
Si Si6 0.596897 0.386648 0.279605
Si Si7 0.808573 0.555181 0.459363
Si Si8 0.506129 0.129537 0.553637
O O1 0.515383 0.070277 0.457659
O O2 0.736960 0.153287 0.078362
O O3 0.500000 0.000000 0.000000
O O4 0.111779 0.961203 0.051181
O O5 0.921140 0.873606 0.582443
O O6 0.633653 0.873868 0.688833
O O7 0.224292 0.048584 0.710438
O O8 0.465666 0.307594 0.458076
O O9 0.511771 0.250528 0.832347
O O10 0.096197 0.209638 0.783124
O O11 0.077187 0.409746 0.818969
O O12 0.945598 0.361259 0.289892
O O13 0.765613 0.397386 0.082447
O O14 0.838360 0.232199 0.703774
O O15 0.313604 0.338422 0.106167
O O16 0.762595 0.478548 0.459967
O O17 0.500000 0.500000 0.500000
#
# Coordination Sequence:
#
# PCOD9006994 Si02
#       8
#     2   2   2   2   2   2   2   2
#     4  11  20  36  60  87 127 170 227 274 334 395
#     4  10  22  38  61  89 128 178 219 283 336 407
#     4  11  23  42  66  99 130 174 234 275 342 397
#     4  11  25  48  73 105 138 185 230 281 340 423
#     4  10  22  37  60  94 125 172 221 283 327 403
#     4  11  24  43  74  97 137 179 232 282 342 416
#     4  12  27  48  74 106 142 179 227 282 353 415
#     4  10  21  39  58  89 131 173 227 272 347 394
#
# _framework density 27.576181999999999
#
# number of rings (size 3 to 8) (size 9 to 14) (size 15 to 20)
#    0.000    1.250    1.250    4.500    3.500    4.000 
#    4.500    0.000    0.000    0.000    0.000    0.000 
#    0.000    0.000    0.000    0.000    0.000    0.000 
#
# Total GULP energy -89485.754563 kJ/mol
# GULP energy per Si atom -5592.859660 kJ/mol
# Density = 2.751342 g / cm^3
# Si number density = 27.576182 Si / 1000 Ang^3
#
#
#
# Elastic Constant Matrix: (Units=GPa)
#
#
# Indices 1 2 3 4 5 6 
#
# 1 119.8951 29.2753 27.2640 -9.6617 -19.9382 32.2068
# 2 29.2753 84.9933 38.5685 5.0420 -20.2084 8.2778
# 3 27.2640 38.5685 134.7949 20.1665 2.5075 16.1715
# 4 -9.6617 5.0420 20.1665 49.2497 22.7947 -1.7722
# 5 -19.9382 -20.2084 2.5075 22.7947 52.4140 4.4597
# 6 32.2068 8.2778 16.1715 -1.7722 4.4597 50.9758
#
#
#
# Elastic Compliance Matrix: (Units=1/GPa)
#
#
# Indices 1 2 3 4 5 6 
#
# 1 0.011696 -0.001914 -0.001181 0.000878 0.003984 -0.007022
# 2 -0.001914 0.016232 -0.003659 -0.004082 0.007572 -0.001070
# 3 -0.001181 -0.003659 0.009444 -0.003486 -0.000650 -0.001720
# 4 0.000878 -0.004082 -0.003486 0.028894 -0.013932 0.003438
# 5 0.003984 0.007572 -0.000650 -0.013932 0.030170 -0.006664
# 6 -0.007022 -0.001070 -0.001720 0.003438 -0.006664 0.025476
#
#
# Mechanical properties :
#
#
# Convention : Reuss Voigt Hill
#
# Bulk Modulus (GPa) = 41.90279 58.87768 50.39023
# Shear Modulus (GPa) = 34.87367 46.83293 40.85330
#
# Velocity S-wave (km/s) = 3.56002 4.12553 3.85316
# Velocity P-wave (km/s) = 5.66803 6.64007 6.17322
#
# Compressibility (1/GPa) = 0.02386476
#
# Stress axis : x y z
#
# Youngs Moduli (GPa) = 85.49954 61.60728 105.88234
#
# Poissons Ratio (x) = 0.11789 0.12505
# Poissons Ratio (y) = 0.16361 0.38743
# Poissons Ratio (z) = 0.10098 0.22543
#
# Static dielectric constant tensor:
#      x y z
#    x 2.275120 -0.041650 0.078190 
#    y -0.041650 2.131510 -0.062210 
#    z 0.078190 -0.062210 2.197180 
# 
# From -- ./inp_files/56928.got.cif
#   From: 2010.05.17/outbox.cif.g08.bks.cpg/sg2_29_cif.got.tgz:56928.got - 2010.06.03 11:33:40.
