data_PCOD9006363
_publ_section_title
;
Structure prediction by ZEFSAII (Michael W. Deem and Ramdas Pophale) SiO2 
 PCOD9006363
Probable space group: P -1
;
_chemical_formula_sum "Si O2"
_cell_formula_units_Z 16
_cell_length_a 9.680834
_cell_length_b 13.590285
_cell_length_c 11.923987
_cell_angle_alpha 110.758719
_cell_angle_beta 150.751530
_cell_angle_gamma 79.725977
_cell_volume 686.700517
_symmetry_space_group_name_H-M "P -1"
_symmetry_group_IT_number 2
_symmetry_cell_setting 'triclinic'
loop_
_space_group_symop_operation_xyz
x,y,z
-x,-y,-z
loop_
_atom_site_type_symbol
_atom_site_label
_atom_site_fract_x
_atom_site_fract_y
_atom_site_fract_z
Si Si1 0.170978 0.098729 0.082213
Si Si2 0.766368 0.331154 0.750284
Si Si3 0.272442 0.705855 0.809426
Si Si4 0.129508 0.274046 0.281663
Si Si5 0.062176 0.487722 0.225236
Si Si6 0.304742 0.080737 0.916338
Si Si7 0.134654 0.825215 0.404122
Si Si8 0.821148 0.637158 0.266953
O O1 0.068156 0.202322 0.095953
O O2 0.159975 0.068960 0.932306
O O3 0.522545 0.129470 0.357453
O O4 0.000000 0.000000 0.000000
O O5 0.445723 0.264480 0.540662
O O6 0.724384 0.405469 0.642118
O O7 0.958045 0.258026 0.802199
O O8 0.911440 0.412012 0.984497
O O9 0.488979 0.797166 0.920444
O O10 0.125056 0.763939 0.823017
O O11 0.988157 0.635817 0.504959
O O12 0.494370 0.650115 0.012246
O O13 0.170978 0.403637 0.344732
O O14 0.851551 0.536934 0.171576
O O15 0.011088 0.078054 0.639160
O O16 0.500000 0.000000 0.000000
O O17 0.039140 0.746160 0.409733
#
# Coordination Sequence:
#
# PCOD9006363 Si02
#       8
#     2   2   2   2   2   2   2   2
#     4  11  23  43  66  98 131 172 226 281 343 402
#     4   9  20  39  62  95 133 172 226 270 342 397
#     4  11  25  45  65 100 138 182 224 280 339 403
#     4  11  24  39  65  94 135 171 227 280 334 400
#     4  10  21  38  65  97 126 182 223 277 327 405
#     4  11  23  43  69  95 130 177 227 279 342 406
#     4   9  20  42  66  96 129 177 218 280 333 410
#     4  10  23  43  69  94 141 181 226 274 339 401
#
# _framework density 23.299821999999999
#
# number of rings (size 3 to 8) (size 9 to 14) (size 15 to 20)
#    0.000    1.750    1.250    1.875    3.500    3.000 
#    2.250    0.000    0.000    0.000    0.000    0.000 
#    0.000    0.000    0.000    0.000    0.000    0.000 
#
# Total GULP energy -89071.084463 kJ/mol
# GULP energy per Si atom -5566.942779 kJ/mol
# Density = 2.324679 g / cm^3
# Si number density = 23.299822 Si / 1000 Ang^3
#
#
#
# Elastic Constant Matrix: (Units=GPa)
#
#
# Indices 1 2 3 4 5 6 
#
# 1 125.1044 38.3215 27.9213 -8.5113 11.2330 -2.1635
# 2 38.3215 104.3201 17.8058 -17.4229 12.4386 -14.3763
# 3 27.9213 17.8058 59.3609 -15.8868 0.6049 -0.4714
# 4 -8.5113 -17.4229 -15.8868 22.9798 -1.8619 11.2606
# 5 11.2330 12.4386 0.6049 -1.8619 36.3165 6.4710
# 6 -2.1635 -14.3763 -0.4714 11.2606 6.4710 39.2403
#
#
#
# Elastic Compliance Matrix: (Units=1/GPa)
#
#
# Indices 1 2 3 4 5 6 
#
# 1 0.009909 -0.002920 -0.004241 -0.001792 -0.002138 0.000292
# 2 -0.002920 0.012709 -0.000742 0.006098 -0.003722 0.003350
# 3 -0.004241 -0.000742 0.023590 0.017199 0.003064 -0.005663
# 4 -0.001792 0.006098 0.017199 0.068675 0.004939 -0.018180
# 5 -0.002138 -0.003722 0.003064 0.004939 0.031098 -0.007990
# 6 0.000292 0.003350 -0.005663 -0.018180 -0.007990 0.033194
#
#
# Mechanical properties :
#
#
# Convention : Reuss Voigt Hill
#
# Bulk Modulus (GPa) = 32.89184 50.76473 41.82829
# Shear Modulus (GPa) = 24.37649 33.35645 28.86647
#
# Velocity S-wave (km/s) = 3.23802 3.78778 3.52364
# Velocity P-wave (km/s) = 5.30350 6.40036 5.87757
#
# Compressibility (1/GPa) = 0.03040268
#
# Stress axis : x y z
#
# Youngs Moduli (GPa) = 100.91384 78.68295 42.39083
#
# Poissons Ratio (x) = 0.22979 0.17976
# Poissons Ratio (y) = 0.29472 0.03145
# Poissons Ratio (z) = 0.42793 0.05838
#
# Static dielectric constant tensor:
#      x y z
#    x 1.944890 0.016620 -0.099490 
#    y 0.016620 1.933120 -0.034680 
#    z -0.099490 -0.034680 2.003040 
# 
# From -- ./inp_files/37403.got.cif
#   From: 2010.05.17/outbox.cif.g08.bks.cpg/sg2_19_cif.got.tgz:37403.got - 2010.06.03 11:33:40.
