data_PCOD9006927
_publ_section_title
;
Structure prediction by ZEFSAII (Michael W. Deem and Ramdas Pophale) SiO2 
 PCOD9006927
Probable space group: P -1
;
_chemical_formula_sum "Si O2"
_cell_formula_units_Z 16
_cell_length_a 8.157514
_cell_length_b 13.797553
_cell_length_c 14.346288
_cell_angle_alpha 139.937802
_cell_angle_beta 58.715399
_cell_angle_gamma 140.048310
_cell_volume 658.420200
_symmetry_space_group_name_H-M "P -1"
_symmetry_group_IT_number 2
_symmetry_cell_setting 'triclinic'
loop_
_space_group_symop_operation_xyz
x,y,z
-x,-y,-z
loop_
_atom_site_type_symbol
_atom_site_label
_atom_site_fract_x
_atom_site_fract_y
_atom_site_fract_z
Si Si1 0.409653 0.629245 0.977065
Si Si2 0.076119 0.319341 0.701913
Si Si3 0.528121 0.674902 0.496352
Si Si4 0.534129 0.171656 0.711274
Si Si5 0.260006 0.738317 0.480931
Si Si6 0.712947 0.359812 0.286184
Si Si7 0.810129 0.759265 0.808889
Si Si8 0.326568 0.000162 0.935721
O O1 0.167332 0.410689 0.846330
O O2 0.655262 0.674302 0.891430
O O3 0.428108 0.802888 0.047201
O O4 0.555810 0.317919 0.886085
O O5 0.201729 0.232435 0.561704
O O6 0.217754 0.516950 0.737873
O O7 0.776028 0.189033 0.678557
O O8 0.402027 0.750698 0.538375
O O9 0.520250 0.698973 0.625916
O O10 0.329371 0.435398 0.355386
O O11 0.585517 0.241529 0.640885
O O12 0.284524 0.932440 0.613750
O O13 0.971392 0.525683 0.394463
O O14 0.667861 0.159535 0.138908
O O15 0.103051 0.877922 0.832593
O O16 0.766903 0.910733 0.905352
#
# Coordination Sequence:
#
# PCOD9006927 Si02
#       8
#     2   2   2   2   2   2   2   2
#     4   9  18  35  59  76 112 155 181 224 284 334
#     4  10  23  38  53  83 120 153 188 232 270 343
#     4  11  20  37  58  86 115 148 181 238 296 324
#     4  10  21  39  57  81 112 153 196 230 275 329
#     4  10  22  35  59  86 109 144 195 240 270 338
#     4  11  21  34  62  87 116 145 189 229 291 338
#     4   8  18  31  54  86 113 136 179 234 283 331
#     4   9  17  33  56  86 112 143 177 237 285 333
#
# _framework density 24.300591000000001
#
# number of rings (size 3 to 8) (size 9 to 14) (size 15 to 20)
#    0.750    1.500    1.250    1.875    1.750    1.000 
#    0.000    2.500    2.750    0.000    0.000    0.000 
#    0.000    0.000    0.000    0.000    0.000    0.000 
#
# Total GULP energy -89345.897030 kJ/mol
# GULP energy per Si atom -5584.118564 kJ/mol
# Density = 2.424528 g / cm^3
# Si number density = 24.300591 Si / 1000 Ang^3
#
#
#
# Elastic Constant Matrix: (Units=GPa)
#
#
# Indices 1 2 3 4 5 6 
#
# 1 30.1440 4.6202 2.5589 -6.8718 -0.0690 6.0105
# 2 4.6202 59.7622 34.4281 -7.8265 3.1704 -4.8594
# 3 2.5589 34.4281 112.8995 -23.1147 1.9618 -1.2763
# 4 -6.8718 -7.8265 -23.1147 38.9731 -5.5445 12.0037
# 5 -0.0690 3.1704 1.9618 -5.5445 35.5078 1.4286
# 6 6.0105 -4.8594 -1.2763 12.0037 1.4286 31.4101
#
#
#
# Elastic Compliance Matrix: (Units=1/GPa)
#
#
# Indices 1 2 3 4 5 6 
#
# 1 0.038794 -0.004118 0.002607 0.011814 0.002650 -0.012590
# 2 -0.004118 0.021121 -0.006711 -0.002212 -0.002058 0.004722
# 3 0.002607 -0.006711 0.012397 0.007922 0.001322 -0.004121
# 4 0.011814 -0.002212 0.007922 0.038201 0.006439 -0.017173
# 5 0.002650 -0.002058 0.001322 0.006439 0.029468 -0.004573
# 6 -0.012590 0.004722 -0.004121 -0.017173 -0.004573 0.041580
#
#
# Mechanical properties :
#
#
# Convention : Reuss Voigt Hill
#
# Bulk Modulus (GPa) = 17.89959 31.78000 24.83979
# Shear Modulus (GPa) = 23.08101 31.92477 27.50289
#
# Velocity S-wave (km/s) = 3.08525 3.62849 3.36784
# Velocity P-wave (km/s) = 4.48035 5.53723 5.03659
#
# Compressibility (1/GPa) = 0.05586720
#
# Stress axis : x y z
#
# Youngs Moduli (GPa) = 25.77744 47.34621 80.66301
#
# Poissons Ratio (x) = 0.19498 -0.21028
# Poissons Ratio (y) = 0.10615 0.54134
# Poissons Ratio (z) = -0.06720 0.31775
#
# Static dielectric constant tensor:
#      x y z
#    x 1.952900 0.016450 0.001500 
#    y 0.016450 1.938550 -0.012440 
#    z 0.001500 -0.012440 1.956100 
# 
# From -- ./inp_files/560912.got.cif
#   From: 2010.05.17/outbox.cif.g08.bks.cpg/sg2_281_cif.got.tgz:560912.got - 2010.06.03 11:33:40.
