data_PCOD9006401
_publ_section_title
;
Structure prediction by ZEFSAII (Michael W. Deem and Ramdas Pophale) SiO2 
 PCOD9006401
Probable space group: P -1
;
_chemical_formula_sum "Si O2"
_cell_formula_units_Z 15
_cell_length_a 15.053027
_cell_length_b 21.068924
_cell_length_c 12.488357
_cell_angle_alpha 29.622734
_cell_angle_beta 142.420525
_cell_angle_gamma 160.354354
_cell_volume 649.964700
_symmetry_space_group_name_H-M "P -1"
_symmetry_group_IT_number 2
_symmetry_cell_setting 'triclinic'
loop_
_space_group_symop_operation_xyz
x,y,z
-x,-y,-z
loop_
_atom_site_type_symbol
_atom_site_label
_atom_site_fract_x
_atom_site_fract_y
_atom_site_fract_z
Si Si1 0.043188 0.935858 0.293847
Si Si2 0.719374 0.863438 0.449354
Si Si3 0.750183 0.110856 0.286415
Si Si4 0.290697 0.593990 0.017400
Si Si5 0.403233 0.385686 0.844379
Si Si6 0.500000 0.000000 0.500000
Si Si7 0.259018 0.075552 0.859812
Si Si8 0.172063 0.750132 0.336278
O O1 0.826821 0.761194 0.249079
O O2 0.899325 0.909167 0.289641
O O3 0.160771 0.888337 0.516639
O O4 0.277465 0.198279 0.086485
O O5 0.508579 0.599349 0.670017
O O6 0.659320 0.874140 0.258620
O O7 0.728055 0.979823 0.373606
O O8 0.000000 0.000000 0.500000
O O9 0.984706 0.374461 0.081932
O O10 0.461212 0.954885 0.254504
O O11 0.355966 0.514248 0.128763
O O12 0.478905 0.721903 0.113295
O O13 0.392963 0.789927 0.761612
O O14 0.248063 0.806580 0.451214
O O15 0.079978 0.823309 0.101166
O O16 0.000000 0.500000 0.500000
#
# Coordination Sequence:
#
# PCOD9006401 Si02
#       8
#     2   2   2   2   2   1   2   2
#     4  10  21  40  68  96 127 177 230 278 336 409
#     4  12  23  39  64 102 135 178 217 283 343 402
#     4  12  25  42  69 102 132 179 231 278 344 410
#     4  10  21  43  68  98 135 177 233 285 333 416
#     4  10  21  38  65  99 134 170 222 288 341 397
#     4  10  24  48  74  94 134 188 222 278 354 402
#     4  10  23  43  64  94 137 178 223 279 345 400
#     4  11  28  49  68 100 140 182 228 292 341 414
#
# _framework density 23.078177
#
# number of rings (size 3 to 8) (size 9 to 14) (size 15 to 20)
#    0.000    1.333    2.667    1.600    3.733    7.467 
#    2.400    0.000    0.000    0.000    0.000    0.000 
#    0.000    0.000    0.000    0.000    0.000    0.000 
#
# Total GULP energy -83725.988595 kJ/mol
# GULP energy per Si atom -5581.732573 kJ/mol
# Density = 2.302565 g / cm^3
# Si number density = 23.078177 Si / 1000 Ang^3
#
#
#
# Elastic Constant Matrix: (Units=GPa)
#
#
# Indices 1 2 3 4 5 6 
#
# 1 47.1338 5.9938 -9.3682 -4.6331 6.2357 -4.6024
# 2 5.9938 45.9471 31.1504 -19.7133 1.4830 4.9446
# 3 -9.3682 31.1504 84.0600 -6.0837 1.5671 -11.7456
# 4 -4.6331 -19.7133 -6.0837 40.8883 -7.1444 4.2651
# 5 6.2357 1.4830 1.5671 -7.1444 34.4408 -3.5705
# 6 -4.6024 4.9446 -11.7456 4.2651 -3.5705 30.2713
#
#
#
# Elastic Compliance Matrix: (Units=1/GPa)
#
#
# Indices 1 2 3 4 5 6 
#
# 1 0.025191 -0.010427 0.007735 -0.002623 -0.004135 0.008416
# 2 -0.010427 0.048295 -0.020348 0.021719 0.003160 -0.020057
# 3 0.007735 -0.020348 0.021717 -0.007424 -0.001624 0.013781
# 4 -0.002623 0.021719 -0.007424 0.035762 0.006141 -0.011141
# 5 -0.004135 0.003160 -0.001624 0.006141 0.031102 0.001028
# 6 0.008416 -0.020057 0.013781 -0.011141 0.001028 0.044628
#
#
# Mechanical properties :
#
#
# Convention : Reuss Voigt Hill
#
# Bulk Modulus (GPa) = 20.35796 25.85476 23.10636
# Shear Modulus (GPa) = 18.57692 31.07773 24.82733
#
# Velocity S-wave (km/s) = 2.84025 3.67362 3.28349
# Velocity P-wave (km/s) = 4.42679 5.40569 4.94055
#
# Compressibility (1/GPa) = 0.04912085
#
# Stress axis : x y z
#
# Youngs Moduli (GPa) = 39.69731 20.70615 46.04602
#
# Poissons Ratio (x) = 0.21591 -0.35616
# Poissons Ratio (y) = 0.41394 0.93696
# Poissons Ratio (z) = -0.30705 0.42134
#
# Static dielectric constant tensor:
#      x y z
#    x 1.882850 0.042230 -0.020160 
#    y 0.042230 1.864160 0.014720 
#    z -0.020160 0.014720 1.861200 
# 
# From -- ./inp_files/180566.got.cif
#   From: 2010.05.17/outbox.cif.g08.bks.cpg/sg2_91_cif.got.tgz:180566.got - 2010.06.03 11:33:40.
