data_PCOD9006112
_publ_section_title
;
Structure prediction by ZEFSAII (Michael W. Deem and Ramdas Pophale) SiO2 
 PCOD9006112
Probable space group: P -1
;
_chemical_formula_sum "Si O2"
_cell_formula_units_Z 13
_cell_length_a 8.670781
_cell_length_b 8.795091
_cell_length_c 10.259553
_cell_angle_alpha 54.806535
_cell_angle_beta 110.794955
_cell_angle_gamma 124.484601
_cell_volume 526.550576
_symmetry_space_group_name_H-M "P -1"
_symmetry_group_IT_number 2
_symmetry_cell_setting 'triclinic'
loop_
_space_group_symop_operation_xyz
x,y,z
-x,-y,-z
loop_
_atom_site_type_symbol
_atom_site_label
_atom_site_fract_x
_atom_site_fract_y
_atom_site_fract_z
Si Si1 0.060063 0.324226 0.785811
Si Si2 0.090290 0.948019 0.862188
Si Si3 0.466366 0.651464 0.818211
Si Si4 0.579605 0.978242 0.395469
Si Si5 0.500000 0.000000 0.000000
Si Si6 0.708564 0.380707 0.677889
Si Si7 0.200743 0.203458 0.362733
O O1 0.264221 0.522130 0.756235
O O2 0.896491 0.381987 0.682757
O O3 0.060313 0.152137 0.772895
O O4 0.012178 0.208365 0.970074
O O5 0.980002 0.838148 0.753465
O O6 0.308705 0.018278 0.896602
O O7 0.634464 0.721458 0.733026
O O8 0.455575 0.851612 0.784357
O O9 0.500000 0.500000 0.000000
O O10 0.450681 0.750021 0.409713
O O11 0.780656 0.992598 0.472335
O O12 0.500000 0.000000 0.500000
O O13 0.364473 0.764824 0.142699
O O14 0.751368 0.614259 0.608949
#
# Coordination Sequence:
#
# PCOD9006112 Si02
#       7
#     2   2   2   2   1   2   2
#     4  10  21  38  64  97 129 175 222 280 323 397
#     4  10  21  40  64  95 137 173 224 275 341 389
#     4  11  22  40  70  99 128 174 230 269 327 392
#     4  10  24  44  67  95 135 181 221 271 333 410
#     4  10  24  38  66 104 132 168 226 288 326 384
#     4  11  24  41  66  99 138 172 224 275 341 388
#     4  11  23  43  65  97 139 177 216 277 342 399
#
# _framework density 24.688988999999999
#
# number of rings (size 3 to 8) (size 9 to 14) (size 15 to 20)
#    0.000    1.538    1.538    3.231    6.462    3.692 
#    0.000   11.538    0.000    0.000    0.000    0.000 
#    0.000    0.000    0.000    0.000    0.000    0.000 
#
# Total GULP energy -72545.052288 kJ/mol
# GULP energy per Si atom -5580.388638 kJ/mol
# Density = 2.463280 g / cm^3
# Si number density = 24.688989 Si / 1000 Ang^3
#
#
#
# Elastic Constant Matrix: (Units=GPa)
#
#
# Indices 1 2 3 4 5 6 
#
# 1 71.9499 8.4948 30.3890 -23.8815 -8.2412 5.6396
# 2 8.4948 84.2200 11.3034 0.7912 -0.8668 -16.5680
# 3 30.3890 11.3034 84.4927 -5.2799 22.8892 -11.2680
# 4 -23.8815 0.7912 -5.2799 28.7384 -2.5835 4.5241
# 5 -8.2412 -0.8668 22.8892 -2.5835 41.8508 -12.6503
# 6 5.6396 -16.5680 -11.2680 4.5241 -12.6503 52.6955
#
#
#
# Elastic Compliance Matrix: (Units=1/GPa)
#
#
# Indices 1 2 3 4 5 6 
#
# 1 0.029709 -0.002487 -0.013036 0.024415 0.012682 -0.005801
# 2 -0.002487 0.013246 -0.000839 -0.003219 0.001524 0.004894
# 3 -0.013036 -0.000839 0.020062 -0.008783 -0.013189 0.003009
# 4 0.024415 -0.003219 -0.008783 0.055735 0.010648 -0.007732
# 5 0.012682 0.001524 -0.013189 0.010648 0.035474 0.003903
# 6 -0.005801 0.004894 0.003009 -0.007732 0.003903 0.023381
#
#
# Mechanical properties :
#
#
# Convention : Reuss Voigt Hill
#
# Bulk Modulus (GPa) = 33.01150 37.89300 35.45225
# Shear Modulus (GPa) = 22.68319 37.35531 30.01925
#
# Velocity S-wave (km/s) = 3.03439 3.89400 3.49075
# Velocity P-wave (km/s) = 5.06721 5.96649 5.53515
#
# Compressibility (1/GPa) = 0.03029248
#
# Stress axis : x y z
#
# Youngs Moduli (GPa) = 33.65957 75.49631 49.84641
#
# Poissons Ratio (x) = 0.18775 0.64981
# Poissons Ratio (y) = 0.08371 0.04182
# Poissons Ratio (z) = 0.43879 0.06334
#
# Static dielectric constant tensor:
#      x y z
#    x 1.873120 -0.084550 -0.058200 
#    y -0.084550 2.042130 0.127520 
#    z -0.058200 0.127520 2.249120 
# 
# From -- ./inp_files/294372.got.cif
#   From: 2010.05.17/outbox.cif.g08.bks.cpg/sg2_148_cif.got.tgz:294372.got - 2010.06.03 11:33:40.
