data_PCOD9006111
_publ_section_title
;
Structure prediction by ZEFSAII (Michael W. Deem and Ramdas Pophale) SiO2 
 PCOD9006111
Probable space group: P -1
;
_chemical_formula_sum "Si O2"
_cell_formula_units_Z 16
_cell_length_a 14.160961
_cell_length_b 7.700236
_cell_length_c 12.186949
_cell_angle_alpha 109.745167
_cell_angle_beta 31.597902
_cell_angle_gamma 98.832301
_cell_volume 630.608837
_symmetry_space_group_name_H-M "P -1"
_symmetry_group_IT_number 2
_symmetry_cell_setting 'triclinic'
loop_
_space_group_symop_operation_xyz
x,y,z
-x,-y,-z
loop_
_atom_site_type_symbol
_atom_site_label
_atom_site_fract_x
_atom_site_fract_y
_atom_site_fract_z
Si Si1 0.761679 0.358441 0.183975
Si Si2 0.936420 0.782138 0.393917
Si Si3 0.418065 0.303501 0.013233
Si Si4 0.606713 0.181567 0.497825
Si Si5 0.244096 0.643693 0.404208
Si Si6 0.790493 0.769430 0.317577
Si Si7 0.720949 0.529729 0.040049
Si Si8 0.127353 0.110622 0.267629
O O1 0.333949 0.761664 0.667564
O O2 0.743641 0.571734 0.294600
O O3 0.673542 0.399450 0.157620
O O4 0.986410 0.264339 0.935918
O O5 0.773864 0.812025 0.473008
O O6 0.891293 0.838807 0.574941
O O7 0.057560 0.561544 0.209780
O O8 0.071600 0.917467 0.259475
O O9 0.327408 0.423689 0.236016
O O10 0.349753 0.453483 0.011265
O O11 0.330811 0.129281 0.040990
O O12 0.640365 0.250740 0.770244
O O13 0.705897 0.296212 0.511925
O O14 0.678731 0.959473 0.406894
O O15 0.387032 0.262438 0.762604
O O16 0.027874 0.725317 0.607122
#
# Coordination Sequence:
#
# PCOD9006111 Si02
#       8
#     2   2   2   2   2   2   2   2
#     4  10  23  41  65  91 121 171 217 266 329 381
#     4  10  22  40  59  96 130 162 222 265 315 399
#     4  10  22  39  64  96 129 170 211 265 330 383
#     4  11  22  41  66  90 130 171 207 276 330 376
#     4  10  21  38  64  97 128 164 219 265 317 403
#     4  10  22  42  62  94 126 160 221 279 308 397
#     4  10  22  42  60  90 133 161 216 272 315 391
#     4  11  21  39  67  90 130 180 206 262 334 387
#
# _framework density 25.372305000000001
#
# number of rings (size 3 to 8) (size 9 to 14) (size 15 to 20)
#    0.000    1.750    2.500    1.125    1.750    2.500 
#    9.000    2.500    0.000    0.000    0.000    0.000 
#    0.000    0.000    0.000    0.000    0.000    0.000 
#
# Total GULP energy -89366.345640 kJ/mol
# GULP energy per Si atom -5585.396603 kJ/mol
# Density = 2.531456 g / cm^3
# Si number density = 25.372305 Si / 1000 Ang^3
#
#
#
# Elastic Constant Matrix: (Units=GPa)
#
#
# Indices 1 2 3 4 5 6 
#
# 1 111.2713 37.6657 3.2742 17.7913 29.3721 -4.2885
# 2 37.6657 120.3217 29.6182 1.6824 -3.0497 -8.4748
# 3 3.2742 29.6182 62.6180 21.9363 -8.4635 -10.8585
# 4 17.7913 1.6824 21.9363 39.1270 0.6186 -8.4034
# 5 29.3721 -3.0497 -8.4635 0.6186 29.4776 -0.2379
# 6 -4.2885 -8.4748 -10.8585 -8.4034 -0.2379 36.4093
#
#
#
# Elastic Compliance Matrix: (Units=1/GPa)
#
#
# Indices 1 2 3 4 5 6 
#
# 1 0.016718 -0.006281 0.002853 -0.008843 -0.016310 -0.000790
# 2 -0.006281 0.012053 -0.006546 0.006263 0.005508 0.001595
# 3 0.002853 -0.006546 0.025045 -0.014484 0.003998 0.002965
# 4 -0.008843 0.006263 -0.014484 0.038431 0.004535 0.004996
# 5 -0.016310 0.005508 0.003998 0.004535 0.051814 0.001939
# 6 -0.000790 0.001595 0.002965 0.004996 0.001939 0.029794
#
#
# Mechanical properties :
#
#
# Convention : Reuss Voigt Hill
#
# Bulk Modulus (GPa) = 29.52503 48.36967 38.94735
# Shear Modulus (GPa) = 24.37934 35.91297 30.14615
#
# Velocity S-wave (km/s) = 3.10314 3.76631 3.45070
# Velocity P-wave (km/s) = 4.94988 6.16594 5.59107
#
# Compressibility (1/GPa) = 0.03386957
#
# Stress axis : x y z
#
# Youngs Moduli (GPa) = 59.81574 82.96713 39.92757
#
# Poissons Ratio (x) = 0.52113 -0.11393
# Poissons Ratio (y) = 0.37571 0.26135
# Poissons Ratio (z) = -0.17068 0.54308
#
# Static dielectric constant tensor:
#      x y z
#    x 2.026430 -0.009750 0.005010 
#    y -0.009750 1.990880 -0.020000 
#    z 0.005010 -0.020000 2.032730 
# 
# From -- ./inp_files/528896.got.cif
#   From: 2010.05.17/outbox.cif.g08.bks.cpg/sg2_265_cif.got.tgz:528896.got - 2010.06.03 11:33:40.
