data_PCOD9006755
_publ_section_title
;
Structure prediction by ZEFSAII (Michael W. Deem and Ramdas Pophale) SiO2 
 PCOD9006755
Probable space group: P -1
;
_chemical_formula_sum "Si O2"
_cell_formula_units_Z 16
_cell_length_a 10.325429
_cell_length_b 10.388726
_cell_length_c 10.410024
_cell_angle_alpha 56.510800
_cell_angle_beta 48.531921
_cell_angle_gamma 58.000638
_cell_volume 673.218900
_symmetry_space_group_name_H-M "P -1"
_symmetry_group_IT_number 2
_symmetry_cell_setting 'triclinic'
loop_
_space_group_symop_operation_xyz
x,y,z
-x,-y,-z
loop_
_atom_site_type_symbol
_atom_site_label
_atom_site_fract_x
_atom_site_fract_y
_atom_site_fract_z
Si Si1 0.844470 0.571699 0.665309
Si Si2 0.313709 0.518066 0.689094
Si Si3 0.200028 0.188177 0.937136
Si Si4 0.462097 0.642487 0.744795
Si Si5 0.081324 0.141305 0.631770
Si Si6 0.596691 0.884666 0.386912
Si Si7 0.868516 0.255450 0.937139
Si Si8 0.035803 0.865132 0.662991
O O1 0.649109 0.581337 0.729547
O O2 0.869850 0.441224 0.829491
O O3 0.000000 0.500000 0.500000
O O4 0.881205 0.743628 0.569186
O O5 0.500000 0.500000 0.500000
O O6 0.369408 0.522004 0.800681
O O7 0.166681 0.686488 0.657269
O O8 0.231960 0.365613 0.809646
O O9 0.367747 0.080791 0.802979
O O10 0.024990 0.177237 0.976185
O O11 0.146141 0.148963 0.137501
O O12 0.505689 0.741756 0.541199
O O13 0.320663 0.748918 0.877629
O O14 0.896554 0.191638 0.806451
O O15 0.209259 0.172805 0.642799
O O16 0.127417 0.963320 0.649533
O O17 0.500000 0.000000 0.500000
O O18 0.000000 0.000000 0.500000
#
# Coordination Sequence:
#
# PCOD9006755 Si02
#       8
#     2   2   2   2   2   2   2   2
#     4   9  20  38  63 102 140 181 225 289 362 426
#     4  12  26  46  73 101 146 192 251 291 354 444
#     4  11  25  44  72 106 138 196 242 296 359 438
#     4  11  21  38  65 104 135 182 233 295 357 428
#     4   9  22  39  63  98 135 182 225 298 357 420
#     4  10  21  38  68  97 136 172 233 298 359 415
#     4  10  21  38  71 102 141 172 245 295 369 424
#     4  12  28  47  70 104 146 199 244 294 366 428
#
# _framework density 23.766418000000002
#
# number of rings (size 3 to 8) (size 9 to 14) (size 15 to 20)
#    0.000    1.500    2.500    2.250    3.500    2.000 
#    0.000    0.625    0.000    0.000    0.000    0.000 
#    0.000    0.000    0.000    0.000    0.000    0.000 
#
# Total GULP energy -89109.940975 kJ/mol
# GULP energy per Si atom -5569.371311 kJ/mol
# Density = 2.371232 g / cm^3
# Si number density = 23.766418 Si / 1000 Ang^3
#
#
#
# Elastic Constant Matrix: (Units=GPa)
#
#
# Indices 1 2 3 4 5 6 
#
# 1 46.4385 11.9708 14.9403 7.2983 -7.2151 -1.9262
# 2 11.9708 112.8521 50.3200 -1.4517 2.8748 12.2229
# 3 14.9403 50.3200 174.8372 8.5110 15.5211 -16.0765
# 4 7.2983 -1.4517 8.5110 46.3870 -2.6992 -4.4294
# 5 -7.2151 2.8748 15.5211 -2.6992 28.6669 -1.9741
# 6 -1.9262 12.2229 -16.0765 -4.4294 -1.9741 27.9325
#
#
#
# Elastic Compliance Matrix: (Units=1/GPa)
#
#
# Indices 1 2 3 4 5 6 
#
# 1 0.024318 -0.002179 -0.001789 -0.002995 0.007138 0.001630
# 2 -0.002179 0.011622 -0.003864 0.000710 -0.000061 -0.007352
# 3 -0.001789 -0.003864 0.007914 -0.000985 -0.004049 0.005680
# 4 -0.002995 0.000710 -0.000985 0.022602 0.002018 0.002643
# 5 0.007138 -0.000061 -0.004049 0.002018 0.039157 0.001276
# 6 0.001630 -0.007352 0.005680 0.002643 0.001276 0.042908
#
#
# Mechanical properties :
#
#
# Convention : Reuss Voigt Hill
#
# Bulk Modulus (GPa) = 35.47176 54.28778 44.87977
# Shear Modulus (GPa) = 28.80485 37.72371 33.26428
#
# Velocity S-wave (km/s) = 3.48515 3.98838 3.74523
# Velocity P-wave (km/s) = 5.58145 6.64088 6.13408
#
# Compressibility (1/GPa) = 0.02819144
#
# Stress axis : x y z
#
# Youngs Moduli (GPa) = 41.12110 86.04307 126.35433
#
# Poissons Ratio (x) = 0.18747 0.22604
# Poissons Ratio (y) = 0.08960 0.48822
# Poissons Ratio (z) = 0.07356 0.33246
#
# Static dielectric constant tensor:
#      x y z
#    x 1.925150 -0.004070 -0.006940 
#    y -0.004070 2.108830 0.079590 
#    z -0.006940 0.079590 2.093880 
# 
# From -- ./inp_files/423175.got.cif
#   From: 2010.05.17/outbox.cif.g08.bks.cpg/sg2_212_cif.got.tgz:423175.got - 2010.06.03 11:33:40.
