data_PCOD9006165
_publ_section_title
;
Structure prediction by ZEFSAII (Michael W. Deem and Ramdas Pophale) SiO2 
 PCOD9006165
Probable space group: P -1
;
_chemical_formula_sum "Si O2"
_cell_formula_units_Z 16
_cell_length_a 9.410938
_cell_length_b 11.791215
_cell_length_c 12.900090
_cell_angle_alpha 115.241759
_cell_angle_beta 105.179360
_cell_angle_gamma 127.934198
_cell_volume 693.014330
_symmetry_space_group_name_H-M "P -1"
_symmetry_group_IT_number 2
_symmetry_cell_setting 'triclinic'
loop_
_space_group_symop_operation_xyz
x,y,z
-x,-y,-z
loop_
_atom_site_type_symbol
_atom_site_label
_atom_site_fract_x
_atom_site_fract_y
_atom_site_fract_z
Si Si1 0.991222 0.190935 0.905538
Si Si2 0.161350 0.273860 0.748158
Si Si3 0.372288 0.272229 0.090730
Si Si4 0.687006 0.073876 0.479828
Si Si5 0.398287 0.820782 0.691384
Si Si6 0.259353 0.959314 0.822090
Si Si7 0.663057 0.522722 0.461708
Si Si8 0.503027 0.279246 0.809931
O O1 0.989696 0.140438 0.767994
O O2 0.098885 0.155106 0.983129
O O3 0.219257 0.455635 0.042281
O O4 0.716144 0.050429 0.834511
O O5 0.445471 0.548083 0.901552
O O6 0.262046 0.205995 0.719057
O O7 0.974703 0.226379 0.623436
O O8 0.527675 0.430868 0.284764
O O9 0.311061 0.082126 0.981990
O O10 0.716039 0.186833 0.432584
O O11 0.500000 0.000000 0.500000
O O12 0.519697 0.832730 0.329465
O O13 0.305211 0.841011 0.779170
O O14 0.336880 0.630186 0.588742
O O15 0.967123 0.775009 0.644721
O O16 0.460467 0.163241 0.857073
O O17 0.500000 0.500000 0.500000
#
# Coordination Sequence:
#
# PCOD9006165 Si02
#       8
#     2   2   2   2   2   2   2   2
#     4  11  21  41  70 103 140 170 226 279 342 411
#     4  11  20  40  68 103 137 175 224 277 338 415
#     4  11  23  45  73 102 132 187 232 285 347 399
#     4  11  23  37  61  96 139 178 217 274 350 404
#     4  11  26  44  66 102 146 180 225 288 343 418
#     4  11  23  45  72 100 142 180 229 284 346 408
#     4  12  29  49  73  97 135 186 245 288 333 411
#     4  10  21  38  65 100 134 176 222 280 335 409
#
# _framework density 23.087546
#
# number of rings (size 3 to 8) (size 9 to 14) (size 15 to 20)
#    0.000    1.000    3.750    3.750    0.000    8.500 
#    0.000    1.250    0.000    0.000    0.000    0.000 
#    0.000    0.000    0.000    0.000    0.000    0.000 
#
# Total GULP energy -89210.369457 kJ/mol
# GULP energy per Si atom -5575.648091 kJ/mol
# Density = 2.303500 g / cm^3
# Si number density = 23.087546 Si / 1000 Ang^3
#
#
#
# Elastic Constant Matrix: (Units=GPa)
#
#
# Indices 1 2 3 4 5 6 
#
# 1 176.3543 3.4503 52.7982 -4.2711 -5.3711 -1.9608
# 2 3.4503 56.6675 8.8082 -1.6949 -10.2681 -10.1750
# 3 52.7982 8.8082 73.7093 -1.4727 5.0417 8.9363
# 4 -4.2711 -1.6949 -1.4727 35.5166 -9.5178 1.8330
# 5 -5.3711 -10.2681 5.0417 -9.5178 61.1203 -5.2504
# 6 -1.9608 -10.1750 8.9363 1.8330 -5.2504 40.6901
#
#
#
# Elastic Compliance Matrix: (Units=1/GPa)
#
#
# Indices 1 2 3 4 5 6 
#
# 1 0.007504 0.001171 -0.005865 0.001058 0.001686 0.002113
# 2 0.001171 0.020360 -0.004364 0.001860 0.004743 0.006634
# 3 -0.005865 -0.004364 0.019241 -0.000734 -0.003467 -0.006014
# 4 0.001058 0.001860 -0.000734 0.029706 0.005092 -0.000004
# 5 0.001686 0.004743 -0.003467 0.005092 0.018747 0.004218
# 6 0.002113 0.006634 -0.006014 -0.000004 0.004218 0.028202
#
#
# Mechanical properties :
#
#
# Convention : Reuss Voigt Hill
#
# Bulk Modulus (GPa) = 34.49488 48.53830 41.51659
# Shear Modulus (GPa) = 32.99477 43.57704 38.28591
#
# Velocity S-wave (km/s) = 3.78447 4.34922 4.07663
# Velocity P-wave (km/s) = 5.83692 6.80368 6.33876
#
# Compressibility (1/GPa) = 0.02898981
#
# Stress axis : x y z
#
# Youngs Moduli (GPa) = 133.26242 49.11592 51.97176
#
# Poissons Ratio (x) = -0.05753 0.30484
# Poissons Ratio (y) = -0.15610 0.22678
# Poissons Ratio (z) = 0.78164 0.21432
#
# Static dielectric constant tensor:
#      x y z
#    x 1.794310 0.073590 -0.189170 
#    y 0.073590 1.828080 0.127950 
#    z -0.189170 0.127950 1.611450 
# 
# From -- ./inp_files/500722.got.cif
#   From: 2010.05.17/outbox.cif.g08.bks.cpg/sg2_251_cif.got.tgz:500722.got - 2010.06.03 11:33:40.
