data_PCOD9006716
_publ_section_title
;
Structure prediction by ZEFSAII (Michael W. Deem and Ramdas Pophale) SiO2 
 PCOD9006716
Probable space group: P -1
;
_chemical_formula_sum "Si O2"
_cell_formula_units_Z 14
_cell_length_a 11.431680
_cell_length_b 11.443163
_cell_length_c 5.408759
_cell_angle_alpha 84.987375
_cell_angle_beta 114.905932
_cell_angle_gamma 87.187467
_cell_volume 636.395521
_symmetry_space_group_name_H-M "P -1"
_symmetry_group_IT_number 2
_symmetry_cell_setting 'triclinic'
loop_
_space_group_symop_operation_xyz
x,y,z
-x,-y,-z
loop_
_atom_site_type_symbol
_atom_site_label
_atom_site_fract_x
_atom_site_fract_y
_atom_site_fract_z
Si Si1 0.316597 0.962384 0.918955
Si Si2 0.959380 0.690784 0.926355
Si Si3 0.712167 0.774595 0.937264
Si Si4 0.960709 0.071827 0.204347
Si Si5 0.577321 0.912694 0.396269
Si Si6 0.201322 0.522742 0.299581
Si Si7 0.643217 0.531475 0.062640
O O1 0.195279 0.902431 0.920298
O O2 0.317699 0.003169 0.628364
O O3 0.457969 0.894118 0.108181
O O4 0.304929 0.094857 0.995488
O O5 0.863014 0.732637 0.055250
O O6 0.885866 0.588317 0.754231
O O7 0.974262 0.806653 0.761284
O O8 0.099229 0.635551 0.147159
O O9 0.646154 0.796549 0.603691
O O10 0.647336 0.673120 0.039151
O O11 0.000000 0.000000 0.500000
O O12 0.000000 0.000000 0.000000
O O13 0.500000 0.000000 0.500000
O O14 0.270827 0.523617 0.624196
O O15 0.296713 0.507217 0.147231
O O16 0.500000 0.500000 0.000000
#
# Coordination Sequence:
#
# PCOD9006716 Si02
#       7
#     2   2   2   2   2   2   2
#     4  10  21  39  62  93 130 175 221 269 333 399
#     4  10  23  45  68  99 138 179 226 275 336 408
#     4  10  21  38  68  87 128 175 213 271 337 399
#     4  12  26  40  66 101 137 174 226 274 333 404
#     4   9  20  39  60  90 126 172 223 263 326 399
#     4  10  25  45  71  99 134 180 224 280 339 394
#     4  11  25  45  69 100 131 168 231 282 338 397
#
# _framework density 21.998898000000001
#
# number of rings (size 3 to 8) (size 9 to 14) (size 15 to 20)
#    0.000    1.714    1.429    1.286    8.000    7.429 
#    7.714    0.000    0.000    0.000    0.000    0.000 
#    0.000    0.000    0.000    0.000    0.000    0.000 
#
# Total GULP energy -78117.849579 kJ/mol
# GULP energy per Si atom -5579.846398 kJ/mol
# Density = 2.194883 g / cm^3
# Si number density = 21.998898 Si / 1000 Ang^3
#
#
#
# Elastic Constant Matrix: (Units=GPa)
#
#
# Indices 1 2 3 4 5 6 
#
# 1 136.8899 39.7517 36.3756 -9.5843 -1.6326 23.9676
# 2 39.7517 73.4534 21.4789 -24.0924 -4.6659 9.2974
# 3 36.3756 21.4789 101.3579 -21.8201 -10.2188 2.1542
# 4 -9.5843 -24.0924 -21.8201 20.9958 -0.7067 -2.0054
# 5 -1.6326 -4.6659 -10.2188 -0.7067 31.1680 -5.8307
# 6 23.9676 9.2974 2.1542 -2.0054 -5.8307 41.7790
#
#
#
# Elastic Compliance Matrix: (Units=1/GPa)
#
#
# Indices 1 2 3 4 5 6 
#
# 1 0.010707 -0.006614 -0.004307 -0.007778 -0.002998 -0.005240
# 2 -0.006614 0.027017 0.004253 0.032593 0.005820 -0.000061
# 3 -0.004307 0.004253 0.015224 0.019192 0.006313 0.002541
# 4 -0.007778 0.032593 0.019192 0.102172 0.013647 0.003028
# 5 -0.002998 0.005820 0.006313 0.013647 0.036266 0.005815
# 6 -0.005240 -0.000061 0.002541 0.003028 0.005815 0.027781
#
#
# Mechanical properties :
#
#
# Convention : Reuss Voigt Hill
#
# Bulk Modulus (GPa) = 25.24338 56.32374 40.78356
# Shear Modulus (GPa) = 20.34944 33.06155 26.70549
#
# Velocity S-wave (km/s) = 3.04471 3.88090 3.48795
# Velocity P-wave (km/s) = 4.88468 6.76316 5.89917
#
# Compressibility (1/GPa) = 0.03961434
#
# Stress axis : x y z
#
# Youngs Moduli (GPa) = 93.39475 37.01308 65.68433
#
# Poissons Ratio (x) = 0.24479 0.28287
# Poissons Ratio (y) = 0.61768 -0.27935
# Poissons Ratio (z) = 0.40221 -0.15741
#
# Static dielectric constant tensor:
#      x y z
#    x 1.873400 -0.020080 -0.070160 
#    y -0.020080 1.791050 0.066700 
#    z -0.070160 0.066700 2.033250 
# 
# From -- ./inp_files/66560.got.cif
#   From: 2010.05.17/outbox.cif.g08.bks.cpg/sg2_34_cif.got.tgz:66560.got - 2010.06.03 11:33:40.
