data_PCOD9006542
_publ_section_title
;
Structure prediction by ZEFSAII (Michael W. Deem and Ramdas Pophale) SiO2 
 PCOD9006542
Probable space group: P -1
;
_chemical_formula_sum "Si O2"
_cell_formula_units_Z 14
_cell_length_a 15.917208
_cell_length_b 18.339531
_cell_length_c 10.501535
_cell_angle_alpha 159.049394
_cell_angle_beta 43.753455
_cell_angle_gamma 145.875501
_cell_volume 594.896639
_symmetry_space_group_name_H-M "P -1"
_symmetry_group_IT_number 2
_symmetry_cell_setting 'triclinic'
loop_
_space_group_symop_operation_xyz
x,y,z
-x,-y,-z
loop_
_atom_site_type_symbol
_atom_site_label
_atom_site_fract_x
_atom_site_fract_y
_atom_site_fract_z
Si Si1 0.631619 0.610673 0.430586
Si Si2 0.698274 0.235776 0.808891
Si Si3 0.018303 0.370848 0.618553
Si Si4 0.729184 0.625416 0.919875
Si Si5 0.503202 0.672226 0.116594
Si Si6 0.072071 0.017082 0.142009
Si Si7 0.658824 0.240408 0.151692
O O1 0.500000 0.500000 0.500000
O O2 0.784650 0.877049 0.749924
O O3 0.684639 0.430731 0.067150
O O4 0.556274 0.565942 0.302255
O O5 0.874622 0.340491 0.787838
O O6 0.593856 0.945988 0.394666
O O7 0.629395 0.213738 0.989139
O O8 0.081848 0.248329 0.437566
O O9 0.162585 0.663336 0.892759
O O10 0.942581 0.170859 0.256172
O O11 0.643289 0.415909 0.783418
O O12 0.707523 0.487219 0.584731
O O13 0.631590 0.728541 0.169869
O O14 0.906823 0.847074 0.114609
O O15 0.500000 0.000000 0.000000
#
# Coordination Sequence:
#
# PCOD9006542 Si02
#       7
#     2   2   2   2   2   2   2
#     4  12  26  41  63  95 131 171 211 269 331 378
#     4  12  22  40  67  96 127 168 218 270 309 389
#     4  10  21  38  66  97 123 169 222 261 311 380
#     4  10  22  42  65  92 127 175 208 268 313 384
#     4  11  23  40  64  95 131 165 219 259 323 378
#     4  10  21  40  67  88 134 166 215 259 322 380
#     4  11  21  36  62  97 128 159 213 269 314 367
#
# _framework density 23.533498999999999
#
# number of rings (size 3 to 8) (size 9 to 14) (size 15 to 20)
#    0.000    1.143    4.286    2.571    2.000    0.571 
#    0.000    0.000    3.143    2.571    0.000    0.000 
#    0.000    0.000    0.000    0.000    0.000    0.000 
#
# Total GULP energy -78074.543112 kJ/mol
# GULP energy per Si atom -5576.753079 kJ/mol
# Density = 2.347994 g / cm^3
# Si number density = 23.533499 Si / 1000 Ang^3
#
#
#
# Elastic Constant Matrix: (Units=GPa)
#
#
# Indices 1 2 3 4 5 6 
#
# 1 69.5805 32.8382 9.3495 7.6523 27.9058 20.1423
# 2 32.8382 183.7875 24.7196 18.4958 12.5571 27.4402
# 3 9.3495 24.7196 60.6867 15.5453 23.7493 11.7704
# 4 7.6523 18.4958 15.5453 41.0222 6.3991 15.8157
# 5 27.9058 12.5571 23.7493 6.3991 42.2075 5.5972
# 6 20.1423 27.4402 11.7704 15.8157 5.5972 27.2323
#
#
#
# Elastic Compliance Matrix: (Units=1/GPa)
#
#
# Indices 1 2 3 4 5 6 
#
# 1 0.027379 -0.001976 0.007031 0.003638 -0.019447 -0.019414
# 2 -0.001976 0.006677 -0.001849 -0.000382 0.001009 -0.004453
# 3 0.007031 -0.001849 0.025372 -0.004256 -0.016614 -0.008418
# 4 0.003638 -0.000382 -0.004256 0.033303 -0.002384 -0.019318
# 5 -0.019447 0.001009 -0.016614 -0.002384 0.044257 0.012837
# 6 -0.019414 -0.004453 -0.008418 -0.019318 0.012837 0.067787
#
#
# Mechanical properties :
#
#
# Convention : Reuss Voigt Hill
#
# Bulk Modulus (GPa) = 15.18815 49.76324 32.47569
# Shear Modulus (GPa) = 22.69518 38.56890 30.63204
#
# Velocity S-wave (km/s) = 3.10881 4.05272 3.61173
# Velocity P-wave (km/s) = 4.39933 6.56437 5.58771
#
# Compressibility (1/GPa) = 0.06584082
#
# Stress axis : x y z
#
# Youngs Moduli (GPa) = 36.52390 149.76379 39.41300
#
# Poissons Ratio (x) = 0.29600 -0.27712
# Poissons Ratio (y) = 0.07219 0.07286
# Poissons Ratio (z) = -0.25680 0.27686
#
# Static dielectric constant tensor:
#      x y z
#    x 1.985000 -0.012920 0.025090 
#    y -0.012920 1.919890 -0.009610 
#    z 0.025090 -0.009610 1.972130 
# 
# From -- ./inp_files/380456.got.cif
#   From: 2010.05.17/outbox.cif.g08.bks.cpg/sg2_191_cif.got.tgz:380456.got - 2010.06.03 11:33:40.
