data_PCOD9006072
_publ_section_title
;
Structure prediction by ZEFSAII (Michael W. Deem and Ramdas Pophale) SiO2 
 PCOD9006072
Probable space group: P -1
;
_chemical_formula_sum "Si O2"
_cell_formula_units_Z 16
_cell_length_a 7.942620
_cell_length_b 14.228092
_cell_length_c 9.278238
_cell_angle_alpha 107.489974
_cell_angle_beta 67.497086
_cell_angle_gamma 135.164621
_cell_volume 682.308880
_symmetry_space_group_name_H-M "P -1"
_symmetry_group_IT_number 2
_symmetry_cell_setting 'triclinic'
loop_
_space_group_symop_operation_xyz
x,y,z
-x,-y,-z
loop_
_atom_site_type_symbol
_atom_site_label
_atom_site_fract_x
_atom_site_fract_y
_atom_site_fract_z
Si Si1 0.706786 0.382693 0.523288
Si Si2 0.608750 0.876746 0.663398
Si Si3 0.206249 0.428668 0.645744
Si Si4 0.655078 0.918476 0.990948
Si Si5 0.036074 0.863399 0.510091
Si Si6 0.317474 0.675405 0.173333
Si Si7 0.514683 0.569702 0.886633
Si Si8 0.993232 0.146452 0.169324
O O1 0.618813 0.252041 0.409572
O O2 0.652183 0.454751 0.467876
O O3 0.602047 0.335320 0.699278
O O4 0.000000 0.500000 0.500000
O O5 0.544640 0.879841 0.849976
O O6 0.812985 0.862396 0.584756
O O7 0.751664 0.019430 0.609706
O O8 0.375751 0.478387 0.752422
O O9 0.084495 0.283927 0.561956
O O10 0.969943 0.407201 0.761374
O O11 0.844860 0.895091 0.908275
O O12 0.467914 0.825386 0.138625
O O13 0.813679 0.070630 0.057837
O O14 0.138848 0.897169 0.654273
O O15 0.382199 0.621916 0.002846
O O16 0.802813 0.694475 0.822926
O O17 0.500000 0.500000 0.000000
#
# Coordination Sequence:
#
# PCOD9006072 Si02
#       8
#     2   2   2   2   2   2   2   2
#     4  10  22  40  64  92 126 173 210 258 317 381
#     4  10  21  38  64  95 125 165 211 266 320 371
#     4  11  24  42  64  93 132 171 213 260 318 385
#     4   9  18  37  65  85 123 165 208 255 317 375
#     4  10  22  37  65  92 128 164 211 266 317 374
#     4  10  22  42  64  90 127 171 208 261 322 378
#     4  11  25  38  64  96 127 165 210 264 318 382
#     4   9  19  36  57  92 121 157 205 262 311 365
#
# _framework density 23.449788999999999
#
# number of rings (size 3 to 8) (size 9 to 14) (size 15 to 20)
#    0.000    2.000    0.000    3.375    5.250    4.000 
#    0.000    6.250    0.000    0.000    0.000    0.000 
#    0.000    0.000    0.000    0.000    0.000    0.000 
#
# Total GULP energy -89439.571521 kJ/mol
# GULP energy per Si atom -5589.973220 kJ/mol
# Density = 2.339642 g / cm^3
# Si number density = 23.449789 Si / 1000 Ang^3
#
#
#
# Elastic Constant Matrix: (Units=GPa)
#
#
# Indices 1 2 3 4 5 6 
#
# 1 50.8556 22.7219 28.2017 0.8119 6.6940 1.0089
# 2 22.7219 146.5152 75.6413 3.4573 25.4051 2.2899
# 3 28.2017 75.6413 151.8164 -4.2980 34.9656 9.8189
# 4 0.8119 3.4573 -4.2980 44.0495 1.4741 14.2213
# 5 6.6940 25.4051 34.9656 1.4741 35.5761 1.4566
# 6 1.0089 2.2899 9.8189 14.2213 1.4566 24.5178
#
#
#
# Elastic Compliance Matrix: (Units=1/GPa)
#
#
# Indices 1 2 3 4 5 6 
#
# 1 0.022306 -0.001730 -0.003497 -0.001023 0.000468 0.001209
# 2 -0.001730 0.009647 -0.004060 -0.001651 -0.002582 0.001907
# 3 -0.003497 -0.004060 0.011494 0.003607 -0.007655 -0.005717
# 4 -0.001023 -0.001651 0.003607 0.029090 -0.002643 -0.017965
# 5 0.000468 -0.002582 -0.007655 -0.002643 0.037392 0.002599
# 6 0.001209 0.001907 -0.005717 -0.017965 0.002599 0.053114
#
#
# Mechanical properties :
#
#
# Convention : Reuss Voigt Hill
#
# Bulk Modulus (GPa) = 40.20344 66.92411 53.56377
# Shear Modulus (GPa) = 26.32841 35.67015 30.99928
#
# Velocity S-wave (km/s) = 3.35439 3.90440 3.63980
# Velocity P-wave (km/s) = 5.67312 6.99479 6.36833
#
# Compressibility (1/GPa) = 0.02487350
#
# Stress axis : x y z
#
# Youngs Moduli (GPa) = 44.83044 103.66296 86.99831
#
# Poissons Ratio (x) = 0.17934 0.30420
# Poissons Ratio (y) = 0.07756 0.35324
# Poissons Ratio (z) = 0.15675 0.42091
#
# Static dielectric constant tensor:
#      x y z
#    x 1.974640 -0.034110 -0.030880 
#    y -0.034110 1.888830 -0.002010 
#    z -0.030880 -0.002010 1.881910 
# 
# From -- ./inp_files/208252.got.cif
#   From: 2010.05.17/outbox.cif.g08.bks.cpg/sg2_105_cif.got.tgz:208252.got - 2010.06.03 11:33:40.
