data_PCOD9006790
_publ_section_title
;
Structure prediction by ZEFSAII (Michael W. Deem and Ramdas Pophale) SiO2 
 PCOD9006790
Probable space group: P -1
;
_chemical_formula_sum "Si O2"
_cell_formula_units_Z 14
_cell_length_a 14.170757
_cell_length_b 11.596784
_cell_length_c 14.242030
_cell_angle_alpha 41.515775
_cell_angle_beta 156.570245
_cell_angle_gamma 123.832712
_cell_volume 536.230476
_symmetry_space_group_name_H-M "P -1"
_symmetry_group_IT_number 2
_symmetry_cell_setting 'triclinic'
loop_
_space_group_symop_operation_xyz
x,y,z
-x,-y,-z
loop_
_atom_site_type_symbol
_atom_site_label
_atom_site_fract_x
_atom_site_fract_y
_atom_site_fract_z
Si Si1 0.700959 0.881193 0.076035
Si Si2 0.657382 0.045004 0.753824
Si Si3 0.335197 0.736317 0.712551
Si Si4 0.199866 0.727708 0.394240
Si Si5 0.399216 0.331406 0.726403
Si Si6 0.254167 0.639538 0.123144
Si Si7 0.905863 0.653351 0.952109
O O1 0.627413 0.838655 0.138529
O O2 0.030398 0.790633 0.435740
O O3 0.520012 0.805275 0.896415
O O4 0.623650 0.069783 0.821205
O O5 0.793815 0.167629 0.760023
O O6 0.363101 0.159731 0.367475
O O7 0.880366 0.814408 0.075874
O O8 0.298606 0.799219 0.531075
O O9 0.500000 0.500000 0.000000
O O10 0.390925 0.491162 0.697749
O O11 0.650827 0.251928 0.931805
O O12 0.135287 0.493228 0.327967
O O13 0.500000 0.500000 0.500000
O O14 0.191765 0.489356 0.098852
O O15 0.008549 0.746107 0.907044
#
# Coordination Sequence:
#
# PCOD9006790 Si02
#       7
#     2   2   2   2   2   2   2
#     4  11  26  40  63  94 137 171 217 264 323 377
#     4  10  23  40  59 100 129 172 205 268 323 382
#     4  11  23  40  60  91 132 181 219 261 300 383
#     4  10  22  38  63  91 137 169 216 253 319 385
#     4  11  22  38  67  95 123 172 215 264 312 392
#     4   9  20  41  63  93 117 156 222 269 318 375
#     4  10  21  38  69  89 121 164 216 268 317 388
#
# _framework density 26.108174999999999
#
# number of rings (size 3 to 8) (size 9 to 14) (size 15 to 20)
#    0.000    1.714    2.857    0.429    6.000    4.571 
#    0.000    0.714    0.000    7.714    0.000    0.000 
#    0.000    0.000    0.000    0.000    0.000    0.000 
#
# Total GULP energy -78064.636987 kJ/mol
# GULP energy per Si atom -5576.045499 kJ/mol
# Density = 2.604875 g / cm^3
# Si number density = 26.108175 Si / 1000 Ang^3
#
#
#
# Elastic Constant Matrix: (Units=GPa)
#
#
# Indices 1 2 3 4 5 6 
#
# 1 191.7884 48.8319 42.5296 -2.2372 -5.2454 55.6062
# 2 48.8319 92.9148 24.5564 15.7893 -14.6640 23.2958
# 3 42.5296 24.5564 101.7784 21.0548 6.2666 13.0393
# 4 -2.2372 15.7893 21.0548 42.6140 6.4602 -8.2998
# 5 -5.2454 -14.6640 6.2666 6.4602 42.0657 -4.5215
# 6 55.6062 23.2958 13.0393 -8.2998 -4.5215 55.2600
#
#
#
# Elastic Compliance Matrix: (Units=1/GPa)
#
#
# Indices 1 2 3 4 5 6 
#
# 1 0.008229 -0.002321 -0.002250 0.001165 -0.000339 -0.006624
# 2 -0.002321 0.015554 -0.001088 -0.007128 0.005900 -0.004553
# 3 -0.002250 -0.001088 0.012513 -0.005875 -0.001757 -0.001256
# 4 0.001165 -0.007128 -0.005875 0.031359 -0.005476 0.007481
# 5 -0.000339 0.005900 -0.001757 -0.005476 0.026851 -0.000358
# 6 -0.006624 -0.004553 -0.001256 0.007481 -0.000358 0.028072
#
#
# Mechanical properties :
#
#
# Convention : Reuss Voigt Hill
#
# Bulk Modulus (GPa) = 40.03702 68.70194 54.36948
# Shear Modulus (GPa) = 35.15668 46.02552 40.59110
#
# Velocity S-wave (km/s) = 3.67356 4.20322 3.94728
# Velocity P-wave (km/s) = 5.77596 7.06594 6.45326
#
# Compressibility (1/GPa) = 0.02497688
#
# Stress axis : x y z
#
# Youngs Moduli (GPa) = 121.52595 64.29299 79.91969
#
# Poissons Ratio (x) = 0.14920 0.17983
# Poissons Ratio (y) = 0.28201 0.08698
# Poissons Ratio (z) = 0.27345 0.06998
#
# Static dielectric constant tensor:
#      x y z
#    x 2.138730 -0.035090 0.002680 
#    y -0.035090 2.089110 0.048990 
#    z 0.002680 0.048990 2.063200 
# 
# From -- ./inp_files/488327.got.cif
#   From: 2010.05.17/outbox.cif.g08.bks.cpg/sg2_245_cif.got.tgz:488327.got - 2010.06.03 11:33:40.
