data_PCOD9006210
_publ_section_title
;
Structure prediction by ZEFSAII (Michael W. Deem and Ramdas Pophale) SiO2 
 PCOD9006210
Probable space group: P -1
;
_chemical_formula_sum "Si O2"
_cell_formula_units_Z 14
_cell_length_a 8.054957
_cell_length_b 17.087985
_cell_length_c 5.589826
_cell_angle_alpha 103.991379
_cell_angle_beta 124.487036
_cell_angle_gamma 70.024774
_cell_volume 594.867533
_symmetry_space_group_name_H-M "P -1"
_symmetry_group_IT_number 2
_symmetry_cell_setting 'triclinic'
loop_
_space_group_symop_operation_xyz
x,y,z
-x,-y,-z
loop_
_atom_site_type_symbol
_atom_site_label
_atom_site_fract_x
_atom_site_fract_y
_atom_site_fract_z
Si Si1 0.012992 0.572838 0.242181
Si Si2 0.297805 0.161952 0.748007
Si Si3 0.994826 0.719989 0.035355
Si Si4 0.988302 0.123857 0.066759
Si Si5 0.689885 0.679565 0.380358
Si Si6 0.654771 0.021693 0.842843
Si Si7 0.580321 0.527504 0.332287
O O1 0.178744 0.523892 0.526728
O O2 0.100072 0.644548 0.237129
O O3 0.789235 0.621759 0.194449
O O4 0.000000 0.500000 0.000000
O O5 0.188940 0.219584 0.916543
O O6 0.116266 0.136521 0.422155
O O7 0.389073 0.225326 0.701727
O O8 0.486433 0.083795 0.918212
O O9 0.104390 0.785821 0.058015
O O10 0.887463 0.681198 0.707891
O O11 0.172578 0.063172 0.013770
O O12 0.808384 0.077140 0.920049
O O13 0.556779 0.627001 0.372735
O O14 0.500000 0.000000 0.500000
O O15 0.500000 0.500000 0.500000
O O16 0.500000 0.500000 0.000000
#
# Coordination Sequence:
#
# PCOD9006210 Si02
#       7
#     2   2   2   2   2   2   2
#     4  11  22  42  70  88 123 182 225 272 341 408
#     4   9  20  38  60  90 126 169 210 272 328 397
#     4  10  21  38  65  89 123 166 228 267 328 402
#     4   9  19  38  62  94 121 165 216 266 326 406
#     4  10  22  42  63  86 128 173 224 266 336 408
#     4   9  18  38  64  87 129 166 206 266 336 394
#     4  12  27  41  63 100 136 170 228 294 343 401
#
# _framework density 23.534654
#
# number of rings (size 3 to 8) (size 9 to 14) (size 15 to 20)
#    0.000    2.000    1.429    1.286    4.000    1.714 
#    5.143   10.714    0.000    0.000    0.000    0.000 
#    0.000    0.000    0.000    0.000    0.000    0.000 
#
# Total GULP energy -78088.788707 kJ/mol
# GULP energy per Si atom -5577.770622 kJ/mol
# Density = 2.348109 g / cm^3
# Si number density = 23.534654 Si / 1000 Ang^3
#
#
#
# Elastic Constant Matrix: (Units=GPa)
#
#
# Indices 1 2 3 4 5 6 
#
# 1 97.9304 26.9823 25.2287 19.1272 9.0715 11.9483
# 2 26.9823 136.6280 38.7646 9.0399 14.1393 18.6543
# 3 25.2287 38.7646 61.5847 7.6286 7.3258 5.0267
# 4 19.1272 9.0399 7.6286 35.1755 -1.3785 2.7895
# 5 9.0715 14.1393 7.3258 -1.3785 27.8243 7.2633
# 6 11.9483 18.6543 5.0267 2.7895 7.2633 61.5533
#
#
#
# Elastic Compliance Matrix: (Units=1/GPa)
#
#
# Indices 1 2 3 4 5 6 
#
# 1 0.012964 -0.000614 -0.003714 -0.006087 -0.002870 -0.001413
# 2 -0.000614 0.009519 -0.005125 -0.000955 -0.002820 -0.001971
# 3 -0.003714 -0.005125 0.021344 -0.001441 -0.002096 0.000844
# 4 -0.006087 -0.000955 -0.001441 0.032509 0.004571 -0.000424
# 5 -0.002870 -0.002820 -0.002096 0.004571 0.039959 -0.003339
# 6 -0.001413 -0.001971 0.000844 -0.000424 -0.003339 0.017462
#
#
# Mechanical properties :
#
#
# Convention : Reuss Voigt Hill
#
# Bulk Modulus (GPa) = 40.12674 53.12160 46.62417
# Shear Modulus (GPa) = 31.06153 38.58844 34.82498
#
# Velocity S-wave (km/s) = 3.63687 4.05364 3.85090
# Velocity P-wave (km/s) = 5.89261 6.67308 6.29495
#
# Compressibility (1/GPa) = 0.02492104
#
# Stress axis : x y z
#
# Youngs Moduli (GPa) = 77.13517 105.05579 46.85070
#
# Poissons Ratio (x) = 0.06450 0.17399
# Poissons Ratio (y) = 0.04736 0.24013
# Poissons Ratio (z) = 0.28646 0.53845
#
# Static dielectric constant tensor:
#      x y z
#    x 2.009740 0.051630 -0.078370 
#    y 0.051630 1.921720 -0.023560 
#    z -0.078370 -0.023560 1.879580 
# 
# From -- ./inp_files/45620.got.cif
#   From: 2010.05.17/outbox.cif.g08.bks.cpg/sg2_23_cif.got.tgz:45620.got - 2010.06.03 11:33:40.
