data_PCOD9006393
_publ_section_title
;
Structure prediction by ZEFSAII (Michael W. Deem and Ramdas Pophale) SiO2 
 PCOD9006393
Probable space group: P -1
;
_chemical_formula_sum "Si O2"
_cell_formula_units_Z 16
_cell_length_a 10.402551
_cell_length_b 13.910062
_cell_length_c 5.720105
_cell_angle_alpha 98.556029
_cell_angle_beta 50.616675
_cell_angle_gamma 92.267866
_cell_volume 630.994780
_symmetry_space_group_name_H-M "P -1"
_symmetry_group_IT_number 2
_symmetry_cell_setting 'triclinic'
loop_
_space_group_symop_operation_xyz
x,y,z
-x,-y,-z
loop_
_atom_site_type_symbol
_atom_site_label
_atom_site_fract_x
_atom_site_fract_y
_atom_site_fract_z
Si Si1 0.737553 0.062759 0.274446
Si Si2 0.626839 0.392403 0.508707
Si Si3 0.698506 0.650952 0.917741
Si Si4 0.635189 0.858994 0.311568
Si Si5 0.851787 0.491764 0.987946
Si Si6 0.475657 0.262816 0.240466
Si Si7 0.894918 0.101252 0.611780
Si Si8 0.821236 0.299519 0.647012
O O1 0.545146 0.099273 0.554062
O O2 0.823239 0.083843 0.427449
O O3 0.753020 0.945883 0.178372
O O4 0.794900 0.109932 0.981428
O O5 0.469820 0.406658 0.866066
O O6 0.687355 0.484394 0.336340
O O7 0.553720 0.317669 0.385630
O O8 0.786942 0.341413 0.441868
O O9 0.691122 0.756994 0.088048
O O10 0.837468 0.579711 0.851270
O O11 0.679116 0.676278 0.678742
O O12 0.598043 0.834673 0.616571
O O13 0.851853 0.391059 0.807889
O O14 0.000000 0.500000 0.000000
O O15 0.638572 0.255710 0.886313
O O16 0.951158 0.210768 0.539474
O O17 0.000000 0.000000 0.500000
#
# Coordination Sequence:
#
# PCOD9006393 Si02
#       8
#     2   2   2   2   2   2   2   2
#     4  11  25  43  70 105 136 183 231 285 353 394
#     4   9  20  39  64  90 123 170 222 275 330 404
#     4  10  21  38  65  99 129 178 224 275 341 415
#     4  10  22  38  69  99 142 168 216 297 340 405
#     4  11  25  42  62  93 135 173 222 281 349 413
#     4   9  17  36  65  95 129 163 218 276 335 396
#     4  12  26  46  69  99 139 187 238 278 336 422
#     4  10  22  41  67  92 128 179 227 278 340 409
#
# _framework density 25.356787000000001
#
# number of rings (size 3 to 8) (size 9 to 14) (size 15 to 20)
#    0.000    1.750    1.250    3.000    3.500    9.000 
#    2.250    0.000    0.000    0.000    0.000    0.000 
#    0.000    0.000    0.000    0.000    0.000    0.000 
#
# Total GULP energy -89308.051713 kJ/mol
# GULP energy per Si atom -5581.753232 kJ/mol
# Density = 2.529907 g / cm^3
# Si number density = 25.356787 Si / 1000 Ang^3
#
#
#
# Elastic Constant Matrix: (Units=GPa)
#
#
# Indices 1 2 3 4 5 6 
#
# 1 128.6326 60.7384 38.0232 -1.3855 31.3365 -23.1151
# 2 60.7384 172.6862 33.8918 23.7809 24.3834 -21.2194
# 3 38.0232 33.8918 62.0077 -4.7987 17.8613 6.3773
# 4 -1.3855 23.7809 -4.7987 54.9215 0.0940 7.2146
# 5 31.3365 24.3834 17.8613 0.0940 40.3835 -4.2053
# 6 -23.1151 -21.2194 6.3773 7.2146 -4.2053 39.9802
#
#
#
# Elastic Compliance Matrix: (Units=1/GPa)
#
#
# Indices 1 2 3 4 5 6 
#
# 1 0.013046 -0.001622 -0.006265 -0.000448 -0.005625 0.007170
# 2 -0.001622 0.008696 -0.004190 -0.004833 -0.001602 0.005050
# 3 -0.006265 -0.004190 0.025280 0.005368 -0.004986 -0.011372
# 4 -0.000448 -0.004833 0.005368 0.021757 0.000050 -0.007601
# 5 -0.005625 -0.001602 -0.004986 0.000050 0.032309 0.000082
# 6 0.007170 0.005050 -0.011372 -0.007601 0.000082 0.035032
#
#
# Mechanical properties :
#
#
# Convention : Reuss Voigt Hill
#
# Bulk Modulus (GPa) = 43.73034 69.84815 56.78925
# Shear Modulus (GPa) = 29.78009 42.43522 36.10766
#
# Velocity S-wave (km/s) = 3.43073 4.09531 3.77767
# Velocity P-wave (km/s) = 5.74253 7.06881 6.43990
#
# Compressibility (1/GPa) = 0.02286742
#
# Stress axis : x y z
#
# Youngs Moduli (GPa) = 76.65237 114.99610 39.55622
#
# Poissons Ratio (x) = 0.18651 0.24782
# Poissons Ratio (y) = 0.12432 0.16576
# Poissons Ratio (z) = 0.48023 0.48189
#
# Static dielectric constant tensor:
#      x y z
#    x 2.039480 -0.057080 -0.070570 
#    y -0.057080 2.008010 0.030250 
#    z -0.070570 0.030250 2.151920 
# 
# From -- ./inp_files/39211.got.cif
#   From: 2010.05.17/outbox.cif.g08.bks.cpg/sg2_20_cif.got.tgz:39211.got - 2010.06.03 11:33:40.
