data_PCOD9006389
_publ_section_title
;
Structure prediction by ZEFSAII (Michael W. Deem and Ramdas Pophale) SiO2 
 PCOD9006389
Probable space group: P -1
;
_chemical_formula_sum "Si O2"
_cell_formula_units_Z 16
_cell_length_a 5.336985
_cell_length_b 8.247091
_cell_length_c 21.405304
_cell_angle_alpha 54.970218
_cell_angle_beta 117.382851
_cell_angle_gamma 99.192815
_cell_volume 677.960694
_symmetry_space_group_name_H-M "P -1"
_symmetry_group_IT_number 2
_symmetry_cell_setting 'triclinic'
loop_
_space_group_symop_operation_xyz
x,y,z
-x,-y,-z
loop_
_atom_site_type_symbol
_atom_site_label
_atom_site_fract_x
_atom_site_fract_y
_atom_site_fract_z
Si Si1 0.186516 0.785808 0.992903
Si Si2 0.446661 0.998745 0.293798
Si Si3 0.092396 0.471155 0.238886
Si Si4 0.582218 0.001197 0.905528
Si Si5 0.971823 0.779974 0.259028
Si Si6 0.453639 0.420783 0.163895
Si Si7 0.321448 0.042598 0.407144
Si Si8 0.039990 0.310771 0.590193
O O1 0.383404 0.851137 0.946264
O O2 0.859205 0.885792 0.928899
O O3 0.244333 0.549169 0.063527
O O4 0.301978 0.878826 0.049696
O O5 0.635141 0.791154 0.346519
O O6 0.120208 0.971806 0.251587
O O7 0.511629 0.181672 0.219430
O O8 0.503867 0.032042 0.366271
O O9 0.105780 0.665368 0.239219
O O10 0.761996 0.489871 0.177047
O O11 0.301116 0.456088 0.206726
O O12 0.154739 0.268163 0.332518
O O13 0.360578 0.151956 0.806812
O O14 0.038809 0.639434 0.358210
O O15 0.500000 0.000000 0.500000
O O16 0.128853 0.865586 0.415090
O O17 0.000000 0.500000 0.500000
#
# Coordination Sequence:
#
# PCOD9006389 Si02
#       8
#     2   2   2   2   2   2   2   2
#     4  10  21  38  65  98 137 170 229 281 329 394
#     4  10  25  44  65  92 140 178 220 279 347 403
#     4  11  24  40  70 100 131 182 232 273 338 400
#     4  10  22  38  63 101 135 175 220 284 334 392
#     4  11  26  42  66 100 137 180 224 280 345 409
#     4  11  22  45  67  99 135 181 226 280 333 400
#     4  10  24  44  64  96 131 174 230 286 332 405
#     4  11  26  44  67  96 136 181 221 282 343 408
#
# _framework density 23.600186999999998
#
# number of rings (size 3 to 8) (size 9 to 14) (size 15 to 20)
#    0.000    1.500    2.500    0.750   10.500    2.500 
#    0.000    1.250    0.000    0.000    0.000    0.000 
#    0.000    0.000    0.000    0.000    0.000    0.000 
#
# Total GULP energy -89499.436512 kJ/mol
# GULP energy per Si atom -5593.714782 kJ/mol
# Density = 2.354647 g / cm^3
# Si number density = 23.600187 Si / 1000 Ang^3
#
#
#
# Elastic Constant Matrix: (Units=GPa)
#
#
# Indices 1 2 3 4 5 6 
#
# 1 93.9240 16.4794 23.4687 -2.0746 9.9182 3.9539
# 2 16.4794 48.6578 39.6686 -4.9590 1.5752 0.7940
# 3 23.4687 39.6686 127.3302 -10.8219 -3.3289 9.3840
# 4 -2.0746 -4.9590 -10.8219 48.0752 4.2458 -0.0755
# 5 9.9182 1.5752 -3.3289 4.2458 34.3987 -7.0332
# 6 3.9539 0.7940 9.3840 -0.0755 -7.0332 27.3826
#
#
#
# Elastic Compliance Matrix: (Units=1/GPa)
#
#
# Indices 1 2 3 4 5 6 
#
# 1 0.011971 -0.002859 -0.001229 0.000289 -0.003932 -0.002233
# 2 -0.002859 0.028515 -0.008462 0.001002 -0.000966 0.002241
# 3 -0.001229 -0.008462 0.011098 0.001480 0.000995 -0.003121
# 4 0.000289 0.001002 0.001480 0.021504 -0.002898 -0.001263
# 5 -0.003932 -0.000966 0.000995 -0.002898 0.032458 0.008583
# 6 -0.002233 0.002241 -0.003121 -0.001263 0.008583 0.040048
#
#
# Mechanical properties :
#
#
# Convention : Reuss Voigt Hill
#
# Bulk Modulus (GPa) = 37.75837 47.68282 42.72059
# Shear Modulus (GPa) = 27.85156 34.65767 31.25462
#
# Velocity S-wave (km/s) = 3.43905 3.83630 3.64309
# Velocity P-wave (km/s) = 5.63944 6.31437 5.98642
#
# Compressibility (1/GPa) = 0.02648420
#
# Stress axis : x y z
#
# Youngs Moduli (GPa) = 83.53286 35.06865 90.10450
#
# Poissons Ratio (x) = 0.10026 0.11078
# Poissons Ratio (y) = 0.23882 0.76247
# Poissons Ratio (z) = 0.10270 0.29675
#
# Static dielectric constant tensor:
#      x y z
#    x 1.937600 -0.012680 -0.001140 
#    y -0.012680 1.934990 -0.005420 
#    z -0.001140 -0.005420 1.854360 
# 
# From -- ./inp_files/38911.got.cif
#   From: 2010.05.17/outbox.cif.g08.bks.cpg/sg2_20_cif.got.tgz:38911.got - 2010.06.03 11:33:40.
