data_PCOD9006547
_publ_section_title
;
Structure prediction by ZEFSAII (Michael W. Deem and Ramdas Pophale) SiO2 
 PCOD9006547
Probable space group: P -1
;
_chemical_formula_sum "Si O2"
_cell_formula_units_Z 16
_cell_length_a 13.614744
_cell_length_b 7.807477
_cell_length_c 9.089253
_cell_angle_alpha 94.922022
_cell_angle_beta 58.009778
_cell_angle_gamma 65.467157
_cell_volume 684.424389
_symmetry_space_group_name_H-M "P -1"
_symmetry_group_IT_number 2
_symmetry_cell_setting 'triclinic'
loop_
_space_group_symop_operation_xyz
x,y,z
-x,-y,-z
loop_
_atom_site_type_symbol
_atom_site_label
_atom_site_fract_x
_atom_site_fract_y
_atom_site_fract_z
Si Si1 0.504842 0.838578 0.102102
Si Si2 0.101287 0.471822 0.786841
Si Si3 0.023023 0.197389 0.673958
Si Si4 0.387906 0.419756 0.266678
Si Si5 0.412793 0.710653 0.674730
Si Si6 0.736157 0.486749 0.093337
Si Si7 0.704671 0.133687 0.517907
Si Si8 0.930822 0.388094 0.473643
O O1 0.631220 0.700120 0.107053
O O2 0.365392 0.938409 0.314752
O O3 0.530715 0.662342 0.954778
O O4 0.500000 0.000000 0.000000
O O5 0.226206 0.461527 0.773021
O O6 0.036357 0.649621 0.727912
O O7 0.114946 0.287870 0.665277
O O8 0.000000 0.500000 0.000000
O O9 0.991601 0.205074 0.527475
O O10 0.877036 0.345013 0.879321
O O11 0.131705 0.965765 0.614821
O O12 0.485784 0.259810 0.303137
O O13 0.362118 0.633376 0.357290
O O14 0.235177 0.466659 0.373839
O O15 0.500000 0.500000 0.500000
O O16 0.321380 0.659084 0.845335
O O17 0.334654 0.873992 0.620117
O O18 0.000000 0.500000 0.500000
#
# Coordination Sequence:
#
# PCOD9006547 Si02
#       8
#     2   2   2   2   2   2   2   2
#     4  12  27  42  68 103 135 176 234 287 337 410
#     4   9  20  36  64  90 133 184 215 275 345 391
#     4  10  23  40  66 100 141 174 229 284 336 411
#     4  11  23  45  71  94 135 188 219 285 352 400
#     4  10  21  41  71  97 134 185 228 277 342 413
#     4  11  21  45  68 100 139 181 229 288 343 402
#     4  11  25  44  69 105 138 181 233 277 344 415
#     4  10  21  38  66  97 134 178 229 272 343 400
#
# _framework density 23.377309
#
# number of rings (size 3 to 8) (size 9 to 14) (size 15 to 20)
#    0.000    1.500    3.750    1.875    3.500    2.000 
#    0.000    2.500    0.000    0.000    0.000    0.000 
#    0.000    0.000    0.000    0.000    0.000    0.000 
#
# Total GULP energy -89156.193122 kJ/mol
# GULP energy per Si atom -5572.262070 kJ/mol
# Density = 2.332410 g / cm^3
# Si number density = 23.377309 Si / 1000 Ang^3
#
#
#
# Elastic Constant Matrix: (Units=GPa)
#
#
# Indices 1 2 3 4 5 6 
#
# 1 141.8378 38.1086 46.9604 -23.3503 18.6648 -33.1999
# 2 38.1086 77.7329 45.4970 -23.2436 0.9143 -19.8722
# 3 46.9604 45.4970 102.6523 -19.5327 0.1521 -30.4926
# 4 -23.3503 -23.2436 -19.5327 35.7280 -8.3995 4.4695
# 5 18.6648 0.9143 0.1521 -8.3995 47.6170 -11.1671
# 6 -33.1999 -19.8722 -30.4926 4.4695 -11.1671 46.7463
#
#
#
# Elastic Compliance Matrix: (Units=1/GPa)
#
#
# Indices 1 2 3 4 5 6 
#
# 1 0.009979 -0.001653 -0.001932 0.003319 -0.002289 0.004260
# 2 -0.001653 0.020676 -0.005452 0.009583 0.002856 0.003825
# 3 -0.001932 -0.005452 0.015827 0.003695 0.003111 0.007024
# 4 0.003319 0.009583 0.003695 0.039214 0.007007 0.006766
# 5 -0.002289 0.002856 0.003111 0.007007 0.024674 0.006842
# 6 0.004260 0.003825 0.007024 0.006766 0.006842 0.031613
#
#
# Mechanical properties :
#
#
# Convention : Reuss Voigt Hill
#
# Bulk Modulus (GPa) = 35.20225 64.81720 50.00973
# Shear Modulus (GPa) = 29.49405 38.79540 34.14473
#
# Velocity S-wave (km/s) = 3.55583 4.07816 3.82592
# Velocity P-wave (km/s) = 5.65239 7.06837 6.39966
#
# Compressibility (1/GPa) = 0.02840727
#
# Stress axis : x y z
#
# Youngs Moduli (GPa) = 100.21194 48.36566 63.18339
#
# Poissons Ratio (x) = 0.07994 0.12208
# Poissons Ratio (y) = 0.16563 0.34449
# Poissons Ratio (z) = 0.19362 0.26370
#
# Static dielectric constant tensor:
#      x y z
#    x 1.916410 0.019800 -0.021240 
#    y 0.019800 2.157830 -0.015320 
#    z -0.021240 -0.015320 1.896880 
# 
# From -- ./inp_files/295458.got.cif
#   From: 2010.05.17/outbox.cif.g08.bks.cpg/sg2_148_cif.got.tgz:295458.got - 2010.06.03 11:33:40.
