data_PCOD9006417
_publ_section_title
;
Structure prediction by ZEFSAII (Michael W. Deem and Ramdas Pophale) SiO2 
 PCOD9006417
Probable space group: P -1
;
_chemical_formula_sum "Si O2"
_cell_formula_units_Z 14
_cell_length_a 11.649231
_cell_length_b 11.883037
_cell_length_c 9.417082
_cell_angle_alpha 29.607082
_cell_angle_beta 116.361491
_cell_angle_gamma 121.494504
_cell_volume 549.004630
_symmetry_space_group_name_H-M "P -1"
_symmetry_group_IT_number 2
_symmetry_cell_setting 'triclinic'
loop_
_space_group_symop_operation_xyz
x,y,z
-x,-y,-z
loop_
_atom_site_type_symbol
_atom_site_label
_atom_site_fract_x
_atom_site_fract_y
_atom_site_fract_z
Si Si1 0.322871 0.955295 0.683356
Si Si2 0.204250 0.131740 0.887519
Si Si3 0.109790 0.411727 0.741780
Si Si4 0.928707 0.372209 0.241996
Si Si5 0.900164 0.947333 0.362961
Si Si6 0.614726 0.165350 0.618277
Si Si7 0.381740 0.615081 0.325734
O O1 0.218377 0.807787 0.670756
O O2 0.241354 0.097065 0.578351
O O3 0.466712 0.110262 0.530377
O O4 0.347512 0.749067 0.024573
O O5 0.120784 0.178814 0.923607
O O6 0.144608 0.948991 0.924593
O O7 0.261459 0.387609 0.560820
O O8 0.325554 0.054778 0.108082
O O9 0.073975 0.420874 0.877335
O O10 0.260278 0.605938 0.606596
O O11 0.000000 0.500000 0.500000
O O12 0.024317 0.215367 0.502639
O O13 0.000000 0.500000 0.000000
O O14 0.000000 0.000000 0.500000
O O15 0.584191 0.204354 0.722892
O O16 0.500000 0.500000 0.500000
#
# Coordination Sequence:
#
# PCOD9006417 Si02
#       7
#     2   2   2   2   2   2   2
#     4  11  22  41  69 102 145 180 231 292 342 415
#     4  11  21  41  67 100 138 184 230 284 347 411
#     4  11  26  46  69 101 138 185 234 286 349 426
#     4  11  25  47  69 100 138 186 238 287 348 416
#     4  10  21  38  66 101 138 184 230 277 344 403
#     4  11  24  41  67 103 140 181 229 289 354 406
#     4  11  20  35  68 103 141 175 230 278 344 409
#
# _framework density 25.500696000000001
#
# number of rings (size 3 to 8) (size 9 to 14) (size 15 to 20)
#    0.000    1.143    4.286    2.143    2.000    1.143 
#    7.714    0.714    0.000    0.000    0.000    0.000 
#    0.000    0.000    0.000    0.000    0.000    0.000 
#
# Total GULP energy -78107.220266 kJ/mol
# GULP energy per Si atom -5579.087162 kJ/mol
# Density = 2.544266 g / cm^3
# Si number density = 25.500696 Si / 1000 Ang^3
#
#
#
# Elastic Constant Matrix: (Units=GPa)
#
#
# Indices 1 2 3 4 5 6 
#
# 1 181.8559 85.6530 32.9098 15.9435 21.8050 -3.0988
# 2 85.6530 147.2074 -1.2921 8.7577 -3.1199 7.0630
# 3 32.9098 -1.2921 56.2079 0.5489 -1.0876 8.0345
# 4 15.9435 8.7577 0.5489 31.9649 -0.3404 -1.6671
# 5 21.8050 -3.1199 -1.0876 -0.3404 53.1837 2.6083
# 6 -3.0988 7.0630 8.0345 -1.6671 2.6083 68.9876
#
#
#
# Elastic Compliance Matrix: (Units=1/GPa)
#
#
# Indices 1 2 3 4 5 6 
#
# 1 0.010546 -0.006193 -0.006664 -0.003398 -0.004943 0.001989
# 2 -0.006193 0.010596 0.004217 0.000046 0.003344 -0.001979
# 3 -0.006664 0.004217 0.022334 0.001645 0.003615 -0.003429
# 4 -0.003398 0.000046 0.001645 0.032976 0.001622 0.000387
# 5 -0.004943 0.003344 0.003615 0.001622 0.021195 -0.001748
# 6 0.001989 -0.001979 -0.003429 0.000387 -0.001748 0.015262
#
#
# Mechanical properties :
#
#
# Convention : Reuss Voigt Hill
#
# Bulk Modulus (GPa) = 38.17294 68.86808 53.52051
# Shear Modulus (GPa) = 35.99170 48.69395 42.34283
#
# Velocity S-wave (km/s) = 3.76094 4.37454 4.07929
# Velocity P-wave (km/s) = 5.81905 7.25124 6.57426
#
# Compressibility (1/GPa) = 0.02619657
#
# Stress axis : x y z
#
# Youngs Moduli (GPa) = 94.82393 94.37093 44.77550
#
# Poissons Ratio (x) = 0.58440 0.29837
# Poissons Ratio (y) = 0.58721 -0.18880
# Poissons Ratio (z) = 0.63188 -0.39792
#
# Static dielectric constant tensor:
#      x y z
#    x 1.989830 0.000760 -0.141410 
#    y 0.000760 2.129140 -0.128400 
#    z -0.141410 -0.128400 1.950210 
# 
# From -- ./inp_files/256162.got.cif
#   From: 2010.05.17/outbox.cif.g08.bks.cpg/sg2_129_cif.got.tgz:256162.got - 2010.06.03 11:33:40.
