data_PCOD9006722
_publ_section_title
;
Structure prediction by ZEFSAII (Michael W. Deem and Ramdas Pophale) SiO2 
 PCOD9006722
Probable space group: P -1
;
_chemical_formula_sum "Si O2"
_cell_formula_units_Z 16
_cell_length_a 8.705431
_cell_length_b 14.310671
_cell_length_c 18.354657
_cell_angle_alpha 28.656353
_cell_angle_beta 137.913309
_cell_angle_gamma 139.962446
_cell_volume 686.855993
_symmetry_space_group_name_H-M "P -1"
_symmetry_group_IT_number 2
_symmetry_cell_setting 'triclinic'
loop_
_space_group_symop_operation_xyz
x,y,z
-x,-y,-z
loop_
_atom_site_type_symbol
_atom_site_label
_atom_site_fract_x
_atom_site_fract_y
_atom_site_fract_z
Si Si1 0.444965 0.787756 0.669232
Si Si2 0.939637 0.727930 0.298936
Si Si3 0.062871 0.407161 0.778031
Si Si4 0.825469 0.807146 0.906891
Si Si5 0.731215 0.603654 0.786418
Si Si6 0.826418 0.198490 0.095082
Si Si7 0.507477 0.264167 0.670689
Si Si8 0.575468 0.336271 0.484238
O O1 0.156767 0.655250 0.654887
O O2 0.582036 0.816135 0.775443
O O3 0.561514 0.650264 0.755888
O O4 0.500000 0.000000 0.500000
O O5 0.914597 0.651271 0.258429
O O6 0.710674 0.588885 0.361827
O O7 0.189487 0.709566 0.432630
O O8 0.994568 0.969147 0.155954
O O9 0.778403 0.302241 0.770202
O O10 0.221035 0.333528 0.942059
O O11 0.980894 0.742903 0.943904
O O12 0.656099 0.698312 0.623428
O O13 0.007918 0.725510 0.826075
O O14 0.679293 0.357215 0.929231
O O15 0.682314 0.949400 0.216315
O O16 0.500000 0.500000 0.500000
O O17 0.511427 0.216292 0.618665
#
# Coordination Sequence:
#
# PCOD9006722 Si02
#       8
#     2   2   2   2   2   2   2   2
#     4  11  24  43  72 100 134 172 225 284 337 393
#     4  10  21  40  66 101 131 163 225 275 343 391
#     4  11  25  42  66 100 133 172 223 278 341 396
#     4  11  24  41  70  98 132 179 219 275 332 404
#     4  10  22  44  69  93 134 180 219 275 337 403
#     4  10  25  44  64  98 138 180 222 270 336 399
#     4  11  26  42  63  99 136 174 229 276 323 409
#     4  10  21  38  68  90 130 175 211 276 336 391
#
# _framework density 23.294547000000001
#
# number of rings (size 3 to 8) (size 9 to 14) (size 15 to 20)
#    0.000    1.500    1.250    2.250   10.500    3.000 
#    0.000    6.250    0.000    0.000    0.000    0.000 
#    0.000    0.000    0.000    0.000    0.000    0.000 
#
# Total GULP energy -89281.431017 kJ/mol
# GULP energy per Si atom -5580.089439 kJ/mol
# Density = 2.324153 g / cm^3
# Si number density = 23.294547 Si / 1000 Ang^3
#
#
#
# Elastic Constant Matrix: (Units=GPa)
#
#
# Indices 1 2 3 4 5 6 
#
# 1 32.8827 10.9397 22.7187 -2.5436 -6.2024 -0.7197
# 2 10.9397 102.5051 45.6931 -4.0320 -2.0912 -5.5355
# 3 22.7187 45.6931 124.8576 14.5528 -9.6511 -7.4197
# 4 -2.5436 -4.0320 14.5528 51.8139 -2.4842 -1.8881
# 5 -6.2024 -2.0912 -9.6511 -2.4842 26.1733 -1.6666
# 6 -0.7197 -5.5355 -7.4197 -1.8881 -1.6666 21.4469
#
#
#
# Elastic Compliance Matrix: (Units=1/GPa)
#
#
# Indices 1 2 3 4 5 6 
#
# 1 0.036578 -0.000826 -0.006304 0.003808 0.006618 -0.000317
# 2 -0.000826 0.011984 -0.004432 0.002171 -0.000559 0.001680
# 3 -0.006304 -0.004432 0.011527 -0.003696 0.002209 0.002479
# 4 0.003808 0.002171 -0.003696 0.020829 0.001778 0.001382
# 5 0.006618 -0.000559 0.002209 0.001778 0.040980 0.004183
# 6 -0.000317 0.001680 0.002479 0.001382 0.004183 0.048354
#
#
# Mechanical properties :
#
#
# Convention : Reuss Voigt Hill
#
# Bulk Modulus (GPa) = 27.05300 46.54980 36.80140
# Shear Modulus (GPa) = 24.30747 31.94640 28.12693
#
# Velocity S-wave (km/s) = 3.23380 3.70727 3.47860
# Velocity P-wave (km/s) = 5.05786 6.19287 5.65392
#
# Compressibility (1/GPa) = 0.03696448
#
# Stress axis : x y z
#
# Youngs Moduli (GPa) = 27.33912 83.44430 86.75273
#
# Poissons Ratio (x) = 0.06890 0.54693
# Poissons Ratio (y) = 0.02257 0.38448
# Poissons Ratio (z) = 0.17236 0.36982
#
# Static dielectric constant tensor:
#      x y z
#    x 1.927960 -0.009470 0.028800 
#    y -0.009470 1.951600 -0.019080 
#    z 0.028800 -0.019080 1.895890 
# 
# From -- ./inp_files/561357.got.cif
#   From: 2010.05.17/outbox.cif.g08.bks.cpg/sg2_281_cif.got.tgz:561357.got - 2010.06.03 11:33:40.
