data_PCOD9006806
_publ_section_title
;
Structure prediction by ZEFSAII (Michael W. Deem and Ramdas Pophale) SiO2 
 PCOD9006806
Probable space group: P -1
;
_chemical_formula_sum "Si O2"
_cell_formula_units_Z 14
_cell_length_a 7.553663
_cell_length_b 7.100684
_cell_length_c 16.032067
_cell_angle_alpha 131.972325
_cell_angle_beta 113.432309
_cell_angle_gamma 61.820695
_cell_volume 559.120185
_symmetry_space_group_name_H-M "P -1"
_symmetry_group_IT_number 2
_symmetry_cell_setting 'triclinic'
loop_
_space_group_symop_operation_xyz
x,y,z
-x,-y,-z
loop_
_atom_site_type_symbol
_atom_site_label
_atom_site_fract_x
_atom_site_fract_y
_atom_site_fract_z
Si Si1 0.018300 0.048669 0.617398
Si Si2 0.584061 0.999154 0.770509
Si Si3 0.786115 0.586062 0.139233
Si Si4 0.977175 0.125351 0.939497
Si Si5 0.424269 0.749794 0.327772
Si Si6 0.589284 0.427652 0.404771
Si Si7 0.393698 0.781800 0.892961
O O1 0.094533 0.300668 0.734386
O O2 0.800246 0.111476 0.639199
O O3 0.190590 0.789347 0.609789
O O4 0.000000 0.000000 0.500000
O O5 0.405502 0.167957 0.846479
O O6 0.525861 0.074657 0.685209
O O7 0.580683 0.705155 0.698212
O O8 0.785973 0.069387 0.845541
O O9 0.927049 0.434471 0.046349
O O10 0.672087 0.385371 0.095455
O O11 0.000000 0.000000 0.000000
O O12 0.171802 0.964917 0.875577
O O13 0.575830 0.669395 0.411441
O O14 0.464876 0.461911 0.205193
O O15 0.500000 0.500000 0.500000
O O16 0.500000 0.000000 0.000000
#
# Coordination Sequence:
#
# PCOD9006806 Si02
#       7
#     2   2   2   2   2   2   2
#     4  11  23  45  72 100 135 184 230 280 352 409
#     4  10  24  44  67 101 139 182 229 282 351 405
#     4   9  21  41  65  96 138 180 221 280 339 408
#     4  10  21  38  69  96 135 184 225 272 349 407
#     4  11  25  45  68  99 144 170 235 285 335 410
#     4  11  25  45  72  99 134 185 230 286 349 405
#     4  10  22  38  63 101 133 176 226 276 336 405
#
# _framework density 25.039339999999999
#
# number of rings (size 3 to 8) (size 9 to 14) (size 15 to 20)
#    0.000    1.714    1.429    1.286   10.000    0.571 
#    5.143    4.286    0.000    0.000    0.000    0.000 
#    0.000    0.000    0.000    0.000    0.000    0.000 
#
# Total GULP energy -78166.394939 kJ/mol
# GULP energy per Si atom -5583.313924 kJ/mol
# Density = 2.498235 g / cm^3
# Si number density = 25.039340 Si / 1000 Ang^3
#
#
#
# Elastic Constant Matrix: (Units=GPa)
#
#
# Indices 1 2 3 4 5 6 
#
# 1 127.3801 55.0895 46.4565 3.1300 -30.1251 -15.0731
# 2 55.0895 87.1669 33.3499 -14.6386 -17.2981 -8.3747
# 3 46.4565 33.3499 97.1906 5.9741 4.1656 0.6965
# 4 3.1300 -14.6386 5.9741 40.4455 -2.7457 -11.0723
# 5 -30.1251 -17.2981 4.1656 -2.7457 46.7021 -0.1361
# 6 -15.0731 -8.3747 0.6965 -11.0723 -0.1361 63.3441
#
#
#
# Elastic Compliance Matrix: (Units=1/GPa)
#
#
# Indices 1 2 3 4 5 6 
#
# 1 0.014215 -0.005426 -0.005209 -0.001083 0.007568 0.002549
# 2 -0.005426 0.019600 -0.004934 0.009388 0.004760 0.003006
# 3 -0.005209 -0.004934 0.015085 -0.004875 -0.006828 -0.002925
# 4 -0.001083 0.009388 -0.004875 0.031042 0.005058 0.006474
# 5 0.007568 0.004760 -0.006828 0.005058 0.028974 0.003452
# 6 0.002549 0.003006 -0.002925 0.006474 0.003452 0.017962
#
#
# Mechanical properties :
#
#
# Convention : Reuss Voigt Hill
#
# Bulk Modulus (GPa) = 56.30238 64.61437 60.45838
# Shear Modulus (GPa) = 30.49960 41.88780 36.19370
#
# Velocity S-wave (km/s) = 3.49387 4.09452 3.80606
# Velocity P-wave (km/s) = 6.22981 6.94368 6.59641
#
# Compressibility (1/GPa) = 0.01776124
#
# Stress axis : x y z
#
# Youngs Moduli (GPa) = 70.34828 51.02168 66.28963
#
# Poissons Ratio (x) = 0.27685 0.34529
# Poissons Ratio (y) = 0.38171 0.32710
# Poissons Ratio (z) = 0.36643 0.25176
#
# Static dielectric constant tensor:
#      x y z
#    x 1.975290 -0.001010 -0.081000 
#    y -0.001010 2.035330 -0.141590 
#    z -0.081000 -0.141590 1.757860 
# 
# From -- ./inp_files/555756.got.cif
#   From: 2010.05.17/outbox.cif.g08.bks.cpg/sg2_278_cif.got.tgz:555756.got - 2010.06.03 11:33:40.
