data_PCOD9006493
_publ_section_title
;
Structure prediction by ZEFSAII (Michael W. Deem and Ramdas Pophale) SiO2 
 PCOD9006493
Probable space group: P -1
;
_chemical_formula_sum "Si O2"
_cell_formula_units_Z 16
_cell_length_a 12.789211
_cell_length_b 8.686423
_cell_length_c 8.127814
_cell_angle_alpha 69.048352
_cell_angle_beta 109.738839
_cell_angle_gamma 73.078853
_cell_volume 701.194869
_symmetry_space_group_name_H-M "P -1"
_symmetry_group_IT_number 2
_symmetry_cell_setting 'triclinic'
loop_
_space_group_symop_operation_xyz
x,y,z
-x,-y,-z
loop_
_atom_site_type_symbol
_atom_site_label
_atom_site_fract_x
_atom_site_fract_y
_atom_site_fract_z
Si Si1 0.636758 0.237271 0.516180
Si Si2 0.501582 0.300892 0.088373
Si Si3 0.741439 0.478599 0.965482
Si Si4 0.062722 0.433178 0.824460
Si Si5 0.610908 0.618801 0.485470
Si Si6 0.730665 0.105408 0.116495
Si Si7 0.121189 0.028221 0.089048
Si Si8 0.814688 0.708519 0.415544
O O1 0.587510 0.205775 0.328866
O O2 0.619342 0.447014 0.446326
O O3 0.532306 0.244797 0.588744
O O4 0.782918 0.092960 0.671598
O O5 0.360375 0.354458 0.038328
O O6 0.580831 0.179655 0.024707
O O7 0.500000 0.500000 0.000000
O O8 0.683907 0.524836 0.733000
O O9 0.871688 0.478021 0.060571
O O10 0.752312 0.281707 0.104848
O O11 0.136107 0.374947 0.708882
O O12 0.920946 0.574909 0.648868
O O13 0.077293 0.246049 0.987590
O O14 0.685773 0.709809 0.398394
O O15 0.799477 0.915859 0.327717
O O16 0.786360 0.051449 0.986732
O O17 0.000000 0.000000 0.000000
#
# Coordination Sequence:
#
# PCOD9006493 Si02
#       8
#     2   2   2   2   2   2   2   2
#     4  10  21  39  66  94 127 171 212 257 321 380
#     4   9  21  39  63  96 131 159 209 262 318 375
#     4  10  21  41  65  93 129 164 209 268 315 377
#     4  10  24  41  63  90 130 168 215 265 320 371
#     4  10  21  38  66  93 125 166 214 261 318 378
#     4  10  22  42  62  93 128 163 213 259 315 383
#     4  11  23  44  65  93 129 170 214 260 315 386
#     4  10  23  42  61  92 129 170 213 263 320 380
#
# _framework density 22.818192
#
# number of rings (size 3 to 8) (size 9 to 14) (size 15 to 20)
#    0.000    2.000    1.250    0.750    5.250    3.000 
#    2.250    5.000    0.000    0.000    0.000    0.000 
#    0.000    0.000    0.000    0.000    0.000    0.000 
#
# Total GULP energy -89405.921815 kJ/mol
# GULP energy per Si atom -5587.870113 kJ/mol
# Density = 2.276626 g / cm^3
# Si number density = 22.818192 Si / 1000 Ang^3
#
#
#
# Elastic Constant Matrix: (Units=GPa)
#
#
# Indices 1 2 3 4 5 6 
#
# 1 104.2608 30.2704 33.9601 1.3013 5.6348 4.9222
# 2 30.2704 67.4150 24.6973 -7.2299 0.9782 -6.3741
# 3 33.9601 24.6973 89.4521 -13.1704 20.9800 1.2480
# 4 1.3013 -7.2299 -13.1704 30.3604 1.5800 -3.2034
# 5 5.6348 0.9782 20.9800 1.5800 34.6539 2.6954
# 6 4.9222 -6.3741 1.2480 -3.2034 2.6954 37.3451
#
#
#
# Elastic Compliance Matrix: (Units=1/GPa)
#
#
# Indices 1 2 3 4 5 6 
#
# 1 0.012450 -0.004738 -0.004183 -0.003816 0.001027 -0.002711
# 2 -0.004738 0.018953 -0.003385 0.003593 0.001798 0.004151
# 3 -0.004183 -0.003385 0.017123 0.007401 -0.009987 0.000757
# 4 -0.003816 0.003593 0.007401 0.037963 -0.006047 0.004562
# 5 0.001027 0.001798 -0.009987 -0.006047 0.035160 -0.002551
# 6 -0.002711 0.004151 0.000757 0.004562 -0.002551 0.028393
#
#
# Mechanical properties :
#
#
# Convention : Reuss Voigt Hill
#
# Bulk Modulus (GPa) = 41.81674 48.77595 45.29634
# Shear Modulus (GPa) = 27.37859 31.95190 29.66524
#
# Velocity S-wave (km/s) = 3.46765 3.74609 3.60956
# Velocity P-wave (km/s) = 5.86504 6.33508 6.10459
#
# Compressibility (1/GPa) = 0.02391387
#
# Stress axis : x y z
#
# Youngs Moduli (GPa) = 80.32355 52.76335 58.40012
#
# Poissons Ratio (x) = 0.25000 0.24430
# Poissons Ratio (y) = 0.38058 0.19766
# Poissons Ratio (z) = 0.33600 0.17858
#
# Static dielectric constant tensor:
#      x y z
#    x 1.856160 -0.049390 -0.031260 
#    y -0.049390 1.861670 0.030980 
#    z -0.031260 0.030980 1.899770 
# 
# From -- ./inp_files/226459.got.cif
#   From: 2010.05.17/outbox.cif.g08.bks.cpg/sg2_114_cif.got.tgz:226459.got - 2010.06.03 11:33:40.
