data_PCOD9006283
_publ_section_title
;
Structure prediction by ZEFSAII (Michael W. Deem and Ramdas Pophale) SiO2 
 PCOD9006283
Probable space group: P -1
;
_chemical_formula_sum "Si O2"
_cell_formula_units_Z 12
_cell_length_a 7.312876
_cell_length_b 8.020244
_cell_length_c 12.125229
_cell_angle_alpha 55.189881
_cell_angle_beta 74.631100
_cell_angle_gamma 58.105959
_cell_volume 495.059087
_symmetry_space_group_name_H-M "P -1"
_symmetry_group_IT_number 2
_symmetry_cell_setting 'triclinic'
loop_
_space_group_symop_operation_xyz
x,y,z
-x,-y,-z
loop_
_atom_site_type_symbol
_atom_site_label
_atom_site_fract_x
_atom_site_fract_y
_atom_site_fract_z
Si Si1 0.743462 0.393265 0.958847
Si Si2 0.782598 0.788539 0.923599
Si Si3 0.957938 0.141568 0.337461
Si Si4 0.319757 0.073429 0.629237
Si Si5 0.788873 0.673211 0.666139
Si Si6 0.264234 0.067318 0.879895
O O1 0.819615 0.537442 0.972070
O O2 0.753084 0.475016 0.802082
O O3 0.500000 0.500000 0.000000
O O4 0.808551 0.127468 0.049408
O O5 0.893022 0.893654 0.782139
O O6 0.523574 0.947154 0.895941
O O7 0.828974 0.802416 0.040136
O O8 0.763428 0.106821 0.331253
O O9 0.000000 0.000000 0.500000
O O10 0.008059 0.653214 0.690764
O O11 0.580307 0.916821 0.648563
O O12 0.225115 0.177473 0.723570
O O13 0.237124 0.280596 0.476447
#
# Coordination Sequence:
#
# PCOD9006283 Si02
#       6
#     2   2   2   2   2   2
#     4   9  15  31  53  72  99 137 164 205 259 293
#     4   9  18  32  49  76 104 131 167 210 251 299
#     4   9  17  30  50  75 101 133 169 206 251 300
#     4  10  17  28  53  75  96 137 171 201 253 303
#     4   9  17  31  48  74 104 129 169 211 247 299
#     4  10  18  31  56  75  99 138 167 205 257 299
#
# _framework density 24.239532000000001
#
# number of rings (size 3 to 8) (size 9 to 14) (size 15 to 20)
#    0.000    2.667    5.000    0.000    0.000    0.667 
#    0.000    3.333    0.000   24.000    0.000    0.000 
#    0.000    0.000    0.000    0.000    0.000    0.000 
#
# Total GULP energy -66833.779973 kJ/mol
# GULP energy per Si atom -5569.481664 kJ/mol
# Density = 2.418436 g / cm^3
# Si number density = 24.239532 Si / 1000 Ang^3
#
#
#
# Elastic Constant Matrix: (Units=GPa)
#
#
# Indices 1 2 3 4 5 6 
#
# 1 100.9895 28.5562 36.5239 4.2382 -6.7506 27.8469
# 2 28.5562 97.3119 71.0457 40.5003 -0.5928 3.5437
# 3 36.5239 71.0457 254.5764 32.0008 5.7490 20.8660
# 4 4.2382 40.5003 32.0008 41.6885 11.5712 -1.9223
# 5 -6.7506 -0.5928 5.7490 11.5712 44.6200 5.1756
# 6 27.8469 3.5437 20.8660 -1.9223 5.1756 25.8683
#
#
#
# Elastic Compliance Matrix: (Units=1/GPa)
#
#
# Indices 1 2 3 4 5 6 
#
# 1 0.016304 -0.004464 0.000220 0.000480 0.004336 -0.017948
# 2 -0.004464 0.022275 -0.003348 -0.019909 0.004985 0.001978
# 3 0.000220 -0.003348 0.005301 -0.001046 0.000057 -0.004143
# 4 0.000480 -0.019909 -0.001046 0.048310 -0.013673 0.009380
# 5 0.004336 0.004985 0.000057 -0.013673 0.028067 -0.012029
# 6 -0.017948 0.001978 -0.004143 0.009380 -0.012029 0.064153
#
#
# Mechanical properties :
#
#
# Convention : Reuss Voigt Hill
#
# Bulk Modulus (GPa) = 34.85081 80.56993 57.71037
# Shear Modulus (GPa) = 23.90523 43.55216 33.72870
#
# Velocity S-wave (km/s) = 3.14380 4.24340 3.73429
# Velocity P-wave (km/s) = 5.25232 7.57098 6.51562
#
# Compressibility (1/GPa) = 0.02869374
#
# Stress axis : x y z
#
# Youngs Moduli (GPa) = 61.33558 44.89405 188.65864
#
# Poissons Ratio (x) = 0.20042 -0.04144
# Poissons Ratio (y) = 0.27382 0.63162
# Poissons Ratio (z) = -0.01347 0.15030
#
# Static dielectric constant tensor:
#      x y z
#    x 2.106760 -0.002340 0.009440 
#    y -0.002340 2.019250 -0.065680 
#    z 0.009440 -0.065680 2.010490 
# 
# From -- ./inp_files/161461.got.cif
#   From: 2010.05.17/outbox.cif.g08.bks.cpg/sg2_81_cif.got.tgz:161461.got - 2010.06.03 11:33:40.
