data_PCOD9006559
_publ_section_title
;
Structure prediction by ZEFSAII (Michael W. Deem and Ramdas Pophale) SiO2 
 PCOD9006559
Probable space group: P -1
;
_chemical_formula_sum "Si O2"
_cell_formula_units_Z 16
_cell_length_a 8.278456
_cell_length_b 10.898594
_cell_length_c 9.008108
_cell_angle_alpha 89.057848
_cell_angle_beta 107.497133
_cell_angle_gamma 105.907005
_cell_volume 743.527397
_symmetry_space_group_name_H-M "P -1"
_symmetry_group_IT_number 2
_symmetry_cell_setting 'triclinic'
loop_
_space_group_symop_operation_xyz
x,y,z
-x,-y,-z
loop_
_atom_site_type_symbol
_atom_site_label
_atom_site_fract_x
_atom_site_fract_y
_atom_site_fract_z
Si Si1 0.102566 0.247792 0.318747
Si Si2 0.606649 0.147658 0.496983
Si Si3 0.631061 0.752671 0.366333
Si Si4 0.128169 0.872663 0.187328
Si Si5 0.367081 0.149367 0.178931
Si Si6 0.112355 0.014612 0.684304
Si Si7 0.484961 0.640437 0.027728
Si Si8 0.083976 0.637770 0.952775
O O1 0.205023 0.275301 0.502066
O O2 0.237117 0.197463 0.253607
O O3 0.041898 0.356700 0.220552
O O4 0.923126 0.131633 0.280077
O O5 0.518507 0.241259 0.560173
O O6 0.787983 0.160854 0.633632
O O7 0.555670 0.166328 0.313124
O O8 0.500000 0.000000 0.500000
O O9 0.700511 0.895083 0.312185
O O10 0.554661 0.662177 0.213670
O O11 0.965566 0.919013 0.204987
O O12 0.266290 0.996696 0.144891
O O13 0.083004 0.753423 0.065244
O O14 0.401931 0.243967 0.047069
O O15 0.000000 0.000000 0.500000
O O16 0.500000 0.500000 0.000000
O O17 0.284933 0.648426 0.966912
O O18 0.000000 0.500000 0.000000
#
# Coordination Sequence:
#
# PCOD9006559 Si02
#       8
#     2   2   2   2   2   2   2   2
#     4   9  21  42  64  95 130 165 209 258 323 386
#     4   9  17  38  62  96 131 160 209 261 321 377
#     4  10  21  40  65  95 127 171 209 256 324 379
#     4  10  21  38  66  98 129 171 207 261 324 374
#     4   9  21  39  68  96 127 162 211 266 317 378
#     4   9  19  35  65  99 131 164 203 263 315 380
#     4  12  27  45  64  94 129 169 218 270 314 375
#     4  12  27  44  62  93 132 171 215 267 318 377
#
# _framework density 21.519044999999998
#
# number of rings (size 3 to 8) (size 9 to 14) (size 15 to 20)
#    0.000    2.000    1.250    3.000    5.250    5.500 
#    2.250    2.500    0.000    0.000    0.000    0.000 
#    0.000    0.000    0.000    0.000    0.000    0.000 
#
# Total GULP energy -89261.700816 kJ/mol
# GULP energy per Si atom -5578.856301 kJ/mol
# Density = 2.147007 g / cm^3
# Si number density = 21.519045 Si / 1000 Ang^3
#
#
#
# Elastic Constant Matrix: (Units=GPa)
#
#
# Indices 1 2 3 4 5 6 
#
# 1 59.2513 21.2459 25.7808 0.9953 2.7743 -3.2349
# 2 21.2459 100.9589 48.0727 -11.6165 -3.5207 -8.0624
# 3 25.7808 48.0727 108.1303 -1.4379 13.0303 -17.4640
# 4 0.9953 -11.6165 -1.4379 36.3993 -8.5140 -1.3259
# 5 2.7743 -3.5207 13.0303 -8.5140 33.2354 -2.8327
# 6 -3.2349 -8.0624 -17.4640 -1.3259 -2.8327 26.4916
#
#
#
# Elastic Compliance Matrix: (Units=1/GPa)
#
#
# Indices 1 2 3 4 5 6 
#
# 1 0.019398 -0.002775 -0.003435 -0.001849 -0.001121 -0.000952
# 2 -0.002775 0.014381 -0.006210 0.005795 0.005747 0.000848
# 3 -0.003435 -0.006210 0.014593 -0.002520 -0.006182 0.006524
# 4 -0.001849 0.005795 -0.002520 0.031729 0.010101 0.002545
# 5 -0.001121 0.005747 -0.006182 0.010101 0.035963 0.001888
# 6 -0.000952 0.000848 0.006524 0.002545 0.001888 0.042519
#
#
# Mechanical properties :
#
#
# Convention : Reuss Voigt Hill
#
# Bulk Modulus (GPa) = 42.49376 50.94881 46.72128
# Shear Modulus (GPa) = 26.14138 30.77468 28.45803
#
# Velocity S-wave (km/s) = 3.48918 3.78579 3.64051
# Velocity P-wave (km/s) = 6.00187 6.54501 6.27931
#
# Compressibility (1/GPa) = 0.02353287
#
# Stress axis : x y z
#
# Youngs Moduli (GPa) = 51.55122 69.53598 68.52518
#
# Poissons Ratio (x) = 0.19293 0.23537
# Poissons Ratio (y) = 0.14303 0.42557
# Poissons Ratio (z) = 0.17707 0.43185
#
# Static dielectric constant tensor:
#      x y z
#    x 1.840130 0.018080 0.004170 
#    y 0.018080 1.842410 -0.043180 
#    z 0.004170 -0.043180 1.834670 
# 
# From -- ./inp_files/179379.got.cif
#   From: 2010.05.17/outbox.cif.g08.bks.cpg/sg2_90_cif.got.tgz:179379.got - 2010.06.03 11:33:40.
