data_PCOD9006750
_publ_section_title
;
Structure prediction by ZEFSAII (Michael W. Deem and Ramdas Pophale) SiO2 
 PCOD9006750
Probable space group: P -1
;
_chemical_formula_sum "Si O2"
_cell_formula_units_Z 16
_cell_length_a 13.848322
_cell_length_b 9.214587
_cell_length_c 13.775781
_cell_angle_alpha 49.251188
_cell_angle_beta 127.664797
_cell_angle_gamma 85.969120
_cell_volume 656.654794
_symmetry_space_group_name_H-M "P -1"
_symmetry_group_IT_number 2
_symmetry_cell_setting 'triclinic'
loop_
_space_group_symop_operation_xyz
x,y,z
-x,-y,-z
loop_
_atom_site_type_symbol
_atom_site_label
_atom_site_fract_x
_atom_site_fract_y
_atom_site_fract_z
Si Si1 0.689979 0.650332 0.958413
Si Si2 0.937627 0.743979 0.752221
Si Si3 0.584561 0.392070 0.988987
Si Si4 0.481222 0.247813 0.673198
Si Si5 0.774650 0.176041 0.866900
Si Si6 0.350703 0.358732 0.743541
Si Si7 0.996418 0.743200 0.003842
Si Si8 0.049075 0.832180 0.493024
O O1 0.562587 0.640052 0.836312
O O2 0.830862 0.381133 0.244946
O O3 0.831908 0.562065 0.003070
O O4 0.563649 0.953804 0.808272
O O5 0.893162 0.818329 0.806148
O O6 0.904875 0.997986 0.576274
O O7 0.870590 0.610618 0.737961
O O8 0.500000 0.500000 0.000000
O O9 0.463685 0.392928 0.851061
O O10 0.818862 0.069136 0.261639
O O11 0.662829 0.150247 0.868351
O O12 0.385781 0.485010 0.425683
O O13 0.325392 0.419549 0.587391
O O14 0.879404 0.939714 0.944054
O O15 0.906835 0.170535 0.002300
O O16 0.146008 0.592746 0.570252
O O17 0.500000 0.000000 0.000000
#
# Coordination Sequence:
#
# PCOD9006750 Si02
#       8
#     2   2   2   2   2   2   2   2
#     4  11  22  44  64  95 137 176 218 271 335 403
#     4  10  21  38  68  96 129 169 220 278 329 394
#     4  11  23  41  68  97 133 178 219 264 330 402
#     4  11  23  44  63  91 135 175 219 280 326 395
#     4  10  23  42  65  90 127 177 220 277 338 386
#     4  12  25  44  64  99 138 176 225 272 326 403
#     4  10  21  42  66  95 124 169 231 275 333 397
#     4  11  24  43  69  99 139 177 215 274 336 400
#
# _framework density 24.365924
#
# number of rings (size 3 to 8) (size 9 to 14) (size 15 to 20)
#    0.000    1.250    3.750    2.250    3.500    1.500 
#    4.500    0.625    0.000    0.000    0.000    0.000 
#    0.000    0.000    0.000    0.000    0.000    0.000 
#
# Total GULP energy -89284.980958 kJ/mol
# GULP energy per Si atom -5580.311310 kJ/mol
# Density = 2.431047 g / cm^3
# Si number density = 24.365924 Si / 1000 Ang^3
#
#
#
# Elastic Constant Matrix: (Units=GPa)
#
#
# Indices 1 2 3 4 5 6 
#
# 1 90.9531 35.3082 21.1902 -12.1946 6.7865 -15.5958
# 2 35.3082 139.8082 41.4580 -33.2634 14.0242 1.8293
# 3 21.1902 41.4580 88.1872 -27.3414 6.6920 3.4829
# 4 -12.1946 -33.2634 -27.3414 29.4532 -4.8011 2.8730
# 5 6.7865 14.0242 6.6920 -4.8011 34.3922 -6.0990
# 6 -15.5958 1.8293 3.4829 2.8730 -6.0990 40.5531
#
#
#
# Elastic Compliance Matrix: (Units=1/GPa)
#
#
# Indices 1 2 3 4 5 6 
#
# 1 0.013550 -0.002893 -0.002179 -0.000239 -0.000123 0.005527
# 2 -0.002893 0.010856 -0.001019 0.009927 -0.002738 -0.002630
# 3 -0.002179 -0.001019 0.016806 0.013696 -0.001111 -0.003373
# 4 -0.000239 0.009927 0.013696 0.058418 0.000463 -0.005785
# 5 -0.000123 -0.002738 -0.001111 0.000463 0.031359 0.004855
# 6 0.005527 -0.002630 -0.003373 -0.005785 0.004855 0.028333
#
#
# Mechanical properties :
#
#
# Convention : Reuss Voigt Hill
#
# Bulk Modulus (GPa) = 34.44606 57.20682 45.82644
# Shear Modulus (GPa) = 27.59666 35.61250 31.60458
#
# Velocity S-wave (km/s) = 3.36905 3.82720 3.60541
# Velocity P-wave (km/s) = 5.41310 6.56194 6.01501
#
# Compressibility (1/GPa) = 0.02903089
#
# Stress axis : x y z
#
# Youngs Moduli (GPa) = 73.79958 92.11149 59.50298
#
# Poissons Ratio (x) = 0.26644 0.12965
# Poissons Ratio (y) = 0.21348 0.06065
# Poissons Ratio (z) = 0.16081 0.09388
#
# Static dielectric constant tensor:
#      x y z
#    x 2.060610 0.073450 0.026680 
#    y 0.073450 1.973260 0.018020 
#    z 0.026680 0.018020 2.042660 
# 
# From -- ./inp_files/528174.got.cif
#   From: 2010.05.17/outbox.cif.g08.bks.cpg/sg2_265_cif.got.tgz:528174.got - 2010.06.03 11:33:40.
