data_PCOD9006001
_publ_section_title
;
Structure prediction by ZEFSAII (Michael W. Deem and Ramdas Pophale) SiO2 
 PCOD9006001
Probable space group: P -1
;
_chemical_formula_sum "Si O2"
_cell_formula_units_Z 14
_cell_length_a 11.417880
_cell_length_b 11.253162
_cell_length_c 8.520078
_cell_angle_alpha 46.393449
_cell_angle_beta 54.686945
_cell_angle_gamma 51.865842
_cell_volume 600.836781
_symmetry_space_group_name_H-M "P -1"
_symmetry_group_IT_number 2
_symmetry_cell_setting 'triclinic'
loop_
_space_group_symop_operation_xyz
x,y,z
-x,-y,-z
loop_
_atom_site_type_symbol
_atom_site_label
_atom_site_fract_x
_atom_site_fract_y
_atom_site_fract_z
Si Si1 0.274132 0.002166 0.447189
Si Si2 0.571880 0.017253 0.096233
Si Si3 0.964478 0.087051 0.151420
Si Si4 0.142665 0.381089 0.279357
Si Si5 0.874425 0.407120 0.159368
Si Si6 0.247698 0.790694 0.347649
Si Si7 0.859297 0.716708 0.292092
O O1 0.156365 0.203593 0.341411
O O2 0.440418 0.015758 0.320449
O O3 0.204468 0.921784 0.714439
O O4 0.266136 0.894314 0.396317
O O5 0.723870 0.843540 0.171820
O O6 0.500000 0.000000 0.000000
O O7 0.620143 0.188099 0.886704
O O8 0.957331 0.218061 0.184405
O O9 0.092675 0.903686 0.272500
O O10 0.024696 0.174622 0.883596
O O11 0.206428 0.315645 0.462211
O O12 0.972265 0.526223 0.315579
O O13 0.224923 0.476209 0.014987
O O14 0.773988 0.381721 0.405293
O O15 0.000000 0.500000 0.000000
#
# Coordination Sequence:
#
# PCOD9006001 Si02
#       7
#     2   2   2   2   2   2   2
#     4  10  18  31  55  82 105 139 184 221 265 319
#     4   9  19  36  57  80 109 145 178 222 277 321
#     4   9  17  31  53  78 104 139 184 225 259 316
#     4  10  20  33  54  80 107 143 185 223 269 319
#     4  10  17  28  51  79 107 136 174 222 267 312
#     4   9  17  32  52  78 108 141 180 222 264 319
#     4   9  20  37  54  75 110 146 180 225 272 320
#
# _framework density 23.300839
#
# number of rings (size 3 to 8) (size 9 to 14) (size 15 to 20)
#    0.000    2.571    0.000    3.429    0.000    3.429 
#    0.000    0.714    0.000   43.714    0.000    7.000 
#    0.000    0.000    0.000    0.000    0.000    0.286 
#
# Total GULP energy -77944.179120 kJ/mol
# GULP energy per Si atom -5567.441366 kJ/mol
# Density = 2.324780 g / cm^3
# Si number density = 23.300839 Si / 1000 Ang^3
#
#
#
# Elastic Constant Matrix: (Units=GPa)
#
#
# Indices 1 2 3 4 5 6 
#
# 1 63.2682 14.5869 65.7639 5.7657 -14.5905 -16.0820
# 2 14.5869 44.3393 16.5881 0.8089 -12.0228 -6.7947
# 3 65.7639 16.5881 155.2988 -5.5248 -24.7860 -16.6080
# 4 5.7657 0.8089 -5.5248 26.1048 -5.3952 0.8155
# 5 -14.5905 -12.0228 -24.7860 -5.3952 51.0662 9.4014
# 6 -16.0820 -6.7947 -16.6080 0.8155 9.4014 20.7799
#
#
#
# Elastic Compliance Matrix: (Units=1/GPa)
#
#
# Indices 1 2 3 4 5 6 
#
# 1 0.035873 -0.004400 -0.013619 -0.011537 -0.001681 0.016653
# 2 -0.004400 0.025573 0.000201 0.001036 0.004403 0.003085
# 3 -0.013619 0.000201 0.012735 0.006466 0.003405 -0.002090
# 4 -0.011537 0.001036 0.006466 0.043713 0.006163 -0.007926
# 5 -0.001681 0.004403 0.003405 0.006163 0.023956 -0.008220
# 6 0.016653 0.003085 -0.002090 -0.007926 -0.008220 0.064379
#
#
# Mechanical properties :
#
#
# Convention : Reuss Voigt Hill
#
# Bulk Modulus (GPa) = 25.94342 50.75380 38.34861
# Shear Modulus (GPa) = 19.62993 30.65469 25.14231
#
# Velocity S-wave (km/s) = 2.90566 3.63106 3.28842
# Velocity P-wave (km/s) = 4.73449 6.27764 5.55986
#
# Compressibility (1/GPa) = 0.03854542
#
# Stress axis : x y z
#
# Youngs Moduli (GPa) = 27.87629 39.10316 78.52495
#
# Poissons Ratio (x) = 0.17206 1.06942
# Poissons Ratio (y) = 0.12266 -0.01579
# Poissons Ratio (z) = 0.37964 -0.00787
#
# Static dielectric constant tensor:
#      x y z
#    x 1.957790 0.041470 0.015820 
#    y 0.041470 1.926030 0.043370 
#    z 0.015820 0.043370 2.044980 
# 
# From -- ./inp_files/255658.got.cif
#   From: 2010.05.17/outbox.cif.g08.bks.cpg/sg2_128_cif.got.tgz:255658.got - 2010.06.03 11:33:40.
