data_PCOD9006348
_publ_section_title
;
Structure prediction by ZEFSAII (Michael W. Deem and Ramdas Pophale) SiO2 
 PCOD9006348
Probable space group: P -1
;
_chemical_formula_sum "Si O2"
_cell_formula_units_Z 16
_cell_length_a 14.125239
_cell_length_b 8.882016
_cell_length_c 22.154131
_cell_angle_alpha 140.327847
_cell_angle_beta 19.468273
_cell_angle_gamma 135.911099
_cell_volume 591.017700
_symmetry_space_group_name_H-M "P -1"
_symmetry_group_IT_number 2
_symmetry_cell_setting 'triclinic'
loop_
_space_group_symop_operation_xyz
x,y,z
-x,-y,-z
loop_
_atom_site_type_symbol
_atom_site_label
_atom_site_fract_x
_atom_site_fract_y
_atom_site_fract_z
Si Si1 0.879137 0.238650 0.533737
Si Si2 0.390144 0.113048 0.940845
Si Si3 0.966651 0.583665 0.182424
Si Si4 0.970737 0.287103 0.684469
Si Si5 0.810790 0.935881 0.821004
Si Si6 0.339713 0.410354 0.399480
Si Si7 0.371833 0.274758 0.768621
Si Si8 0.878992 0.170092 0.177778
O O1 0.573749 0.324380 0.720551
O O2 0.066116 0.367901 0.509243
O O3 0.873100 0.970129 0.479087
O O4 0.054472 0.225124 0.361746
O O5 0.687317 0.244656 0.803354
O O6 0.472654 0.834574 0.795305
O O7 0.159214 0.202487 0.059681
O O8 0.251017 0.148509 0.101026
O O9 0.125417 0.641743 0.168500
O O10 0.970155 0.849258 0.237414
O O11 0.761539 0.398306 0.281577
O O12 0.096298 0.430045 0.002165
O O13 0.201836 0.437124 0.556589
O O14 0.500000 0.000000 0.000000
O O15 0.503010 0.622687 0.336384
O O16 0.325896 0.995250 0.712060
O O17 0.000000 0.000000 0.000000
#
# Coordination Sequence:
#
# PCOD9006348 Si02
#       8
#     2   2   2   2   2   2   2   2
#     4  10  21  38  65  96 130 159 199 270 326 367
#     4  11  21  41  66  94 131 164 211 259 319 383
#     4  10  21  43  62  93 127 165 212 257 316 376
#     4  10  23  38  66  98 125 156 209 268 327 367
#     4  11  18  40  67  99 125 160 205 266 323 375
#     4  11  22  37  65  99 125 160 211 265 323 367
#     4  11  23  43  63  89 130 170 213 249 313 383
#     4  10  26  42  62  87 130 179 213 252 305 381
#
# _framework density 27.071949
#
# number of rings (size 3 to 8) (size 9 to 14) (size 15 to 20)
#    0.000    1.500    5.000    1.875    7.000    2.000 
#    0.000    5.000    0.000    0.000    0.000    0.000 
#    0.000    0.000    0.000    0.000    0.000    0.000 
#
# Total GULP energy -89407.865137 kJ/mol
# GULP energy per Si atom -5587.991571 kJ/mol
# Density = 2.701033 g / cm^3
# Si number density = 27.071949 Si / 1000 Ang^3
#
#
#
# Elastic Constant Matrix: (Units=GPa)
#
#
# Indices 1 2 3 4 5 6 
#
# 1 96.2558 3.2255 40.8129 -19.6159 13.9664 -9.8513
# 2 3.2255 134.9907 38.4490 -42.2771 6.0788 -26.5199
# 3 40.8129 38.4490 82.0302 -19.8628 25.6887 -20.7388
# 4 -19.6159 -42.2771 -19.8628 38.6789 -15.0065 10.3832
# 5 13.9664 6.0788 25.6887 -15.0065 42.2736 -12.5577
# 6 -9.8513 -26.5199 -20.7388 10.3832 -12.5577 40.9760
#
#
#
# Elastic Compliance Matrix: (Units=1/GPa)
#
#
# Indices 1 2 3 4 5 6 
#
# 1 0.015568 0.005402 -0.008461 0.010377 0.003303 0.001340
# 2 0.005402 0.015612 -0.006720 0.017928 0.008191 0.005969
# 3 -0.008461 -0.006720 0.022449 -0.005096 -0.010811 0.002957
# 4 0.010377 0.017928 -0.005096 0.053915 0.017155 0.003114
# 5 0.003303 0.008191 -0.010811 0.017155 0.036239 0.007383
# 6 0.001340 0.005969 0.002957 0.003114 0.007383 0.031560
#
#
# Mechanical properties :
#
#
# Convention : Reuss Voigt Hill
#
# Bulk Modulus (GPa) = 29.35027 53.13906 41.24467
# Shear Modulus (GPa) = 24.24164 39.77165 32.00664
#
# Velocity S-wave (km/s) = 2.99566 3.83705 3.44216
# Velocity P-wave (km/s) = 4.77812 6.26914 5.57371
#
# Compressibility (1/GPa) = 0.03407123
#
# Stress axis : x y z
#
# Youngs Moduli (GPa) = 64.23470 64.05504 44.54514
#
# Poissons Ratio (x) = -0.34604 0.37688
# Poissons Ratio (y) = -0.34701 0.29936
# Poissons Ratio (z) = 0.54347 0.43047
#
# Static dielectric constant tensor:
#      x y z
#    x 2.065870 0.035040 -0.082140 
#    y 0.035040 2.373770 0.037440 
#    z -0.082140 0.037440 2.138360 
# 
# From -- ./inp_files/401650.got.cif
#   From: 2010.05.17/outbox.cif.g08.bks.cpg/sg2_201_cif.got.tgz:401650.got - 2010.06.03 11:33:40.
