data_PCOD9006044
_publ_section_title
;
Structure prediction by ZEFSAII (Michael W. Deem and Ramdas Pophale) SiO2 
 PCOD9006044
Probable space group: P -1
;
_chemical_formula_sum "Si O2"
_cell_formula_units_Z 16
_cell_length_a 8.305935
_cell_length_b 9.165790
_cell_length_c 26.202977
_cell_angle_alpha 47.487815
_cell_angle_beta 30.390902
_cell_angle_gamma 60.684609
_cell_volume 720.256634
_symmetry_space_group_name_H-M "P -1"
_symmetry_group_IT_number 2
_symmetry_cell_setting 'triclinic'
loop_
_space_group_symop_operation_xyz
x,y,z
-x,-y,-z
loop_
_atom_site_type_symbol
_atom_site_label
_atom_site_fract_x
_atom_site_fract_y
_atom_site_fract_z
Si Si1 0.268107 0.429411 0.263450
Si Si2 0.110288 0.913560 0.123461
Si Si3 0.021276 0.832375 0.776622
Si Si4 0.271477 0.869803 0.460489
Si Si5 0.064640 0.501213 0.760076
Si Si6 0.743967 0.487666 0.526706
Si Si7 0.894382 0.297060 0.109936
Si Si8 0.869027 0.217222 0.735584
O O1 0.525058 0.293377 0.228166
O O2 0.370058 0.633925 0.221995
O O3 0.909108 0.305005 0.409138
O O4 0.219619 0.486217 0.205416
O O5 0.015573 0.814893 0.229704
O O6 0.018427 0.738567 0.147566
O O7 0.937558 0.095280 0.118014
O O8 0.500000 0.000000 0.000000
O O9 0.058124 0.667536 0.764563
O O10 0.916613 0.713475 0.886318
O O11 0.382190 0.989858 0.648568
O O12 0.787540 0.984553 0.792955
O O13 0.305030 0.737224 0.432393
O O14 0.000000 0.000000 0.500000
O O15 0.420006 0.534567 0.628425
O O16 0.000000 0.500000 0.500000
O O17 0.884020 0.649863 0.404858
O O18 0.000000 0.500000 0.000000
#
# Coordination Sequence:
#
# PCOD9006044 Si02
#       8
#     2   2   2   2   2   2   2   2
#     4  10  21  38  64  93 128 169 215 259 321 388
#     4  10  22  46  72  91 126 171 218 268 327 387
#     4  11  23  41  62  93 132 172 215 264 319 390
#     4  11  20  35  61  91 129 171 212 254 320 381
#     4  11  24  41  63  98 131 168 216 268 323 386
#     4  11  23  38  63  98 137 173 219 268 318 386
#     4  11  22  41  69  95 120 169 218 269 327 385
#     4   9  21  40  62  92 127 173 211 258 324 379
#
# _framework density 22.214303000000001
#
# number of rings (size 3 to 8) (size 9 to 14) (size 15 to 20)
#    0.000    1.500    1.250    5.250    1.750    6.500 
#    0.000    6.250    0.000    0.000    0.000    0.000 
#    0.000    0.000    0.000    0.000    0.000    0.000 
#
# Total GULP energy -89218.685755 kJ/mol
# GULP energy per Si atom -5576.167860 kJ/mol
# Density = 2.216374 g / cm^3
# Si number density = 22.214303 Si / 1000 Ang^3
#
#
#
# Elastic Constant Matrix: (Units=GPa)
#
#
# Indices 1 2 3 4 5 6 
#
# 1 42.4209 61.1730 30.8657 -6.3400 2.3857 3.6020
# 2 61.1730 240.4915 34.5555 -6.6020 1.7826 20.7678
# 3 30.8657 34.5555 84.8593 -7.1504 11.5662 4.9031
# 4 -6.3400 -6.6020 -7.1504 32.2302 -12.7608 0.3549
# 5 2.3857 1.7826 11.5662 -12.7608 21.8987 -0.1777
# 6 3.6020 20.7678 4.9031 0.3549 -0.1777 47.8190
#
#
#
# Elastic Compliance Matrix: (Units=1/GPa)
#
#
# Indices 1 2 3 4 5 6 
#
# 1 0.049868 -0.010685 -0.014296 0.007298 0.007259 0.002323
# 2 -0.010685 0.006888 0.001220 -0.000544 -0.000377 -0.002309
# 3 -0.014296 0.001220 0.017621 -0.002276 -0.009185 -0.001277
# 4 0.007298 -0.000544 -0.002276 0.041632 0.024709 -0.000297
# 5 0.007259 -0.000377 -0.009185 0.024709 0.064159 0.000614
# 6 0.002323 -0.002309 -0.001277 -0.000297 0.000614 0.021876
#
#
# Mechanical properties :
#
#
# Convention : Reuss Voigt Hill
#
# Bulk Modulus (GPa) = 37.23514 68.99559 53.11536
# Shear Modulus (GPa) = 19.34101 36.46807 27.90454
#
# Velocity S-wave (km/s) = 2.95389 4.05612 3.54807
# Velocity P-wave (km/s) = 5.33218 7.28441 6.38337
#
# Compressibility (1/GPa) = 0.02685635
#
# Stress axis : x y z
#
# Youngs Moduli (GPa) = 20.05275 145.18250 56.74984
#
# Poissons Ratio (x) = 1.55123 0.81132
# Poissons Ratio (y) = 0.21426 -0.06926
# Poissons Ratio (z) = 0.28668 -0.17719
#
# Static dielectric constant tensor:
#      x y z
#    x 1.808350 -0.014550 0.011330 
#    y -0.014550 1.898580 -0.012330 
#    z 0.011330 -0.012330 1.896180 
# 
# From -- ./inp_files/616639.got.cif
#   From: 2010.05.17/outbox.cif.g08.bks.cpg/sg2_309_cif.got.tgz:616639.got - 2010.06.03 11:33:40.
