data_PCOD9006479
_publ_section_title
;
Structure prediction by ZEFSAII (Michael W. Deem and Ramdas Pophale) SiO2 
 PCOD9006479
Probable space group: P -1
;
_chemical_formula_sum "Si O2"
_cell_formula_units_Z 16
_cell_length_a 11.061731
_cell_length_b 12.173967
_cell_length_c 8.930179
_cell_angle_alpha 69.930078
_cell_angle_beta 57.119590
_cell_angle_gamma 105.740900
_cell_volume 772.683130
_symmetry_space_group_name_H-M "P -1"
_symmetry_group_IT_number 2
_symmetry_cell_setting 'triclinic'
loop_
_space_group_symop_operation_xyz
x,y,z
-x,-y,-z
loop_
_atom_site_type_symbol
_atom_site_label
_atom_site_fract_x
_atom_site_fract_y
_atom_site_fract_z
Si Si1 0.259766 0.856795 0.638159
Si Si2 0.419657 0.577921 0.586650
Si Si3 0.683694 0.405335 0.664801
Si Si4 0.600278 0.667511 0.893128
Si Si5 0.926447 0.682863 0.573267
Si Si6 0.313248 0.859335 0.244810
Si Si7 0.539998 0.817755 0.598050
Si Si8 0.924381 0.580812 0.936402
O O1 0.316498 0.865049 0.422009
O O2 0.358789 0.804067 0.694021
O O3 0.051467 0.741310 0.838583
O O4 0.318508 0.012421 0.574622
O O5 0.500000 0.500000 0.500000
O O6 0.312398 0.584167 0.520466
O O7 0.558738 0.733100 0.491344
O O8 0.277382 0.491477 0.852901
O O9 0.820437 0.561717 0.573070
O O10 0.709517 0.281847 0.739876
O O11 0.485047 0.340381 0.886912
O O12 0.802925 0.728256 0.700521
O O13 0.547297 0.746476 0.778286
O O14 0.500000 0.500000 0.000000
O O15 0.943701 0.596716 0.737362
O O16 0.122809 0.823704 0.342749
O O17 0.500000 0.000000 0.000000
O O18 0.000000 0.500000 0.000000
#
# Coordination Sequence:
#
# PCOD9006479 Si02
#       8
#     2   2   2   2   2   2   2   2
#     4  10  23  41  66  92 122 174 224 253 311 385
#     4  12  22  38  63  96 130 160 206 272 318 367
#     4  11  21  38  57  96 124 158 206 265 319 358
#     4  10  21  38  66  92 124 172 211 251 321 385
#     4  10  22  41  60  92 125 162 213 257 315 386
#     4  11  22  40  61  93 123 160 210 265 318 366
#     4  11  21  43  66  89 129 173 214 258 311 390
#     4  11  21  40  65  91 122 171 224 256 304 385
#
# _framework density 20.707065
#
# number of rings (size 3 to 8) (size 9 to 14) (size 15 to 20)
#    0.000    1.250    2.500    5.625    0.000    0.000 
#    4.500    7.500    0.000    0.000    0.000    0.000 
#    0.000    0.000    0.000    0.000    0.000    0.000 
#
# Total GULP energy -89262.338946 kJ/mol
# GULP energy per Si atom -5578.896184 kJ/mol
# Density = 2.065993 g / cm^3
# Si number density = 20.707065 Si / 1000 Ang^3
#
#
#
# Elastic Constant Matrix: (Units=GPa)
#
#
# Indices 1 2 3 4 5 6 
#
# 1 69.3416 14.9426 34.9879 -11.3042 -5.5606 0.5903
# 2 14.9426 109.3119 27.5320 -10.7363 -12.9913 1.3671
# 3 34.9879 27.5320 83.0536 -7.8083 -19.9605 1.4769
# 4 -11.3042 -10.7363 -7.8083 26.6658 2.3378 -1.9822
# 5 -5.5606 -12.9913 -19.9605 2.3378 44.9870 2.0189
# 6 0.5903 1.3671 1.4769 -1.9822 2.0189 34.8552
#
#
#
# Elastic Compliance Matrix: (Units=1/GPa)
#
#
# Indices 1 2 3 4 5 6 
#
# 1 0.019280 -0.000260 -0.007847 0.005935 -0.001502 0.000441
# 2 -0.000260 0.010351 -0.002630 0.003128 0.001636 -0.000207
# 3 -0.007847 -0.002630 0.017735 0.000203 0.006167 -0.000861
# 4 0.005935 0.003128 0.000203 0.041543 -0.000529 0.002161
# 5 -0.001502 0.001636 0.006167 -0.000529 0.025360 -0.001799
# 6 0.000441 -0.000207 -0.000861 0.002161 -0.001799 0.028954
#
#
# Mechanical properties :
#
#
# Convention : Reuss Voigt Hill
#
# Bulk Modulus (GPa) = 38.62427 46.29246 42.45837
# Shear Modulus (GPa) = 28.84713 33.58456 31.21585
#
# Velocity S-wave (km/s) = 3.73648 4.03164 3.88686
# Velocity P-wave (km/s) = 6.10805 6.63902 6.37906
#
# Compressibility (1/GPa) = 0.02589046
#
# Stress axis : x y z
#
# Youngs Moduli (GPa) = 51.86724 96.61334 56.38724
#
# Poissons Ratio (x) = 0.02515 0.44244
# Poissons Ratio (y) = 0.01350 0.14833
# Poissons Ratio (z) = 0.40698 0.25414
#
# Static dielectric constant tensor:
#      x y z
#    x 1.819690 -0.023390 -0.007960 
#    y -0.023390 1.740790 0.002920 
#    z -0.007960 0.002920 1.797230 
# 
# From -- ./inp_files/257444.got.cif
#   From: 2010.05.17/outbox.cif.g08.bks.cpg/sg2_129_cif.got.tgz:257444.got - 2010.06.03 11:33:40.
