data_PCOD9006632
_publ_section_title
;
Structure prediction by ZEFSAII (Michael W. Deem and Ramdas Pophale) SiO2 
 PCOD9006632
Probable space group: P -1
;
_chemical_formula_sum "Si O2"
_cell_formula_units_Z 16
_cell_length_a 8.235120
_cell_length_b 10.132432
_cell_length_c 14.213498
_cell_angle_alpha 132.115051
_cell_angle_beta 83.687924
_cell_angle_gamma 125.897211
_cell_volume 628.528747
_symmetry_space_group_name_H-M "P -1"
_symmetry_group_IT_number 2
_symmetry_cell_setting 'triclinic'
loop_
_space_group_symop_operation_xyz
x,y,z
-x,-y,-z
loop_
_atom_site_type_symbol
_atom_site_label
_atom_site_fract_x
_atom_site_fract_y
_atom_site_fract_z
Si Si1 0.117660 0.407724 0.912983
Si Si2 0.888257 0.404467 0.676446
Si Si3 0.388418 0.786792 0.770163
Si Si4 0.782040 0.464171 0.516537
Si Si5 0.441739 0.205830 0.047956
Si Si6 0.278490 0.451696 0.122219
Si Si7 0.135477 0.115240 0.395941
Si Si8 0.311783 0.121688 0.569940
O O1 0.297164 0.560080 0.889005
O O2 0.270041 0.455794 0.013439
O O3 0.929531 0.119231 0.761448
O O4 0.000000 0.500000 0.000000
O O5 0.765421 0.417590 0.605691
O O6 0.919614 0.571383 0.836660
O O7 0.739558 0.119913 0.572534
O O8 0.135883 0.526549 0.687236
O O9 0.415095 0.757858 0.645970
O O10 0.556611 0.839260 0.863204
O O11 0.376332 0.987477 0.884798
O O12 0.819399 0.694586 0.591092
O O13 0.000000 0.500000 0.500000
O O14 0.284465 0.253610 0.059400
O O15 0.494270 0.702478 0.280704
O O16 0.909641 0.991404 0.410108
O O17 0.320425 0.238837 0.527588
#
# Coordination Sequence:
#
# PCOD9006632 Si02
#       8
#     2   2   2   2   2   2   2   2
#     4  12  27  45  69  98 137 173 224 277 339 397
#     4  11  24  42  66  96 136 176 220 277 331 391
#     4  10  22  43  67  91 136 177 217 267 339 394
#     4  10  21  38  67  93 127 170 223 265 322 397
#     4  11  24  42  67  96 132 176 217 275 330 404
#     4  12  26  40  68 100 135 171 228 276 328 395
#     4  11  22  42  71  97 127 180 224 272 337 396
#     4  11  22  41  71  96 134 171 226 280 331 390
#
# _framework density 25.456275999999999
#
# number of rings (size 3 to 8) (size 9 to 14) (size 15 to 20)
#    0.000    1.000    3.750    3.750    5.250    0.500 
#    4.500    1.250    0.000    0.000    0.000    0.000 
#    0.000    0.000    0.000    0.000    0.000    0.000 
#
# Total GULP energy -89578.679335 kJ/mol
# GULP energy per Si atom -5598.667458 kJ/mol
# Density = 2.539834 g / cm^3
# Si number density = 25.456276 Si / 1000 Ang^3
#
#
#
# Elastic Constant Matrix: (Units=GPa)
#
#
# Indices 1 2 3 4 5 6 
#
# 1 74.7490 11.8340 15.5874 -0.5934 -5.2146 -13.6127
# 2 11.8340 96.8505 49.3984 -16.1524 -2.4703 -32.4260
# 3 15.5874 49.3984 144.6097 -3.8802 -6.4386 -26.1403
# 4 -0.5934 -16.1524 -3.8802 54.5032 -12.0221 -0.3979
# 5 -5.2146 -2.4703 -6.4386 -12.0221 46.5111 7.8336
# 6 -13.6127 -32.4260 -26.1403 -0.3979 7.8336 42.8021
#
#
#
# Elastic Compliance Matrix: (Units=1/GPa)
#
#
# Indices 1 2 3 4 5 6 
#
# 1 0.014321 0.000062 -0.000801 0.000350 0.000924 0.003947
# 2 0.000062 0.016380 -0.003625 0.004637 -0.000159 0.010287
# 3 -0.000801 -0.003625 0.008647 -0.000351 0.000454 0.002194
# 4 0.000350 0.004637 -0.000351 0.020863 0.005182 0.002655
# 5 0.000924 -0.000159 0.000454 0.005182 0.023643 -0.003828
# 6 0.003947 0.010287 0.002194 0.002655 -0.003828 0.034477
#
#
# Mechanical properties :
#
#
# Convention : Reuss Voigt Hill
#
# Bulk Modulus (GPa) = 32.65826 52.20541 42.43183
# Shear Modulus (GPa) = 36.42564 44.72260 40.57412
#
# Velocity S-wave (km/s) = 3.78684 4.19601 3.99667
# Velocity P-wave (km/s) = 5.65484 6.63534 6.16462
#
# Compressibility (1/GPa) = 0.03062013
#
# Stress axis : x y z
#
# Youngs Moduli (GPa) = 69.82625 61.04964 115.64478
#
# Poissons Ratio (x) = -0.00378 0.09262
# Poissons Ratio (y) = -0.00432 0.41923
# Poissons Ratio (z) = 0.05592 0.22132
#
# Static dielectric constant tensor:
#      x y z
#    x 2.089290 0.047090 0.008240 
#    y 0.047090 2.016270 -0.009840 
#    z 0.008240 -0.009840 1.971960 
# 
# From -- ./inp_files/495741.got.cif
#   From: 2010.05.17/outbox.cif.g08.bks.cpg/sg2_248_cif.got.tgz:495741.got - 2010.06.03 11:33:40.
