data_PCOD9006616
_publ_section_title
;
Structure prediction by ZEFSAII (Michael W. Deem and Ramdas Pophale) SiO2 
 PCOD9006616
Probable space group: P -1
;
_chemical_formula_sum "Si O2"
_cell_formula_units_Z 16
_cell_length_a 8.889515
_cell_length_b 22.261985
_cell_length_c 10.418641
_cell_angle_alpha 36.611748
_cell_angle_beta 138.538759
_cell_angle_gamma 125.220060
_cell_volume 812.559873
_symmetry_space_group_name_H-M "P -1"
_symmetry_group_IT_number 2
_symmetry_cell_setting 'triclinic'
loop_
_space_group_symop_operation_xyz
x,y,z
-x,-y,-z
loop_
_atom_site_type_symbol
_atom_site_label
_atom_site_fract_x
_atom_site_fract_y
_atom_site_fract_z
Si Si1 0.633536 0.571469 0.110646
Si Si2 0.395957 0.280927 0.407580
Si Si3 0.662067 0.027069 0.754429
Si Si4 0.825090 0.527780 0.950823
Si Si5 0.728016 0.932272 0.222503
Si Si6 0.144199 0.790286 0.276786
Si Si7 0.027643 0.580584 0.544881
Si Si8 0.828861 0.960081 0.692350
O O1 0.751204 0.465273 0.313645
O O2 0.808734 0.598185 0.286663
O O3 0.627147 0.657591 0.848433
O O4 0.384960 0.545282 0.044736
O O5 0.274124 0.177655 0.528549
O O6 0.660638 0.241806 0.646608
O O7 0.295901 0.360840 0.310767
O O8 0.752126 0.129945 0.695999
O O9 0.391723 0.035354 0.544903
O O10 0.764501 0.003359 0.719748
O O11 0.723173 0.941152 0.047821
O O12 0.986543 0.509315 0.210040
O O13 0.000000 0.500000 0.000000
O O14 0.959244 0.982209 0.323785
O O15 0.500000 0.000000 0.000000
O O16 0.071366 0.684585 0.465024
O O17 0.929351 0.847024 0.975057
#
# Coordination Sequence:
#
# PCOD9006616 Si02
#       8
#     2   2   2   2   2   2   2   2
#     4  10  21  42  63  89 123 155 205 248 301 364
#     4  11  21  41  61  88 122 160 208 248 299 357
#     4  10  23  42  60  88 126 164 197 253 303 365
#     4  11  23  40  62  91 128 159 194 255 309 359
#     4  11  21  38  59  93 121 159 202 255 301 352
#     4  11  19  36  66  89 114 159 208 243 296 358
#     4  10  21  38  67  92 114 161 203 250 298 361
#     4  10  23  41  61  87 125 162 203 246 310 358
#
# _framework density 19.690857000000001
#
# number of rings (size 3 to 8) (size 9 to 14) (size 15 to 20)
#    0.000    1.500    5.000    2.250    1.750    3.000 
#    2.250    0.000    0.000    0.000    0.000    0.000 
#    0.000    0.000    0.000    0.000    0.000    0.000 
#
# Total GULP energy -89150.205645 kJ/mol
# GULP energy per Si atom -5571.887853 kJ/mol
# Density = 1.964604 g / cm^3
# Si number density = 19.690857 Si / 1000 Ang^3
#
#
#
# Elastic Constant Matrix: (Units=GPa)
#
#
# Indices 1 2 3 4 5 6 
#
# 1 86.6789 30.9864 27.5400 1.6042 18.0896 5.2130
# 2 30.9864 77.6061 59.8079 -7.1422 1.2692 11.0047
# 3 27.5400 59.8079 109.4651 0.1483 17.4155 12.3130
# 4 1.6042 -7.1422 0.1483 44.0440 1.2268 3.4336
# 5 18.0896 1.2692 17.4155 1.2268 26.4305 2.1499
# 6 5.2130 11.0047 12.3130 3.4336 2.1499 24.2850
#
#
#
# Elastic Compliance Matrix: (Units=1/GPa)
#
#
# Indices 1 2 3 4 5 6 
#
# 1 0.016347 -0.008361 0.002370 -0.001648 -0.012304 0.000400
# 2 -0.008361 0.029305 -0.015647 0.005132 0.014842 -0.005591
# 3 0.002370 -0.015647 0.019426 -0.002177 -0.013426 -0.001772
# 4 -0.001648 0.005132 -0.002177 0.023902 0.001563 -0.004386
# 5 -0.012304 0.014842 -0.013426 0.001563 0.054507 -0.002323
# 6 0.000400 -0.005591 -0.001772 -0.004386 -0.002323 0.045349
#
#
# Mechanical properties :
#
#
# Convention : Reuss Voigt Hill
#
# Bulk Modulus (GPa) = 45.86563 56.71320 51.28942
# Shear Modulus (GPa) = 20.88743 29.31297 25.10020
#
# Velocity S-wave (km/s) = 3.26048 3.86250 3.57419
# Velocity P-wave (km/s) = 6.12517 6.98256 6.56787
#
# Compressibility (1/GPa) = 0.02180282
#
# Stress axis : x y z
#
# Youngs Moduli (GPa) = 61.17354 34.12436 51.47697
#
# Poissons Ratio (x) = 0.28530 -0.12201
# Poissons Ratio (y) = 0.51145 0.80545
# Poissons Ratio (z) = -0.14499 0.53394
#
# Static dielectric constant tensor:
#      x y z
#    x 1.757270 -0.007390 -0.001740 
#    y -0.007390 1.721320 -0.002010 
#    z -0.001740 -0.002010 1.712800 
# 
# From -- ./inp_files/407146.got.cif
#   From: 2010.05.17/outbox.cif.g08.bks.cpg/sg2_204_cif.got.tgz:407146.got - 2010.06.03 11:33:40.
