data_PCOD9006201
_publ_section_title
;
Structure prediction by ZEFSAII (Michael W. Deem and Ramdas Pophale) SiO2 
 PCOD9006201
Probable space group: P -1
;
_chemical_formula_sum "Si O2"
_cell_formula_units_Z 12
_cell_length_a 11.618573
_cell_length_b 15.736263
_cell_length_c 9.856618
_cell_angle_alpha 39.764734
_cell_angle_beta 122.393026
_cell_angle_gamma 152.817092
_cell_volume 453.991814
_symmetry_space_group_name_H-M "P -1"
_symmetry_group_IT_number 2
_symmetry_cell_setting 'triclinic'
loop_
_space_group_symop_operation_xyz
x,y,z
-x,-y,-z
loop_
_atom_site_type_symbol
_atom_site_label
_atom_site_fract_x
_atom_site_fract_y
_atom_site_fract_z
Si Si1 0.321189 0.300280 0.771030
Si Si2 0.326182 0.891545 0.886615
Si Si3 0.843502 0.942119 0.707682
Si Si4 0.278568 0.528527 0.576313
Si Si5 0.852868 0.656268 0.006369
Si Si6 0.242396 0.529713 0.225936
O O1 0.500000 0.500000 0.500000
O O2 0.416887 0.499693 0.689135
O O3 0.471517 0.287386 0.888011
O O4 0.984817 0.034067 0.834025
O O5 0.024699 0.703695 0.963588
O O6 0.532180 0.186055 0.600370
O O7 0.263763 0.704072 0.995603
O O8 0.500000 0.000000 0.000000
O O9 0.989708 0.204910 0.428900
O O10 0.927789 0.876662 0.766452
O O11 0.495902 0.653619 0.846320
O O12 0.218591 0.506067 0.407356
O O13 0.051782 0.307392 0.825367
#
# Coordination Sequence:
#
# PCOD9006201 Si02
#       6
#     2   2   2   2   2   2
#     4  11  20  39  64  89 113 156 209 244 291 351
#     4  10  22  40  61  87 129 154 198 246 293 360
#     4  10  21  40  61  89 124 152 199 255 288 352
#     4  10  21  38  65  87 117 157 199 246 290 357
#     4  11  22  40  61  94 120 158 197 242 311 344
#     4  10  22  40  61  89 120 158 201 249 292 351
#
# _framework density 26.432195
#
# number of rings (size 3 to 8) (size 9 to 14) (size 15 to 20)
#    0.000    1.667    1.667    5.000    0.000    3.333 
#    6.000    7.500    0.000    0.000    0.000    0.000 
#    0.000    0.000    0.000    0.000    0.000    0.000 
#
# Total GULP energy -66956.878332 kJ/mol
# GULP energy per Si atom -5579.739861 kJ/mol
# Density = 2.637203 g / cm^3
# Si number density = 26.432195 Si / 1000 Ang^3
#
#
#
# Elastic Constant Matrix: (Units=GPa)
#
#
# Indices 1 2 3 4 5 6 
#
# 1 173.0754 42.9319 47.1544 -43.7783 45.8353 -33.1720
# 2 42.9319 125.5706 56.4004 -26.2427 26.7802 8.5269
# 3 47.1544 56.4004 99.0560 -33.2540 34.5866 -29.4778
# 4 -43.7783 -26.2427 -33.2540 77.0665 -28.2861 9.9114
# 5 45.8353 26.7802 34.5866 -28.2861 37.0266 -17.9475
# 6 -33.1720 8.5269 -29.4778 9.9114 -17.9475 45.6289
#
#
#
# Elastic Compliance Matrix: (Units=1/GPa)
#
#
# Indices 1 2 3 4 5 6 
#
# 1 0.009296 -0.002150 0.001481 0.001749 -0.007721 0.004699
# 2 -0.002150 0.014884 -0.009341 -0.000802 -0.006099 -0.012604
# 3 0.001481 -0.009341 0.022213 0.002944 -0.006874 0.013829
# 4 0.001749 -0.000802 0.002944 0.018857 0.011980 0.003939
# 5 -0.007721 -0.006099 -0.006874 0.011980 0.062974 0.013254
# 6 0.004699 -0.012604 0.013829 0.003939 0.013254 0.040979
#
#
# Mechanical properties :
#
#
# Convention : Reuss Voigt Hill
#
# Bulk Modulus (GPa) = 37.92080 76.74174 57.33127
# Shear Modulus (GPa) = 25.25079 48.69208 36.97144
#
# Velocity S-wave (km/s) = 3.09415 4.29668 3.74401
# Velocity P-wave (km/s) = 5.20986 7.32883 6.35824
#
# Compressibility (1/GPa) = 0.02637075
#
# Stress axis : x y z
#
# Youngs Moduli (GPa) = 107.57793 67.18849 45.01938
#
# Poissons Ratio (x) = 0.14446 -0.06666
# Poissons Ratio (y) = 0.23131 0.42053
# Poissons Ratio (z) = -0.15929 0.62761
#
# Static dielectric constant tensor:
#      x y z
#    x 2.096860 0.098770 -0.125580 
#    y 0.098770 2.223640 -0.018750 
#    z -0.125580 -0.018750 2.370180 
# 
# From -- ./inp_files/349201.got.cif
#   From: 2010.05.17/outbox.cif.g08.bks.cpg/sg2_175_cif.got.tgz:349201.got - 2010.06.03 11:33:40.
