data_PCOD9006608
_publ_section_title
;
Structure prediction by ZEFSAII (Michael W. Deem and Ramdas Pophale) SiO2 
 PCOD9006608
Probable space group: P -1
;
_chemical_formula_sum "Si O2"
_cell_formula_units_Z 16
_cell_length_a 15.701413
_cell_length_b 8.826111
_cell_length_c 8.239240
_cell_angle_alpha 105.906385
_cell_angle_beta 48.916699
_cell_angle_gamma 79.743710
_cell_volume 719.610937
_symmetry_space_group_name_H-M "P -1"
_symmetry_group_IT_number 2
_symmetry_cell_setting 'triclinic'
loop_
_space_group_symop_operation_xyz
x,y,z
-x,-y,-z
loop_
_atom_site_type_symbol
_atom_site_label
_atom_site_fract_x
_atom_site_fract_y
_atom_site_fract_z
Si Si1 0.135649 0.463260 0.247133
Si Si2 0.465388 0.741726 0.646466
Si Si3 0.715629 0.398387 0.262060
Si Si4 0.557450 0.300161 0.947112
Si Si5 0.232081 0.067470 0.435253
Si Si6 0.849428 0.597888 0.173184
Si Si7 0.953392 0.195495 0.676801
Si Si8 0.612410 0.871849 0.023197
O O1 0.119645 0.661648 0.333249
O O2 0.259427 0.295926 0.115017
O O3 0.000000 0.500000 0.500000
O O4 0.145910 0.430768 0.032551
O O5 0.605817 0.583344 0.366074
O O6 0.363065 0.712246 0.657186
O O7 0.458262 0.690243 0.832255
O O8 0.443614 0.944736 0.743629
O O9 0.777454 0.498599 0.323264
O O10 0.844954 0.254479 0.966837
O O11 0.707928 0.147454 0.678274
O O12 0.500000 0.500000 0.000000
O O13 0.480888 0.206820 0.932188
O O14 0.221556 0.190447 0.636458
O O15 0.333575 0.078835 0.189735
O O16 0.088528 0.175006 0.567608
O O17 0.000000 0.500000 0.000000
O O18 0.000000 0.000000 0.500000
#
# Coordination Sequence:
#
# PCOD9006608 Si02
#       8
#     2   2   2   2   2   2   2   2
#     4  11  23  39  63 100 124 164 213 267 318 379
#     4  10  22  43  65  91 128 177 211 259 327 388
#     4  10  21  38  67  90 123 167 224 256 314 384
#     4  11  25  40  65  93 130 164 219 264 319 380
#     4  11  21  43  66  91 124 177 213 255 328 385
#     4  11  20  39  64  93 128 165 213 263 320 382
#     4  11  22  38  67  91 127 165 215 259 321 380
#     4  11  22  42  67  92 130 170 216 264 319 392
#
# _framework density 22.234235999999999
#
# number of rings (size 3 to 8) (size 9 to 14) (size 15 to 20)
#    0.000    1.250    3.750    4.500    5.250    0.000 
#    4.500    3.125    0.000    2.250    0.000    0.000 
#    0.000    0.000    0.000    0.000    0.000    0.000 
#
# Total GULP energy -89089.532023 kJ/mol
# GULP energy per Si atom -5568.095751 kJ/mol
# Density = 2.218363 g / cm^3
# Si number density = 22.234236 Si / 1000 Ang^3
#
#
#
# Elastic Constant Matrix: (Units=GPa)
#
#
# Indices 1 2 3 4 5 6 
#
# 1 87.1170 44.5261 23.1541 11.6585 -18.2361 18.6809
# 2 44.5261 113.7587 37.1275 51.0681 2.2485 0.4921
# 3 23.1541 37.1275 109.3999 40.0528 -9.1729 6.1398
# 4 11.6585 51.0681 40.0528 47.7899 2.9350 -3.3667
# 5 -18.2361 2.2485 -9.1729 2.9350 39.0051 4.8613
# 6 18.6809 0.4921 6.1398 -3.3667 4.8613 43.7392
#
#
#
# Elastic Compliance Matrix: (Units=1/GPa)
#
#
# Indices 1 2 3 4 5 6 
#
# 1 0.020632 -0.010558 -0.001743 0.006422 0.010499 -0.009121
# 2 -0.010558 0.022627 0.002612 -0.023355 -0.004188 0.002556
# 3 -0.001743 0.002612 0.014649 -0.015095 0.003983 -0.002946
# 4 0.006422 -0.023355 -0.015095 0.057536 -0.004094 0.004523
# 5 0.010499 -0.004188 0.003983 -0.004094 0.033153 -0.008996
# 6 -0.009121 0.002556 -0.002946 0.004523 -0.008996 0.028491
#
#
# Mechanical properties :
#
#
# Convention : Reuss Voigt Hill
#
# Bulk Modulus (GPa) = 25.95387 57.76566 41.85976
# Shear Modulus (GPa) = 23.88801 39.80470 31.84636
#
# Velocity S-wave (km/s) = 3.28133 4.23572 3.78870
# Velocity P-wave (km/s) = 5.10435 7.06814 6.16494
#
# Compressibility (1/GPa) = 0.03852990
#
# Stress axis : x y z
#
# Youngs Moduli (GPa) = 48.46764 44.19577 68.26345
#
# Poissons Ratio (x) = 0.46661 0.11896
# Poissons Ratio (y) = 0.51172 -0.17827
# Poissons Ratio (z) = 0.08446 -0.11542
#
# Static dielectric constant tensor:
#      x y z
#    x 1.932060 0.047480 0.008820 
#    y 0.047480 1.980360 -0.005180 
#    z 0.008820 -0.005180 1.834170 
# 
# From -- ./inp_files/299093.got.cif
#   From: 2010.05.17/outbox.cif.g08.bks.cpg/sg2_150_cif.got.tgz:299093.got - 2010.06.03 11:33:40.
