data_PCOD9006707
_publ_section_title
;
Structure prediction by ZEFSAII (Michael W. Deem and Ramdas Pophale) SiO2 
 PCOD9006707
Probable space group: P -1
;
_chemical_formula_sum "Si O2"
_cell_formula_units_Z 16
_cell_length_a 21.150657
_cell_length_b 15.300963
_cell_length_c 9.385465
_cell_angle_alpha 138.261379
_cell_angle_beta 46.758504
_cell_angle_gamma 162.973134
_cell_volume 585.785754
_symmetry_space_group_name_H-M "P -1"
_symmetry_group_IT_number 2
_symmetry_cell_setting 'triclinic'
loop_
_space_group_symop_operation_xyz
x,y,z
-x,-y,-z
loop_
_atom_site_type_symbol
_atom_site_label
_atom_site_fract_x
_atom_site_fract_y
_atom_site_fract_z
Si Si1 0.903912 0.036692 0.133251
Si Si2 0.065641 0.795401 0.166657
Si Si3 0.311319 0.511647 0.670268
Si Si4 0.368085 0.223123 0.978219
Si Si5 0.581531 0.896059 0.472285
Si Si6 0.353890 0.740967 0.287773
Si Si7 0.186615 0.812631 0.270411
Si Si8 0.225812 0.297573 0.828798
O O1 0.120921 0.397007 0.304342
O O2 0.986655 0.017432 0.902953
O O3 0.864188 0.071776 0.100824
O O4 0.732164 0.753080 0.175388
O O5 0.117796 0.835838 0.301264
O O6 0.874750 0.635534 0.232486
O O7 0.979829 0.535989 0.923219
O O8 0.293981 0.139312 0.151751
O O9 0.365625 0.550634 0.470188
O O10 0.238564 0.302788 0.645752
O O11 0.564595 0.892407 0.787747
O O12 0.500000 0.500000 0.000000
O O13 0.625045 0.368279 0.958003
O O14 0.573679 0.837613 0.251455
O O15 0.624381 0.110146 0.676995
O O16 0.775914 0.101379 0.516331
O O17 0.500000 0.000000 0.500000
#
# Coordination Sequence:
#
# PCOD9006707 Si02
#       8
#     2   2   2   2   2   2   2   2
#     4   9  21  40  65  99 138 183 230 287 355 416
#     4  11  21  43  72 101 134 192 236 278 366 433
#     4  10  21  43  71  97 140 186 229 294 353 431
#     4  12  27  44  69  98 142 192 242 296 354 433
#     4  10  25  44  65 103 146 171 235 302 360 398
#     4  10  21  38  68 104 140 173 232 298 348 417
#     4   9  23  40  71 102 143 176 235 297 352 430
#     4   9  19  39  69  98 138 187 231 277 356 425
#
# _framework density 27.313739999999999
#
# number of rings (size 3 to 8) (size 9 to 14) (size 15 to 20)
#    1.500    0.500    1.250    1.875    5.250    2.000 
#    4.500    3.125    0.000    0.000    0.000    0.000 
#    0.000    0.000    0.000    0.000    0.000    0.000 
#
# Total GULP energy -89136.663926 kJ/mol
# GULP energy per Si atom -5571.041495 kJ/mol
# Density = 2.725157 g / cm^3
# Si number density = 27.313740 Si / 1000 Ang^3
#
#
#
# Elastic Constant Matrix: (Units=GPa)
#
#
# Indices 1 2 3 4 5 6 
#
# 1 129.7976 -0.5511 -3.2328 -18.5420 0.3914 -30.4413
# 2 -0.5511 98.1797 -12.7919 -15.6268 -0.2471 -11.6678
# 3 -3.2328 -12.7919 42.3581 -19.6453 -2.9826 -19.7002
# 4 -18.5420 -15.6268 -19.6453 41.6383 -17.8662 -0.4001
# 5 0.3914 -0.2471 -2.9826 -17.8662 31.7692 -8.4495
# 6 -30.4413 -11.6678 -19.7002 -0.4001 -8.4495 38.4970
#
#
#
# Elastic Compliance Matrix: (Units=1/GPa)
#
#
# Indices 1 2 3 4 5 6 
#
# 1 0.000652 -0.007687 -0.020062 -0.019620 -0.017260 -0.016073
# 2 -0.007687 0.002249 -0.019069 -0.019344 -0.017672 -0.019235
# 3 -0.020062 -0.019069 -0.034624 -0.052679 -0.046082 -0.050023
# 4 -0.019620 -0.019344 -0.052679 -0.034285 -0.039385 -0.057336
# 5 -0.017260 -0.017672 -0.046082 -0.039385 -0.006753 -0.044477
# 6 -0.016073 -0.019235 -0.050023 -0.057336 -0.044477 -0.028519
#
#
# Mechanical properties :
#
#
# Convention : Reuss Voigt Hill
#
# Bulk Modulus (GPa) = -7.97716 26.35377 9.18831
# Shear Modulus (GPa) = -101.14996 41.50831 -29.82082
#
# Velocity S-wave (km/s) = -6.09205 3.90254 -3.30781
# Velocity P-wave (km/s) = 7.23954 5.47503 3.34925
#
# Compressibility (1/GPa) = -0.12535796
#
# Stress axis : x y z
#
# Youngs Moduli (GPa) = 1534.25108 444.73748 -28.88202
#
# Poissons Ratio (x) = 3.41848 -0.57942
# Poissons Ratio (y) = 11.79305 -0.55076
# Poissons Ratio (z) = 30.77950 8.48080
#
# Static dielectric constant tensor:
#      x y z
#    x 3.274020 0.554270 -0.117810 
#    y 0.554270 2.501970 0.037640 
#    z -0.117810 0.037640 2.252980 
# 
# From -- ./inp_files/471559.got.cif
#   From: 2010.05.17/outbox.cif.g08.bks.cpg/sg2_236_cif.got.tgz:471559.got - 2010.06.03 11:33:40.
