data_PCOD9006359
_publ_section_title
;
Structure prediction by ZEFSAII (Michael W. Deem and Ramdas Pophale) SiO2 
 PCOD9006359
Probable space group: P -1
;
_chemical_formula_sum "Si O2"
_cell_formula_units_Z 12
_cell_length_a 5.020090
_cell_length_b 9.247552
_cell_length_c 16.220944
_cell_angle_alpha 45.508833
_cell_angle_beta 81.268189
_cell_angle_gamma 64.459088
_cell_volume 471.280434
_symmetry_space_group_name_H-M "P -1"
_symmetry_group_IT_number 2
_symmetry_cell_setting 'triclinic'
loop_
_space_group_symop_operation_xyz
x,y,z
-x,-y,-z
loop_
_atom_site_type_symbol
_atom_site_label
_atom_site_fract_x
_atom_site_fract_y
_atom_site_fract_z
Si Si1 0.561715 0.086484 0.257265
Si Si2 0.494102 0.762601 0.620016
Si Si3 0.663448 0.602954 0.220730
Si Si4 0.843704 0.942257 0.841165
Si Si5 0.665683 0.610737 0.501311
Si Si6 0.139188 0.737463 0.073832
O O1 0.331946 0.166504 0.160007
O O2 0.521898 0.871062 0.376570
O O3 0.903024 0.021042 0.237701
O O4 0.480660 0.238368 0.282186
O O5 0.240929 0.665672 0.656428
O O6 0.697042 0.596874 0.604003
O O7 0.500000 0.000000 0.500000
O O8 0.421965 0.812841 0.206867
O O9 0.951479 0.640952 0.174865
O O10 0.480367 0.644003 0.126936
O O11 0.043974 0.761090 0.974072
O O12 0.500000 0.500000 0.500000
O O13 0.000000 0.500000 0.500000
O O14 0.000000 0.000000 0.000000
#
# Coordination Sequence:
#
# PCOD9006359 Si02
#       6
#     2   2   2   2   2   2
#     4  11  23  39  60  90 128 164 198 255 316 366
#     4  10  25  44  63  93 133 167 205 256 313 372
#     4  11  21  40  66  93 123 167 212 258 309 365
#     4  11  21  40  65  92 122 161 210 258 306 370
#     4  11  23  41  65  91 117 160 215 258 301 364
#     4  10  21  38  65  97 123 157 212 269 309 357
#
# _framework density 25.462546
#
# number of rings (size 3 to 8) (size 9 to 14) (size 15 to 20)
#    0.000    1.333    0.000    8.000    0.000    4.000 
#    0.000   14.167    0.000    0.000    0.000    0.000 
#    0.000    0.000    0.000    0.000    0.000    0.000 
#
# Total GULP energy -66870.914238 kJ/mol
# GULP energy per Si atom -5572.576186 kJ/mol
# Density = 2.540459 g / cm^3
# Si number density = 25.462546 Si / 1000 Ang^3
#
#
#
# Elastic Constant Matrix: (Units=GPa)
#
#
# Indices 1 2 3 4 5 6 
#
# 1 151.8878 66.2102 35.8949 24.6194 -11.7458 18.2671
# 2 66.2102 171.7057 46.6102 34.6611 -7.5747 25.9475
# 3 35.8949 46.6102 83.5337 17.9077 -10.9600 10.0223
# 4 24.6194 34.6611 17.9077 59.5413 17.9819 -0.6871
# 5 -11.7458 -7.5747 -10.9600 17.9819 51.2123 -1.0486
# 6 18.2671 25.9475 10.0223 -0.6871 -1.0486 32.4691
#
#
#
# Elastic Compliance Matrix: (Units=1/GPa)
#
#
# Indices 1 2 3 4 5 6 
#
# 1 0.008732 -0.001846 -0.001445 -0.002848 0.002360 -0.002975
# 2 -0.001846 0.008958 -0.002388 -0.004341 0.001804 -0.005417
# 3 -0.001445 -0.002388 0.015525 -0.003903 0.003967 -0.002025
# 4 -0.002848 -0.004341 -0.003903 0.025003 -0.010777 0.006457
# 5 0.002360 0.001804 0.003967 -0.010777 0.024898 -0.003417
# 6 -0.002975 -0.005417 -0.002025 0.006457 -0.003417 0.037453
#
#
# Mechanical properties :
#
#
# Convention : Reuss Voigt Hill
#
# Bulk Modulus (GPa) = 45.75278 78.28419 62.01848
# Shear Modulus (GPa) = 35.91628 45.87201 40.89415
#
# Velocity S-wave (km/s) = 3.75981 4.24907 4.01190
# Velocity P-wave (km/s) = 6.07090 7.40840 6.77275
#
# Compressibility (1/GPa) = 0.02185660
#
# Stress axis : x y z
#
# Youngs Moduli (GPa) = 114.52082 111.62611 64.41301
#
# Poissons Ratio (x) = 0.20609 0.09307
# Poissons Ratio (y) = 0.21143 0.15383
# Poissons Ratio (z) = 0.16547 0.26659
#
# Static dielectric constant tensor:
#      x y z
#    x 2.023420 0.027870 -0.040890 
#    y 0.027870 1.996100 0.024440 
#    z -0.040890 0.024440 2.058470 
# 
# From -- ./inp_files/479548.got.cif
#   From: 2010.05.17/outbox.cif.g08.bks.cpg/sg2_240_cif.got.tgz:479548.got - 2010.06.03 11:33:40.
