data_PCOD9006874
_publ_section_title
;
Structure prediction by ZEFSAII (Michael W. Deem and Ramdas Pophale) SiO2 
 PCOD9006874
Probable space group: P -1
;
_chemical_formula_sum "Si O2"
_cell_formula_units_Z 16
_cell_length_a 19.601627
_cell_length_b 9.137128
_cell_length_c 10.218696
_cell_angle_alpha 126.313572
_cell_angle_beta 124.615642
_cell_angle_gamma 30.809679
_cell_volume 747.473773
_symmetry_space_group_name_H-M "P -1"
_symmetry_group_IT_number 2
_symmetry_cell_setting 'triclinic'
loop_
_space_group_symop_operation_xyz
x,y,z
-x,-y,-z
loop_
_atom_site_type_symbol
_atom_site_label
_atom_site_fract_x
_atom_site_fract_y
_atom_site_fract_z
Si Si1 0.870097 0.088789 0.895822
Si Si2 0.062665 0.729523 0.510620
Si Si3 0.232055 0.395620 0.281917
Si Si4 0.281340 0.432170 0.805759
Si Si5 0.218886 0.828009 0.450353
Si Si6 0.053412 0.533782 0.959359
Si Si7 0.691927 0.976885 0.219630
Si Si8 0.470021 0.762961 0.078246
O O1 0.808002 0.147618 0.719816
O O2 0.757723 0.377769 0.012993
O O3 0.000000 0.000000 0.000000
O O4 0.928856 0.811762 0.885020
O O5 0.159316 0.462918 0.372089
O O6 0.154367 0.640255 0.681154
O O7 0.000000 0.000000 0.500000
O O8 0.930470 0.865123 0.495262
O O9 0.268467 0.546221 0.408933
O O10 0.123672 0.574324 0.140057
O O11 0.349978 0.056214 0.189320
O O12 0.308771 0.186129 0.764124
O O13 0.403278 0.323494 0.810726
O O14 0.312836 0.826328 0.603202
O O15 0.171513 0.261880 0.847683
O O16 0.000000 0.500000 0.000000
O O17 0.576786 0.147521 0.076698
O O18 0.500000 0.500000 0.000000
#
# Coordination Sequence:
#
# PCOD9006874 Si02
#       8
#     2   2   2   2   2   2   2   2
#     4  12  20  42  67 100 138 182 224 272 350 419
#     4  10  21  38  72 106 141 170 218 283 356 402
#     4  10  22  43  65  98 137 181 222 287 342 400
#     4  12  25  46  71  98 142 188 229 284 343 409
#     4  11  22  41  71 104 141 173 222 283 350 411
#     4  11  22  37  65  98 139 177 224 278 348 409
#     4  11  25  45  67 100 139 179 231 288 336 409
#     4  11  28  49  72  95 132 189 243 284 335 405
#
# _framework density 21.405434
#
# number of rings (size 3 to 8) (size 9 to 14) (size 15 to 20)
#    0.000    1.000    3.750    2.625    7.000    3.500 
#    0.000    1.250    0.000    0.000    0.000    0.000 
#    0.000    0.000    0.000    0.000    0.000    0.000 
#
# Total GULP energy -89384.798156 kJ/mol
# GULP energy per Si atom -5586.549885 kJ/mol
# Density = 2.135671 g / cm^3
# Si number density = 21.405434 Si / 1000 Ang^3
#
#
#
# Elastic Constant Matrix: (Units=GPa)
#
#
# Indices 1 2 3 4 5 6 
#
# 1 62.4757 34.6806 7.4272 4.0691 -0.7105 10.3598
# 2 34.6806 75.1405 2.6056 9.9199 6.1723 13.9553
# 3 7.4272 2.6056 72.8928 5.3621 -5.2586 0.7446
# 4 4.0691 9.9199 5.3621 30.2212 -4.3860 -6.5242
# 5 -0.7105 6.1723 -5.2586 -4.3860 32.7490 0.6911
# 6 10.3598 13.9553 0.7446 -6.5242 0.6911 33.4240
#
#
#
# Elastic Compliance Matrix: (Units=1/GPa)
#
#
# Indices 1 2 3 4 5 6 
#
# 1 0.022148 -0.009881 -0.001743 0.000304 0.002160 -0.002686
# 2 -0.009881 0.020560 0.000558 -0.007725 -0.004888 -0.006941
# 3 -0.001743 0.000558 0.014184 -0.002306 0.001836 -0.000497
# 4 0.000304 -0.007725 -0.002306 0.039192 0.006115 0.010706
# 5 0.002160 -0.004888 0.001836 0.006115 0.032578 0.001850
# 6 -0.002686 -0.006941 -0.000497 0.010706 0.001850 0.035712
#
#
# Mechanical properties :
#
#
# Convention : Reuss Voigt Hill
#
# Bulk Modulus (GPa) = 28.76716 33.32621 31.04669
# Shear Modulus (GPa) = 25.24089 30.33188 27.78638
#
# Velocity S-wave (km/s) = 3.43765 3.76841 3.60682
# Velocity P-wave (km/s) = 5.40601 5.87686 5.64634
#
# Compressibility (1/GPa) = 0.03476186
#
# Stress axis : x y z
#
# Youngs Moduli (GPa) = 45.14992 48.63832 70.50420
#
# Poissons Ratio (x) = 0.48058 0.12286
# Poissons Ratio (y) = 0.44612 -0.03937
# Poissons Ratio (z) = 0.07868 -0.02716
#
# Static dielectric constant tensor:
#      x y z
#    x -0.307710 0.615920 0.359750 
#    y 0.615920 1.594280 -0.067550 
#    z 0.359750 -0.067550 1.702740 
# 
# From -- ./inp_files/343782.got.cif
#   From: 2010.05.17/outbox.cif.g08.bks.cpg/sg2_172_cif.got.tgz:343782.got - 2010.06.03 11:33:40.
