data_PCOD9006843
_publ_section_title
;
Structure prediction by ZEFSAII (Michael W. Deem and Ramdas Pophale) SiO2 
 PCOD9006843
Probable space group: P -1
;
_chemical_formula_sum "Si O2"
_cell_formula_units_Z 14
_cell_length_a 12.287299
_cell_length_b 11.424675
_cell_length_c 26.757838
_cell_angle_alpha 158.318593
_cell_angle_beta 148.427145
_cell_angle_gamma 42.199185
_cell_volume 700.993301
_symmetry_space_group_name_H-M "P -1"
_symmetry_group_IT_number 2
_symmetry_cell_setting 'triclinic'
loop_
_space_group_symop_operation_xyz
x,y,z
-x,-y,-z
loop_
_atom_site_type_symbol
_atom_site_label
_atom_site_fract_x
_atom_site_fract_y
_atom_site_fract_z
Si Si1 0.310958 0.325422 0.394092
Si Si2 0.918149 0.606898 0.317684
Si Si3 0.815963 0.430062 0.991490
Si Si4 0.313874 0.618355 0.235465
Si Si5 0.966066 0.365134 0.132754
Si Si6 0.554544 0.362731 0.602314
Si Si7 0.478607 0.313842 0.085469
O O1 0.500000 0.500000 0.500000
O O2 0.401540 0.437589 0.529311
O O3 0.101560 0.448838 0.348905
O O4 0.265773 0.933967 0.210003
O O5 0.872947 0.450745 0.182505
O O6 0.711921 0.511358 0.235128
O O7 0.000000 0.000000 0.500000
O O8 0.677130 0.677513 0.018897
O O9 0.825639 0.393882 0.040767
O O10 0.062122 0.570211 0.126199
O O11 0.398035 0.460806 0.255055
O O12 0.363770 0.472422 0.145826
O O13 0.437686 0.995296 0.426494
O O14 0.208979 0.599555 0.313861
O O15 0.000000 0.000000 0.000000
O O16 0.500000 0.000000 0.000000
#
# Coordination Sequence:
#
# PCOD9006843 Si02
#       7
#     2   2   2   2   2   2   2
#     4  12  21  41  70  97 124 177 226 271 328 406
#     4  12  26  43  67 101 143 170 214 293 347 385
#     4  11  23  42  72  93 130 182 235 269 324 413
#     4  10  22  42  66  91 128 174 222 267 322 408
#     4  11  22  43  71 100 127 173 236 276 325 403
#     4  10  21  38  70  95 120 162 235 272 307 385
#     4  12  26  41  62  98 142 174 214 278 348 389
#
# _framework density 19.97166
#
# number of rings (size 3 to 8) (size 9 to 14) (size 15 to 20)
#    0.000    0.857    4.286    3.000    4.000    0.571 
#    2.571    0.714    0.000    0.000    0.000    0.000 
#    0.000    0.000    0.000    0.000    0.000    0.000 
#
# Total GULP energy -78092.373803 kJ/mol
# GULP energy per Si atom -5578.026700 kJ/mol
# Density = 1.992620 g / cm^3
# Si number density = 19.971660 Si / 1000 Ang^3
#
#
#
# Elastic Constant Matrix: (Units=GPa)
#
#
# Indices 1 2 3 4 5 6 
#
# 1 638.3362 149.8713 298.9429 -54.1585 100.2187 -107.1728
# 2 149.8713 171.4940 91.7501 -27.7414 13.9957 7.3111
# 3 298.9429 91.7501 218.2468 -22.1904 70.7841 -58.7503
# 4 -54.1585 -27.7414 -22.1904 40.8697 1.9542 5.7767
# 5 100.2187 13.9957 70.7841 1.9542 53.3970 -27.2877
# 6 -107.1728 7.3111 -58.7503 5.7767 -27.2877 63.0305
#
#
#
# Elastic Compliance Matrix: (Units=1/GPa)
#
#
# Indices 1 2 3 4 5 6 
#
# 1 0.005312 -0.001674 -0.004838 0.002776 -0.001205 0.003940
# 2 -0.001674 0.010400 -0.004597 0.003290 0.002536 -0.007542
# 3 -0.004838 -0.004597 0.017983 0.000204 -0.011474 0.004082
# 4 0.002776 0.003290 0.000204 0.031182 -0.008514 -0.002015
# 5 -0.001205 0.002536 -0.011474 -0.008514 0.037986 0.004188
# 6 0.003940 -0.007542 0.004082 -0.002015 0.004188 0.029242
#
#
# Mechanical properties :
#
#
# Convention : Reuss Voigt Hill
#
# Bulk Modulus (GPa) = 87.14148 234.35618 160.74883
# Shear Modulus (GPa) = 31.61555 63.96028 47.78792
#
# Velocity S-wave (km/s) = 3.98304 5.66525 4.89692
# Velocity P-wave (km/s) = 8.05482 12.66462 10.61302
#
# Compressibility (1/GPa) = 0.01147559
#
# Stress axis : x y z
#
# Youngs Moduli (GPa) = 188.26825 96.14971 55.60918
#
# Poissons Ratio (x) = 0.16096 0.26904
# Poissons Ratio (y) = 0.31517 0.25566
# Poissons Ratio (z) = 0.91085 0.44205
#
# Static dielectric constant tensor:
#      x y z
#    x 1.572650 0.014970 -0.046460 
#    y 0.014970 1.759980 -0.024720 
#    z -0.046460 -0.024720 1.754250 
# 
# From -- ./inp_files/204840.got.cif
#   From: 2010.05.17/outbox.cif.g08.bks.cpg/sg2_103_cif.got.tgz:204840.got - 2010.06.03 11:33:40.
