data_PCOD9006962
_publ_section_title
;
Structure prediction by ZEFSAII (Michael W. Deem and Ramdas Pophale) SiO2 
 PCOD9006962
Probable space group: P -1
;
_chemical_formula_sum "Si O2"
_cell_formula_units_Z 14
_cell_length_a 13.569117
_cell_length_b 8.108099
_cell_length_c 9.054679
_cell_angle_alpha 146.035410
_cell_angle_beta 101.728930
_cell_angle_gamma 71.514939
_cell_volume 524.480222
_symmetry_space_group_name_H-M "P -1"
_symmetry_group_IT_number 2
_symmetry_cell_setting 'triclinic'
loop_
_space_group_symop_operation_xyz
x,y,z
-x,-y,-z
loop_
_atom_site_type_symbol
_atom_site_label
_atom_site_fract_x
_atom_site_fract_y
_atom_site_fract_z
Si Si1 0.653217 0.369427 0.964758
Si Si2 0.416994 0.091535 0.200599
Si Si3 0.482572 0.580847 0.300267
Si Si4 0.055304 0.289134 0.172219
Si Si5 0.939772 0.861951 0.255633
Si Si6 0.164835 0.666915 0.830688
Si Si7 0.770759 0.367960 0.508016
O O1 0.561578 0.604505 0.205674
O O2 0.759258 0.449569 0.097221
O O3 0.348500 0.953704 0.198284
O O4 0.624075 0.369681 0.785750
O O5 0.502196 0.200931 0.403518
O O6 0.338309 0.378683 0.308437
O O7 0.470572 0.773379 0.897559
O O8 0.134689 0.487435 0.313421
O O9 0.936660 0.460621 0.303923
O O10 0.046358 0.084046 0.873659
O O11 0.115723 0.028936 0.107926
O O12 0.813751 0.033038 0.349150
O O13 0.000000 0.000000 0.500000
O O14 0.000000 0.500000 0.000000
O O15 0.229116 0.645719 0.682039
#
# Coordination Sequence:
#
# PCOD9006962 Si02
#       7
#     2   2   2   2   2   2   2
#     4   9  17  27  43  66 103 143 165 199 235 295
#     4  10  17  29  44  69  96 135 171 199 239 298
#     4   9  18  26  44  64 100 142 169 197 239 283
#     4  10  20  34  51  76 104 143 168 210 246 306
#     4  11  23  39  56  72  97 133 177 223 260 290
#     4  10  19  31  48  79 109 142 171 195 248 314
#     4  11  19  32  55  74 107 137 170 208 256 304
#
# _framework density 26.693093999999999
#
# number of rings (size 3 to 8) (size 9 to 14) (size 15 to 20)
#    0.857    1.143    4.286    0.857    2.000    0.000 
#    0.000    0.000    0.000    0.000    0.000    0.000 
#    0.000    6.857    0.000    0.000    0.000    0.000 
#
# Total GULP energy -78077.845617 kJ/mol
# GULP energy per Si atom -5576.988973 kJ/mol
# Density = 2.663234 g / cm^3
# Si number density = 26.693094 Si / 1000 Ang^3
#
#
#
# Elastic Constant Matrix: (Units=GPa)
#
#
# Indices 1 2 3 4 5 6 
#
# 1 62.0807 38.8147 24.5250 -2.8828 -5.9264 -25.8822
# 2 38.8147 161.0977 43.4220 2.2095 -2.5950 -37.5295
# 3 24.5250 43.4220 152.3588 -8.3545 -0.5324 -15.3486
# 4 -2.8828 2.2095 -8.3545 48.2451 -11.4888 5.3949
# 5 -5.9264 -2.5950 -0.5324 -11.4888 31.9728 0.1894
# 6 -25.8822 -37.5295 -15.3486 5.3949 0.1894 42.7306
#
#
#
# Elastic Compliance Matrix: (Units=1/GPa)
#
#
# Indices 1 2 3 4 5 6 
#
# 1 0.023576 -0.002490 -0.001880 0.000991 0.004426 0.011274
# 2 -0.002490 0.008556 -0.001554 -0.001530 -0.000376 0.005643
# 3 -0.001880 -0.001554 0.007377 0.001262 0.000102 -0.000014
# 4 0.000991 -0.001530 0.001262 0.023476 0.008536 -0.003293
# 5 0.004426 -0.000376 0.000102 0.008536 0.035128 0.001154
# 6 0.011274 0.005643 -0.000014 -0.003293 0.001154 0.035593
#
#
# Mechanical properties :
#
#
# Convention : Reuss Voigt Hill
#
# Bulk Modulus (GPa) = 36.15205 65.45118 50.80161
# Shear Modulus (GPa) = 32.30512 42.50807 37.40659
#
# Velocity S-wave (km/s) = 3.48263 3.99491 3.74753
# Velocity P-wave (km/s) = 5.45386 6.77143 6.14804
#
# Compressibility (1/GPa) = 0.02766095
#
# Stress axis : x y z
#
# Youngs Moduli (GPa) = 42.41612 116.88073 135.55213
#
# Poissons Ratio (x) = 0.29099 0.25483
# Poissons Ratio (y) = 0.10560 0.21070
# Poissons Ratio (z) = 0.07974 0.18168
#
# Static dielectric constant tensor:
#      x y z
#    x 2.284710 0.025000 -0.040250 
#    y 0.025000 2.291060 0.075490 
#    z -0.040250 0.075490 2.132310 
# 
# From -- ./inp_files/470912.got.cif
#   From: 2010.05.17/outbox.cif.g08.bks.cpg/sg2_236_cif.got.tgz:470912.got - 2010.06.03 11:33:40.
