data_PCOD9006957
_publ_section_title
;
Structure prediction by ZEFSAII (Michael W. Deem and Ramdas Pophale) SiO2 
 PCOD9006957
Probable space group: P -1
;
_chemical_formula_sum "Si O2"
_cell_formula_units_Z 16
_cell_length_a 22.790088
_cell_length_b 6.346342
_cell_length_c 9.075923
_cell_angle_alpha 126.352911
_cell_angle_beta 44.870289
_cell_angle_gamma 125.822437
_cell_volume 713.652487
_symmetry_space_group_name_H-M "P -1"
_symmetry_group_IT_number 2
_symmetry_cell_setting 'triclinic'
loop_
_space_group_symop_operation_xyz
x,y,z
-x,-y,-z
loop_
_atom_site_type_symbol
_atom_site_label
_atom_site_fract_x
_atom_site_fract_y
_atom_site_fract_z
Si Si1 0.009439 0.198058 0.706049
Si Si2 0.589452 0.089202 0.468862
Si Si3 0.348263 0.439436 0.871574
Si Si4 0.933949 0.163127 0.128413
Si Si5 0.830092 0.761438 0.347914
Si Si6 0.471582 0.026893 0.897324
Si Si7 0.689566 0.771272 0.830606
Si Si8 0.250631 0.644208 0.901653
O O1 0.029718 0.518215 0.763888
O O2 0.093212 0.189933 0.650191
O O3 0.000000 0.000000 0.500000
O O4 0.933177 0.131752 0.939101
O O5 0.662323 0.292284 0.326822
O O6 0.500000 0.000000 0.500000
O O7 0.624235 0.828934 0.325884
O O8 0.557242 0.176419 0.714923
O O9 0.425619 0.709587 0.805732
O O10 0.265703 0.461240 0.934485
O O11 0.330448 0.422741 0.071547
O O12 0.847091 0.022753 0.317305
O O13 0.000000 0.000000 0.000000
O O14 0.743801 0.699034 0.572489
O O15 0.824120 0.514566 0.141621
O O16 0.500000 0.000000 0.000000
O O17 0.397475 0.171336 0.053479
O O18 0.748736 0.064724 0.913162
#
# Coordination Sequence:
#
# PCOD9006957 Si02
#       8
#     2   2   2   2   2   2   2   2
#     4  10  23  44  74 104 132 173 215 260 326 401
#     4  11  20  39  60  83 116 167 227 276 324 388
#     4  10  21  39  58  78 116 168 219 270 340 373
#     4   9  22  44  69 102 132 169 215 256 322 399
#     4  11  25  40  65  97 137 168 210 273 321 403
#     4  11  24  36  58  87 117 166 224 282 323 389
#     4  10  24  42  56  93 129 167 222 269 330 386
#     4  10  24  41  60  89 127 172 218 273 335 380
#
# _framework density 22.419872999999999
#
# number of rings (size 3 to 8) (size 9 to 14) (size 15 to 20)
#    0.000    1.750    3.750    0.375    3.500   11.500 
#    0.000    0.000    0.000    0.000    0.000    0.000 
#    0.000    0.000    0.000    0.000    0.000    0.000 
#
# Total GULP energy -89328.830327 kJ/mol
# GULP energy per Si atom -5583.051895 kJ/mol
# Density = 2.236884 g / cm^3
# Si number density = 22.419873 Si / 1000 Ang^3
#
#
#
# Elastic Constant Matrix: (Units=GPa)
#
#
# Indices 1 2 3 4 5 6 
#
# 1 101.6880 34.0858 30.6836 9.1184 34.2636 -4.0120
# 2 34.0858 91.9182 28.0698 -0.2553 14.6245 -17.3740
# 3 30.6836 28.0698 77.6780 -0.8758 18.3083 -9.8042
# 4 9.1184 -0.2553 -0.8758 39.5790 11.1479 12.9397
# 5 34.2636 14.6245 18.3083 11.1479 33.3152 4.3090
# 6 -4.0120 -17.3740 -9.8042 12.9397 4.3090 35.2421
#
#
#
# Elastic Compliance Matrix: (Units=1/GPa)
#
#
# Indices 1 2 3 4 5 6 
#
# 1 0.016402 -0.002838 -0.001721 -0.000281 -0.014830 0.001906
# 2 -0.002838 0.014398 -0.002654 -0.000762 -0.002545 0.006627
# 3 -0.001721 -0.002654 0.016662 0.001670 -0.007221 0.003401
# 4 -0.000281 -0.000762 0.001670 0.031402 -0.009468 -0.010315
# 5 -0.014830 -0.002545 -0.007221 -0.009468 0.054576 -0.008149
# 6 0.001906 0.006627 0.003401 -0.010315 -0.008149 0.037589
#
#
# Mechanical properties :
#
#
# Convention : Reuss Voigt Hill
#
# Bulk Modulus (GPa) = 30.26935 50.77364 40.52149
# Shear Modulus (GPa) = 25.44978 33.52358 29.48668
#
# Velocity S-wave (km/s) = 3.37284 3.87106 3.63051
# Velocity P-wave (km/s) = 5.35710 6.53269 5.97388
#
# Compressibility (1/GPa) = 0.03303672
#
# Stress axis : x y z
#
# Youngs Moduli (GPa) = 60.96935 69.45606 60.01556
#
# Poissons Ratio (x) = 0.19710 0.10327
# Poissons Ratio (y) = 0.17302 0.15928
# Poissons Ratio (z) = 0.10491 0.18433
#
# Static dielectric constant tensor:
#      x y z
#    x 1.875350 0.042950 0.024560 
#    y 0.042950 1.862290 -0.030590 
#    z 0.024560 -0.030590 1.866930 
# 
# From -- ./inp_files/143149.got.cif
#   From: 2010.05.17/outbox.cif.g08.bks.cpg/sg2_72_cif.got.tgz:143149.got - 2010.06.03 11:33:40.
