data_PCOD9006017
_publ_section_title
;
Structure prediction by ZEFSAII (Michael W. Deem and Ramdas Pophale) SiO2 
 PCOD9006017
Probable space group: P -1
;
_chemical_formula_sum "Si O2"
_cell_formula_units_Z 14
_cell_length_a 12.042247
_cell_length_b 19.765314
_cell_length_c 13.577744
_cell_angle_alpha 159.512352
_cell_angle_beta 47.725370
_cell_angle_gamma 144.195323
_cell_volume 598.989103
_symmetry_space_group_name_H-M "P -1"
_symmetry_group_IT_number 2
_symmetry_cell_setting 'triclinic'
loop_
_space_group_symop_operation_xyz
x,y,z
-x,-y,-z
loop_
_atom_site_type_symbol
_atom_site_label
_atom_site_fract_x
_atom_site_fract_y
_atom_site_fract_z
Si Si1 0.450000 0.969259 0.807857
Si Si2 0.149697 0.797970 0.209989
Si Si3 0.668325 0.720389 0.621501
Si Si4 0.003217 0.185112 0.320235
Si Si5 0.257598 0.835572 0.415971
Si Si6 0.979499 0.515998 0.650943
Si Si7 0.718684 0.909372 0.655269
O O1 0.667304 0.188616 0.917084
O O2 0.521077 0.876928 0.720437
O O3 0.270871 0.714480 0.499508
O O4 0.350454 0.068531 0.051703
O O5 0.196953 0.873537 0.398561
O O6 0.201101 0.024838 0.415998
O O7 0.920041 0.496055 0.919992
O O8 0.500000 0.500000 0.500000
O O9 0.866881 0.776524 0.612823
O O10 0.649308 0.683246 0.464465
O O11 0.787281 0.059283 0.324536
O O12 0.076482 0.429420 0.540691
O O13 0.000000 0.000000 0.000000
O O14 0.500000 0.000000 0.500000
O O15 0.000000 0.500000 0.500000
O O16 0.089443 0.808469 0.020430
#
# Coordination Sequence:
#
# PCOD9006017 Si02
#       7
#     2   2   2   2   2   2   2
#     4  10  21  38  64  92 127 176 226 264 330 396
#     4   9  22  37  68  93 120 176 248 259 322 400
#     4  12  23  37  62  95 146 169 209 289 348 387
#     4  12  24  40  61 104 136 167 217 286 353 389
#     4  11  22  42  67  94 132 177 232 282 324 410
#     4  12  21  37  64  92 133 179 221 274 327 410
#     4  10  22  40  62  98 129 180 236 263 326 419
#
# _framework density 23.372713999999998
#
# number of rings (size 3 to 8) (size 9 to 14) (size 15 to 20)
#    0.857    0.286    4.286    3.000    2.000    0.000 
#    0.000    0.714    0.000    0.857    0.000    0.000 
#    0.000    0.000    0.000    0.000    0.000    0.000 
#
# Total GULP energy -78011.470977 kJ/mol
# GULP energy per Si atom -5572.247927 kJ/mol
# Density = 2.331952 g / cm^3
# Si number density = 23.372714 Si / 1000 Ang^3
#
#
#
# Elastic Constant Matrix: (Units=GPa)
#
#
# Indices 1 2 3 4 5 6 
#
# 1 150.5930 53.7730 16.2622 13.5420 -5.8779 -20.2360
# 2 53.7730 148.1537 24.2109 6.4228 -2.8749 -4.4282
# 3 16.2622 24.2109 26.3331 7.8016 11.0092 1.1238
# 4 13.5420 6.4228 7.8016 31.2302 -1.8402 4.6388
# 5 -5.8779 -2.8749 11.0092 -1.8402 28.3421 8.4077
# 6 -20.2360 -4.4282 1.1238 4.6388 8.4077 65.5830
#
#
#
# Elastic Compliance Matrix: (Units=1/GPa)
#
#
# Indices 1 2 3 4 5 6 
#
# 1 0.008454 -0.002325 -0.003177 -0.002650 0.001851 0.002456
# 2 -0.002325 0.009091 -0.009238 0.001795 0.004331 -0.000628
# 3 -0.003177 -0.009238 0.064517 -0.014791 -0.028196 0.001951
# 4 -0.002650 0.001795 -0.014791 0.037665 0.009091 -0.004273
# 5 0.001851 0.004331 -0.028196 0.009091 0.049316 -0.005619
# 6 0.002456 -0.000628 0.001951 -0.004273 -0.005619 0.016952
#
#
# Mechanical properties :
#
#
# Convention : Reuss Voigt Hill
#
# Bulk Modulus (GPa) = 19.01770 57.06357 38.04064
# Shear Modulus (GPa) = 21.45897 40.41995 30.93946
#
# Velocity S-wave (km/s) = 3.03334 4.16307 3.64227
# Velocity P-wave (km/s) = 4.51913 6.89753 5.83088
#
# Compressibility (1/GPa) = 0.05258259
#
# Stress axis : x y z
#
# Youngs Moduli (GPa) = 118.28269 110.00154 15.49981
#
# Poissons Ratio (x) = 0.25577 0.04924
# Poissons Ratio (y) = 0.27503 0.14318
# Poissons Ratio (z) = 0.37575 1.01617
#
# Static dielectric constant tensor:
#      x y z
#    x 1.933840 0.009830 -0.089480 
#    y 0.009830 1.557250 0.286150 
#    z -0.089480 0.286150 1.890120 
# 
# From -- ./inp_files/524141.got.cif
#   From: 2010.05.17/outbox.cif.g08.bks.cpg/sg2_263_cif.got.tgz:524141.got - 2010.06.03 11:33:40.
