data_PCOD9006768
_publ_section_title
;
Structure prediction by ZEFSAII (Michael W. Deem and Ramdas Pophale) SiO2 
 PCOD9006768
Probable space group: P -1
;
_chemical_formula_sum "Si O2"
_cell_formula_units_Z 16
_cell_length_a 10.449171
_cell_length_b 7.644121
_cell_length_c 18.130248
_cell_angle_alpha 56.174430
_cell_angle_beta 145.432272
_cell_angle_gamma 110.191999
_cell_volume 662.589010
_symmetry_space_group_name_H-M "P -1"
_symmetry_group_IT_number 2
_symmetry_cell_setting 'triclinic'
loop_
_space_group_symop_operation_xyz
x,y,z
-x,-y,-z
loop_
_atom_site_type_symbol
_atom_site_label
_atom_site_fract_x
_atom_site_fract_y
_atom_site_fract_z
Si Si1 0.797115 0.794562 0.734456
Si Si2 0.745055 0.475217 0.051420
Si Si3 0.904049 0.242203 0.812484
Si Si4 0.279533 0.834704 0.093855
Si Si5 0.607632 0.299032 0.523127
Si Si6 0.380181 0.958783 0.874145
Si Si7 0.090723 0.688859 0.461008
Si Si8 0.530154 0.645006 0.767350
O O1 0.649157 0.680270 0.634074
O O2 0.702813 0.760035 0.778789
O O3 0.060271 0.675283 0.874301
O O4 0.725693 0.044798 0.621740
O O5 0.905646 0.611665 0.136826
O O6 0.632806 0.292944 0.077997
O O7 0.568494 0.629886 0.875843
O O8 0.808350 0.211574 0.855779
O O9 0.682684 0.321797 0.636531
O O10 0.053049 0.003865 0.913789
O O11 0.476374 0.965385 0.141719
O O12 0.392143 0.603319 0.165721
O O13 0.753384 0.414205 0.511070
O O14 0.123904 0.117163 0.709765
O O15 0.500000 0.000000 0.000000
O O16 0.273818 0.750927 0.590594
O O17 0.000000 0.500000 0.500000
#
# Coordination Sequence:
#
# PCOD9006768 Si02
#       8
#     2   2   2   2   2   2   2   2
#     4  10  21  38  68  99 123 169 229 276 315 383
#     4  12  23  40  67  99 131 175 221 270 327 391
#     4  11  26  41  66  95 140 176 215 268 336 396
#     4  11  23  42  62  98 129 181 216 271 324 391
#     4  10  22  41  65  98 133 167 219 277 332 384
#     4  12  23  42  70  99 132 171 227 277 321 387
#     4  11  21  40  70 100 121 167 223 276 325 378
#     4  11  22  38  68 100 127 167 233 272 315 384
#
# _framework density 24.147697000000001
#
# number of rings (size 3 to 8) (size 9 to 14) (size 15 to 20)
#    0.000    1.000    5.000    1.875    3.500    1.000 
#    0.000    0.000    0.000    2.250    0.000    0.000 
#    0.000    0.000    0.000    0.000    0.000    0.000 
#
# Total GULP energy -89459.277355 kJ/mol
# GULP energy per Si atom -5591.204835 kJ/mol
# Density = 2.409274 g / cm^3
# Si number density = 24.147697 Si / 1000 Ang^3
#
#
#
# Elastic Constant Matrix: (Units=GPa)
#
#
# Indices 1 2 3 4 5 6 
#
# 1 49.9777 37.6514 5.1170 9.6270 -8.7582 29.0213
# 2 37.6514 123.4437 25.6732 4.6140 -5.5403 22.7539
# 3 5.1170 25.6732 164.1630 1.8443 -6.1692 -2.3692
# 4 9.6270 4.6140 1.8443 29.7609 -0.7713 2.2330
# 5 -8.7582 -5.5403 -6.1692 -0.7713 36.9336 -1.6799
# 6 29.0213 22.7539 -2.3692 2.2330 -1.6799 49.9356
#
#
#
# Elastic Compliance Matrix: (Units=1/GPa)
#
#
# Indices 1 2 3 4 5 6 
#
# 1 0.040469 -0.008138 0.000125 -0.010214 0.007315 -0.019103
# 2 -0.008138 0.010898 -0.001488 0.001049 -0.000539 -0.000372
# 3 0.000125 -0.001488 0.006371 -0.000252 0.000909 0.000949
# 4 -0.010214 0.001049 -0.000252 0.036440 -0.001374 0.003770
# 5 0.007315 -0.000539 0.000909 -0.001374 0.028719 -0.002935
# 6 -0.019103 -0.000372 0.000949 0.003770 -0.002935 0.031075
#
#
# Mechanical properties :
#
#
# Convention : Reuss Voigt Hill
#
# Bulk Modulus (GPa) = 25.81597 52.71861 39.26729
# Shear Modulus (GPa) = 26.89831 41.26886 34.08359
#
# Velocity S-wave (km/s) = 3.34115 4.13851 3.76102
# Velocity P-wave (km/s) = 5.05949 6.68697 5.92933
#
# Compressibility (1/GPa) = 0.03873572
#
# Stress axis : x y z
#
# Youngs Moduli (GPa) = 24.71015 91.76268 156.96149
#
# Poissons Ratio (x) = 0.74680 -0.01966
# Poissons Ratio (y) = 0.20110 0.23356
# Poissons Ratio (z) = -0.00310 0.13654
#
# Static dielectric constant tensor:
#      x y z
#    x 1.979150 -0.042130 0.001980 
#    y -0.042130 2.006390 0.007840 
#    z 0.001980 0.007840 1.927660 
# 
# From -- ./inp_files/416383.got.cif
#   From: 2010.05.17/outbox.cif.g08.bks.cpg/sg2_209_cif.got.tgz:416383.got - 2010.06.03 11:33:40.
