data_PCOD9006599
_publ_section_title
;
Structure prediction by ZEFSAII (Michael W. Deem and Ramdas Pophale) SiO2 
 PCOD9006599
Probable space group: P -1
;
_chemical_formula_sum "Si O2"
_cell_formula_units_Z 16
_cell_length_a 8.713312
_cell_length_b 14.319353
_cell_length_c 8.770372
_cell_angle_alpha 92.184206
_cell_angle_beta 126.850867
_cell_angle_gamma 119.833779
_cell_volume 664.387238
_symmetry_space_group_name_H-M "P -1"
_symmetry_group_IT_number 2
_symmetry_cell_setting 'triclinic'
loop_
_space_group_symop_operation_xyz
x,y,z
-x,-y,-z
loop_
_atom_site_type_symbol
_atom_site_label
_atom_site_fract_x
_atom_site_fract_y
_atom_site_fract_z
Si Si1 0.956199 0.098064 0.821901
Si Si2 0.335615 0.171539 0.462913
Si Si3 0.736984 0.182152 0.874347
Si Si4 0.169097 0.460841 0.145887
Si Si5 0.011168 0.891074 0.502856
Si Si6 0.234721 0.800323 0.745228
Si Si7 0.294699 0.455631 0.577936
Si Si8 0.502681 0.283462 0.265825
O O1 0.032528 0.151607 0.699342
O O2 0.741029 0.088220 0.776629
O O3 0.203257 0.196624 0.071190
O O4 0.858846 0.961448 0.741463
O O5 0.496981 0.163696 0.677412
O O6 0.175991 0.191243 0.472616
O O7 0.529368 0.274196 0.462175
O O8 0.750188 0.184308 0.064004
O O9 0.984302 0.318430 0.977930
O O10 0.221575 0.459241 0.358329
O O11 0.453069 0.529193 0.255646
O O12 0.000000 0.500000 0.000000
O O13 0.259037 0.911643 0.697511
O O14 0.000000 0.000000 0.500000
O O15 0.424941 0.783799 0.793315
O O16 0.961767 0.671901 0.521781
O O17 0.361256 0.578562 0.695155
#
# Coordination Sequence:
#
# PCOD9006599 Si02
#       8
#     2   2   2   2   2   2   2   2
#     4  11  23  44  65  99 133 173 230 282 340 410
#     4  11  24  41  70  97 135 178 223 286 346 412
#     4  11  22  41  68 100 133 175 227 275 351 409
#     4  10  21  38  67 105 136 179 226 282 345 411
#     4  10  24  45  65  97 134 173 228 284 340 406
#     4  11  25  43  70  98 138 185 224 283 347 405
#     4  10  23  42  67 101 144 177 231 284 340 414
#     4  12  23  44  68  99 140 180 230 280 342 410
#
# _framework density 24.082343000000002
#
# number of rings (size 3 to 8) (size 9 to 14) (size 15 to 20)
#    0.000    1.250    1.250    4.125    5.250    2.000 
#    0.000    6.250    0.000    0.000    0.000    0.000 
#    0.000    0.000    0.000    0.000    0.000    0.000 
#
# Total GULP energy -89338.941779 kJ/mol
# GULP energy per Si atom -5583.683861 kJ/mol
# Density = 2.402753 g / cm^3
# Si number density = 24.082343 Si / 1000 Ang^3
#
#
#
# Elastic Constant Matrix: (Units=GPa)
#
#
# Indices 1 2 3 4 5 6 
#
# 1 100.7405 25.7610 12.8688 -3.5241 -3.8235 -23.8613
# 2 25.7610 93.9344 22.8129 -0.6293 -0.6913 -16.8968
# 3 12.8688 22.8129 80.9190 -12.9329 11.7541 -9.8938
# 4 -3.5241 -0.6293 -12.9329 37.4449 0.9871 10.0122
# 5 -3.8235 -0.6913 11.7541 0.9871 44.9521 -4.2898
# 6 -23.8613 -16.8968 -9.8938 10.0122 -4.2898 37.7934
#
#
#
# Elastic Compliance Matrix: (Units=1/GPa)
#
#
# Indices 1 2 3 4 5 6 
#
# 1 0.012263 -0.001805 -0.001045 -0.001218 0.002004 0.007212
# 2 -0.001805 0.012749 -0.003337 -0.002339 0.001392 0.004464
# 3 -0.001045 -0.003337 0.014875 0.005115 -0.004150 -0.000084
# 4 -0.001218 -0.002339 0.005115 0.030798 -0.003010 -0.008976
# 5 0.002004 0.001392 -0.004150 -0.003010 0.024002 0.004323
# 6 0.007212 0.004464 -0.000084 -0.008976 0.004323 0.035855
#
#
# Mechanical properties :
#
#
# Convention : Reuss Voigt Hill
#
# Bulk Modulus (GPa) = 36.34854 44.27548 40.31201
# Shear Modulus (GPa) = 32.87544 38.31481 35.59512
#
# Velocity S-wave (km/s) = 3.69877 3.99305 3.84872
# Velocity P-wave (km/s) = 5.77645 6.29954 6.04366
#
# Compressibility (1/GPa) = 0.02751142
#
# Stress axis : x y z
#
# Youngs Moduli (GPa) = 81.54377 78.43816 67.22589
#
# Poissons Ratio (x) = 0.14162 0.07027
# Poissons Ratio (y) = 0.14722 0.22435
# Poissons Ratio (z) = 0.08524 0.26177
#
# Static dielectric constant tensor:
#      x y z
#    x 1.880830 0.032130 0.014520 
#    y 0.032130 2.051420 -0.014590 
#    z 0.014520 -0.014590 1.920560 
# 
# From -- ./inp_files/208051.got.cif
#   From: 2010.05.17/outbox.cif.g08.bks.cpg/sg2_105_cif.got.tgz:208051.got - 2010.06.03 11:33:40.
