data_PCOD9006779
_publ_section_title
;
Structure prediction by ZEFSAII (Michael W. Deem and Ramdas Pophale) SiO2 
 PCOD9006779
Probable space group: P -1
;
_chemical_formula_sum "Si O2"
_cell_formula_units_Z 15
_cell_length_a 25.643289
_cell_length_b 5.122098
_cell_length_c 12.057058
_cell_angle_alpha 69.007142
_cell_angle_beta 24.593763
_cell_angle_gamma 64.483546
_cell_volume 592.443078
_symmetry_space_group_name_H-M "P -1"
_symmetry_group_IT_number 2
_symmetry_cell_setting 'triclinic'
loop_
_space_group_symop_operation_xyz
x,y,z
-x,-y,-z
loop_
_atom_site_type_symbol
_atom_site_label
_atom_site_fract_x
_atom_site_fract_y
_atom_site_fract_z
Si Si1 0.347162 0.466986 0.614182
Si Si2 0.433964 0.867164 0.910525
Si Si3 0.925427 0.752462 0.186867
Si Si4 0.632288 0.574225 0.185436
Si Si5 0.100339 0.847200 0.234785
Si Si6 0.358135 0.964107 0.393071
Si Si7 0.074684 0.474013 0.132371
Si Si8 0.500000 0.500000 0.000000
O O1 0.328127 0.316907 0.788909
O O2 0.355536 0.799814 0.540871
O O3 0.482110 0.278715 0.333994
O O4 0.209365 0.511634 0.813114
O O5 0.376384 0.194097 0.931281
O O6 0.546802 0.829745 0.797962
O O7 0.368545 0.661849 0.136190
O O8 0.947371 0.631910 0.287274
O O9 0.778821 0.865969 0.412962
O O10 0.000000 0.500000 0.000000
O O11 0.000000 0.000000 0.000000
O O12 0.500000 0.500000 0.500000
O O13 0.757033 0.301347 0.967012
O O14 0.064018 0.619204 0.254020
O O15 0.099726 0.131484 0.123586
O O16 0.000000 0.000000 0.500000
O O17 0.425343 0.712916 0.216971
#
# Coordination Sequence:
#
# PCOD9006779 Si02
#       8
#     2   2   2   2   2   2   2   1
#     4  10  21  38  69 100 135 168 226 299 347 402
#     4  11  22  42  66  99 137 179 230 285 352 421
#     4  12  25  41  70 105 134 181 232 287 357 410
#     4  11  22  40  72 105 129 175 234 292 356 409
#     4  11  26  47  68 100 142 187 228 290 352 430
#     4  11  23  43  66  96 141 178 234 288 347 421
#     4  11  23  44  69 100 138 180 234 288 349 414
#     4  10  26  44  62  92 140 190 224 278 352 420
#
# _framework density 25.318888000000001
#
# number of rings (size 3 to 8) (size 9 to 14) (size 15 to 20)
#    0.000    1.067    2.667    3.600    5.600    2.133 
#    2.400    0.000    0.000    0.000    0.000    0.000 
#    0.000    0.000    0.000    0.000    0.000    0.000 
#
# Total GULP energy -83506.043680 kJ/mol
# GULP energy per Si atom -5567.069579 kJ/mol
# Density = 2.526126 g / cm^3
# Si number density = 25.318888 Si / 1000 Ang^3
#
#
#
# Elastic Constant Matrix: (Units=GPa)
#
#
# Indices 1 2 3 4 5 6 
#
# 1 100.1457 55.7818 25.5623 12.3974 -2.1043 -16.6950
# 2 55.7818 161.4503 32.3900 19.3535 -4.8739 -27.9241
# 3 25.5623 32.3900 56.9234 22.2383 -0.4443 -7.9029
# 4 12.3974 19.3535 22.2383 39.2145 -5.2271 6.0744
# 5 -2.1043 -4.8739 -0.4443 -5.2271 42.7589 10.3106
# 6 -16.6950 -27.9241 -7.9029 6.0744 10.3106 63.5396
#
#
#
# Elastic Compliance Matrix: (Units=1/GPa)
#
#
# Indices 1 2 3 4 5 6 
#
# 1 0.013163 -0.003501 -0.003382 -0.000803 -0.000275 0.001621
# 2 -0.003501 0.008585 -0.001933 -0.002510 -0.000217 0.002888
# 3 -0.003382 -0.001933 0.025874 -0.013480 -0.002533 0.003180
# 4 -0.000803 -0.002510 -0.013480 0.036561 0.005794 -0.007426
# 5 -0.000275 -0.000217 -0.002533 0.005794 0.025269 -0.005137
# 6 0.001621 0.002888 0.003180 -0.007426 -0.005137 0.019372
#
#
# Mechanical properties :
#
#
# Convention : Reuss Voigt Hill
#
# Bulk Modulus (GPa) = 33.34475 60.66529 47.00502
# Shear Modulus (GPa) = 31.95856 42.75495 37.35675
#
# Velocity S-wave (km/s) = 3.55666 4.11379 3.84533
# Velocity P-wave (km/s) = 5.48315 6.82472 6.19039
#
# Compressibility (1/GPa) = 0.02998973
#
# Stress axis : x y z
#
# Youngs Moduli (GPa) = 75.97270 116.48130 38.64885
#
# Poissons Ratio (x) = 0.40779 0.13072
# Poissons Ratio (y) = 0.26598 0.07470
# Poissons Ratio (z) = 0.25695 0.22515
#
# Static dielectric constant tensor:
#      x y z
#    x 2.231260 -0.054190 0.032060 
#    y -0.054190 2.265590 -0.190130 
#    z 0.032060 -0.190130 2.218290 
# 
# From -- ./inp_files/118194.got.cif
#   From: 2010.05.17/outbox.cif.g08.bks.cpg/sg2_60_cif.got.tgz:118194.got - 2010.06.03 11:33:40.
