data_PCOD9006881
_publ_section_title
;
Structure prediction by ZEFSAII (Michael W. Deem and Ramdas Pophale) SiO2 
 PCOD9006881
Probable space group: P -1
;
_chemical_formula_sum "Si O2"
_cell_formula_units_Z 14
_cell_length_a 14.791327
_cell_length_b 8.992467
_cell_length_c 9.111450
_cell_angle_alpha 68.669424
_cell_angle_beta 35.033544
_cell_angle_gamma 73.017640
_cell_volume 648.013434
_symmetry_space_group_name_H-M "P -1"
_symmetry_group_IT_number 2
_symmetry_cell_setting 'triclinic'
loop_
_space_group_symop_operation_xyz
x,y,z
-x,-y,-z
loop_
_atom_site_type_symbol
_atom_site_label
_atom_site_fract_x
_atom_site_fract_y
_atom_site_fract_z
Si Si1 0.024429 0.179483 0.834418
Si Si2 0.127052 0.960861 0.163150
Si Si3 0.333170 0.128003 0.585219
Si Si4 0.426760 0.905925 0.268110
Si Si5 0.139786 0.792890 0.495871
Si Si6 0.938866 0.510456 0.913035
Si Si7 0.401744 0.339559 0.676939
O O1 0.192782 0.225689 0.659702
O O2 0.001857 0.154308 0.701424
O O3 0.913614 0.327030 0.965140
O O4 0.000000 0.000000 0.000000
O O5 0.199325 0.878408 0.238003
O O6 0.020893 0.112728 0.287017
O O7 0.255904 0.009753 0.853348
O O8 0.429622 0.249387 0.516430
O O9 0.397112 0.023980 0.403127
O O10 0.265806 0.823091 0.447599
O O11 0.544525 0.775787 0.222661
O O12 0.500000 0.000000 0.000000
O O13 0.079144 0.612913 0.612671
O O14 0.778340 0.607667 0.087568
O O15 0.000000 0.500000 0.000000
O O16 0.500000 0.500000 0.500000
#
# Coordination Sequence:
#
# PCOD9006881 Si02
#       7
#     2   2   2   2   2   2   2
#     4  10  21  38  73 101 130 176 243 294 348 417
#     4  10  21  40  73 106 129 181 245 292 346 417
#     4  11  22  45  73  99 138 190 240 284 354 438
#     4  12  28  47  72 105 150 193 233 291 362 440
#     4  11  23  42  73 100 143 178 239 296 349 418
#     4  12  23  42  71 103 143 179 242 303 352 414
#     4  12  27  43  70 109 145 191 236 294 368 423
#
# _framework density 21.604492
#
# number of rings (size 3 to 8) (size 9 to 14) (size 15 to 20)
#    0.000    0.857    4.286    3.000    8.000    0.571 
#    0.000    0.714    0.000    0.000    0.000    0.000 
#    0.000    0.000    0.000    0.000    0.000    0.000 
#
# Total GULP energy -78139.259482 kJ/mol
# GULP energy per Si atom -5581.375677 kJ/mol
# Density = 2.155532 g / cm^3
# Si number density = 21.604492 Si / 1000 Ang^3
#
#
#
# Elastic Constant Matrix: (Units=GPa)
#
#
# Indices 1 2 3 4 5 6 
#
# 1 156.3317 65.8210 34.1691 -7.7661 3.7994 -5.4137
# 2 65.8210 129.7900 48.2717 0.1607 9.4813 -6.0256
# 3 34.1691 48.2717 94.3426 -6.4820 14.2956 0.5256
# 4 -7.7661 0.1607 -6.4820 23.8600 6.0981 -9.7134
# 5 3.7994 9.4813 14.2956 6.0981 31.1813 2.0892
# 6 -5.4137 -6.0256 0.5256 -9.7134 2.0892 46.0873
#
#
#
# Elastic Compliance Matrix: (Units=1/GPa)
#
#
# Indices 1 2 3 4 5 6 
#
# 1 0.008413 -0.003900 -0.000830 0.003033 -0.000128 0.001133
# 2 -0.003900 0.011432 -0.004504 -0.002160 -0.000558 0.000658
# 3 -0.000830 -0.004504 0.014544 0.005577 -0.006329 0.000610
# 4 0.003033 -0.002160 0.005577 0.052601 -0.013341 0.011701
# 5 -0.000128 -0.000558 -0.006329 -0.013341 0.038071 -0.004553
# 6 0.001133 0.000658 0.000610 0.011701 -0.004553 0.024583
#
#
# Mechanical properties :
#
#
# Convention : Reuss Voigt Hill
#
# Bulk Modulus (GPa) = 62.81428 75.22088 69.01758
# Shear Modulus (GPa) = 28.83198 35.70587 32.26893
#
# Velocity S-wave (km/s) = 3.65709 4.06976 3.86893
# Velocity P-wave (km/s) = 6.85348 7.54829 7.20926
#
# Compressibility (1/GPa) = 0.01591995
#
# Stress axis : x y z
#
# Youngs Moduli (GPa) = 118.86405 87.47715 68.75752
#
# Poissons Ratio (x) = 0.34112 0.05709
# Poissons Ratio (y) = 0.46351 0.30971
# Poissons Ratio (z) = 0.09870 0.39403
#
# Static dielectric constant tensor:
#      x y z
#    x 1.826440 0.044960 -0.051740 
#    y 0.044960 1.873640 -0.033790 
#    z -0.051740 -0.033790 1.874480 
# 
# From -- ./inp_files/294656.got.cif
#   From: 2010.05.17/outbox.cif.g08.bks.cpg/sg2_148_cif.got.tgz:294656.got - 2010.06.03 11:33:40.
