data_PCOD9006749
_publ_section_title
;
Structure prediction by ZEFSAII (Michael W. Deem and Ramdas Pophale) SiO2 
 PCOD9006749
Probable space group: P -1
;
_chemical_formula_sum "Si O2"
_cell_formula_units_Z 16
_cell_length_a 5.034194
_cell_length_b 16.250709
_cell_length_c 7.897227
_cell_angle_alpha 73.000893
_cell_angle_beta 101.900799
_cell_angle_gamma 107.916257
_cell_volume 583.058254
_symmetry_space_group_name_H-M "P -1"
_symmetry_group_IT_number 2
_symmetry_cell_setting 'triclinic'
loop_
_space_group_symop_operation_xyz
x,y,z
-x,-y,-z
loop_
_atom_site_type_symbol
_atom_site_label
_atom_site_fract_x
_atom_site_fract_y
_atom_site_fract_z
Si Si1 0.020542 0.803335 0.868334
Si Si2 0.481558 0.252103 0.947541
Si Si3 0.766561 0.477218 0.131223
Si Si4 0.195528 0.936134 0.116039
Si Si5 0.803495 0.845288 0.363674
Si Si6 0.444803 0.661917 0.547388
Si Si7 0.687793 0.024914 0.346928
Si Si8 0.177534 0.385701 0.647695
O O1 0.192201 0.729453 0.966518
O O2 0.144684 0.868543 0.998931
O O3 0.695746 0.780247 0.886101
O O4 0.131072 0.872388 0.690029
O O5 0.385864 0.181905 0.819661
O O6 0.351465 0.330490 0.815147
O O7 0.849413 0.534438 0.281228
O O8 0.500000 0.500000 0.000000
O O9 0.654931 0.379048 0.257947
O O10 0.000000 0.500000 0.000000
O O11 0.472042 0.005923 0.173026
O O12 0.108439 0.866401 0.304694
O O13 0.000000 0.000000 0.000000
O O14 0.663265 0.759905 0.510193
O O15 0.822242 0.942863 0.381869
O O16 0.629518 0.603586 0.505091
O O17 0.148664 0.660608 0.416108
O O18 0.500000 0.000000 0.500000
#
# Coordination Sequence:
#
# PCOD9006749 Si02
#       8
#     2   2   2   2   2   2   2   2
#     4  11  21  39  63  93 124 181 227 286 335 388
#     4  10  21  38  68  96 127 166 241 286 324 385
#     4  12  26  48  74 109 151 183 216 279 364 431
#     4  11  21  40  68  88 126 177 238 285 334 400
#     4  10  22  39  64  95 128 177 227 287 335 392
#     4  11  24  45  76 103 137 182 243 287 337 412
#     4  12  25  40  57  92 135 177 228 278 347 409
#     4  11  23  44  75 109 136 180 237 286 333 420
#
# _framework density 27.441510000000001
#
# number of rings (size 3 to 8) (size 9 to 14) (size 15 to 20)
#    0.000    1.000    2.500    5.625    3.500    0.500 
#    4.500    0.000    0.000    0.000    0.000    0.000 
#    0.000    0.000    0.000    0.000    0.000    0.000 
#
# Total GULP energy -89356.725118 kJ/mol
# GULP energy per Si atom -5584.795320 kJ/mol
# Density = 2.737905 g / cm^3
# Si number density = 27.441510 Si / 1000 Ang^3
#
#
#
# Elastic Constant Matrix: (Units=GPa)
#
#
# Indices 1 2 3 4 5 6 
#
# 1 121.5015 21.4189 21.4013 -0.9054 -23.0900 0.0340
# 2 21.4189 124.8501 29.8675 0.9266 -13.8903 8.6126
# 3 21.4013 29.8675 150.0742 -15.6086 -41.0240 4.4478
# 4 -0.9054 0.9266 -15.6086 44.7901 -1.2564 -8.0201
# 5 -23.0900 -13.8903 -41.0240 -1.2564 64.6771 0.3750
# 6 0.0340 8.6126 4.4478 -8.0201 0.3750 32.4479
#
#
#
# Elastic Compliance Matrix: (Units=1/GPa)
#
#
# Indices 1 2 3 4 5 6 
#
# 1 0.009022 -0.001201 -0.000267 0.000260 0.002796 0.000378
# 2 -0.001201 0.008804 -0.001489 -0.001144 0.000509 -0.002420
# 3 -0.000267 -0.001489 0.008756 0.003210 0.005201 -0.000071
# 4 0.000260 -0.001144 0.003210 0.024598 0.002327 0.005917
# 5 0.002796 0.000509 0.005201 0.002327 0.019916 -0.000506
# 6 0.000378 -0.002420 -0.000071 0.005917 -0.000506 0.032939
#
#
# Mechanical properties :
#
#
# Convention : Reuss Voigt Hill
#
# Bulk Modulus (GPa) = 48.38470 60.20011 54.29241
# Shear Modulus (GPa) = 42.79407 49.96557 46.37982
#
# Velocity S-wave (km/s) = 3.95329 4.27172 4.11558
# Velocity P-wave (km/s) = 6.20550 6.80553 6.51243
#
# Compressibility (1/GPa) = 0.02066769
#
# Stress axis : x y z
#
# Youngs Moduli (GPa) = 110.83542 113.58570 114.21362
#
# Poissons Ratio (x) = 0.13639 0.03054
# Poissons Ratio (y) = 0.13309 0.17006
# Poissons Ratio (z) = 0.02963 0.16912
#
# Static dielectric constant tensor:
#      x y z
#    x 2.276440 -0.066260 -0.013030 
#    y -0.066260 2.186870 0.005100 
#    z -0.013030 0.005100 2.348110 
# 
# From -- ./inp_files/141988.got.cif
#   From: 2010.05.17/outbox.cif.g08.bks.cpg/sg2_71_cif.got.tgz:141988.got - 2010.06.03 11:33:40.
