data_PCOD9006142
_publ_section_title
;
Structure prediction by ZEFSAII (Michael W. Deem and Ramdas Pophale) SiO2 
 PCOD9006142
Probable space group: P -1
;
_chemical_formula_sum "Si O2"
_cell_formula_units_Z 10
_cell_length_a 9.130737
_cell_length_b 7.168817
_cell_length_c 12.790902
_cell_angle_alpha 74.017208
_cell_angle_beta 31.453823
_cell_angle_gamma 66.491874
_cell_volume 396.921515
_symmetry_space_group_name_H-M "P -1"
_symmetry_group_IT_number 2
_symmetry_cell_setting 'triclinic'
loop_
_space_group_symop_operation_xyz
x,y,z
-x,-y,-z
loop_
_atom_site_type_symbol
_atom_site_label
_atom_site_fract_x
_atom_site_fract_y
_atom_site_fract_z
Si Si1 0.063681 0.081058 0.724514
Si Si2 0.570342 0.682307 0.026044
Si Si3 0.289664 0.088550 0.896276
Si Si4 0.713487 0.640063 0.715909
Si Si5 0.432450 0.291636 0.587882
O O1 0.254494 0.227704 0.612305
O O2 0.759009 0.198042 0.835164
O O3 0.254857 0.888965 0.571716
O O4 0.988134 0.985185 0.893459
O O5 0.649404 0.813515 0.047034
O O6 0.537350 0.471760 0.121715
O O7 0.229798 0.353735 0.194269
O O8 0.264701 0.261921 0.799054
O O9 0.560923 0.877274 0.740344
O O10 0.000000 0.500000 0.500000
O O11 0.500000 0.500000 0.500000
#
# Coordination Sequence:
#
# PCOD9006142 Si02
#       5
#     2   2   2   2   2
#     4  10  23  44  64  95 134 168 218 270 324 394
#     4  10  23  40  67 102 131 166 215 271 330 390
#     4  11  24  43  69  98 132 173 217 273 330 386
#     4  10  21  38  64  98 135 168 208 265 329 390
#     4  11  26  43  65  93 130 178 223 268 322 387
#
# _framework density 25.193898999999998
#
# number of rings (size 3 to 8) (size 9 to 14) (size 15 to 20)
#    0.000    1.600    0.000    4.200    0.000   16.800 
#    0.000    0.000    0.000    0.000    0.000    0.000 
#    0.000    0.000    0.000    0.000    0.000    0.000 
#
# Total GULP energy -56011.551243 kJ/mol
# GULP energy per Si atom -5601.155124 kJ/mol
# Density = 2.513656 g / cm^3
# Si number density = 25.193899 Si / 1000 Ang^3
#
#
#
# Elastic Constant Matrix: (Units=GPa)
#
#
# Indices 1 2 3 4 5 6 
#
# 1 41.4852 45.3061 24.0932 0.6277 3.1828 14.2090
# 2 45.3061 220.6787 52.7988 -21.7928 15.1459 14.1603
# 3 24.0932 52.7988 125.6658 4.4658 9.7981 -0.0191
# 4 0.6277 -21.7928 4.4658 51.5174 -6.0325 6.1656
# 5 3.1828 15.1459 9.7981 -6.0325 25.8633 -2.3679
# 6 14.2090 14.1603 -0.0191 6.1656 -2.3679 39.8359
#
#
#
# Elastic Compliance Matrix: (Units=1/GPa)
#
#
# Indices 1 2 3 4 5 6 
#
# 1 0.036982 -0.005894 -0.004514 -0.001326 -0.000700 -0.010935
# 2 -0.005894 0.006589 -0.001589 0.002866 -0.001936 -0.000799
# 3 -0.004514 -0.001589 0.009756 -0.002033 -0.002469 0.002348
# 4 -0.001326 0.002866 -0.002033 0.021722 0.003985 -0.003672
# 5 -0.000700 -0.001936 -0.002469 0.003985 0.042007 0.002817
# 6 -0.010935 -0.000799 0.002348 -0.003672 0.002817 0.030024
#
#
# Mechanical properties :
#
#
# Convention : Reuss Voigt Hill
#
# Bulk Modulus (GPa) = 34.09184 70.24732 52.16958
# Shear Modulus (GPa) = 27.64682 41.15208 34.39945
#
# Velocity S-wave (km/s) = 3.31624 4.04594 3.69912
# Velocity P-wave (km/s) = 5.31267 7.05474 6.24475
#
# Compressibility (1/GPa) = 0.02933253
#
# Stress axis : x y z
#
# Youngs Moduli (GPa) = 27.04004 151.76992 102.50127
#
# Poissons Ratio (x) = 0.89450 0.46270
# Poissons Ratio (y) = 0.15937 0.16291
# Poissons Ratio (z) = 0.12206 0.24122
#
# Static dielectric constant tensor:
#      x y z
#    x 1.995890 -0.048030 0.032590 
#    y -0.048030 1.994700 -0.027630 
#    z 0.032590 -0.027630 2.044500 
# 
# From -- ./inp_files/510919.got.cif
#   From: 2010.05.17/outbox.cif.g08.bks.cpg/sg2_256_cif.got.tgz:510919.got - 2010.06.03 11:33:40.
