data_PCOD9006940
_publ_section_title
;
Structure prediction by ZEFSAII (Michael W. Deem and Ramdas Pophale) SiO2 
 PCOD9006940
Probable space group: P -1
;
_chemical_formula_sum "Si O2"
_cell_formula_units_Z 16
_cell_length_a 19.943159
_cell_length_b 4.975348
_cell_length_c 7.259664
_cell_angle_alpha 100.367366
_cell_angle_beta 64.811467
_cell_angle_gamma 109.582075
_cell_volume 613.549696
_symmetry_space_group_name_H-M "P -1"
_symmetry_group_IT_number 2
_symmetry_cell_setting 'triclinic'
loop_
_space_group_symop_operation_xyz
x,y,z
-x,-y,-z
loop_
_atom_site_type_symbol
_atom_site_label
_atom_site_fract_x
_atom_site_fract_y
_atom_site_fract_z
Si Si1 0.007573 0.249807 0.322120
Si Si2 0.222539 0.112757 0.039734
Si Si3 0.660831 0.727961 0.581564
Si Si4 0.234077 0.663785 0.510517
Si Si5 0.142429 0.483888 0.945102
Si Si6 0.570429 0.962655 0.033289
Si Si7 0.394020 0.404977 0.773795
Si Si8 0.129271 0.195306 0.450245
O O1 0.053374 0.366949 0.095418
O O2 0.067202 0.118642 0.344328
O O3 0.000000 0.500000 0.500000
O O4 0.925459 0.014975 0.362943
O O5 0.196367 0.351825 0.989857
O O6 0.201552 0.098608 0.277811
O O7 0.172078 0.819136 0.980260
O O8 0.312978 0.185854 0.909401
O O9 0.693664 0.468280 0.574985
O O10 0.607388 0.629056 0.449719
O O11 0.731277 0.002425 0.466446
O O12 0.621398 0.850983 0.809484
O O13 0.171817 0.537100 0.409032
O O14 0.171423 0.464354 0.702360
O O15 0.604324 0.276345 0.126356
O O16 0.500000 0.000000 0.000000
O O17 0.547756 0.722072 0.191222
#
# Coordination Sequence:
#
# PCOD9006940 Si02
#       8
#     2   2   2   2   2   2   2   2
#     4  10  21  39  57  86 124 180 228 270 352 428
#     4  11  20  39  63  93 120 169 224 272 334 396
#     4  12  26  47  73 108 142 179 238 286 347 420
#     4  12  24  43  65 103 131 171 231 297 343 397
#     4  11  21  38  62  87 128 161 221 278 328 407
#     4  12  28  47  73 111 146 185 232 273 336 427
#     4  12  24  46  76 103 146 189 224 289 349 396
#     4  10  23  36  62  87 127 173 225 291 344 409
#
# _framework density 26.077756999999998
#
# number of rings (size 3 to 8) (size 9 to 14) (size 15 to 20)
#    0.000    0.750    3.750    4.125    1.750    2.500 
#    0.000    0.625    0.000    0.000    0.000    0.000 
#    0.000    0.000    0.000    0.000    0.000    0.000 
#
# Total GULP energy -89274.516016 kJ/mol
# GULP energy per Si atom -5579.657251 kJ/mol
# Density = 2.601840 g / cm^3
# Si number density = 26.077757 Si / 1000 Ang^3
#
#
#
# Elastic Constant Matrix: (Units=GPa)
#
#
# Indices 1 2 3 4 5 6 
#
# 1 67.2923 -1.8289 50.8162 9.6792 18.8582 -0.7186
# 2 -1.8289 152.3371 -73.4856 4.5281 -18.3284 -29.2701
# 3 50.8162 -73.4856 258.3957 -11.4227 49.2477 54.3693
# 4 9.6792 4.5281 -11.4227 33.0229 3.2571 -1.3245
# 5 18.8582 -18.3284 49.2477 3.2571 45.3483 15.8502
# 6 -0.7186 -29.2701 54.3693 -1.3245 15.8502 54.0459
#
#
#
# Elastic Compliance Matrix: (Units=1/GPa)
#
#
# Indices 1 2 3 4 5 6 
#
# 1 0.021353 -0.001521 -0.005182 -0.007056 -0.005496 0.006113
# 2 -0.001521 0.008004 0.001946 0.000001 0.001036 0.002053
# 3 -0.005182 0.001946 0.007413 0.003950 -0.003526 -0.005342
# 4 -0.007056 0.000001 0.003950 0.033914 -0.002964 -0.002366
# 5 -0.005496 0.001036 -0.003526 -0.002964 0.030544 -0.004995
# 6 0.006113 0.002053 -0.005342 -0.002366 -0.004995 0.026477
#
#
# Mechanical properties :
#
#
# Convention : Reuss Voigt Hill
#
# Bulk Modulus (GPa) = 36.68932 47.66984 42.17958
# Shear Modulus (GPa) = 34.17555 59.98496 47.08025
#
# Velocity S-wave (km/s) = 3.62404 4.80128 4.25359
# Velocity P-wave (km/s) = 5.62240 7.00399 6.35088
#
# Compressibility (1/GPa) = 0.02725588
#
# Stress axis : x y z
#
# Youngs Moduli (GPa) = 46.83173 124.93876 134.89644
#
# Poissons Ratio (x) = 0.18998 0.69907
# Poissons Ratio (y) = 0.07121 -0.26248
# Poissons Ratio (z) = 0.24270 -0.24311
#
# Static dielectric constant tensor:
#      x y z
#    x 2.130150 -0.054100 -0.074630 
#    y -0.054100 1.909760 -0.107330 
#    z -0.074630 -0.107330 2.166410 
# 
# From -- ./inp_files/339924.got.cif
#   From: 2010.05.17/outbox.cif.g08.bks.cpg/sg2_170_cif.got.tgz:339924.got - 2010.06.03 11:33:40.
