data_PCOD9006769
_publ_section_title
;
Structure prediction by ZEFSAII (Michael W. Deem and Ramdas Pophale) SiO2 
 PCOD9006769
Probable space group: P -1
;
_chemical_formula_sum "Si O2"
_cell_formula_units_Z 10
_cell_length_a 9.326152
_cell_length_b 5.229040
_cell_length_c 10.531060
_cell_angle_alpha 52.241608
_cell_angle_beta 81.378049
_cell_angle_gamma 102.517104
_cell_volume 368.843217
_symmetry_space_group_name_H-M "P -1"
_symmetry_group_IT_number 2
_symmetry_cell_setting 'triclinic'
loop_
_space_group_symop_operation_xyz
x,y,z
-x,-y,-z
loop_
_atom_site_type_symbol
_atom_site_label
_atom_site_fract_x
_atom_site_fract_y
_atom_site_fract_z
Si Si1 0.725008 0.492304 0.831635
Si Si2 0.050842 0.625001 0.666305
Si Si3 0.372152 0.782191 0.477507
Si Si4 0.992380 0.867742 0.846672
Si Si5 0.442738 0.226764 0.783253
O O1 0.812134 0.753684 0.855447
O O2 0.568371 0.484659 0.788247
O O3 0.867977 0.559263 0.691929
O O4 0.670907 0.107041 0.021672
O O5 0.197744 0.781691 0.505440
O O6 0.090669 0.899958 0.693477
O O7 0.037397 0.223463 0.811664
O O8 0.354785 0.400499 0.651283
O O9 0.447816 0.862222 0.305218
O O10 0.500000 0.000000 0.500000
O O11 0.000000 0.500000 0.000000
#
# Coordination Sequence:
#
# PCOD9006769 Si02
#       5
#     2   2   2   2   2
#     4   9  23  41  71  96 129 175 219 281 318 396
#     4  10  24  40  68  94 128 175 225 263 330 389
#     4  11  26  40  65  95 135 179 212 277 328 404
#     4  10  21  38  68  99 125 171 223 276 313 397
#     4  10  23  44  62 100 134 167 224 268 342 378
#
# _framework density 27.111787
#
# number of rings (size 3 to 8) (size 9 to 14) (size 15 to 20)
#    1.200    0.800    0.000    1.800   11.200    2.400 
#    0.000    6.000    0.000    0.000    0.000    0.000 
#    0.000    0.000    0.000    0.000    0.000    0.000 
#
# Total GULP energy -55757.861851 kJ/mol
# GULP energy per Si atom -5575.786185 kJ/mol
# Density = 2.705008 g / cm^3
# Si number density = 27.111787 Si / 1000 Ang^3
#
#
#
# Elastic Constant Matrix: (Units=GPa)
#
#
# Indices 1 2 3 4 5 6 
#
# 1 132.9110 28.7134 60.8299 -7.8598 -18.8224 -2.9927
# 2 28.7134 86.2173 16.0850 -25.1638 5.5842 8.7733
# 3 60.8299 16.0850 119.1508 6.4558 -4.0096 -3.7637
# 4 -7.8598 -25.1638 6.4558 30.4399 -2.9692 -4.7008
# 5 -18.8224 5.5842 -4.0096 -2.9692 51.9198 -11.4975
# 6 -2.9927 8.7733 -3.7637 -4.7008 -11.4975 46.4181
#
#
#
# Elastic Compliance Matrix: (Units=1/GPa)
#
#
# Indices 1 2 3 4 5 6 
#
# 1 0.011416 -0.002488 -0.005420 0.002832 0.004637 0.002202
# 2 -0.002488 0.017118 -0.001941 0.013200 -0.002782 -0.002905
# 3 -0.005420 -0.001941 0.011689 -0.005577 -0.001147 0.000116
# 4 0.002832 0.013200 -0.005577 0.046298 0.002381 0.002514
# 5 0.004637 -0.002782 -0.001147 0.002381 0.022752 0.006608
# 6 0.002202 -0.002905 0.000116 0.002514 0.006608 0.024135
#
#
# Mechanical properties :
#
#
# Convention : Reuss Voigt Hill
#
# Bulk Modulus (GPa) = 48.72388 61.05953 54.89171
# Shear Modulus (GPa) = 31.26002 41.26560 36.26281
#
# Velocity S-wave (km/s) = 3.39928 3.90558 3.66119
# Velocity P-wave (km/s) = 5.78077 6.55045 6.17761
#
# Compressibility (1/GPa) = 0.02052382
#
# Stress axis : x y z
#
# Youngs Moduli (GPa) = 87.59748 58.41835 85.54976
#
# Poissons Ratio (x) = 0.14537 0.46368
# Poissons Ratio (y) = 0.21798 0.16605
# Poissons Ratio (z) = 0.47478 0.11339
#
# Static dielectric constant tensor:
#      x y z
#    x 2.142160 0.011610 0.090220 
#    y 0.011610 2.131140 -0.054560 
#    z 0.090220 -0.054560 2.245140 
# 
# From -- ./inp_files/29454.got.cif
#   From: 2010.05.17/outbox.cif.g08.bks.cpg/sg2_15_cif.got.tgz:29454.got - 2010.06.03 11:33:40.
