data_PCOD9006974
_publ_section_title
;
Structure prediction by ZEFSAII (Michael W. Deem and Ramdas Pophale) SiO2 
 PCOD9006974
Probable space group: P -1
;
_chemical_formula_sum "Si O2"
_cell_formula_units_Z 16
_cell_length_a 27.301264
_cell_length_b 14.080112
_cell_length_c 8.863043
_cell_angle_alpha 51.331156
_cell_angle_beta 142.798587
_cell_angle_gamma 155.333248
_cell_volume 790.740078
_symmetry_space_group_name_H-M "P -1"
_symmetry_group_IT_number 2
_symmetry_cell_setting 'triclinic'
loop_
_space_group_symop_operation_xyz
x,y,z
-x,-y,-z
loop_
_atom_site_type_symbol
_atom_site_label
_atom_site_fract_x
_atom_site_fract_y
_atom_site_fract_z
Si Si1 0.393781 0.318481 0.605330
Si Si2 0.662545 0.852156 0.681624
Si Si3 0.392109 0.932184 0.996232
Si Si4 0.261756 0.584562 0.766189
Si Si5 0.821361 0.725382 0.886074
Si Si6 0.963803 0.315520 0.144926
Si Si7 0.296204 0.998884 0.914588
Si Si8 0.457791 0.765591 0.467059
O O1 0.574061 0.614387 0.763142
O O2 0.368655 0.195878 0.524707
O O3 0.279356 0.283768 0.321130
O O4 0.341056 0.183459 0.761452
O O5 0.568004 0.844161 0.529323
O O6 0.848663 0.104568 0.944231
O O7 0.562960 0.216071 0.078355
O O8 0.445704 0.891511 0.277896
O O9 0.275312 0.871491 0.859194
O O10 0.303301 0.750255 0.818402
O O11 0.128479 0.457255 0.446133
O O12 0.191644 0.382808 0.896195
O O13 0.722450 0.527235 0.706451
O O14 0.000000 0.000000 0.000000
O O15 0.854436 0.180711 0.162958
O O16 0.000000 0.500000 0.000000
O O17 0.450877 0.152290 0.238811
#
# Coordination Sequence:
#
# PCOD9006974 Si02
#       8
#     2   2   2   2   2   2   2   2
#     4  10  22  38  65  90 115 160 211 245 292 360
#     4   9  21  40  63  85 124 157 201 252 297 355
#     4  10  22  38  64  88 122 156 208 243 300 367
#     4  10  22  39  63  88 119 166 194 247 310 357
#     4  10  21  39  58  84 126 156 197 243 305 360
#     4  11  24  42  61  92 128 159 197 255 312 355
#     4  11  23  37  66  92 118 159 209 251 294 363
#     4   9  20  39  60  85 119 161 194 250 301 350
#
# _framework density 20.234207999999999
#
# number of rings (size 3 to 8) (size 9 to 14) (size 15 to 20)
#    0.000    2.000    0.000    2.625   10.500    6.000 
#    6.750    0.625    0.000    0.000    0.000    0.000 
#    0.000    0.000    0.000    0.000    0.000    0.000 
#
# Total GULP energy -89377.970229 kJ/mol
# GULP energy per Si atom -5586.123139 kJ/mol
# Density = 2.018815 g / cm^3
# Si number density = 20.234208 Si / 1000 Ang^3
#
#
#
# Elastic Constant Matrix: (Units=GPa)
#
#
# Indices 1 2 3 4 5 6 
#
# 1 36.1034 17.9871 -8.3651 -2.4870 -4.1779 -8.6543
# 2 17.9871 126.4413 52.0522 -3.5192 -6.1712 12.0112
# 3 -8.3651 52.0522 84.6616 3.7953 5.6376 -10.0254
# 4 -2.4870 -3.5192 3.7953 35.2803 1.6169 -0.1977
# 5 -4.1779 -6.1712 5.6376 1.6169 15.1345 -3.2149
# 6 -8.6543 12.0112 -10.0254 -0.1977 -3.2149 23.2751
#
#
#
# Elastic Compliance Matrix: (Units=1/GPa)
#
#
# Indices 1 2 3 4 5 6 
#
# 1 0.053521 -0.020311 0.022186 -0.000731 0.006994 0.040898
# 2 -0.020311 0.021088 -0.018403 0.002318 0.004125 -0.025772
# 3 0.022186 -0.018403 0.029334 -0.003000 -0.005705 0.029568
# 4 -0.000731 0.002318 -0.003000 0.028915 -0.001816 -0.002766
# 5 0.006994 0.004125 -0.005705 -0.001816 0.073745 0.008185
# 6 0.040898 -0.025772 0.029568 -0.002766 0.008185 0.085315
#
#
# Mechanical properties :
#
#
# Convention : Reuss Voigt Hill
#
# Bulk Modulus (GPa) = 14.10695 41.17277 27.63986
# Shear Modulus (GPa) = 14.34302 27.10678 20.72490
#
# Velocity S-wave (km/s) = 2.66531 3.66410 3.20386
# Velocity P-wave (km/s) = 4.05695 6.18814 5.23220
#
# Compressibility (1/GPa) = 0.07088706
#
# Stress axis : x y z
#
# Youngs Moduli (GPa) = 18.68442 47.41991 34.08988
#
# Poissons Ratio (x) = 0.96315 -0.75632
# Poissons Ratio (y) = 0.37950 0.62735
# Poissons Ratio (z) = -0.41453 0.87266
#
# Static dielectric constant tensor:
#      x y z
#    x 1.742520 -0.001950 -0.004180 
#    y -0.001950 1.726510 0.005370 
#    z -0.004180 0.005370 1.717180 
# 
# From -- ./inp_files/321080.got.cif
#   From: 2010.05.17/outbox.cif.g08.bks.cpg/sg2_161_cif.got.tgz:321080.got - 2010.06.03 11:33:40.
