data_PCOD9006818
_publ_section_title
;
Structure prediction by ZEFSAII (Michael W. Deem and Ramdas Pophale) SiO2 
 PCOD9006818
Probable space group: P -1
;
_chemical_formula_sum "Si O2"
_cell_formula_units_Z 12
_cell_length_a 14.368284
_cell_length_b 8.951353
_cell_length_c 6.713056
_cell_angle_alpha 50.717721
_cell_angle_beta 125.826317
_cell_angle_gamma 123.590817
_cell_volume 518.399865
_symmetry_space_group_name_H-M "P -1"
_symmetry_group_IT_number 2
_symmetry_cell_setting 'triclinic'
loop_
_space_group_symop_operation_xyz
x,y,z
-x,-y,-z
loop_
_atom_site_type_symbol
_atom_site_label
_atom_site_fract_x
_atom_site_fract_y
_atom_site_fract_z
Si Si1 0.494895 0.056560 0.213998
Si Si2 0.596854 0.372545 0.576966
Si Si3 0.764178 0.121550 0.970656
Si Si4 0.938696 0.079650 0.541087
Si Si5 0.389564 0.500635 0.083218
Si Si6 0.158211 0.159721 0.991885
O O1 0.594212 0.265066 0.134082
O O2 0.500000 0.000000 0.500000
O O3 0.359380 0.058513 0.997604
O O4 0.505347 0.152834 0.715145
O O5 0.711593 0.308352 0.700420
O O6 0.517515 0.455821 0.256528
O O7 0.630339 0.513553 0.690030
O O8 0.826473 0.037008 0.940575
O O9 0.843106 0.165072 0.232995
O O10 0.873742 0.908060 0.763455
O O11 0.000000 0.000000 0.500000
O O12 0.048606 0.214405 0.697369
O O13 0.279586 0.339853 0.981737
#
# Coordination Sequence:
#
# PCOD9006818 Si02
#       6
#     2   2   2   2   2   2
#     4  10  22  39  60  95 137 174 207 264 329 385
#     4   9  23  38  59  98 134 174 207 264 327 389
#     4   9  21  39  63  94 135 174 208 266 330 389
#     4   9  20  42  67  93 129 174 220 277 334 375
#     4  11  22  39  66  99 132 172 223 261 321 402
#     4  10  21  38  69  99 125 177 226 269 323 393
#
# _framework density 23.148153000000001
#
# number of rings (size 3 to 8) (size 9 to 14) (size 15 to 20)
#    1.000    1.333    0.000    1.500    4.667    4.000 
#    3.000    0.833    0.000   10.000    0.000    0.000 
#    0.000    0.000    0.000    0.000    0.000    0.000 
#
# Total GULP energy -66884.244394 kJ/mol
# GULP energy per Si atom -5573.687033 kJ/mol
# Density = 2.309547 g / cm^3
# Si number density = 23.148153 Si / 1000 Ang^3
#
#
#
# Elastic Constant Matrix: (Units=GPa)
#
#
# Indices 1 2 3 4 5 6 
#
# 1 80.5189 30.2609 47.1401 7.6023 2.4601 1.4894
# 2 30.2609 87.0751 48.3011 16.2068 17.5087 -1.7179
# 3 47.1401 48.3011 142.0145 24.6313 13.6811 9.6662
# 4 7.6023 16.2068 24.6313 31.2371 9.0217 2.3338
# 5 2.4601 17.5087 13.6811 9.0217 37.6737 6.1599
# 6 1.4894 -1.7179 9.6662 2.3338 6.1599 30.3001
#
#
#
# Elastic Compliance Matrix: (Units=1/GPa)
#
#
# Indices 1 2 3 4 5 6 
#
# 1 0.016318 -0.003780 -0.004489 0.000926 0.002114 -0.000085
# 2 -0.003780 0.016663 -0.003477 -0.003530 -0.006000 0.003731
# 3 -0.004489 -0.003477 0.010876 -0.005380 -0.000265 -0.002978
# 4 0.000926 -0.003530 -0.005380 0.039590 -0.005884 -0.000382
# 5 0.002114 -0.006000 -0.000265 -0.005884 0.031739 -0.006359
# 6 -0.000085 0.003731 -0.002978 -0.000382 -0.006359 0.035491
#
#
# Mechanical properties :
#
#
# Convention : Reuss Voigt Hill
#
# Bulk Modulus (GPa) = 49.10195 62.33475 55.71835
# Shear Modulus (GPa) = 27.63099 32.10260 29.86679
#
# Velocity S-wave (km/s) = 3.45868 3.72806 3.59590
# Velocity P-wave (km/s) = 6.09984 6.74673 6.43142
#
# Compressibility (1/GPa) = 0.02036579
#
# Stress axis : x y z
#
# Youngs Moduli (GPa) = 61.28266 60.01199 91.94931
#
# Poissons Ratio (x) = 0.22682 0.41280
# Poissons Ratio (y) = 0.23162 0.31967
# Poissons Ratio (z) = 0.27512 0.20864
#
# Static dielectric constant tensor:
#      x y z
#    x 1.950880 -0.016440 -0.016850 
#    y -0.016440 1.857430 0.001120 
#    z -0.016850 0.001120 1.976580 
# 
# From -- ./inp_files/32473.got.cif
#   From: 2010.05.17/outbox.cif.g08.bks.cpg/sg2_17_cif.got.tgz:32473.got - 2010.06.03 11:33:40.
