data_PCOD9006467
_publ_section_title
;
Structure prediction by ZEFSAII (Michael W. Deem and Ramdas Pophale) SiO2 
 PCOD9006467
Probable space group: P -1
;
_chemical_formula_sum "Si O2"
_cell_formula_units_Z 16
_cell_length_a 12.318699
_cell_length_b 13.382248
_cell_length_c 9.402220
_cell_angle_alpha 79.483159
_cell_angle_beta 73.989304
_cell_angle_gamma 141.737513
_cell_volume 684.523176
_symmetry_space_group_name_H-M "P -1"
_symmetry_group_IT_number 2
_symmetry_cell_setting 'triclinic'
loop_
_space_group_symop_operation_xyz
x,y,z
-x,-y,-z
loop_
_atom_site_type_symbol
_atom_site_label
_atom_site_fract_x
_atom_site_fract_y
_atom_site_fract_z
Si Si1 0.779758 0.990650 0.890584
Si Si2 0.406446 0.370095 0.927047
Si Si3 0.996062 0.807424 0.940302
Si Si4 0.679069 0.125341 0.731804
Si Si5 0.881905 0.804094 0.524935
Si Si6 0.804376 0.103648 0.444710
Si Si7 0.276896 0.601254 0.837352
Si Si8 0.164416 0.659241 0.103494
O O1 0.716783 0.045931 0.819576
O O2 0.006124 0.126148 0.686978
O O3 0.849415 0.064103 0.007779
O O4 0.586832 0.745786 0.022487
O O5 0.595332 0.560827 0.692553
O O6 0.500000 0.500000 0.000000
O O7 0.130551 0.186306 0.050123
O O8 0.766406 0.551765 0.111662
O O9 0.148495 0.874214 0.743818
O O10 0.782641 0.192208 0.517939
O O11 0.389002 0.904617 0.893756
O O12 0.795527 0.299093 0.752630
O O13 0.000000 0.000000 0.500000
O O14 0.984537 0.794104 0.587059
O O15 0.547246 0.847489 0.640132
O O16 0.202726 0.584944 0.024054
O O17 0.088815 0.499034 0.818775
#
# Coordination Sequence:
#
# PCOD9006467 Si02
#       8
#     2   2   2   2   2   2   2   2
#     4  11  24  40  63  91 124 161 199 252 303 355
#     4  12  24  39  65  90 123 162 205 244 301 364
#     4  12  24  41  60  93 128 158 200 254 303 356
#     4   9  19  39  65  89 121 162 201 254 300 356
#     4  11  21  39  62  88 118 161 207 246 295 359
#     4  10  22  37  61  88 125 157 204 247 302 358
#     4  10  21  38  66  91 121 165 197 251 310 356
#     4   9  18  38  66  88 119 161 206 246 307 361
#
# _framework density 23.373934999999999
#
# number of rings (size 3 to 8) (size 9 to 14) (size 15 to 20)
#    0.000    1.500    3.750    1.125    3.500    1.500 
#    0.000    6.250    0.000    0.000    0.000    0.000 
#    0.000    0.000    0.000    0.000    0.000    0.000 
#
# Total GULP energy -89398.012063 kJ/mol
# GULP energy per Si atom -5587.375754 kJ/mol
# Density = 2.332074 g / cm^3
# Si number density = 23.373935 Si / 1000 Ang^3
#
#
#
# Elastic Constant Matrix: (Units=GPa)
#
#
# Indices 1 2 3 4 5 6 
#
# 1 65.4957 12.2840 11.1971 -4.0063 -5.4394 0.8264
# 2 12.2840 122.9011 41.3037 23.8877 1.9488 -7.8493
# 3 11.1971 41.3037 124.0636 21.0914 -16.7872 -4.0233
# 4 -4.0063 23.8877 21.0914 45.5659 -2.0949 6.7304
# 5 -5.4394 1.9488 -16.7872 -2.0949 28.4709 -2.1313
# 6 0.8264 -7.8493 -4.0233 6.7304 -2.1313 34.2330
#
#
#
# Elastic Compliance Matrix: (Units=1/GPa)
#
#
# Indices 1 2 3 4 5 6 
#
# 1 0.016285 -0.002072 -0.001017 0.003334 0.002789 -0.001470
# 2 -0.002072 0.010464 -0.002748 -0.004960 -0.002879 0.002922
# 3 -0.001017 -0.002748 0.010539 -0.003499 0.006078 0.001699
# 4 0.003334 -0.004960 -0.003499 0.027514 0.000413 -0.007013
# 5 0.002789 -0.002879 0.006078 0.000413 0.039645 0.002374
# 6 -0.001470 0.002922 0.001699 -0.007013 0.002374 0.031643
#
#
# Mechanical properties :
#
#
# Convention : Reuss Voigt Hill
#
# Bulk Modulus (GPa) = 39.04221 49.11444 44.07833
# Shear Modulus (GPa) = 31.98935 38.16567 35.07751
#
# Velocity S-wave (km/s) = 3.70346 4.04521 3.87810
# Velocity P-wave (km/s) = 5.91837 6.54801 6.24113
#
# Compressibility (1/GPa) = 0.02561330
#
# Stress axis : x y z
#
# Youngs Moduli (GPa) = 61.40717 95.57005 94.88182
#
# Poissons Ratio (x) = 0.19802 0.09650
# Poissons Ratio (y) = 0.12723 0.26075
# Poissons Ratio (z) = 0.06246 0.26264
#
# Static dielectric constant tensor:
#      x y z
#    x 2.021440 -0.054230 -0.078170 
#    y -0.054230 1.866570 0.030440 
#    z -0.078170 0.030440 2.022210 
# 
# From -- ./inp_files/203391.got.cif
#   From: 2010.05.17/outbox.cif.g08.bks.cpg/sg2_102_cif.got.tgz:203391.got - 2010.06.03 11:33:40.
