data_PCOD9006508
_publ_section_title
;
Structure prediction by ZEFSAII (Michael W. Deem and Ramdas Pophale) SiO2 
 PCOD9006508
Probable space group: P -1
;
_chemical_formula_sum "Si O2"
_cell_formula_units_Z 14
_cell_length_a 17.998681
_cell_length_b 14.848010
_cell_length_c 8.733096
_cell_angle_alpha 58.225498
_cell_angle_beta 37.564017
_cell_angle_gamma 31.048883
_cell_volume 641.735973
_symmetry_space_group_name_H-M "P -1"
_symmetry_group_IT_number 2
_symmetry_cell_setting 'triclinic'
loop_
_space_group_symop_operation_xyz
x,y,z
-x,-y,-z
loop_
_atom_site_type_symbol
_atom_site_label
_atom_site_fract_x
_atom_site_fract_y
_atom_site_fract_z
Si Si1 0.316234 0.123823 0.056997
Si Si2 0.352806 0.516649 0.145636
Si Si3 0.214582 0.843274 0.407404
Si Si4 0.640525 0.999186 0.217645
Si Si5 0.509074 0.792202 0.432213
Si Si6 0.178210 0.626087 0.668999
Si Si7 0.915614 0.877965 0.393188
O O1 0.113821 0.217232 0.397465
O O2 0.085944 0.208053 0.013834
O O3 0.500000 0.000000 0.000000
O O4 0.383271 0.990188 0.935681
O O5 0.210069 0.588270 0.466255
O O6 0.190719 0.682365 0.126703
O O7 0.500000 0.500000 0.000000
O O8 0.549140 0.303253 0.934630
O O9 0.224452 0.713605 0.560715
O O10 0.164559 0.966314 0.507435
O O11 0.000000 0.000000 0.500000
O O12 0.541800 0.161641 0.344966
O O13 0.500000 0.000000 0.500000
O O14 0.678125 0.764928 0.130818
O O15 0.639905 0.588070 0.363063
O O16 0.260888 0.987403 0.580526
#
# Coordination Sequence:
#
# PCOD9006508 Si02
#       7
#     2   2   2   2   2   2   2
#     4   9  19  40  65  93 124 169 213 257 315 380
#     4  10  21  38  66  94 120 172 223 256 321 383
#     4  11  22  39  66  92 126 167 222 263 317 379
#     4  10  21  41  65  93 132 173 206 262 332 377
#     4  10  25  39  64  96 137 164 213 270 327 374
#     4  11  23  39  64  97 128 169 219 262 322 388
#     4  11  21  43  65  93 130 171 215 274 311 385
#
# _framework density 21.815826999999999
#
# number of rings (size 3 to 8) (size 9 to 14) (size 15 to 20)
#    0.000    1.714    4.286    0.000    4.000    4.000 
#    0.000    5.000    0.000    7.714    0.000    0.000 
#    0.000    0.000    0.000    0.000    0.000    0.000 
#
# Total GULP energy -77939.014925 kJ/mol
# GULP energy per Si atom -5567.072495 kJ/mol
# Density = 2.176617 g / cm^3
# Si number density = 21.815827 Si / 1000 Ang^3
#
#
#
# Elastic Constant Matrix: (Units=GPa)
#
#
# Indices 1 2 3 4 5 6 
#
# 1 69.1704 26.8660 3.8932 6.8515 -6.2497 2.8050
# 2 26.8660 83.9521 25.1451 -1.0658 -12.3967 20.0559
# 3 3.8932 25.1451 86.5876 11.8914 -3.7007 15.0003
# 4 6.8515 -1.0658 11.8914 20.5485 0.4130 2.9277
# 5 -6.2497 -12.3967 -3.7007 0.4130 31.7367 6.1418
# 6 2.8050 20.0559 15.0003 2.9277 6.1418 32.7848
#
#
#
# Elastic Compliance Matrix: (Units=1/GPa)
#
#
# Indices 1 2 3 4 5 6 
#
# 1 0.017713 -0.006774 0.001850 -0.007675 0.000706 0.002335
# 2 -0.006774 0.019251 -0.003919 0.007006 0.007864 -0.011503
# 3 0.001850 -0.003919 0.014534 -0.008704 0.001395 -0.003894
# 4 -0.007675 0.007006 -0.008704 0.057306 0.000401 -0.004839
# 5 0.000706 0.007864 0.001395 0.000401 0.037303 -0.012533
# 6 0.002335 -0.011503 -0.003894 -0.004839 -0.012533 0.041901
#
#
# Mechanical properties :
#
#
# Convention : Reuss Voigt Hill
#
# Bulk Modulus (GPa) = 29.57455 39.05766 34.31611
# Shear Modulus (GPa) = 23.04527 29.26772 26.15650
#
# Velocity S-wave (km/s) = 3.25369 3.66673 3.46637
# Velocity P-wave (km/s) = 5.26319 5.98906 5.63782
#
# Compressibility (1/GPa) = 0.03381285
#
# Stress axis : x y z
#
# Youngs Moduli (GPa) = 56.45518 51.94462 68.80592
#
# Poissons Ratio (x) = 0.35185 -0.12732
# Poissons Ratio (y) = 0.38241 0.26968
# Poissons Ratio (z) = -0.10447 0.20359
#
# Static dielectric constant tensor:
#      x y z
#    x 1.793050 0.020600 -0.026240 
#    y 0.020600 1.877270 -0.046160 
#    z -0.026240 -0.046160 1.950500 
# 
# From -- ./inp_files/317624.got.cif
#   From: 2010.05.17/outbox.cif.g08.bks.cpg/sg2_159_cif.got.tgz:317624.got - 2010.06.03 11:33:40.
