data_PCOD9006753
_publ_section_title
;
Structure prediction by ZEFSAII (Michael W. Deem and Ramdas Pophale) SiO2 
 PCOD9006753
Probable space group: P -1
;
_chemical_formula_sum "Si O2"
_cell_formula_units_Z 14
_cell_length_a 14.665705
_cell_length_b 8.845982
_cell_length_c 14.876180
_cell_angle_alpha 36.376728
_cell_angle_beta 138.959354
_cell_angle_gamma 139.950541
_cell_volume 686.724017
_symmetry_space_group_name_H-M "P -1"
_symmetry_group_IT_number 2
_symmetry_cell_setting 'triclinic'
loop_
_space_group_symop_operation_xyz
x,y,z
-x,-y,-z
loop_
_atom_site_type_symbol
_atom_site_label
_atom_site_fract_x
_atom_site_fract_y
_atom_site_fract_z
Si Si1 0.784771 0.336965 0.179755
Si Si2 0.421857 0.661695 0.112233
Si Si3 0.291972 0.490282 0.292547
Si Si4 0.951987 0.551658 0.536918
Si Si5 0.393967 0.708456 0.604164
Si Si6 0.015152 0.871606 0.670574
Si Si7 0.577135 0.966860 0.354618
O O1 0.848507 0.216574 0.202736
O O2 0.662552 0.098543 0.263307
O O3 0.929888 0.471040 0.290194
O O4 0.688745 0.477430 0.988932
O O5 0.322947 0.584075 0.167236
O O6 0.546420 0.526583 0.267178
O O7 0.500000 0.000000 0.000000
O O8 0.129068 0.375804 0.274933
O O9 0.406553 0.751244 0.310462
O O10 0.341402 0.229848 0.457130
O O11 0.777878 0.368112 0.518600
O O12 0.000000 0.500000 0.500000
O O13 0.955758 0.859260 0.379116
O O14 0.402483 0.785219 0.679884
O O15 0.500000 0.000000 0.500000
O O16 0.000000 0.000000 0.500000
#
# Coordination Sequence:
#
# PCOD9006753 Si02
#       7
#     2   2   2   2   2   2   2
#     4  11  23  43  65  99 138 176 229 286 347 398
#     4  12  26  46  68 106 146 181 224 293 354 408
#     4  11  22  40  71 100 140 179 240 280 337 419
#     4  11  22  41  66 100 134 178 234 282 338 406
#     4  12  26  43  74 100 136 185 240 276 344 420
#     4  10  21  38  68  97 130 184 230 277 339 408
#     4  11  22  41  69 101 128 186 238 284 323 421
#
# _framework density 20.386648000000001
#
# number of rings (size 3 to 8) (size 9 to 14) (size 15 to 20)
#    0.000    0.857    7.143    0.857    4.000    1.143 
#    0.000    0.714    0.000    0.000    0.000    0.000 
#    0.000    0.000    0.000    0.000    0.000    0.000 
#
# Total GULP energy -78036.224088 kJ/mol
# GULP energy per Si atom -5574.016006 kJ/mol
# Density = 2.034025 g / cm^3
# Si number density = 20.386648 Si / 1000 Ang^3
#
#
#
# Elastic Constant Matrix: (Units=GPa)
#
#
# Indices 1 2 3 4 5 6 
#
# 1 128.3030 31.4125 19.5978 -11.0491 -7.7163 15.9439
# 2 31.4125 57.4587 -6.1474 -3.4110 4.5658 14.8619
# 3 19.5978 -6.1474 50.1509 7.6601 -13.1582 3.0733
# 4 -11.0491 -3.4110 7.6601 31.8631 0.2132 -0.9958
# 5 -7.7163 4.5658 -13.1582 0.2132 31.8138 -7.8551
# 6 15.9439 14.8619 3.0733 -0.9958 -7.8551 48.5759
#
#
#
# Elastic Compliance Matrix: (Units=1/GPa)
#
#
# Indices 1 2 3 4 5 6 
#
# 1 0.010587 -0.005882 -0.005186 0.004247 0.000966 -0.001104
# 2 -0.005882 0.022976 0.004464 -0.000815 -0.004380 -0.006106
# 3 -0.005186 0.004464 0.026019 -0.007636 0.008908 -0.000026
# 4 0.004247 -0.000815 -0.007636 0.034611 -0.002324 -0.000328
# 5 0.000966 -0.004380 0.008908 -0.002324 0.037598 0.006492
# 6 -0.001104 -0.006106 -0.000026 -0.000328 0.006492 0.023862
#
#
# Mechanical properties :
#
#
# Convention : Reuss Voigt Hill
#
# Bulk Modulus (GPa) = 21.56324 36.18205 28.87265
# Shear Modulus (GPa) = 27.12696 35.18720 31.15708
#
# Velocity S-wave (km/s) = 3.65173 4.15901 3.91360
# Velocity P-wave (km/s) = 5.32731 6.39137 5.88345
#
# Compressibility (1/GPa) = 0.04637521
#
# Stress axis : x y z
#
# Youngs Moduli (GPa) = 94.45239 43.52330 38.43404
#
# Poissons Ratio (x) = 0.25600 0.19932
# Poissons Ratio (y) = 0.55556 -0.17158
# Poissons Ratio (z) = 0.48982 -0.19431
#
# Static dielectric constant tensor:
#      x y z
#    x 1.779580 -0.078660 -0.017490 
#    y -0.078660 1.766640 0.006160 
#    z -0.017490 0.006160 1.749930 
# 
# From -- ./inp_files/203180.got.cif
#   From: 2010.05.17/outbox.cif.g08.bks.cpg/sg2_102_cif.got.tgz:203180.got - 2010.06.03 11:33:40.
