data_PCOD9006042
_publ_section_title
;
Structure prediction by ZEFSAII (Michael W. Deem and Ramdas Pophale) SiO2 
 PCOD9006042
Probable space group: P -1
;
_chemical_formula_sum "Si O2"
_cell_formula_units_Z 16
_cell_length_a 12.005528
_cell_length_b 9.773606
_cell_length_c 18.083267
_cell_angle_alpha 64.880543
_cell_angle_beta 151.716138
_cell_angle_gamma 129.980539
_cell_volume 709.669881
_symmetry_space_group_name_H-M "P -1"
_symmetry_group_IT_number 2
_symmetry_cell_setting 'triclinic'
loop_
_space_group_symop_operation_xyz
x,y,z
-x,-y,-z
loop_
_atom_site_type_symbol
_atom_site_label
_atom_site_fract_x
_atom_site_fract_y
_atom_site_fract_z
Si Si1 0.019463 0.380218 0.760151
Si Si2 0.092287 0.325893 0.346433
Si Si3 0.885884 0.616833 0.820652
Si Si4 0.625924 0.626006 0.158871
Si Si5 0.700958 0.709671 0.837920
Si Si6 0.395853 0.094202 0.829015
Si Si7 0.688545 0.050482 0.760959
Si Si8 0.580349 0.805100 0.343316
O O1 0.121520 0.350451 0.749158
O O2 0.891599 0.498117 0.654324
O O3 0.798236 0.180898 0.721619
O O4 0.324206 0.516468 0.957008
O O5 0.203784 0.368245 0.317497
O O6 0.251548 0.263864 0.502900
O O7 0.747350 0.126437 0.190288
O O8 0.754889 0.663761 0.799106
O O9 0.763523 0.398103 0.811825
O O10 0.244770 0.765374 0.995706
O O11 0.527569 0.484416 0.203674
O O12 0.708838 0.825282 0.190780
O O13 0.598864 0.842030 0.743135
O O14 0.020759 0.837089 0.039746
O O15 0.309506 0.119712 0.691545
O O16 0.433297 0.047531 0.651755
#
# Coordination Sequence:
#
# PCOD9006042 Si02
#       8
#     2   2   2   2   2   2   2   2
#     4  10  22  38  62  93 135 164 207 266 329 373
#     4  12  27  41  64  99 137 169 205 266 339 376
#     4  12  22  42  71  95 123 167 229 267 302 376
#     4  10  21  39  62  95 126 166 215 268 312 374
#     4  10  21  38  65  97 120 167 221 270 304 373
#     4  12  24  42  68  97 127 170 224 265 307 381
#     4  10  21  38  64  93 127 166 215 263 322 372
#     4  12  24  45  66  93 134 173 211 266 325 383
#
# _framework density 22.545694000000001
#
# number of rings (size 3 to 8) (size 9 to 14) (size 15 to 20)
#    0.000    1.000    5.000    2.250    3.500    1.000 
#    0.000    2.500    0.000    0.000    0.000    0.000 
#    0.000    0.000    0.000    0.000    0.000    0.000 
#
# Total GULP energy -89590.154052 kJ/mol
# GULP energy per Si atom -5599.384628 kJ/mol
# Density = 2.249438 g / cm^3
# Si number density = 22.545694 Si / 1000 Ang^3
#
#
#
# Elastic Constant Matrix: (Units=GPa)
#
#
# Indices 1 2 3 4 5 6 
#
# 1 175.2892 37.6501 33.7314 -30.2551 -9.4646 -16.4947
# 2 37.6501 106.1716 18.9880 -29.7995 4.6751 -9.2963
# 3 33.7314 18.9880 58.4440 -22.4947 0.6468 -3.6482
# 4 -30.2551 -29.7995 -22.4947 39.0946 0.2415 10.1666
# 5 -9.4646 4.6751 0.6468 0.2415 22.3737 -13.4448
# 6 -16.4947 -9.2963 -3.6482 10.1666 -13.4448 40.7859
#
#
#
# Elastic Compliance Matrix: (Units=1/GPa)
#
#
# Indices 1 2 3 4 5 6 
#
# 1 0.007645 -0.001547 -0.002975 0.001957 0.006004 0.003964
# 2 -0.001547 0.012466 0.000186 0.008783 -0.004157 -0.001327
# 3 -0.002975 0.000186 0.023279 0.012170 -0.004204 -0.003498
# 4 0.001957 0.008783 0.012170 0.043271 -0.007451 -0.009360
# 5 0.006004 -0.004157 -0.004204 -0.007451 0.062458 0.023551
# 6 0.003964 -0.001327 -0.003498 -0.009360 0.023551 0.035603
#
#
# Mechanical properties :
#
#
# Convention : Reuss Voigt Hill
#
# Bulk Modulus (GPa) = 28.80321 57.84933 43.32627
# Shear Modulus (GPa) = 24.39431 37.08653 30.74042
#
# Velocity S-wave (km/s) = 3.29294 4.06020 3.69653
# Velocity P-wave (km/s) = 5.22122 6.90613 6.12192
#
# Compressibility (1/GPa) = 0.03471835
#
# Stress axis : x y z
#
# Youngs Moduli (GPa) = 130.80982 80.21898 42.95654
#
# Poissons Ratio (x) = 0.12408 0.12781
# Poissons Ratio (y) = 0.20233 -0.00800
# Poissons Ratio (z) = 0.38920 -0.01495
#
# Static dielectric constant tensor:
#      x y z
#    x 1.796590 0.004290 -0.001070 
#    y 0.004290 1.803560 0.067080 
#    z -0.001070 0.067080 1.956280 
# 
# From -- ./inp_files/190903.got.cif
#   From: 2010.05.17/outbox.cif.g08.bks.cpg/sg2_96_cif.got.tgz:190903.got - 2010.06.03 11:33:40.
