data_PCOD9006771
_publ_section_title
;
Structure prediction by ZEFSAII (Michael W. Deem and Ramdas Pophale) SiO2 
 PCOD9006771
Probable space group: P -1
;
_chemical_formula_sum "Si O2"
_cell_formula_units_Z 14
_cell_length_a 9.882286
_cell_length_b 9.962609
_cell_length_c 12.863470
_cell_angle_alpha 131.312049
_cell_angle_beta 46.265648
_cell_angle_gamma 149.530098
_cell_volume 456.817757
_symmetry_space_group_name_H-M "P -1"
_symmetry_group_IT_number 2
_symmetry_cell_setting 'triclinic'
loop_
_space_group_symop_operation_xyz
x,y,z
-x,-y,-z
loop_
_atom_site_type_symbol
_atom_site_label
_atom_site_fract_x
_atom_site_fract_y
_atom_site_fract_z
Si Si1 0.082199 0.279504 0.473165
Si Si2 0.866805 0.031758 0.829638
Si Si3 0.461814 0.294060 0.447098
Si Si4 0.246707 0.589852 0.844632
Si Si5 0.306619 0.074624 0.905612
Si Si6 0.796770 0.579451 0.841242
Si Si7 0.286617 0.681898 0.448578
O O1 0.089580 0.144563 0.303960
O O2 0.315508 0.344908 0.469333
O O3 0.967746 0.384198 0.522829
O O4 0.806196 0.028803 0.559345
O O5 0.554511 0.848463 0.859045
O O6 0.844513 0.076387 0.982871
O O7 0.135142 0.307808 0.772034
O O8 0.691459 0.352193 0.280713
O O9 0.607793 0.365182 0.524524
O O10 0.000000 0.500000 0.000000
O O11 0.259038 0.255117 0.011294
O O12 0.645791 0.324106 0.864618
O O13 0.136469 0.834983 0.790408
O O14 0.648687 0.414014 0.728696
O O15 0.500000 0.000000 0.500000
#
# Coordination Sequence:
#
# PCOD9006771 Si02
#       7
#     2   2   2   2   2   2   2
#     4  12  24  44  74 108 135 190 253 292 358 442
#     4  12  22  44  73 101 138 184 242 292 357 443
#     4  12  23  44  75 105 143 183 244 305 356 446
#     4  12  27  45  68 104 147 185 228 305 373 431
#     4  10  21  38  68  99 127 177 231 294 336 420
#     4  10  21  40  64  96 137 173 229 287 355 411
#     4  12  26  46  68 100 149 191 238 304 364 428
#
# _framework density 30.646795000000001
#
# number of rings (size 3 to 8) (size 9 to 14) (size 15 to 20)
#    0.000    0.571    4.286    4.286    0.000    0.000 
#   10.286    0.000    0.000    0.000    0.000    0.000 
#    0.000    0.000    0.000    0.000    0.000    0.000 
#
# Total GULP energy -78243.725204 kJ/mol
# GULP energy per Si atom -5588.837515 kJ/mol
# Density = 3.057704 g / cm^3
# Si number density = 30.646795 Si / 1000 Ang^3
#
#
#
# Elastic Constant Matrix: (Units=GPa)
#
#
# Indices 1 2 3 4 5 6 
#
# 1 193.7498 107.0793 50.2041 6.6671 6.6354 -26.5866
# 2 107.0793 361.3812 56.7711 3.5094 24.3964 -11.4691
# 3 50.2041 56.7711 182.3949 -3.7863 5.5492 -7.9496
# 4 6.6671 3.5094 -3.7863 65.7299 3.7851 7.5766
# 5 6.6354 24.3964 5.5492 3.7851 59.6996 0.8129
# 6 -26.5866 -11.4691 -7.9496 7.5766 0.8129 88.9251
#
#
#
# Elastic Compliance Matrix: (Units=1/GPa)
#
#
# Indices 1 2 3 4 5 6 
#
# 1 0.006710 -0.001735 -0.001252 -0.000867 0.000111 0.001743
# 2 -0.001735 0.003444 -0.000563 0.000040 -0.001163 -0.000118
# 3 -0.001252 -0.000563 0.006022 0.000511 -0.000223 0.000050
# 4 -0.000867 0.000040 0.000511 0.015559 -0.000933 -0.001526
# 5 0.000111 -0.001163 -0.000223 -0.000933 0.017296 -0.000215
# 6 0.001743 -0.000118 0.000050 -0.001526 -0.000215 0.011888
#
#
# Mechanical properties :
#
#
# Convention : Reuss Voigt Hill
#
# Bulk Modulus (GPa) = 110.19419 129.51497 119.85458
# Shear Modulus (GPa) = 70.37700 77.76902 74.07301
#
# Velocity S-wave (km/s) = 4.79727 5.04292 4.92162
# Velocity P-wave (km/s) = 8.16819 8.73271 8.45516
#
# Compressibility (1/GPa) = 0.00907489
#
# Stress axis : x y z
#
# Youngs Moduli (GPa) = 149.03003 290.34177 166.05227
#
# Poissons Ratio (x) = 0.50382 0.20794
# Poissons Ratio (y) = 0.25860 0.09354
# Poissons Ratio (z) = 0.18662 0.16355
#
# Static dielectric constant tensor:
#      x y z
#    x 2.561740 0.020980 -0.078510 
#    y 0.020980 2.432940 -0.024290 
#    z -0.078510 -0.024290 2.392570 
# 
# From -- ./inp_files/534417.got.cif
#   From: 2010.05.17/outbox.cif.g08.bks.cpg/sg2_268_cif.got.tgz:534417.got - 2010.06.03 11:33:40.
