data_PCOD9006529
_publ_section_title
;
Structure prediction by ZEFSAII (Michael W. Deem and Ramdas Pophale) SiO2 
 PCOD9006529
Probable space group: P -1
;
_chemical_formula_sum "Si O2"
_cell_formula_units_Z 12
_cell_length_a 16.147068
_cell_length_b 5.300149
_cell_length_c 10.772003
_cell_angle_alpha 123.562824
_cell_angle_beta 40.452564
_cell_angle_gamma 123.830882
_cell_volume 482.376222
_symmetry_space_group_name_H-M "P -1"
_symmetry_group_IT_number 2
_symmetry_cell_setting 'triclinic'
loop_
_space_group_symop_operation_xyz
x,y,z
-x,-y,-z
loop_
_atom_site_type_symbol
_atom_site_label
_atom_site_fract_x
_atom_site_fract_y
_atom_site_fract_z
Si Si1 0.151586 0.776567 0.558738
Si Si2 0.421839 0.149481 0.028790
Si Si3 0.659027 0.887823 0.379191
Si Si4 0.139773 0.144757 0.314030
Si Si5 0.992165 0.680855 0.184572
Si Si6 0.641695 0.226201 0.255345
O O1 0.150685 0.514200 0.383488
O O2 0.063373 0.577216 0.715912
O O3 0.292830 0.907347 0.498146
O O4 0.097915 0.071974 0.663174
O O5 0.271670 0.140693 0.237991
O O6 0.500000 0.500000 0.000000
O O7 0.500000 0.000000 0.000000
O O8 0.398933 0.958375 0.875087
O O9 0.714289 0.582325 0.240887
O O10 0.501549 0.773031 0.521603
O O11 0.705840 0.076993 0.252723
O O12 0.000000 0.000000 0.500000
O O13 0.125819 0.918669 0.149480
O O14 0.000000 0.500000 0.000000
#
# Coordination Sequence:
#
# PCOD9006529 Si02
#       6
#     2   2   2   2   2   2
#     4  11  23  42  69  97 139 184 238 288 370 423
#     4  12  27  46  73 107 149 193 252 303 369 440
#     4  10  21  38  66  95 138 182 233 291 366 424
#     4  10  26  48  74 107 151 198 244 304 373 445
#     4  11  25  44  68 104 136 185 244 302 354 428
#     4  10  22  40  62 100 136 184 237 295 348 433
#
# _framework density 24.876847000000001
#
# number of rings (size 3 to 8) (size 9 to 14) (size 15 to 20)
#    0.000    1.333    0.000    4.000    4.667   10.667 
#    0.000    0.000    0.000    0.000    0.000    0.000 
#    0.000    0.000    0.000    0.000    0.000    0.000 
#
# Total GULP energy -67114.086904 kJ/mol
# GULP energy per Si atom -5592.840575 kJ/mol
# Density = 2.482023 g / cm^3
# Si number density = 24.876847 Si / 1000 Ang^3
#
#
#
# Elastic Constant Matrix: (Units=GPa)
#
#
# Indices 1 2 3 4 5 6 
#
# 1 159.6699 74.7158 32.8268 5.4281 -20.0082 -7.9425
# 2 74.7158 142.8955 41.1408 30.2006 -5.1468 -3.3252
# 3 32.8268 41.1408 77.3417 7.0865 -7.1174 -7.8879
# 4 5.4281 30.2006 7.0865 47.1450 18.7245 2.3819
# 5 -20.0082 -5.1468 -7.1174 18.7245 40.5593 4.3140
# 6 -7.9425 -3.3252 -7.8879 2.3819 4.3140 55.3610
#
#
#
# Elastic Compliance Matrix: (Units=1/GPa)
#
#
# Indices 1 2 3 4 5 6 
#
# 1 0.008961 -0.004329 -0.001186 0.000564 0.003342 0.000572
# 2 -0.004329 0.011976 -0.003669 -0.007493 0.002228 -0.000276
# 3 -0.001186 -0.003669 0.015801 -0.000718 0.001868 0.001746
# 4 0.000564 -0.007493 -0.000718 0.032298 -0.015641 -0.000642
# 5 0.003342 0.002228 0.001868 -0.015641 0.034254 -0.001117
# 6 0.000572 -0.000276 0.001746 -0.000642 -0.001117 0.018492
#
#
# Mechanical properties :
#
#
# Convention : Reuss Voigt Hill
#
# Bulk Modulus (GPa) = 54.44408 75.25264 64.84836
# Shear Modulus (GPa) = 34.18264 44.02798 39.10531
#
# Velocity S-wave (km/s) = 3.71087 4.21151 3.96909
# Velocity P-wave (km/s) = 6.34773 7.34607 6.86508
#
# Compressibility (1/GPa) = 0.01836747
#
# Stress axis : x y z
#
# Youngs Moduli (GPa) = 111.59931 83.50364 63.28851
#
# Poissons Ratio (x) = 0.36150 0.07507
# Poissons Ratio (y) = 0.48314 0.23222
# Poissons Ratio (z) = 0.13238 0.30640
#
# Static dielectric constant tensor:
#      x y z
#    x 1.961080 0.062300 -0.029390 
#    y 0.062300 1.890180 -0.001110 
#    z -0.029390 -0.001110 2.075200 
# 
# From -- ./inp_files/273772.got.cif
#   From: 2010.05.17/outbox.cif.g08.bks.cpg/sg2_137_cif.got.tgz:273772.got - 2010.06.03 11:33:40.
