data_PCOD9006260
_publ_section_title
;
Structure prediction by ZEFSAII (Michael W. Deem and Ramdas Pophale) SiO2 
 PCOD9006260
Probable space group: P -1
;
_chemical_formula_sum "Si O2"
_cell_formula_units_Z 12
_cell_length_a 12.052472
_cell_length_b 11.748275
_cell_length_c 5.056549
_cell_angle_alpha 86.649069
_cell_angle_beta 96.692139
_cell_angle_gamma 49.440687
_cell_volume 531.635524
_symmetry_space_group_name_H-M "P -1"
_symmetry_group_IT_number 2
_symmetry_cell_setting 'triclinic'
loop_
_space_group_symop_operation_xyz
x,y,z
-x,-y,-z
loop_
_atom_site_type_symbol
_atom_site_label
_atom_site_fract_x
_atom_site_fract_y
_atom_site_fract_z
Si Si1 0.920592 0.685519 0.747641
Si Si2 0.844916 0.953013 0.392982
Si Si3 0.123254 0.536084 0.321431
Si Si4 0.878363 0.140646 0.761351
Si Si5 0.619664 0.226984 0.959125
Si Si6 0.553124 0.589556 0.591267
O O1 0.056608 0.577766 0.591628
O O2 0.828801 0.854145 0.585772
O O3 0.836407 0.621931 0.726740
O O4 0.994077 0.655746 0.057647
O O5 0.018685 0.837528 0.361179
O O6 0.829669 0.079961 0.540074
O O7 0.724391 0.052406 0.114024
O O8 0.270260 0.512357 0.347189
O O9 0.737807 0.246134 0.901838
O O10 0.000000 0.000000 0.000000
O O11 0.516085 0.336607 0.154088
O O12 0.517783 0.278134 0.667489
O O13 0.500000 0.500000 0.500000
#
# Coordination Sequence:
#
# PCOD9006260 Si02
#       6
#     2   2   2   2   2   2
#     4  10  23  43  70  90 121 164 215 270 306 358
#     4  10  21  38  65  92 124 162 210 265 319 351
#     4  10  24  44  63  95 124 163 219 256 304 380
#     4   9  20  34  59  92 126 157 202 265 300 372
#     4  11  23  42  58  96 127 163 210 254 310 386
#     4  12  26  41  65  89 135 173 203 249 321 386
#
# _framework density 22.571854999999999
#
# number of rings (size 3 to 8) (size 9 to 14) (size 15 to 20)
#    0.000    1.667    1.667    1.500    7.000    2.667 
#    0.000    1.667    0.000    0.000    0.000    0.000 
#    0.000    0.000    0.000    0.000    0.000    0.000 
#
# Total GULP energy -67027.802113 kJ/mol
# GULP energy per Si atom -5585.650176 kJ/mol
# Density = 2.252048 g / cm^3
# Si number density = 22.571855 Si / 1000 Ang^3
#
#
#
# Elastic Constant Matrix: (Units=GPa)
#
#
# Indices 1 2 3 4 5 6 
#
# 1 81.4997 13.2209 6.6854 0.7918 -5.7118 4.3821
# 2 13.2209 49.1892 10.4850 -9.0065 -8.6359 -0.7429
# 3 6.6854 10.4850 105.7630 2.6084 -4.0619 -0.9212
# 4 0.7918 -9.0065 2.6084 62.2836 -4.8224 -13.5051
# 5 -5.7118 -8.6359 -4.0619 -4.8224 29.7623 0.2177
# 6 4.3821 -0.7429 -0.9212 -13.5051 0.2177 46.1622
#
#
#
# Elastic Compliance Matrix: (Units=1/GPa)
#
#
# Indices 1 2 3 4 5 6 
#
# 1 0.013037 -0.003359 -0.000432 -0.000868 0.001339 -0.001560
# 2 -0.003359 0.023674 -0.001972 0.004486 0.006668 0.001941
# 3 -0.000432 -0.001972 0.009716 -0.000640 0.000567 0.000013
# 4 -0.000868 0.004486 -0.000640 0.018232 0.003962 0.005457
# 5 0.001339 0.006668 0.000567 0.003962 0.036504 0.000978
# 6 -0.001560 0.001941 0.000013 0.005457 0.000978 0.023434
#
#
# Mechanical properties :
#
#
# Convention : Reuss Voigt Hill
#
# Bulk Modulus (GPa) = 28.65352 33.02606 30.83979
# Shear Modulus (GPa) = 33.83947 41.37899 37.60923
#
# Velocity S-wave (km/s) = 3.87614 4.28625 4.08634
# Velocity P-wave (km/s) = 5.72315 6.25773 5.99640
#
# Compressibility (1/GPa) = 0.03489973
#
# Stress axis : x y z
#
# Youngs Moduli (GPa) = 76.70755 42.23980 102.92730
#
# Poissons Ratio (x) = 0.14190 0.04444
# Poissons Ratio (y) = 0.25768 0.20300
# Poissons Ratio (z) = 0.03312 0.08331
#
# Static dielectric constant tensor:
#      x y z
#    x 1.850890 0.019060 0.017300 
#    y 0.019060 1.948890 0.000420 
#    z 0.017300 0.000420 1.875850 
# 
# From -- ./inp_files/63741.got.cif
#   From: 2010.05.17/outbox.cif.g08.bks.cpg/sg2_32_cif.got.tgz:63741.got - 2010.06.03 11:33:40.
