data_PCOD9006295
_publ_section_title
;
Structure prediction by ZEFSAII (Michael W. Deem and Ramdas Pophale) SiO2 
 PCOD9006295
Probable space group: P -1
;
_chemical_formula_sum "Si O2"
_cell_formula_units_Z 14
_cell_length_a 9.156709
_cell_length_b 15.297661
_cell_length_c 8.664775
_cell_angle_alpha 35.507774
_cell_angle_beta 78.401014
_cell_angle_gamma 101.460278
_cell_volume 532.386915
_symmetry_space_group_name_H-M "P -1"
_symmetry_group_IT_number 2
_symmetry_cell_setting 'triclinic'
loop_
_space_group_symop_operation_xyz
x,y,z
-x,-y,-z
loop_
_atom_site_type_symbol
_atom_site_label
_atom_site_fract_x
_atom_site_fract_y
_atom_site_fract_z
Si Si1 0.071295 0.381620 0.207527
Si Si2 0.909292 0.774912 0.872788
Si Si3 0.596883 0.276296 0.179701
Si Si4 0.220930 0.077239 0.701836
Si Si5 0.767940 0.831738 0.091139
Si Si6 0.360488 0.950967 0.239103
Si Si7 0.157658 0.724386 0.095890
O O1 0.158810 0.347747 0.092786
O O2 0.862076 0.184984 0.576523
O O3 0.230044 0.498355 0.138181
O O4 0.000000 0.500000 0.000000
O O5 0.366435 0.130705 0.018733
O O6 0.765499 0.694319 0.165113
O O7 0.075620 0.768417 0.906254
O O8 0.614809 0.157519 0.478542
O O9 0.385384 0.207515 0.349848
O O10 0.653011 0.236914 0.063565
O O11 0.005244 0.994897 0.827407
O O12 0.291992 0.195560 0.677163
O O13 0.196407 0.879002 0.989766
O O14 0.000000 0.000000 0.500000
O O15 0.500000 0.000000 0.000000
O O16 0.000000 0.500000 0.500000
#
# Coordination Sequence:
#
# PCOD9006295 Si02
#       7
#     2   2   2   2   2   2   2
#     4  10  21  38  67 100 132 169 231 294 339 396
#     4  11  20  40  69  97 132 180 228 284 353 400
#     4  11  22  41  65  98 131 180 233 282 334 414
#     4  10  23  41  63  92 141 183 224 271 354 417
#     4  10  21  38  65  93 130 173 224 279 343 401
#     4  11  20  37  71  98 122 172 238 283 337 405
#     4  11  24  38  68 100 138 180 233 287 342 410
#
# _framework density 26.296665000000001
#
# number of rings (size 3 to 8) (size 9 to 14) (size 15 to 20)
#    0.000    1.429    5.714    0.429    2.000    0.000 
#    0.000    1.429    0.000    0.000    0.000    1.000 
#    0.000    0.000    0.000    0.000    0.000    0.000 
#
# Total GULP energy -78181.288404 kJ/mol
# GULP energy per Si atom -5584.377743 kJ/mol
# Density = 2.623681 g / cm^3
# Si number density = 26.296665 Si / 1000 Ang^3
#
#
#
# Elastic Constant Matrix: (Units=GPa)
#
#
# Indices 1 2 3 4 5 6 
#
# 1 152.5867 43.3407 40.5965 6.8192 -13.7008 -27.4801
# 2 43.3407 139.8909 27.6921 13.2688 -5.2396 -32.8262
# 3 40.5965 27.6921 74.4471 10.3683 -12.5183 -12.5313
# 4 6.8192 13.2688 10.3683 38.4514 -6.2956 -13.1613
# 5 -13.7008 -5.2396 -12.5183 -6.2956 44.4301 12.1447
# 6 -27.4801 -32.8262 -12.5313 -13.1613 12.1447 49.7457
#
#
#
# Elastic Compliance Matrix: (Units=1/GPa)
#
#
# Indices 1 2 3 4 5 6 
#
# 1 0.008446 -0.001260 -0.003652 0.001077 0.000755 0.003015
# 2 -0.001260 0.009119 -0.001975 -0.000932 -0.001342 0.004905
# 3 -0.003652 -0.001975 0.017003 -0.002937 0.003177 -0.000591
# 4 0.001077 -0.000932 -0.002937 0.029481 0.001765 0.006609
# 5 0.000755 -0.001342 0.003177 0.001765 0.025190 -0.005351
# 6 0.003015 0.004905 -0.000591 0.006609 -0.005351 0.027910
#
#
# Mechanical properties :
#
#
# Convention : Reuss Voigt Hill
#
# Bulk Modulus (GPa) = 48.09583 65.57592 56.83587
# Shear Modulus (GPa) = 36.27016 43.54515 39.90766
#
# Velocity S-wave (km/s) = 3.71788 4.07371 3.89986
# Velocity P-wave (km/s) = 6.06297 6.86425 6.47601
#
# Compressibility (1/GPa) = 0.02079183
#
# Stress axis : x y z
#
# Youngs Moduli (GPa) = 118.39992 109.66233 58.81459
#
# Poissons Ratio (x) = 0.13819 0.21482
# Poissons Ratio (y) = 0.14921 0.11617
# Poissons Ratio (z) = 0.43245 0.21660
#
# Static dielectric constant tensor:
#      x y z
#    x 1.949990 0.090250 -0.116530 
#    y 0.090250 2.073190 0.052100 
#    z -0.116530 0.052100 2.015800 
# 
# From -- ./inp_files/201424.got.cif
#   From: 2010.05.17/outbox.cif.g08.bks.cpg/sg2_101_cif.got.tgz:201424.got - 2010.06.03 11:33:40.
