data_PCOD9006182
_publ_section_title
;
Structure prediction by ZEFSAII (Michael W. Deem and Ramdas Pophale) SiO2 
 PCOD9006182
Probable space group: P -1
;
_chemical_formula_sum "Si O2"
_cell_formula_units_Z 16
_cell_length_a 16.409889
_cell_length_b 9.773648
_cell_length_c 12.326059
_cell_angle_alpha 109.026718
_cell_angle_beta 22.741626
_cell_angle_gamma 120.340649
_cell_volume 598.803969
_symmetry_space_group_name_H-M "P -1"
_symmetry_group_IT_number 2
_symmetry_cell_setting 'triclinic'
loop_
_space_group_symop_operation_xyz
x,y,z
-x,-y,-z
loop_
_atom_site_type_symbol
_atom_site_label
_atom_site_fract_x
_atom_site_fract_y
_atom_site_fract_z
Si Si1 0.179270 0.996674 0.180790
Si Si2 0.371723 0.094411 0.239468
Si Si3 0.021383 0.376154 0.675278
Si Si4 0.153048 0.412941 0.965402
Si Si5 0.074872 0.950643 0.780705
Si Si6 0.578934 0.366300 0.895407
Si Si7 0.440382 0.108491 0.680210
Si Si8 0.667223 0.498875 0.467738
O O1 0.913376 0.978371 0.477300
O O2 0.090585 0.808621 0.289761
O O3 0.377004 0.186403 0.036540
O O4 0.355106 0.005165 0.869802
O O5 0.304280 0.068189 0.444305
O O6 0.559216 0.295490 0.022048
O O7 0.500000 0.000000 0.000000
O O8 0.150268 0.530369 0.468260
O O9 0.218533 0.398366 0.533548
O O10 0.849478 0.418243 0.965615
O O11 0.397457 0.450950 0.742260
O O12 0.167585 0.399114 0.814179
O O13 0.931698 0.222266 0.229934
O O14 0.822006 0.904277 0.018235
O O15 0.000000 0.000000 0.000000
O O16 0.500000 0.500000 0.000000
O O17 0.640128 0.316299 0.476961
O O18 0.500000 0.000000 0.500000
#
# Coordination Sequence:
#
# PCOD9006182 Si02
#       8
#     2   2   2   2   2   2   2   2
#     4  11  25  47  72 108 149 190 259 313 381 470
#     4  11  25  48  74 109 151 201 254 313 395 459
#     4  12  24  44  76 105 147 205 252 322 397 456
#     4  10  23  42  67 107 151 204 260 315 387 467
#     4  10  24  41  69 105 152 194 255 324 378 463
#     4  12  26  49  75 104 144 193 253 319 386 461
#     4  10  21  38  65 103 145 191 244 309 380 450
#     4  10  22  42  65 104 152 195 256 314 381 461
#
# _framework density 26.719933000000001
#
# number of rings (size 3 to 8) (size 9 to 14) (size 15 to 20)
#    0.000    1.250    2.500    2.250    5.250    1.000 
#    2.250    0.625    0.000    0.000    0.000    0.000 
#    0.000    0.000    0.000    0.000    0.000    0.000 
#
# Total GULP energy -89306.128012 kJ/mol
# GULP energy per Si atom -5581.633001 kJ/mol
# Density = 2.665912 g / cm^3
# Si number density = 26.719933 Si / 1000 Ang^3
#
#
#
# Elastic Constant Matrix: (Units=GPa)
#
#
# Indices 1 2 3 4 5 6 
#
# 1 84.6089 42.8230 56.8565 -19.5942 16.4894 -14.1452
# 2 42.8230 189.3988 54.6869 -5.7750 22.2445 -3.7099
# 3 56.8565 54.6869 138.3844 -8.7657 35.0123 -1.4036
# 4 -19.5942 -5.7750 -8.7657 55.5185 -4.9284 -0.1666
# 5 16.4894 22.2445 35.0123 -4.9284 54.0884 3.6261
# 6 -14.1452 -3.7099 -1.4036 -0.1666 3.6261 45.5740
#
#
#
# Elastic Compliance Matrix: (Units=1/GPa)
#
#
# Indices 1 2 3 4 5 6 
#
# 1 0.019857 -0.002186 -0.006700 0.005679 -0.000692 0.005855
# 2 -0.002186 0.006271 -0.001335 -0.000426 -0.001079 -0.000125
# 3 -0.006700 -0.001335 0.011681 -0.001105 -0.004974 -0.001437
# 4 0.005679 -0.000426 -0.001105 0.019879 0.000857 0.001698
# 5 -0.000692 -0.001079 -0.004974 0.000857 0.022591 -0.002250
# 6 0.005855 -0.000125 -0.001437 0.001698 -0.002250 0.023890
#
#
# Mechanical properties :
#
#
# Convention : Reuss Voigt Hill
#
# Bulk Modulus (GPa) = 57.58606 80.12499 68.85552
# Shear Modulus (GPa) = 38.34348 48.23787 43.29067
#
# Velocity S-wave (km/s) = 3.79227 4.25351 4.02949
# Velocity P-wave (km/s) = 6.38542 7.36038 6.89016
#
# Compressibility (1/GPa) = 0.01736531
#
# Stress axis : x y z
#
# Youngs Moduli (GPa) = 50.36048 159.46629 85.61179
#
# Poissons Ratio (x) = 0.34856 0.57362
# Poissons Ratio (y) = 0.11008 0.11433
# Poissons Ratio (z) = 0.33743 0.21296
#
# Static dielectric constant tensor:
#      x y z
#    x 2.101840 -0.018280 -0.014360 
#    y -0.018280 2.023940 0.003310 
#    z -0.014360 0.003310 2.188780 
# 
# From -- ./inp_files/540512.got.cif
#   From: 2010.05.17/outbox.cif.g08.bks.cpg/sg2_271_cif.got.tgz:540512.got - 2010.06.03 11:33:40.
