data_PCOD9006066
_publ_section_title
;
Structure prediction by ZEFSAII (Michael W. Deem and Ramdas Pophale) SiO2 
 PCOD9006066
Probable space group: P -1
;
_chemical_formula_sum "Si O2"
_cell_formula_units_Z 14
_cell_length_a 21.552477
_cell_length_b 8.876446
_cell_length_c 10.935887
_cell_angle_alpha 118.393585
_cell_angle_beta 150.775140
_cell_angle_gamma 41.134397
_cell_volume 553.975306
_symmetry_space_group_name_H-M "P -1"
_symmetry_group_IT_number 2
_symmetry_cell_setting 'triclinic'
loop_
_space_group_symop_operation_xyz
x,y,z
-x,-y,-z
loop_
_atom_site_type_symbol
_atom_site_label
_atom_site_fract_x
_atom_site_fract_y
_atom_site_fract_z
Si Si1 0.344781 0.081797 0.449851
Si Si2 0.662952 0.466058 0.683746
Si Si3 0.688311 0.294449 0.405544
Si Si4 0.481193 0.250670 0.886262
Si Si5 0.042961 0.692931 0.441259
Si Si6 0.955144 0.434117 0.079016
Si Si7 0.105355 0.880739 0.831519
O O1 0.492817 0.052950 0.769174
O O2 0.170681 0.190649 0.283060
O O3 0.482030 0.796360 0.509633
O O4 0.214451 0.330538 0.223705
O O5 0.652445 0.350648 0.507553
O O6 0.702483 0.341481 0.835198
O O7 0.869751 0.358455 0.968535
O O8 0.534929 0.590499 0.187488
O O9 0.647022 0.149098 0.226139
O O10 0.910819 0.121279 0.677182
O O11 0.266157 0.477073 0.678044
O O12 0.977402 0.567786 0.263233
O O13 0.061977 0.754883 0.630849
O O14 0.892185 0.972065 0.207964
#
# Coordination Sequence:
#
# PCOD9006066 Si02
#       7
#     2   2   2   2   2   2   2
#     4  10  22  41  67  98 135 173 217 267 332 395
#     4  12  24  41  68 103 132 169 221 279 329 381
#     4  10  21  38  64  94 132 171 218 267 322 388
#     4   9  19  40  64  92 124 176 222 259 318 401
#     4   9  21  44  67  91 127 181 219 266 328 404
#     4  10  22  42  70  95 133 172 222 269 326 393
#     4  10  23  42  64  94 135 173 220 268 335 387
#
# _framework density 25.271885999999999
#
# number of rings (size 3 to 8) (size 9 to 14) (size 15 to 20)
#    0.000    2.000    1.429    0.857    4.000    4.000 
#    2.571    2.857    0.000    0.000    0.000    0.000 
#    0.000    0.000    0.000    0.000    0.000    0.000 
#
# Total GULP energy -78502.677381 kJ/mol
# GULP energy per Si atom -5607.334099 kJ/mol
# Density = 2.521437 g / cm^3
# Si number density = 25.271886 Si / 1000 Ang^3
#
#
#
# Elastic Constant Matrix: (Units=GPa)
#
#
# Indices 1 2 3 4 5 6 
#
# 1 95.0591 32.8208 28.2084 7.7662 -7.4902 -19.6302
# 2 32.8208 82.3496 41.1091 24.9892 -13.6404 -19.5737
# 3 28.2084 41.1091 90.9000 23.0589 -17.8186 -13.3195
# 4 7.7662 24.9892 23.0589 42.9433 -3.0329 1.8221
# 5 -7.4902 -13.6404 -17.8186 -3.0329 43.4052 9.6316
# 6 -19.6302 -19.5737 -13.3195 1.8221 9.6316 38.2698
#
#
#
# Elastic Compliance Matrix: (Units=1/GPa)
#
#
# Indices 1 2 3 4 5 6 
#
# 1 0.013142 -0.003374 -0.002161 0.000517 -0.000619 0.004395
# 2 -0.003374 0.020494 -0.004524 -0.009064 0.001779 0.007161
# 3 -0.002161 -0.004524 0.016099 -0.005389 0.004127 0.001399
# 4 0.000517 -0.009064 -0.005389 0.031600 -0.001105 -0.007473
# 5 -0.000619 0.001779 0.004127 -0.001105 0.026104 -0.004488
# 6 0.004395 0.007161 0.001399 -0.007473 -0.004488 0.034019
#
#
# Mechanical properties :
#
#
# Convention : Reuss Voigt Hill
#
# Bulk Modulus (GPa) = 33.76417 52.50946 43.13682
# Shear Modulus (GPa) = 29.16339 36.00168 32.58254
#
# Velocity S-wave (km/s) = 3.40072 3.77845 3.59455
# Velocity P-wave (km/s) = 5.36743 6.31336 5.85951
#
# Compressibility (1/GPa) = 0.02961719
#
# Stress axis : x y z
#
# Youngs Moduli (GPa) = 76.08903 48.79583 62.11724
#
# Poissons Ratio (x) = 0.16463 0.13423
# Poissons Ratio (y) = 0.25672 0.28101
# Poissons Ratio (z) = 0.16443 0.22074
#
# Static dielectric constant tensor:
#      x y z
#    x 1.997590 0.031950 0.040110 
#    y 0.031950 1.939450 0.020790 
#    z 0.040110 0.020790 2.029540 
# 
# From -- ./inp_files/474282.got.cif
#   From: 2010.05.17/outbox.cif.g08.bks.cpg/sg2_238_cif.got.tgz:474282.got - 2010.06.03 11:33:40.
