data_PCOD9006443
_publ_section_title
;
Structure prediction by ZEFSAII (Michael W. Deem and Ramdas Pophale) SiO2 
 PCOD9006443
Probable space group: P -1
;
_chemical_formula_sum "Si O2"
_cell_formula_units_Z 16
_cell_length_a 14.774617
_cell_length_b 8.913708
_cell_length_c 7.032696
_cell_angle_alpha 102.542810
_cell_angle_beta 50.503394
_cell_angle_gamma 111.378468
_cell_volume 665.384548
_symmetry_space_group_name_H-M "P -1"
_symmetry_group_IT_number 2
_symmetry_cell_setting 'triclinic'
loop_
_space_group_symop_operation_xyz
x,y,z
-x,-y,-z
loop_
_atom_site_type_symbol
_atom_site_label
_atom_site_fract_x
_atom_site_fract_y
_atom_site_fract_z
Si Si1 0.654381 0.170843 0.750385
Si Si2 0.159347 0.892299 0.050881
Si Si3 0.043058 0.422003 0.608568
Si Si4 0.622702 0.227673 0.368839
Si Si5 0.353979 0.423416 0.637433
Si Si6 0.551767 0.808296 0.730773
Si Si7 0.083927 0.757734 0.715404
Si Si8 0.833279 0.754574 0.841879
O O1 0.617576 0.194366 0.589292
O O2 0.800903 0.219685 0.574049
O O3 0.612375 0.979862 0.789801
O O4 0.579143 0.259611 0.005977
O O5 0.056265 0.740666 0.234781
O O6 0.165527 0.066914 0.168772
O O7 0.290777 0.861615 0.873831
O O8 0.126992 0.881501 0.865248
O O9 0.065397 0.574361 0.759125
O O10 0.158868 0.365300 0.372463
O O11 0.000000 0.500000 0.500000
O O12 0.685353 0.419869 0.314682
O O13 0.491509 0.174081 0.423450
O O14 0.500000 0.500000 0.500000
O O15 0.356895 0.298609 0.431638
O O16 0.277184 0.328580 0.890358
O O17 0.961121 0.775994 0.792222
#
# Coordination Sequence:
#
# PCOD9006443 Si02
#       8
#     2   2   2   2   2   2   2   2
#     4  10  22  39  63  97 120 173 208 267 314 388
#     4  11  22  40  64  96 126 167 210 258 324 382
#     4  10  22  37  61  90 125 164 203 256 314 376
#     4  10  21  38  66  88 126 165 216 258 321 376
#     4  10  22  39  65  90 123 169 207 260 317 377
#     4  10  22  40  64  87 132 163 219 256 327 368
#     4  10  22  39  65  89 132 160 211 261 324 372
#     4  11  23  40  65  94 127 165 212 262 317 382
#
# _framework density 24.046243
#
# number of rings (size 3 to 8) (size 9 to 14) (size 15 to 20)
#    0.000    1.750    0.000    4.500    7.000    2.500 
#    0.000    0.000   11.000    0.000    0.000    0.000 
#    0.000    0.000    0.000    0.000    0.000    0.000 
#
# Total GULP energy -89411.791259 kJ/mol
# GULP energy per Si atom -5588.236954 kJ/mol
# Density = 2.399151 g / cm^3
# Si number density = 24.046243 Si / 1000 Ang^3
#
#
#
# Elastic Constant Matrix: (Units=GPa)
#
#
# Indices 1 2 3 4 5 6 
#
# 1 62.8260 -3.7314 10.1351 4.8633 -16.0329 -1.7261
# 2 -3.7314 140.0970 24.9122 18.5773 -13.8315 -23.5512
# 3 10.1351 24.9122 112.9258 -0.1714 -10.2517 -15.7078
# 4 4.8633 18.5773 -0.1714 47.1196 4.1196 -7.3283
# 5 -16.0329 -13.8315 -10.2517 4.1196 23.2040 6.0188
# 6 -1.7261 -23.5512 -15.7078 -7.3283 6.0188 23.3575
#
#
#
# Elastic Compliance Matrix: (Units=1/GPa)
#
#
# Indices 1 2 3 4 5 6 
#
# 1 0.020992 0.002728 -0.001300 -0.005151 0.017147 -0.002607
# 2 0.002728 0.009544 -0.000892 -0.003567 0.006120 0.006529
# 3 -0.001300 -0.000892 0.010105 0.001327 0.001272 0.005889
# 4 -0.005151 -0.003567 0.001327 0.025412 -0.011658 0.007892
# 5 0.017147 0.006120 0.001272 -0.011658 0.064320 -0.011939
# 6 -0.002607 0.006529 0.005889 0.007892 -0.011939 0.058716
#
#
# Mechanical properties :
#
#
# Convention : Reuss Voigt Hill
#
# Bulk Modulus (GPa) = 23.97300 42.05341 33.01320
# Shear Modulus (GPa) = 24.76222 37.70509 31.23365
#
# Velocity S-wave (km/s) = 3.21249 3.96412 3.60793
# Velocity P-wave (km/s) = 4.87353 6.20314 5.57809
#
# Compressibility (1/GPa) = 0.04171360
#
# Stress axis : x y z
#
# Youngs Moduli (GPa) = 47.63813 104.77908 98.95667
#
# Poissons Ratio (x) = -0.28583 0.12860
# Poissons Ratio (y) = -0.12995 0.08827
# Poissons Ratio (z) = 0.06191 0.09346
#
# Static dielectric constant tensor:
#      x y z
#    x 1.961340 0.037740 0.029180 
#    y 0.037740 2.005180 0.019160 
#    z 0.029180 0.019160 1.956910 
# 
# From -- ./inp_files/188368.got.cif
#   From: 2010.05.17/outbox.cif.g08.bks.cpg/sg2_95_cif.got.tgz:188368.got - 2010.06.03 11:33:40.
