data_PCOD9006712
_publ_section_title
;
Structure prediction by ZEFSAII (Michael W. Deem and Ramdas Pophale) SiO2 
 PCOD9006712
Probable space group: P -1
;
_chemical_formula_sum "Si O2"
_cell_formula_units_Z 12
_cell_length_a 8.938519
_cell_length_b 5.470036
_cell_length_c 11.961837
_cell_angle_alpha 101.455026
_cell_angle_beta 104.005965
_cell_angle_gamma 53.115288
_cell_volume 452.818527
_symmetry_space_group_name_H-M "P -1"
_symmetry_group_IT_number 2
_symmetry_cell_setting 'triclinic'
loop_
_space_group_symop_operation_xyz
x,y,z
-x,-y,-z
loop_
_atom_site_type_symbol
_atom_site_label
_atom_site_fract_x
_atom_site_fract_y
_atom_site_fract_z
Si Si1 0.115509 0.075644 0.369482
Si Si2 0.133589 0.592551 0.438800
Si Si3 0.866901 0.154699 0.882650
Si Si4 0.558498 0.613211 0.198025
Si Si5 0.255090 0.048433 0.739331
Si Si6 0.293140 0.303547 0.972119
O O1 0.220620 0.241539 0.400869
O O2 0.935558 0.301931 0.437644
O O3 0.231640 0.744700 0.420044
O O4 0.051426 0.034498 0.234281
O O5 0.931912 0.782873 0.353319
O O6 0.663678 0.203697 0.849369
O O7 0.800444 0.505905 0.916164
O O8 0.000000 0.000000 0.000000
O O9 0.616331 0.837846 0.267592
O O10 0.667181 0.504472 0.088542
O O11 0.626927 0.316026 0.257731
O O12 0.191440 0.197342 0.866389
O O13 0.500000 0.000000 0.000000
#
# Coordination Sequence:
#
# PCOD9006712 Si02
#       6
#     2   2   2   2   2   2
#     4  10  24  41  65  95 134 161 222 270 325 376
#     4  10  21  45  66  91 125 181 211 266 327 393
#     4  12  24  40  65 102 134 164 218 277 326 376
#     4  10  23  40  61  94 129 171 211 256 321 397
#     4  10  21  38  68  84 121 177 218 241 320 392
#     4  10  22  40  64  87 135 175 206 256 325 396
#
# _framework density 26.500682999999999
#
# number of rings (size 3 to 8) (size 9 to 14) (size 15 to 20)
#    1.000    0.667    1.667    2.500    2.333    2.667 
#    0.000    6.667    0.000    0.000    0.000    0.000 
#    0.000    0.000    0.000    0.000    0.000    0.000 
#
# Total GULP energy -67040.432829 kJ/mol
# GULP energy per Si atom -5586.702736 kJ/mol
# Density = 2.644037 g / cm^3
# Si number density = 26.500683 Si / 1000 Ang^3
#
#
#
# Elastic Constant Matrix: (Units=GPa)
#
#
# Indices 1 2 3 4 5 6 
#
# 1 93.1177 63.6284 31.0725 -3.1481 9.2973 4.6365
# 2 63.6284 169.2292 55.5641 0.3329 -7.5306 45.1221
# 3 31.0725 55.5641 158.7080 30.1926 0.7682 -7.8550
# 4 -3.1481 0.3329 30.1926 44.1567 7.7620 3.4972
# 5 9.2973 -7.5306 0.7682 7.7620 24.6829 0.1249
# 6 4.6365 45.1221 -7.8550 3.4972 0.1249 58.3271
#
#
#
# Elastic Compliance Matrix: (Units=1/GPa)
#
#
# Indices 1 2 3 4 5 6 
#
# 1 0.017275 -0.007737 -0.001065 0.003425 -0.009933 0.004285
# 2 -0.007737 0.013110 -0.003932 0.001691 0.006556 -0.010172
# 3 -0.001065 -0.003932 0.009470 -0.007100 0.001115 0.004825
# 4 0.003425 0.001691 -0.007100 0.029815 -0.009907 -0.004303
# 5 -0.009933 0.006556 0.001115 -0.009907 0.049355 -0.003644
# 6 0.004285 -0.010172 0.004825 -0.004303 -0.003644 0.025588
#
#
# Mechanical properties :
#
#
# Convention : Reuss Voigt Hill
#
# Bulk Modulus (GPa) = 69.50424 80.17611 74.84018
# Shear Modulus (GPa) = 28.59168 43.48599 36.03883
#
# Velocity S-wave (km/s) = 3.28823 4.05524 3.69171
# Velocity P-wave (km/s) = 6.37972 7.22819 6.81717
#
# Compressibility (1/GPa) = 0.01438761
#
# Stress axis : x y z
#
# Youngs Moduli (GPa) = 57.88589 76.28015 105.59709
#
# Poissons Ratio (x) = 0.59017 0.11246
# Poissons Ratio (y) = 0.44785 0.41519
# Poissons Ratio (z) = 0.06165 0.29992
#
# Static dielectric constant tensor:
#      x y z
#    x 2.188120 0.084850 -0.050850 
#    y 0.084850 2.150370 0.000010 
#    z -0.050850 0.000010 2.129160 
# 
# From -- ./inp_files/407924.got.cif
#   From: 2010.05.17/outbox.cif.g08.bks.cpg/sg2_204_cif.got.tgz:407924.got - 2010.06.03 11:33:40.
