data_PCOD9006546
_publ_section_title
;
Structure prediction by ZEFSAII (Michael W. Deem and Ramdas Pophale) SiO2 
 PCOD9006546
Probable space group: P -1
;
_chemical_formula_sum "Si O2"
_cell_formula_units_Z 15
_cell_length_a 8.745847
_cell_length_b 8.958437
_cell_length_c 12.732965
_cell_angle_alpha 82.631736
_cell_angle_beta 47.215441
_cell_angle_gamma 55.881435
_cell_volume 551.209952
_symmetry_space_group_name_H-M "P -1"
_symmetry_group_IT_number 2
_symmetry_cell_setting 'triclinic'
loop_
_space_group_symop_operation_xyz
x,y,z
-x,-y,-z
loop_
_atom_site_type_symbol
_atom_site_label
_atom_site_fract_x
_atom_site_fract_y
_atom_site_fract_z
Si Si1 0.000000 0.500000 0.500000
Si Si2 0.870292 0.364239 0.041446
Si Si3 0.712892 0.258445 0.936267
Si Si4 0.914877 0.869393 0.842821
Si Si5 0.645615 0.814904 0.293611
Si Si6 0.446320 0.818587 0.595199
Si Si7 0.251761 0.616172 0.294786
Si Si8 0.124056 0.098061 0.385645
O O1 0.727318 0.651881 0.536787
O O2 0.774099 0.546765 0.702583
O O3 0.546303 0.545115 0.196685
O O4 0.050679 0.267073 0.069948
O O5 0.841624 0.228692 0.992581
O O6 0.058328 0.369512 0.871669
O O7 0.864552 0.223314 0.756445
O O8 0.667217 0.103022 0.959929
O O9 0.500000 0.500000 0.000000
O O10 0.917214 0.841381 0.720575
O O11 0.198259 0.826551 0.737627
O O12 0.508722 0.771245 0.446444
O O13 0.643920 0.973216 0.343270
O O14 0.438676 0.940187 0.283844
O O15 0.031563 0.704967 0.486683
O O16 0.000000 0.000000 0.500000
#
# Coordination Sequence:
#
# PCOD9006546 Si02
#       8
#     1   2   2   2   2   2   2   2
#     4  12  22  38  66 106 134 164 232 298 322 388
#     4  11  24  40  67 100 138 170 230 290 339 388
#     4  10  21  38  66  97 133 174 225 278 335 395
#     4  12  23  42  70 100 136 186 224 280 347 407
#     4  11  23  42  70  96 133 182 228 278 331 417
#     4  11  22  40  68 102 132 174 236 275 338 402
#     4  11  23  43  66 104 136 180 225 285 340 403
#     4  12  24  44  72  95 138 188 231 269 339 428
#
# _framework density 27.212859999999999
#
# number of rings (size 3 to 8) (size 9 to 14) (size 15 to 20)
#    0.000    0.800    6.667    1.200    0.000    1.067 
#    0.000    0.667    0.000    0.000    0.000    0.000 
#    0.000    0.000    0.000    0.000    0.000    0.000 
#
# Total GULP energy -83585.891594 kJ/mol
# GULP energy per Si atom -5572.392773 kJ/mol
# Density = 2.715092 g / cm^3
# Si number density = 27.212860 Si / 1000 Ang^3
#
#
#
# Elastic Constant Matrix: (Units=GPa)
#
#
# Indices 1 2 3 4 5 6 
#
# 1 85.2784 43.1423 38.9616 10.0258 25.1010 -28.5774
# 2 43.1423 102.1180 29.9083 4.0252 14.0563 -19.8271
# 3 38.9616 29.9083 123.6695 14.6785 -6.3500 -5.8475
# 4 10.0258 4.0252 14.6785 41.4971 -17.1803 0.6862
# 5 25.1010 14.0563 -6.3500 -17.1803 57.0374 -4.7858
# 6 -28.5774 -19.8271 -5.8475 0.6862 -4.7858 55.2131
#
#
#
# Elastic Compliance Matrix: (Units=1/GPa)
#
#
# Indices 1 2 3 4 5 6 
#
# 1 0.024459 -0.004860 -0.005688 -0.008543 -0.011986 0.009379
# 2 -0.004860 0.012789 -0.001530 0.000021 -0.001024 0.001826
# 3 -0.005688 -0.001530 0.010411 -0.000600 0.003686 -0.002064
# 4 -0.008543 0.000021 -0.000600 0.031796 0.012950 -0.003751
# 5 -0.011986 -0.001024 0.003686 0.012950 0.027035 -0.003999
# 6 0.009379 0.001826 -0.002064 -0.003751 -0.003999 0.023103
#
#
# Mechanical properties :
#
#
# Convention : Reuss Voigt Hill
#
# Bulk Modulus (GPa) = 42.55009 59.45447 51.00228
# Shear Modulus (GPa) = 30.94357 44.01977 37.48167
#
# Velocity S-wave (km/s) = 3.37574 4.02631 3.71529
# Velocity P-wave (km/s) = 5.55555 6.59623 6.09813
#
# Compressibility (1/GPa) = 0.02350171
#
# Stress axis : x y z
#
# Youngs Moduli (GPa) = 40.88443 78.19479 96.05080
#
# Poissons Ratio (x) = 0.38000 0.54638
# Poissons Ratio (y) = 0.19868 0.14700
# Poissons Ratio (z) = 0.23257 0.11968
#
# Static dielectric constant tensor:
#      x y z
#    x 2.343770 0.285120 0.101280 
#    y 0.285120 2.485320 0.094410 
#    z 0.101280 0.094410 2.436190 
# 
# From -- ./inp_files/181220.got.cif
#   From: 2010.05.17/outbox.cif.g08.bks.cpg/sg2_91_cif.got.tgz:181220.got - 2010.06.03 11:33:40.
