data_PCOD9006684
_publ_section_title
;
Structure prediction by ZEFSAII (Michael W. Deem and Ramdas Pophale) SiO2 
 PCOD9006684
Probable space group: P -1
;
_chemical_formula_sum "Si O2"
_cell_formula_units_Z 16
_cell_length_a 13.465371
_cell_length_b 11.880970
_cell_length_c 7.689394
_cell_angle_alpha 65.319119
_cell_angle_beta 94.190676
_cell_angle_gamma 142.050628
_cell_volume 610.891418
_symmetry_space_group_name_H-M "P -1"
_symmetry_group_IT_number 2
_symmetry_cell_setting 'triclinic'
loop_
_space_group_symop_operation_xyz
x,y,z
-x,-y,-z
loop_
_atom_site_type_symbol
_atom_site_label
_atom_site_fract_x
_atom_site_fract_y
_atom_site_fract_z
Si Si1 0.784309 0.411825 0.895223
Si Si2 0.719092 0.146841 0.582205
Si Si3 0.568924 0.229215 0.630986
Si Si4 0.928650 0.327212 0.840999
Si Si5 0.350230 0.236633 0.675438
Si Si6 0.852052 0.055445 0.483807
Si Si7 0.224793 0.455394 0.869874
Si Si8 0.836622 0.878026 0.935509
O O1 0.671002 0.307912 0.773431
O O2 0.836075 0.320933 0.974003
O O3 0.965622 0.681535 0.711529
O O4 0.694643 0.375900 0.076852
O O5 0.563633 0.087742 0.633865
O O6 0.794223 0.177704 0.758012
O O7 0.706178 0.012544 0.545443
O O8 0.891371 0.408000 0.366725
O O9 0.412472 0.159488 0.710802
O O10 0.688595 0.433898 0.378604
O O11 0.017386 0.290719 0.932299
O O12 0.500000 0.500000 0.500000
O O13 0.291961 0.192664 0.894920
O O14 0.211402 0.098882 0.582413
O O15 0.114956 0.987623 0.308310
O O16 0.246358 0.337033 0.004144
O O17 0.000000 0.000000 0.000000
#
# Coordination Sequence:
#
# PCOD9006684 Si02
#       8
#     2   2   2   2   2   2   2   2
#     4  10  21  38  67  99 128 169 218 273 326 385
#     4   8  16  36  64  91 126 172 208 267 332 380
#     4  10  22  43  66  93 134 168 216 274 328 387
#     4   8  15  32  60  97 130 159 213 276 320 377
#     4  12  28  47  65  95 137 179 218 272 327 387
#     4  11  25  42  66  97 135 173 223 268 326 390
#     4  11  20  34  63  93 126 171 219 258 320 388
#     4  12  26  43  68  98 131 173 223 272 322 388
#
# _framework density 26.191236
#
# number of rings (size 3 to 8) (size 9 to 14) (size 15 to 20)
#    0.000    1.750    1.250    4.875    1.750    3.000 
#    0.000    3.125    0.000    0.000    0.000    0.000 
#    0.000    0.000    0.000    0.000    0.000    0.000 
#
# Total GULP energy -89604.143076 kJ/mol
# GULP energy per Si atom -5600.258942 kJ/mol
# Density = 2.613162 g / cm^3
# Si number density = 26.191236 Si / 1000 Ang^3
#
#
#
# Elastic Constant Matrix: (Units=GPa)
#
#
# Indices 1 2 3 4 5 6 
#
# 1 132.9159 23.3752 51.3544 6.5866 -1.3708 -27.4346
# 2 23.3752 111.3055 21.6999 17.6259 6.6482 -27.5482
# 3 51.3544 21.6999 99.9323 19.4362 4.2805 -6.2110
# 4 6.5866 17.6259 19.4362 42.8873 -11.0951 2.7825
# 5 -1.3708 6.6482 4.2805 -11.0951 44.4688 6.5312
# 6 -27.4346 -27.5482 -6.2110 2.7825 6.5312 39.2914
#
#
#
# Elastic Compliance Matrix: (Units=1/GPa)
#
#
# Indices 1 2 3 4 5 6 
#
# 1 0.010965 0.000558 -0.005275 -0.000079 -0.000325 0.007273
# 2 0.000558 0.013176 -0.000849 -0.007182 -0.005260 0.010876
# 3 -0.005275 -0.000849 0.014076 -0.005833 -0.002670 -0.001196
# 4 -0.000079 -0.007182 -0.005833 0.032492 0.011235 -0.010181
# 5 -0.000325 -0.005260 -0.002670 0.011235 0.027756 -0.009747
# 6 0.007273 0.010876 -0.001196 -0.010181 -0.009747 0.040307
#
#
# Mechanical properties :
#
#
# Convention : Reuss Voigt Hill
#
# Bulk Modulus (GPa) = 36.92119 59.66809 48.29464
# Shear Modulus (GPa) = 31.45965 41.84446 36.65205
#
# Velocity S-wave (km/s) = 3.46952 4.00140 3.74492
# Velocity P-wave (km/s) = 5.49341 6.64676 6.09741
#
# Compressibility (1/GPa) = 0.02708472
#
# Stress axis : x y z
#
# Youngs Moduli (GPa) = 91.19724 75.89395 71.04069
#
# Poissons Ratio (x) = -0.04232 0.37472
# Poissons Ratio (y) = -0.05085 0.06035
# Poissons Ratio (z) = 0.48104 0.06447
#
# Static dielectric constant tensor:
#      x y z
#    x 2.072430 0.025020 -0.066280 
#    y 0.025020 2.098250 -0.074530 
#    z -0.066280 -0.074530 2.135280 
# 
# From -- ./inp_files/307498.got.cif
#   From: 2010.05.17/outbox.cif.g08.bks.cpg/sg2_154_cif.got.tgz:307498.got - 2010.06.03 11:33:40.
