data_PCOD9006494
_publ_section_title
;
Structure prediction by ZEFSAII (Michael W. Deem and Ramdas Pophale) SiO2 
 PCOD9006494
Probable space group: P -1
;
_chemical_formula_sum "Si O2"
_cell_formula_units_Z 14
_cell_length_a 5.498743
_cell_length_b 9.612575
_cell_length_c 14.276197
_cell_angle_alpha 107.072704
_cell_angle_beta 111.672314
_cell_angle_gamma 96.523933
_cell_volume 649.077580
_symmetry_space_group_name_H-M "P -1"
_symmetry_group_IT_number 2
_symmetry_cell_setting 'triclinic'
loop_
_space_group_symop_operation_xyz
x,y,z
-x,-y,-z
loop_
_atom_site_type_symbol
_atom_site_label
_atom_site_fract_x
_atom_site_fract_y
_atom_site_fract_z
Si Si1 0.236177 0.177563 0.739856
Si Si2 0.546684 0.588707 0.426100
Si Si3 0.092724 0.467134 0.702284
Si Si4 0.608491 0.990329 0.764969
Si Si5 0.649290 0.201590 0.146710
Si Si6 0.833961 0.914277 0.070306
Si Si7 0.272794 0.069486 0.434053
O O1 0.201543 0.340384 0.746424
O O2 0.220061 0.146729 0.843014
O O3 0.508831 0.132666 0.742271
O O4 0.009319 0.055546 0.626494
O O5 0.500000 0.500000 0.500000
O O6 0.736865 0.521761 0.369338
O O7 0.702942 0.764373 0.491817
O O8 0.234181 0.581657 0.353417
O O9 0.176451 0.630340 0.793161
O O10 0.397865 0.864856 0.767969
O O11 0.687569 0.913560 0.669283
O O12 0.846302 0.057238 0.885051
O O13 0.780489 0.079927 0.092110
O O14 0.365711 0.189399 0.050897
O O15 0.500000 0.000000 0.500000
#
# Coordination Sequence:
#
# PCOD9006494 Si02
#       7
#     2   2   2   2   2   2   2
#     4  10  23  40  64  97 128 171 220 268 323 397
#     4  12  28  44  65  97 136 177 222 268 329 386
#     4  12  27  44  65  99 137 171 218 277 328 390
#     4  10  21  38  66  93 125 168 227 268 320 396
#     4  10  22  41  66  94 129 168 215 280 327 393
#     4   9  21  42  68  94 124 168 222 265 337 390
#     4  11  22  40  64  89 130 176 217 266 318 390
#
# _framework density 21.569071000000001
#
# number of rings (size 3 to 8) (size 9 to 14) (size 15 to 20)
#    0.000    1.429    1.429    2.571   12.000    1.714 
#    0.000    0.714    0.000    0.000    0.000    0.000 
#    0.000    0.000    0.000    0.000    0.000    0.000 
#
# Total GULP energy -78159.961031 kJ/mol
# GULP energy per Si atom -5582.854359 kJ/mol
# Density = 2.151998 g / cm^3
# Si number density = 21.569071 Si / 1000 Ang^3
#
#
#
# Elastic Constant Matrix: (Units=GPa)
#
#
# Indices 1 2 3 4 5 6 
#
# 1 56.9820 -2.7767 10.9584 -3.6241 5.7300 0.0596
# 2 -2.7767 110.9869 28.8232 10.1404 10.4297 4.8831
# 3 10.9584 28.8232 66.5373 -6.9411 -1.5346 2.8810
# 4 -3.6241 10.1404 -6.9411 28.5197 -6.5844 0.5675
# 5 5.7300 10.4297 -1.5346 -6.5844 30.4081 -11.1531
# 6 0.0596 4.8831 2.8810 0.5675 -11.1531 25.6551
#
#
#
# Elastic Compliance Matrix: (Units=1/GPa)
#
#
# Indices 1 2 3 4 5 6 
#
# 1 0.018990 0.002257 -0.004198 -0.000654 -0.005594 -0.002420
# 2 0.002257 0.012508 -0.006560 -0.007643 -0.008619 -0.005227
# 3 -0.004198 -0.006560 0.019469 0.007972 0.006359 0.001660
# 4 -0.000654 -0.007643 0.007972 0.042896 0.014625 0.005970
# 5 -0.005594 -0.008619 0.006359 0.014625 0.048314 0.021619
# 6 -0.002420 -0.005227 0.001660 0.005970 0.021619 0.049059
#
#
# Mechanical properties :
#
#
# Convention : Reuss Voigt Hill
#
# Bulk Modulus (GPa) = 29.44141 34.27955 31.86048
# Shear Modulus (GPa) = 22.77287 30.08334 26.42811
#
# Velocity S-wave (km/s) = 3.25285 3.73868 3.50419
# Velocity P-wave (km/s) = 5.27139 5.87915 5.58354
#
# Compressibility (1/GPa) = 0.03396577
#
# Stress axis : x y z
#
# Youngs Moduli (GPa) = 52.65906 79.94621 51.36453
#
# Poissons Ratio (x) = -0.18045 0.21562
# Poissons Ratio (y) = -0.11886 0.33695
# Poissons Ratio (z) = 0.22105 0.52445
#
# Static dielectric constant tensor:
#      x y z
#    x 1.912780 0.006860 -0.008050 
#    y 0.006860 1.741590 -0.041980 
#    z -0.008050 -0.041980 1.804050 
# 
# From -- ./inp_files/26970.got.cif
#   From: 2010.05.17/outbox.cif.g08.bks.cpg/sg2_14_cif.got.tgz:26970.got - 2010.06.03 11:33:40.
