data_PCOD9006925
_publ_section_title
;
Structure prediction by ZEFSAII (Michael W. Deem and Ramdas Pophale) SiO2 
 PCOD9006925
Probable space group: P -1
;
_chemical_formula_sum "Si O2"
_cell_formula_units_Z 12
_cell_length_a 21.359298
_cell_length_b 7.900623
_cell_length_c 23.717774
_cell_angle_alpha 44.619628
_cell_angle_beta 168.255108
_cell_angle_gamma 132.509920
_cell_volume 565.944635
_symmetry_space_group_name_H-M "P -1"
_symmetry_group_IT_number 2
_symmetry_cell_setting 'triclinic'
loop_
_space_group_symop_operation_xyz
x,y,z
-x,-y,-z
loop_
_atom_site_type_symbol
_atom_site_label
_atom_site_fract_x
_atom_site_fract_y
_atom_site_fract_z
Si Si1 0.378681 0.340072 0.047676
Si Si2 0.800061 0.712019 0.310061
Si Si3 0.323805 0.477997 0.578413
Si Si4 0.738490 0.085658 0.646532
Si Si5 0.605252 0.076786 0.196940
Si Si6 0.425599 0.105368 0.253949
O O1 0.012711 0.418837 0.715830
O O2 0.566089 0.564826 0.171511
O O3 0.441917 0.256491 0.058958
O O4 0.496958 0.117092 0.247729
O O5 0.000000 0.500000 0.500000
O O6 0.057889 0.843394 0.536266
O O7 0.598535 0.891955 0.046327
O O8 0.315191 0.618807 0.477586
O O9 0.589826 0.605463 0.813521
O O10 0.369037 0.192318 0.691548
O O11 0.665594 0.997050 0.539595
O O12 0.500000 0.000000 0.500000
O O13 0.098134 0.013769 0.995469
#
# Coordination Sequence:
#
# PCOD9006925 Si02
#       6
#     2   2   2   2   2   2
#     4  10  21  39  57  77 119 148 190 237 270 327
#     4  10  23  37  56  81 111 156 196 227 277 324
#     4   9  23  36  57  88 110 143 194 223 289 331
#     4   9  18  35  60  84 111 143 179 226 279 342
#     4  11  24  37  58  80 114 154 190 233 279 320
#     4   9  20  33  57  84 109 141 188 221 279 333
#
# _framework density 21.203486999999999
#
# number of rings (size 3 to 8) (size 9 to 14) (size 15 to 20)
#    1.000    1.333    0.000    2.500   11.667    1.333 
#    0.000    0.000    0.000    5.000    0.000    0.000 
#    0.000    0.000    0.000    0.000    0.000    0.000 
#
# Total GULP energy -66868.351118 kJ/mol
# GULP energy per Si atom -5572.362593 kJ/mol
# Density = 2.115523 g / cm^3
# Si number density = 21.203487 Si / 1000 Ang^3
#
#
#
# Elastic Constant Matrix: (Units=GPa)
#
#
# Indices 1 2 3 4 5 6 
#
# 1 64.7503 26.6834 26.7555 9.6013 2.5245 14.7080
# 2 26.6834 60.4152 44.8298 13.0832 20.8627 11.9384
# 3 26.7555 44.8298 118.2217 27.8695 -9.0769 8.2274
# 4 9.6013 13.0832 27.8695 33.4371 7.3833 4.0924
# 5 2.5245 20.8627 -9.0769 7.3833 26.8603 13.4447
# 6 14.7080 11.9384 8.2274 4.0924 13.4447 29.4125
#
#
#
# Elastic Compliance Matrix: (Units=1/GPa)
#
#
# Indices 1 2 3 4 5 6 
#
# 1 0.025413 -0.021710 0.008322 -0.009944 0.029100 -0.018142
# 2 -0.021710 0.074417 -0.038221 0.025330 -0.090173 0.029036
# 3 0.008322 -0.038221 0.032703 -0.024777 0.056973 -0.020391
# 4 -0.009944 0.025330 -0.024777 0.052469 -0.050172 0.017255
# 5 0.029100 -0.090173 0.056973 -0.050172 0.169896 -0.064568
# 6 -0.018142 0.029036 -0.020391 0.017255 -0.064568 0.064103
#
#
# Mechanical properties :
#
#
# Convention : Reuss Voigt Hill
#
# Bulk Modulus (GPa) = 34.11184 48.88051 41.49617
# Shear Modulus (GPa) = 9.39866 27.61654 18.50760
#
# Velocity S-wave (km/s) = 2.10766 3.61287 2.95762
# Velocity P-wave (km/s) = 4.69529 6.36450 5.59252
#
# Compressibility (1/GPa) = 0.02931533
#
# Stress axis : x y z
#
# Youngs Moduli (GPa) = 39.35065 13.43770 30.57813
#
# Poissons Ratio (x) = 0.29173 -0.25447
# Poissons Ratio (y) = 0.85429 1.16874
# Poissons Ratio (z) = -0.32748 0.51361
#
# Static dielectric constant tensor:
#      x y z
#    x 1.846680 -0.015620 -0.031970 
#    y -0.015620 1.783410 -0.004320 
#    z -0.031970 -0.004320 1.791600 
# 
# From -- ./inp_files/56746.got.cif
#   From: 2010.05.17/outbox.cif.g08.bks.cpg/sg2_29_cif.got.tgz:56746.got - 2010.06.03 11:33:40.
