data_PCOD9006143
_publ_section_title
;
Structure prediction by ZEFSAII (Michael W. Deem and Ramdas Pophale) SiO2 
 PCOD9006143
Probable space group: P -1
;
_chemical_formula_sum "Si O2"
_cell_formula_units_Z 16
_cell_length_a 9.368963
_cell_length_b 11.907157
_cell_length_c 11.742254
_cell_angle_alpha 132.027182
_cell_angle_beta 98.834895
_cell_angle_gamma 53.434711
_cell_volume 712.457271
_symmetry_space_group_name_H-M "P -1"
_symmetry_group_IT_number 2
_symmetry_cell_setting 'triclinic'
loop_
_space_group_symop_operation_xyz
x,y,z
-x,-y,-z
loop_
_atom_site_type_symbol
_atom_site_label
_atom_site_fract_x
_atom_site_fract_y
_atom_site_fract_z
Si Si1 0.357171 0.299745 0.271903
Si Si2 0.932576 0.619203 0.398553
Si Si3 0.864268 0.038592 0.850083
Si Si4 0.522361 0.854510 0.063442
Si Si5 0.493252 0.969643 0.611571
Si Si6 0.967632 0.143263 0.495074
Si Si7 0.860923 0.326176 0.190122
Si Si8 0.550068 0.328771 0.514580
O O1 0.132076 0.482289 0.402871
O O2 0.490869 0.324485 0.374807
O O3 0.436966 0.077283 0.163255
O O4 0.363873 0.292243 0.130147
O O5 0.966204 0.730961 0.388469
O O6 0.726014 0.799563 0.555058
O O7 0.911622 0.460668 0.250878
O O8 0.648419 0.141890 0.927573
O O9 0.897593 0.184361 0.996579
O O10 0.908064 0.991456 0.691426
O O11 0.004115 0.829304 0.796830
O O12 0.609052 0.838666 0.186892
O O13 0.409441 0.863271 0.553051
O O14 0.500000 0.000000 0.500000
O O15 0.741876 0.292470 0.530073
O O16 0.000000 0.000000 0.500000
O O17 0.640226 0.476837 0.311866
#
# Coordination Sequence:
#
# PCOD9006143 Si02
#       8
#     2   2   2   2   2   2   2   2
#     4  10  22  38  65 103 133 160 218 268 351 375
#     4  11  22  43  70  93 132 167 220 276 322 395
#     4  11  23  41  69  94 139 167 214 272 333 398
#     4  10  21  38  64  98 135 171 203 279 328 396
#     4  10  21  41  66  92 125 180 225 260 319 389
#     4  12  27  45  65  94 131 183 225 265 321 394
#     4  10  24  41  68 104 128 167 217 273 349 381
#     4  10  24  39  63  95 134 165 219 276 319 395
#
# _framework density 22.457488000000001
#
# number of rings (size 3 to 8) (size 9 to 14) (size 15 to 20)
#    0.000    1.500    2.500    1.500    5.250    4.000 
#    0.000    4.375    0.000    0.000    0.000    0.000 
#    0.000    0.000    0.000    0.000    0.000    0.000 
#
# Total GULP energy -89405.166400 kJ/mol
# GULP energy per Si atom -5587.822900 kJ/mol
# Density = 2.240637 g / cm^3
# Si number density = 22.457488 Si / 1000 Ang^3
#
#
#
# Elastic Constant Matrix: (Units=GPa)
#
#
# Indices 1 2 3 4 5 6 
#
# 1 128.8127 20.4306 38.9140 5.3406 7.3322 21.6418
# 2 20.4306 75.5697 46.8677 -15.0878 7.4347 20.7157
# 3 38.9140 46.8677 133.3796 -18.0885 13.4790 14.6774
# 4 5.3406 -15.0878 -18.0885 32.0819 5.0214 -2.0595
# 5 7.3322 7.4347 13.4790 5.0214 32.5319 10.3557
# 6 21.6418 20.7157 14.6774 -2.0595 10.3557 36.6528
#
#
#
# Elastic Compliance Matrix: (Units=1/GPa)
#
#
# Indices 1 2 3 4 5 6 
#
# 1 0.009571 -0.000439 -0.002749 -0.003854 0.001226 -0.004865
# 2 -0.000439 0.020175 -0.005110 0.006228 -0.000628 -0.008570
# 3 -0.002749 -0.005110 0.011012 0.004992 -0.004030 0.001521
# 4 -0.003854 0.006228 0.004992 0.039085 -0.009145 0.001537
# 5 0.001226 -0.000628 -0.004030 -0.009145 0.036761 -0.009655
# 6 -0.004865 -0.008570 0.001521 0.001537 -0.009655 0.037205
#
#
# Mechanical properties :
#
#
# Convention : Reuss Voigt Hill
#
# Bulk Modulus (GPa) = 41.38812 61.13184 51.25998
# Shear Modulus (GPa) = 28.01767 35.68998 31.85382
#
# Velocity S-wave (km/s) = 3.53595 3.99083 3.77026
# Velocity P-wave (km/s) = 5.92791 6.96533 6.46746
#
# Compressibility (1/GPa) = 0.02416152
#
# Stress axis : x y z
#
# Youngs Moduli (GPa) = 104.48524 49.56574 90.81041
#
# Poissons Ratio (x) = 0.02175 0.24966
# Poissons Ratio (y) = 0.04585 0.46405
# Poissons Ratio (z) = 0.28726 0.25329
#
# Static dielectric constant tensor:
#      x y z
#    x 1.836170 -0.005910 0.033470 
#    y -0.005910 1.899900 -0.010160 
#    z 0.033470 -0.010160 1.822890 
# 
# From -- ./inp_files/393104.got.cif
#   From: 2010.05.17/outbox.cif.g08.bks.cpg/sg2_197_cif.got.tgz:393104.got - 2010.06.03 11:33:40.
