data_PCOD9006527
_publ_section_title
;
Structure prediction by ZEFSAII (Michael W. Deem and Ramdas Pophale) SiO2 
 PCOD9006527
Probable space group: P -1
;
_chemical_formula_sum "Si O2"
_cell_formula_units_Z 16
_cell_length_a 15.607721
_cell_length_b 5.159352
_cell_length_c 13.820876
_cell_angle_alpha 123.066932
_cell_angle_beta 135.525377
_cell_angle_gamma 73.259787
_cell_volume 643.628684
_symmetry_space_group_name_H-M "P -1"
_symmetry_group_IT_number 2
_symmetry_cell_setting 'triclinic'
loop_
_space_group_symop_operation_xyz
x,y,z
-x,-y,-z
loop_
_atom_site_type_symbol
_atom_site_label
_atom_site_fract_x
_atom_site_fract_y
_atom_site_fract_z
Si Si1 0.494253 0.941738 0.597865
Si Si2 0.890090 0.653269 0.042135
Si Si3 0.717041 0.643563 0.722906
Si Si4 0.046618 0.256884 0.201771
Si Si5 0.686864 0.676729 0.384746
Si Si6 0.379969 0.669048 0.933044
Si Si7 0.818112 0.193100 0.473512
Si Si8 0.255319 0.179211 0.861054
O O1 0.630564 0.898374 0.730939
O O2 0.387484 0.635326 0.458094
O O3 0.500000 0.000000 0.500000
O O4 0.438239 0.206232 0.663446
O O5 0.950607 0.367120 0.071987
O O6 0.836027 0.815366 0.122917
O O7 0.993160 0.921558 0.133585
O O8 0.785156 0.556861 0.856788
O O9 0.823448 0.738127 0.748130
O O10 0.065727 0.533690 0.355330
O O11 0.685356 0.510752 0.247733
O O12 0.711362 0.407366 0.421560
O O13 0.792477 0.977535 0.505150
O O14 0.302514 0.534225 0.936378
O O15 0.370236 0.022768 0.966180
O O16 0.500000 0.500000 0.000000
O O17 0.807768 0.007713 0.324222
#
# Coordination Sequence:
#
# PCOD9006527 Si02
#       8
#     2   2   2   2   2   2   2   2
#     4  11  25  42  72  99 132 179 219 287 339 395
#     4  12  28  44  70  98 139 183 222 281 332 397
#     4  11  27  45  65 103 135 172 232 277 337 410
#     4  12  25  46  71  94 134 186 226 278 338 385
#     4  10  21  39  64  98 130 169 214 270 341 392
#     4  10  21  38  66  95 133 177 214 271 336 407
#     4  10  21  42  69  94 133 166 224 276 318 411
#     4  10  23  42  62 100 135 170 226 272 332 390
#
# _framework density 24.859055999999999
#
# number of rings (size 3 to 8) (size 9 to 14) (size 15 to 20)
#    0.000    1.250    1.250    3.375    7.000    2.000 
#    0.000    0.000    0.000    0.000    0.000    0.000 
#    0.000    0.000    0.000    0.000    0.000    0.000 
#
# Total GULP energy -89393.378079 kJ/mol
# GULP energy per Si atom -5587.086130 kJ/mol
# Density = 2.480248 g / cm^3
# Si number density = 24.859056 Si / 1000 Ang^3
#
#
#
# Elastic Constant Matrix: (Units=GPa)
#
#
# Indices 1 2 3 4 5 6 
#
# 1 136.5117 31.0586 20.5984 -7.4929 -8.3162 -1.5089
# 2 31.0586 62.5427 8.4950 -5.8478 -3.8872 4.2708
# 3 20.5984 8.4950 78.4413 -15.0969 -3.3506 -0.5262
# 4 -7.4929 -5.8478 -15.0969 29.8513 -7.8505 1.7425
# 5 -8.3162 -3.8872 -3.3506 -7.8505 26.3294 -4.0333
# 6 -1.5089 4.2708 -0.5262 1.7425 -4.0333 37.3998
#
#
#
# Elastic Compliance Matrix: (Units=1/GPa)
#
#
# Indices 1 2 3 4 5 6 
#
# 1 0.008670 -0.003897 -0.001500 0.001253 0.002497 0.000985
# 2 -0.003897 0.018542 -0.000299 0.003178 0.002079 -0.002203
# 3 -0.001500 -0.000299 0.014897 0.008092 0.003824 0.000219
# 4 0.001253 0.003178 0.008092 0.042360 0.014431 -0.000616
# 5 0.002497 0.002079 0.003824 0.014431 0.044484 0.004042
# 6 0.000985 -0.002203 0.000219 -0.000616 0.004042 0.027497
#
#
# Mechanical properties :
#
#
# Convention : Reuss Voigt Hill
#
# Bulk Modulus (GPa) = 32.55575 44.19996 38.37786
# Shear Modulus (GPa) = 28.07719 33.20568 30.64144
#
# Velocity S-wave (km/s) = 3.36438 3.65877 3.51466
# Velocity P-wave (km/s) = 5.31194 5.97224 5.65174
#
# Compressibility (1/GPa) = 0.03071654
#
# Stress axis : x y z
#
# Youngs Moduli (GPa) = 115.33923 53.93300 67.12828
#
# Poissons Ratio (x) = 0.21016 0.10071
# Poissons Ratio (y) = 0.44943 0.02008
# Poissons Ratio (z) = 0.17304 0.01613
#
# Static dielectric constant tensor:
#      x y z
#    x 1.941280 -0.004170 0.010990 
#    y -0.004170 2.039860 0.049200 
#    z 0.010990 0.049200 1.990230 
# 
# From -- ./inp_files/526023.got.cif
#   From: 2010.05.17/outbox.cif.g08.bks.cpg/sg2_264_cif.got.tgz:526023.got - 2010.06.03 11:33:40.
