data_PCOD9006019
_publ_section_title
;
Structure prediction by ZEFSAII (Michael W. Deem and Ramdas Pophale) SiO2 
 PCOD9006019
Probable space group: P -1
;
_chemical_formula_sum "Si O2"
_cell_formula_units_Z 14
_cell_length_a 11.241756
_cell_length_b 7.382679
_cell_length_c 8.811351
_cell_angle_alpha 67.738276
_cell_angle_beta 56.349708
_cell_angle_gamma 83.257283
_cell_volume 559.301544
_symmetry_space_group_name_H-M "P -1"
_symmetry_group_IT_number 2
_symmetry_cell_setting 'triclinic'
loop_
_space_group_symop_operation_xyz
x,y,z
-x,-y,-z
loop_
_atom_site_type_symbol
_atom_site_label
_atom_site_fract_x
_atom_site_fract_y
_atom_site_fract_z
Si Si1 0.871027 0.826641 0.595054
Si Si2 0.292177 0.623494 0.667090
Si Si3 0.028367 0.941092 0.169918
Si Si4 0.008686 0.347960 0.182975
Si Si5 0.556839 0.799916 0.963089
Si Si6 0.603288 0.761354 0.281167
Si Si7 0.701359 0.222354 0.050968
O O1 0.894623 0.839049 0.393888
O O2 0.913141 0.632719 0.715797
O O3 0.707479 0.844590 0.753484
O O4 0.000000 0.000000 0.500000
O O5 0.161421 0.709149 0.649245
O O6 0.448888 0.723996 0.480962
O O7 0.294097 0.396844 0.687831
O O8 0.271752 0.662118 0.848160
O O9 0.152838 0.800888 0.134583
O O10 0.077638 0.159494 0.131000
O O11 0.000000 0.000000 0.000000
O O12 0.000000 0.500000 0.000000
O O13 0.580738 0.701164 0.138619
O O14 0.427143 0.704818 0.978607
O O15 0.500000 0.000000 0.000000
O O16 0.655639 0.989904 0.194537
#
# Coordination Sequence:
#
# PCOD9006019 Si02
#       7
#     2   2   2   2   2   2   2
#     4  10  22  38  64  94 127 174 219 265 324 396
#     4  11  23  39  65  96 128 172 212 272 328 384
#     4  11  23  40  63  97 128 165 223 266 323 396
#     4  11  22  40  66  89 133 172 216 265 329 388
#     4  10  21  38  64  92 129 169 216 269 323 388
#     4  10  23  40  62  97 129 166 222 261 326 395
#     4  11  23  40  67  95 128 171 214 271 328 388
#
# _framework density 25.031220999999999
#
# number of rings (size 3 to 8) (size 9 to 14) (size 15 to 20)
#    0.000    1.429    1.429    5.571   10.000    1.714 
#    0.000    0.714    0.000    0.000    0.000    0.000 
#    0.000    0.000    0.000    0.000    0.000    0.000 
#
# Total GULP energy -78188.236918 kJ/mol
# GULP energy per Si atom -5584.874066 kJ/mol
# Density = 2.497425 g / cm^3
# Si number density = 25.031221 Si / 1000 Ang^3
#
#
#
# Elastic Constant Matrix: (Units=GPa)
#
#
# Indices 1 2 3 4 5 6 
#
# 1 124.8477 26.8999 29.8791 23.3478 3.2161 -29.7505
# 2 26.8999 111.4085 13.2045 1.0526 -5.3732 -22.8824
# 3 29.8791 13.2045 151.2051 22.1863 -2.4856 -27.0407
# 4 23.3478 1.0526 22.1863 35.5259 -16.4785 -9.3031
# 5 3.2161 -5.3732 -2.4856 -16.4785 40.7034 11.9326
# 6 -29.7505 -22.8824 -27.0407 -9.3031 11.9326 34.7723
#
#
#
# Elastic Compliance Matrix: (Units=1/GPa)
#
#
# Indices 1 2 3 4 5 6 
#
# 1 0.012747 -0.001232 0.000865 -0.009869 -0.008333 0.010986
# 2 -0.001232 0.010589 0.000136 0.002366 0.000568 0.006457
# 3 0.000865 0.000136 0.008526 -0.005864 -0.004037 0.007276
# 4 -0.009869 0.002366 -0.005864 0.046498 0.021422 -0.006358
# 5 -0.008333 0.000568 -0.004037 0.021422 0.038857 -0.017498
# 6 0.010986 0.006457 0.007276 -0.006358 -0.017498 0.052369
#
#
# Mechanical properties :
#
#
# Convention : Reuss Voigt Hill
#
# Bulk Modulus (GPa) = 31.84951 58.60316 45.22633
# Shear Modulus (GPa) = 27.69841 43.36550 35.53195
#
# Velocity S-wave (km/s) = 3.33010 4.16679 3.77172
# Velocity P-wave (km/s) = 5.24763 6.82733 6.08893
#
# Compressibility (1/GPa) = 0.03139766
#
# Stress axis : x y z
#
# Youngs Moduli (GPa) = 78.45217 94.43988 117.28766
#
# Poissons Ratio (x) = 0.11638 -0.10141
# Poissons Ratio (y) = 0.09668 -0.01593
# Poissons Ratio (z) = -0.06783 -0.01282
#
# Static dielectric constant tensor:
#      x y z
#    x 2.207330 0.024880 0.078080 
#    y 0.024880 2.001090 -0.025820 
#    z 0.078080 -0.025820 2.102790 
# 
# From -- ./inp_files/233402.got.cif
#   From: 2010.05.17/outbox.cif.g08.bks.cpg/sg2_117_cif.got.tgz:233402.got - 2010.06.03 11:33:40.
