data_PCOD9006098
_publ_section_title
;
Structure prediction by ZEFSAII (Michael W. Deem and Ramdas Pophale) SiO2 
 PCOD9006098
Probable space group: P -1
;
_chemical_formula_sum "Si O2"
_cell_formula_units_Z 12
_cell_length_a 12.195587
_cell_length_b 4.896327
_cell_length_c 13.677873
_cell_angle_alpha 94.657292
_cell_angle_beta 34.130434
_cell_angle_gamma 88.485692
_cell_volume 450.302321
_symmetry_space_group_name_H-M "P -1"
_symmetry_group_IT_number 2
_symmetry_cell_setting 'triclinic'
loop_
_space_group_symop_operation_xyz
x,y,z
-x,-y,-z
loop_
_atom_site_type_symbol
_atom_site_label
_atom_site_fract_x
_atom_site_fract_y
_atom_site_fract_z
Si Si1 0.810944 0.241633 0.633573
Si Si2 0.051177 0.653798 0.661264
Si Si3 0.325021 0.867616 0.075824
Si Si4 0.525219 0.055563 0.224406
Si Si5 0.749480 0.850993 0.400279
Si Si6 0.850702 0.782681 0.109862
O O1 0.872327 0.434884 0.508011
O O2 0.850932 0.873872 0.805569
O O3 0.637919 0.099671 0.709330
O O4 0.741446 0.331639 0.797041
O O5 0.064934 0.381425 0.708940
O O6 0.198279 0.846200 0.606401
O O7 0.000000 0.000000 0.500000
O O8 0.500000 0.000000 0.000000
O O9 0.401376 0.758836 0.909932
O O10 0.708040 0.837667 0.124351
O O11 0.424697 0.203576 0.399887
O O12 0.722018 0.819380 0.305177
O O13 0.000000 0.500000 0.000000
O O14 0.000000 0.000000 0.000000
#
# Coordination Sequence:
#
# PCOD9006098 Si02
#       6
#     2   2   2   2   2   2
#     4   8  17  36  63  93 126 165 210 258 311 369
#     4  10  21  41  65  92 126 167 209 258 313 372
#     4   9  17  37  62  92 127 166 211 259 312 373
#     4  10  21  38  64  96 129 168 211 262 317 376
#     4  11  23  42  65  92 125 164 209 260 314 375
#     4  12  26  44  67  95 128 168 212 261 317 379
#
# _framework density 26.648764
#
# number of rings (size 3 to 8) (size 9 to 14) (size 15 to 20)
#    0.000    2.000    0.000    3.500    0.000    2.667 
#    0.000   42.500    0.000    0.000    0.000    0.000 
#    0.000    0.000    0.000    0.000    0.000    0.000 
#
# Total GULP energy -67239.275305 kJ/mol
# GULP energy per Si atom -5603.272942 kJ/mol
# Density = 2.658811 g / cm^3
# Si number density = 26.648764 Si / 1000 Ang^3
#
#
#
# Elastic Constant Matrix: (Units=GPa)
#
#
# Indices 1 2 3 4 5 6 
#
# 1 127.7837 36.3821 36.4175 -7.0995 1.1962 -33.1934
# 2 36.3821 120.9169 21.1581 1.2317 8.0542 -0.6463
# 3 36.4175 21.1581 172.4867 -32.3711 34.9211 -10.4324
# 4 -7.0995 1.2317 -32.3711 43.3439 -19.5572 7.5855
# 5 1.1962 8.0542 34.9211 -19.5572 56.8718 -6.1941
# 6 -33.1934 -0.6463 -10.4324 7.5855 -6.1941 37.7699
#
#
#
# Elastic Compliance Matrix: (Units=1/GPa)
#
#
# Indices 1 2 3 4 5 6 
#
# 1 0.012043 -0.003381 -0.002041 -0.000116 0.002572 0.010407
# 2 -0.003381 0.009503 -0.000556 -0.001526 -0.001779 -0.002948
# 3 -0.002041 -0.000556 0.007670 0.004110 -0.003289 -0.001049
# 4 -0.000116 -0.001526 0.004110 0.030308 0.007702 -0.003817
# 5 0.002572 -0.001779 -0.003289 0.007702 0.022833 0.003519
# 6 0.010407 -0.002948 -0.001049 -0.003817 0.003519 0.036626
#
#
# Mechanical properties :
#
#
# Convention : Reuss Voigt Hill
#
# Bulk Modulus (GPa) = 57.93883 67.67808 62.80846
# Shear Modulus (GPa) = 36.57832 49.41243 42.99538
#
# Velocity S-wave (km/s) = 3.70889 4.31073 4.02108
# Velocity P-wave (km/s) = 6.33483 7.08717 6.72153
#
# Compressibility (1/GPa) = 0.01725958
#
# Stress axis : x y z
#
# Youngs Moduli (GPa) = 83.03662 105.22935 130.37011
#
# Poissons Ratio (x) = 0.35577 0.26610
# Poissons Ratio (y) = 0.28074 0.07254
# Poissons Ratio (z) = 0.16948 0.05855
#
# Static dielectric constant tensor:
#      x y z
#    x 1.995250 -0.040820 -0.188220 
#    y -0.040820 1.957130 -0.088270 
#    z -0.188220 -0.088270 1.844420 
# 
# From -- ./inp_files/409265.got.cif
#   From: 2010.05.17/outbox.cif.g08.bks.cpg/sg2_205_cif.got.tgz:409265.got - 2010.06.03 11:33:40.
