data_PCOD9006466
_publ_section_title
;
Structure prediction by ZEFSAII (Michael W. Deem and Ramdas Pophale) SiO2 
 PCOD9006466
Probable space group: P -1
;
_chemical_formula_sum "Si O2"
_cell_formula_units_Z 14
_cell_length_a 10.265567
_cell_length_b 9.900658
_cell_length_c 16.760999
_cell_angle_alpha 152.125526
_cell_angle_beta 59.722101
_cell_angle_gamma 117.187301
_cell_volume 687.546888
_symmetry_space_group_name_H-M "P -1"
_symmetry_group_IT_number 2
_symmetry_cell_setting 'triclinic'
loop_
_space_group_symop_operation_xyz
x,y,z
-x,-y,-z
loop_
_atom_site_type_symbol
_atom_site_label
_atom_site_fract_x
_atom_site_fract_y
_atom_site_fract_z
Si Si1 0.834129 0.888256 0.375017
Si Si2 0.596243 0.840514 0.977886
Si Si3 0.403263 0.954084 0.587366
Si Si4 0.277106 0.724831 0.945927
Si Si5 0.179550 0.915027 0.242903
Si Si6 0.342538 0.713421 0.238344
Si Si7 0.420542 0.380383 0.383093
O O1 0.783075 0.553523 0.228429
O O2 0.012673 0.921844 0.332409
O O3 0.761029 0.969851 0.354337
O O4 0.762549 0.088344 0.569511
O O5 0.716162 0.977828 0.950654
O O6 0.522633 0.119428 0.185598
O O7 0.452251 0.688907 0.898894
O O8 0.662858 0.611226 0.897222
O O9 0.407790 0.635240 0.456011
O O10 0.500000 0.000000 0.500000
O O11 0.487782 0.159139 0.732848
O O12 0.184985 0.764920 0.076507
O O13 0.286318 0.749433 0.185136
O O14 0.258496 0.230925 0.373539
O O15 0.500000 0.500000 0.500000
#
# Coordination Sequence:
#
# PCOD9006466 Si02
#       7
#     2   2   2   2   2   2   2
#     4  11  23  41  66  91 129 170 209 250 317 381
#     4  10  22  39  66  95 120 161 217 262 303 369
#     4  10  21  38  66  91 118 166 210 247 307 372
#     4  10  22  40  66  89 128 164 209 258 311 369
#     4  11  25  40  64  93 133 162 207 262 318 363
#     4  11  22  41  67  94 123 167 211 259 309 368
#     4  11  23  41  64  97 126 159 210 267 312 361
#
# _framework density 20.362247
#
# number of rings (size 3 to 8) (size 9 to 14) (size 15 to 20)
#    0.000    1.429    2.857    2.571   10.000    4.000 
#    0.000    0.714    0.000    0.000    0.000    0.000 
#    0.000    0.000    0.000    0.000    0.000    0.000 
#
# Total GULP energy -78242.958852 kJ/mol
# GULP energy per Si atom -5588.782775 kJ/mol
# Density = 2.031590 g / cm^3
# Si number density = 20.362247 Si / 1000 Ang^3
#
#
#
# Elastic Constant Matrix: (Units=GPa)
#
#
# Indices 1 2 3 4 5 6 
#
# 1 63.5102 24.5467 11.4819 13.0128 3.3661 -3.0173
# 2 24.5467 102.8544 33.1434 35.4811 -4.2071 -4.7918
# 3 11.4819 33.1434 71.1558 22.8447 6.4079 6.7846
# 4 13.0128 35.4811 22.8447 42.1519 -7.6262 -7.2520
# 5 3.3661 -4.2071 6.4079 -7.6262 14.4509 8.6176
# 6 -3.0173 -4.7918 6.7846 -7.2520 8.6176 24.4197
#
#
#
# Elastic Compliance Matrix: (Units=1/GPa)
#
#
# Indices 1 2 3 4 5 6 
#
# 1 0.018544 -0.003313 0.000508 -0.004386 -0.010058 0.003747
# 2 -0.003313 0.014955 -0.003637 -0.009247 0.001757 0.000169
# 3 0.000508 -0.003637 0.021274 -0.012031 -0.013826 -0.005255
# 4 -0.004386 -0.009247 -0.012031 0.044689 0.023742 0.005879
# 5 -0.010058 0.001757 -0.013826 0.023742 0.107345 -0.027888
# 6 0.003747 0.000169 -0.005255 0.005879 -0.027888 0.054494
#
#
# Mechanical properties :
#
#
# Convention : Reuss Voigt Hill
#
# Bulk Modulus (GPa) = 23.87247 41.76270 32.81758
# Shear Modulus (GPa) = 17.35214 27.42773 22.38994
#
# Velocity S-wave (km/s) = 2.92237 3.67412 3.31959
# Velocity P-wave (km/s) = 4.81002 6.20913 5.55381
#
# Compressibility (1/GPa) = 0.04188926
#
# Stress axis : x y z
#
# Youngs Moduli (GPa) = 53.92573 66.86839 47.00481
#
# Poissons Ratio (x) = 0.22153 -0.02386
# Poissons Ratio (y) = 0.17865 0.17094
# Poissons Ratio (z) = -0.02737 0.24317
#
# Static dielectric constant tensor:
#      x y z
#    x 1.723600 -0.007930 0.018820 
#    y -0.007930 1.756620 -0.013630 
#    z 0.018820 -0.013630 1.750100 
# 
# From -- ./inp_files/509161.got.cif
#   From: 2010.05.17/outbox.cif.g08.bks.cpg/sg2_255_cif.got.tgz:509161.got - 2010.06.03 11:33:40.
