data_PCOD9006528
_publ_section_title
;
Structure prediction by ZEFSAII (Michael W. Deem and Ramdas Pophale) SiO2 
 PCOD9006528
Probable space group: P -1
;
_chemical_formula_sum "Si O2"
_cell_formula_units_Z 16
_cell_length_a 11.996278
_cell_length_b 6.192974
_cell_length_c 30.293744
_cell_angle_alpha 90.716048
_cell_angle_beta 161.108778
_cell_angle_gamma 85.494674
_cell_volume 712.981505
_symmetry_space_group_name_H-M "P -1"
_symmetry_group_IT_number 2
_symmetry_cell_setting 'triclinic'
loop_
_space_group_symop_operation_xyz
x,y,z
-x,-y,-z
loop_
_atom_site_type_symbol
_atom_site_label
_atom_site_fract_x
_atom_site_fract_y
_atom_site_fract_z
Si Si1 0.705593 0.263304 0.346171
Si Si2 0.188523 0.838039 0.295587
Si Si3 0.630718 0.725934 0.033863
Si Si4 0.896726 0.640778 0.370780
Si Si5 0.724934 0.121197 0.186674
Si Si6 0.413098 0.876191 0.603566
Si Si7 0.771059 0.625082 0.579034
Si Si8 0.371909 0.060415 0.147400
O O1 0.821601 0.492794 0.382487
O O2 0.534672 0.223373 0.328363
O O3 0.431491 0.251964 0.203485
O O4 0.075592 0.083044 0.480988
O O5 0.553774 0.758373 0.457708
O O6 0.029928 0.688095 0.201437
O O7 0.255969 0.046330 0.293135
O O8 0.905655 0.896032 0.229167
O O9 0.500000 0.500000 0.000000
O O10 0.541285 0.744440 0.948496
O O11 0.500000 0.000000 0.000000
O O12 0.269370 0.708644 0.517525
O O13 0.911919 0.529751 0.328401
O O14 0.598247 0.854856 0.257608
O O15 0.545273 0.089681 0.165354
O O16 0.056308 0.232215 0.322097
O O17 0.500000 0.500000 0.500000
O O18 0.000000 0.000000 0.000000
#
# Coordination Sequence:
#
# PCOD9006528 Si02
#       8
#     2   2   2   2   2   2   2   2
#     4  10  21  42  61  94 133 171 221 283 336 409
#     4  11  22  41  68 102 134 176 225 281 353 421
#     4  10  24  45  66  97 144 186 229 283 350 424
#     4  11  21  41  64  97 132 170 228 289 340 408
#     4  11  23  44  65  98 141 175 223 289 345 416
#     4  10  21  38  66  95 134 169 219 279 349 409
#     4  12  21  36  68 102 133 169 218 283 350 415
#     4  11  25  43  64  90 131 180 229 278 341 416
#
# _framework density 22.440975000000002
#
# number of rings (size 3 to 8) (size 9 to 14) (size 15 to 20)
#    0.000    1.250    2.500    3.750    1.750    2.500 
#    0.000    2.500    0.000    0.000    0.000    0.000 
#    0.000    0.000    0.000    0.000    0.000    0.000 
#
# Total GULP energy -89208.700128 kJ/mol
# GULP energy per Si atom -5575.543758 kJ/mol
# Density = 2.238990 g / cm^3
# Si number density = 22.440975 Si / 1000 Ang^3
#
#
#
# Elastic Constant Matrix: (Units=GPa)
#
#
# Indices 1 2 3 4 5 6 
#
# 1 102.4633 29.5036 23.3385 10.7614 -8.6256 34.5847
# 2 29.5036 74.9845 24.3169 18.3933 -8.2071 27.9324
# 3 23.3385 24.3169 122.1000 36.3163 -20.3121 12.3456
# 4 10.7614 18.3933 36.3163 27.6851 4.0389 7.9266
# 5 -8.6256 -8.2071 -20.3121 4.0389 33.8580 2.9743
# 6 34.5847 27.9324 12.3456 7.9266 2.9743 35.7442
#
#
#
# Elastic Compliance Matrix: (Units=1/GPa)
#
#
# Indices 1 2 3 4 5 6 
#
# 1 0.015634 0.001407 0.000801 -0.004443 0.006747 -0.016079
# 2 0.001407 0.024546 0.004797 -0.019649 0.013194 -0.018940
# 3 0.000801 0.004797 0.019334 -0.029611 0.017029 -0.006052
# 4 -0.004443 -0.019649 -0.029611 0.091342 -0.035662 0.012593
# 5 0.006747 0.013194 0.017029 -0.035662 0.050594 -0.019022
# 6 -0.016079 -0.018940 -0.006052 0.012593 -0.019022 0.059215
#
#
# Mechanical properties :
#
#
# Convention : Reuss Voigt Hill
#
# Bulk Modulus (GPa) = 13.60118 50.42955 32.01537
# Shear Modulus (GPa) = 18.43914 34.28338 26.36126
#
# Velocity S-wave (km/s) = 2.86959 3.91284 3.43110
# Velocity P-wave (km/s) = 4.12958 6.55245 5.47668
#
# Compressibility (1/GPa) = 0.07352303
#
# Stress axis : x y z
#
# Youngs Moduli (GPa) = 63.96403 40.73947 51.72323
#
# Poissons Ratio (x) = -0.05731 -0.04145
# Poissons Ratio (y) = -0.08998 -0.24810
# Poissons Ratio (z) = -0.05126 -0.19541
#
# Static dielectric constant tensor:
#      x y z
#    x 1.791440 -0.023410 -0.005220 
#    y -0.023410 1.961100 0.011550 
#    z -0.005220 0.011550 1.899960 
# 
# From -- ./inp_files/70771.got.cif
#   From: 2010.05.17/outbox.cif.g08.bks.cpg/sg2_36_cif.got.tgz:70771.got - 2010.06.03 11:33:40.
