data_PCOD9006988
_publ_section_title
;
Structure prediction by ZEFSAII (Michael W. Deem and Ramdas Pophale) SiO2 
 PCOD9006988
Probable space group: P -1
;
_chemical_formula_sum "Si O2"
_cell_formula_units_Z 14
_cell_length_a 10.410504
_cell_length_b 15.890914
_cell_length_c 9.515871
_cell_angle_alpha 105.524617
_cell_angle_beta 48.303573
_cell_angle_gamma 143.487622
_cell_volume 559.023392
_symmetry_space_group_name_H-M "P -1"
_symmetry_group_IT_number 2
_symmetry_cell_setting 'triclinic'
loop_
_space_group_symop_operation_xyz
x,y,z
-x,-y,-z
loop_
_atom_site_type_symbol
_atom_site_label
_atom_site_fract_x
_atom_site_fract_y
_atom_site_fract_z
Si Si1 0.094651 0.067189 0.303543
Si Si2 0.153684 0.757904 0.925006
Si Si3 0.384043 0.185607 0.869160
Si Si4 0.234738 0.318035 0.041006
Si Si5 0.192603 0.424581 0.619814
Si Si6 0.337244 0.691112 0.561044
Si Si7 0.898662 0.166193 0.490301
O O1 0.161735 0.200095 0.329113
O O2 0.369727 0.149636 0.026618
O O3 0.000000 0.000000 0.500000
O O4 0.728726 0.886992 0.412776
O O5 0.114800 0.657199 0.805436
O O6 0.878620 0.706144 0.042644
O O7 0.528997 0.969171 0.727788
O O8 0.085887 0.699523 0.105841
O O9 0.664800 0.283200 0.591159
O O10 0.401495 0.297289 0.910602
O O11 0.000000 0.000000 0.000000
O O12 0.901492 0.177513 0.324828
O O13 0.500000 0.500000 0.000000
O O14 0.500000 0.500000 0.500000
O O15 0.275956 0.561903 0.580047
O O16 0.041534 0.307890 0.541941
#
# Coordination Sequence:
#
# PCOD9006988 Si02
#       7
#     2   2   2   2   2   2   2
#     4   9  18  34  59  89 122 158 198 245 302 367
#     4  11  24  42  62  87 126 166 203 259 313 365
#     4   9  19  37  60  87 121 158 201 247 301 374
#     4  11  22  41  65  90 120 162 209 253 306 372
#     4  12  23  40  65  92 123 163 208 257 307 366
#     4  10  21  39  58  88 123 159 203 252 306 361
#     4  10  22  39  60  91 123 158 205 251 307 369
#
# _framework density 25.043673999999999
#
# number of rings (size 3 to 8) (size 9 to 14) (size 15 to 20)
#    0.000    1.714    0.000    5.571    0.000    2.286 
#    0.000    7.143    0.000    0.000    0.000    0.000 
#    0.000    0.000    0.000    0.000    0.000    0.000 
#
# Total GULP energy -78231.945636 kJ/mol
# GULP energy per Si atom -5587.996117 kJ/mol
# Density = 2.498667 g / cm^3
# Si number density = 25.043674 Si / 1000 Ang^3
#
#
#
# Elastic Constant Matrix: (Units=GPa)
#
#
# Indices 1 2 3 4 5 6 
#
# 1 76.0697 1.5018 27.1189 8.8753 27.6303 10.9207
# 2 1.5018 103.2281 10.0334 7.9467 -2.6622 -16.4833
# 3 27.1189 10.0334 126.0565 17.5099 42.2009 13.1439
# 4 8.8753 7.9467 17.5099 35.8075 14.7132 7.3405
# 5 27.6303 -2.6622 42.2009 14.7132 40.0357 7.1861
# 6 10.9207 -16.4833 13.1439 7.3405 7.1861 34.1619
#
#
#
# Elastic Compliance Matrix: (Units=1/GPa)
#
#
# Indices 1 2 3 4 5 6 
#
# 1 0.018180 -0.001565 0.000954 0.001855 -0.013533 -0.004486
# 2 -0.001565 0.011473 -0.002206 -0.004350 0.004535 0.006866
# 3 0.000954 -0.002206 0.012858 0.000379 -0.013873 -0.003480
# 4 0.001855 -0.004350 0.000379 0.035396 -0.013617 -0.007579
# 5 -0.013533 0.004535 -0.013873 -0.013617 0.053619 0.003499
# 6 -0.004486 0.006866 -0.003480 -0.007579 0.003499 0.036251
#
#
# Mechanical properties :
#
#
# Convention : Reuss Voigt Hill
#
# Bulk Modulus (GPa) = 27.11851 42.51805 34.81828
# Shear Modulus (GPa) = 26.92483 39.78103 33.35293
#
# Velocity S-wave (km/s) = 3.28245 3.98988 3.65333
# Velocity P-wave (km/s) = 5.02175 6.18385 5.63285
#
# Compressibility (1/GPa) = 0.03687518
#
# Stress axis : x y z
#
# Youngs Moduli (GPa) = 55.00667 87.16387 77.77319
#
# Poissons Ratio (x) = 0.13644 -0.07421
# Poissons Ratio (y) = 0.08610 0.17159
# Poissons Ratio (z) = -0.05248 0.19231
#
# Static dielectric constant tensor:
#      x y z
#    x 2.065960 0.001890 0.000130 
#    y 0.001890 1.904880 0.001940 
#    z 0.000130 0.001940 2.132740 
# 
# From -- ./inp_files/156663.got.cif
#   From: 2010.05.17/outbox.cif.g08.bks.cpg/sg2_79_cif.got.tgz:156663.got - 2010.06.03 11:33:40.
