data_PCOD9006721
_publ_section_title
;
Structure prediction by ZEFSAII (Michael W. Deem and Ramdas Pophale) SiO2 
 PCOD9006721
Probable space group: P -1
;
_chemical_formula_sum "Si O2"
_cell_formula_units_Z 14
_cell_length_a 9.431037
_cell_length_b 10.108969
_cell_length_c 9.421461
_cell_angle_alpha 92.581108
_cell_angle_beta 47.120587
_cell_angle_gamma 74.314496
_cell_volume 599.383372
_symmetry_space_group_name_H-M "P -1"
_symmetry_group_IT_number 2
_symmetry_cell_setting 'triclinic'
loop_
_space_group_symop_operation_xyz
x,y,z
-x,-y,-z
loop_
_atom_site_type_symbol
_atom_site_label
_atom_site_fract_x
_atom_site_fract_y
_atom_site_fract_z
Si Si1 0.687401 0.932392 0.482630
Si Si2 0.611762 0.899292 0.067489
Si Si3 0.555971 0.699586 0.875838
Si Si4 0.351007 0.635590 0.751402
Si Si5 0.955486 0.085324 0.183018
Si Si6 0.195943 0.396276 0.568677
Si Si7 0.250110 0.415833 0.988374
O O1 0.787117 0.759075 0.394687
O O2 0.500000 0.000000 0.500000
O O3 0.847492 0.007568 0.353143
O O4 0.569744 0.979424 0.714305
O O5 0.536557 0.846790 0.973489
O O6 0.827486 0.919014 0.904167
O O7 0.686257 0.750328 0.106282
O O8 0.371376 0.714942 0.891388
O O9 0.764612 0.628588 0.629657
O O10 0.592228 0.600329 0.986469
O O11 0.203984 0.751953 0.745531
O O12 0.595478 0.577070 0.531497
O O13 0.273797 0.516459 0.855153
O O14 0.000000 0.000000 0.000000
O O15 0.982236 0.516611 0.780583
#
# Coordination Sequence:
#
# PCOD9006721 Si02
#       7
#     2   2   2   2   2   2   2
#     4  12  22  43  63  87 129 169 204 252 311 366
#     4  10  25  41  62  95 130 153 208 268 295 359
#     4   8  21  43  61  93 127 155 206 260 300 366
#     4  10  21  38  68  90 119 171 200 245 321 370
#     4  12  23  42  64  88 126 170 207 248 313 370
#     4  10  21  39  68  90 120 169 203 246 314 372
#     4  10  21  41  65  93 127 156 206 259 306 363
#
# _framework density 23.357337000000001
#
# number of rings (size 3 to 8) (size 9 to 14) (size 15 to 20)
#    1.714    0.000    2.857    1.714    0.000    2.286 
#    2.571    2.143    0.000    0.000    0.000    0.000 
#    0.000    0.000    0.000    0.000    0.000    0.000 
#
# Total GULP energy -78196.371253 kJ/mol
# GULP energy per Si atom -5585.455090 kJ/mol
# Density = 2.330417 g / cm^3
# Si number density = 23.357337 Si / 1000 Ang^3
#
#
#
# Elastic Constant Matrix: (Units=GPa)
#
#
# Indices 1 2 3 4 5 6 
#
# 1 78.1329 -0.1133 23.3269 -1.5774 -7.2361 11.0201
# 2 -0.1133 85.2718 8.1922 -16.6657 -13.1578 -2.8333
# 3 23.3269 8.1922 76.4089 -9.2632 1.1658 -4.5043
# 4 -1.5774 -16.6657 -9.2632 41.4520 4.5569 -6.0948
# 5 -7.2361 -13.1578 1.1658 4.5569 40.3336 -9.0481
# 6 11.0201 -2.8333 -4.5043 -6.0948 -9.0481 32.3416
#
#
#
# Elastic Compliance Matrix: (Units=1/GPa)
#
#
# Indices 1 2 3 4 5 6 
#
# 1 0.015315 0.000338 -0.005257 -0.001499 0.001907 -0.005670
# 2 0.000338 0.013671 -0.000805 0.005297 0.004681 0.003278
# 3 -0.005257 -0.000805 0.015494 0.003688 -0.001114 0.004262
# 4 -0.001499 0.005297 0.003688 0.028038 -0.000316 0.006684
# 5 0.001907 0.004681 -0.001114 -0.000316 0.028411 0.007494
# 6 -0.005670 0.003278 0.004262 0.006684 0.007494 0.037089
#
#
# Mechanical properties :
#
#
# Convention : Reuss Voigt Hill
#
# Bulk Modulus (GPa) = 30.27284 33.62501 31.94893
# Shear Modulus (GPa) = 31.15713 36.71930 33.93822
#
# Velocity S-wave (km/s) = 3.65627 3.96923 3.81596
# Velocity P-wave (km/s) = 5.55097 5.95261 5.75529
#
# Compressibility (1/GPa) = 0.03303291
#
# Stress axis : x y z
#
# Youngs Moduli (GPa) = 65.29675 73.14523 64.54120
#
# Poissons Ratio (x) = -0.02474 0.33928
# Poissons Ratio (y) = -0.02209 0.05196
# Poissons Ratio (z) = 0.34325 0.05889
#
# Static dielectric constant tensor:
#      x y z
#    x 1.891630 -0.057500 0.047010 
#    y -0.057500 1.912110 0.001090 
#    z 0.047010 0.001090 1.856390 
# 
# From -- ./inp_files/179694.got.cif
#   From: 2010.05.17/outbox.cif.g08.bks.cpg/sg2_90_cif.got.tgz:179694.got - 2010.06.03 11:33:40.
