data_PCOD9006429
_publ_section_title
;
Structure prediction by ZEFSAII (Michael W. Deem and Ramdas Pophale) SiO2 
 PCOD9006429
Probable space group: P -1
;
_chemical_formula_sum "Si O2"
_cell_formula_units_Z 14
_cell_length_a 8.473668
_cell_length_b 20.545091
_cell_length_c 6.107315
_cell_angle_alpha 95.962072
_cell_angle_beta 79.091915
_cell_angle_gamma 39.150935
_cell_volume 602.901279
_symmetry_space_group_name_H-M "P -1"
_symmetry_group_IT_number 2
_symmetry_cell_setting 'triclinic'
loop_
_space_group_symop_operation_xyz
x,y,z
-x,-y,-z
loop_
_atom_site_type_symbol
_atom_site_label
_atom_site_fract_x
_atom_site_fract_y
_atom_site_fract_z
Si Si1 0.855670 0.148715 0.673332
Si Si2 0.494936 0.323466 0.178387
Si Si3 0.190208 0.300880 0.325402
Si Si4 0.612296 0.867245 0.084753
Si Si5 0.656048 0.090559 0.421121
Si Si6 0.398672 0.509821 0.279483
Si Si7 0.926872 0.885290 0.810280
O O1 0.757524 0.119175 0.546497
O O2 0.015400 0.145793 0.473856
O O3 0.598089 0.268273 0.892181
O O4 0.078709 0.042541 0.742782
O O5 0.235322 0.363333 0.313561
O O6 0.450684 0.414772 0.237021
O O7 0.762103 0.214241 0.214301
O O8 0.206925 0.255645 0.077343
O O9 0.470285 0.180594 0.314002
O O10 0.929648 0.369797 0.565550
O O11 0.782076 0.873790 0.967374
O O12 0.545000 0.884711 0.362567
O O13 0.302607 0.980826 0.101851
O O14 0.500000 0.500000 0.500000
O O15 0.500000 0.500000 0.000000
#
# Coordination Sequence:
#
# PCOD9006429 Si02
#       7
#     2   2   2   2   2   2   2
#     4  10  21  38  66 108 148 186 232 293 361 438
#     4  12  25  44  72 102 139 192 242 305 360 437
#     4  12  25  44  72 102 139 192 242 305 360 437
#     4  10  22  39  64 102 148 187 231 289 362 433
#     4  10  21  38  66 108 148 186 232 293 361 438
#     4  12  33  56  79 106 142 190 250 316 375 432
#     4  10  22  39  64 102 148 187 231 289 362 433
#
# _framework density 23.221050000000002
#
# number of rings (size 3 to 8) (size 9 to 14) (size 15 to 20)
#    0.000    1.143    2.857    2.143    8.000    1.143 
#    0.000    6.429    0.000    0.000    0.000    0.000 
#    0.000    0.000    0.000    0.000    0.000    0.000 
#
# Total GULP energy -78045.808050 kJ/mol
# GULP energy per Si atom -5574.700575 kJ/mol
# Density = 2.316820 g / cm^3
# Si number density = 23.221050 Si / 1000 Ang^3
#
#
#
# Elastic Constant Matrix: (Units=GPa)
#
#
# Indices 1 2 3 4 5 6 
#
# 1 68.0950 22.8876 37.3450 -0.0991 -11.5862 16.7986
# 2 22.8876 58.1916 17.2196 10.5688 4.0866 16.8314
# 3 37.3450 17.2196 69.9196 9.2780 -14.1049 13.6794
# 4 -0.0991 10.5688 9.2780 38.3030 6.9964 -5.0954
# 5 -11.5862 4.0866 -14.1049 6.9964 36.8528 1.3140
# 6 16.7986 16.8314 13.6794 -5.0954 1.3140 33.5028
#
#
#
# Elastic Compliance Matrix: (Units=1/GPa)
#
#
# Indices 1 2 3 4 5 6 
#
# 1 0.024005 -0.005896 -0.009997 0.002746 0.004022 -0.004733
# 2 -0.005896 0.024050 -0.000452 -0.007326 -0.002948 -0.009940
# 3 -0.009997 -0.000452 0.023437 -0.007729 0.007552 -0.005802
# 4 0.002746 -0.007326 -0.007729 0.032886 -0.007910 0.010771
# 5 0.004022 -0.002948 0.007552 -0.007910 0.033337 -0.006130
# 6 -0.004733 -0.009940 -0.005802 0.010771 -0.006130 0.041463
#
#
# Mechanical properties :
#
#
# Convention : Reuss Voigt Hill
#
# Bulk Modulus (GPa) = 25.77077 39.01230 32.39154
# Shear Modulus (GPa) = 22.24191 29.64865 25.94528
#
# Velocity S-wave (km/s) = 3.09825 3.57711 3.34626
# Velocity P-wave (km/s) = 4.89091 5.82219 5.37675
#
# Compressibility (1/GPa) = 0.03880365
#
# Stress axis : x y z
#
# Youngs Moduli (GPa) = 41.65741 41.58028 42.66784
#
# Poissons Ratio (x) = 0.24515 0.42653
# Poissons Ratio (y) = 0.24560 0.01928
# Poissons Ratio (z) = 0.41643 0.01879
#
# Static dielectric constant tensor:
#      x y z
#    x 2.047870 -0.013270 0.126810 
#    y -0.013270 1.858540 -0.039050 
#    z 0.126810 -0.039050 2.018910 
# 
# From -- ./inp_files/53023.got.cif
#   From: 2010.05.17/outbox.cif.g08.bks.cpg/sg2_27_cif.got.tgz:53023.got - 2010.06.03 11:33:40.
