data_PCOD9006060
_publ_section_title
;
Structure prediction by ZEFSAII (Michael W. Deem and Ramdas Pophale) SiO2 
 PCOD9006060
Probable space group: P -1
;
_chemical_formula_sum "Si O2"
_cell_formula_units_Z 15
_cell_length_a 5.942972
_cell_length_b 9.198921
_cell_length_c 15.331191
_cell_angle_alpha 59.760038
_cell_angle_beta 71.437858
_cell_angle_gamma 54.794047
_cell_volume 591.177020
_symmetry_space_group_name_H-M "P -1"
_symmetry_group_IT_number 2
_symmetry_cell_setting 'triclinic'
loop_
_space_group_symop_operation_xyz
x,y,z
-x,-y,-z
loop_
_atom_site_type_symbol
_atom_site_label
_atom_site_fract_x
_atom_site_fract_y
_atom_site_fract_z
Si Si1 0.764075 0.687770 0.351342
Si Si2 0.536513 0.678341 0.198348
Si Si3 0.115788 0.013343 0.573407
Si Si4 0.288365 0.335419 0.053182
Si Si5 0.694824 0.680651 0.553129
Si Si6 0.500000 0.000000 0.000000
Si Si7 0.952132 0.986188 0.229480
Si Si8 0.529091 0.419172 0.137901
O O1 0.647604 0.643795 0.292753
O O2 0.625472 0.671015 0.462877
O O3 0.090161 0.528643 0.371413
O O4 0.751767 0.895252 0.283172
O O5 0.561777 0.487944 0.208289
O O6 0.212564 0.844213 0.182785
O O7 0.663948 0.785371 0.094176
O O8 0.424625 0.826344 0.595883
O O9 0.960436 0.018914 0.678917
O O10 0.135694 0.206685 0.509165
O O11 0.000000 0.000000 0.500000
O O12 0.296267 0.375530 0.143686
O O13 0.404170 0.117453 0.071852
O O14 0.500989 0.395622 0.967477
O O15 0.000000 0.500000 0.000000
O O16 0.799502 0.208873 0.151424
#
# Coordination Sequence:
#
# PCOD9006060 Si02
#       8
#     2   2   2   2   2   1   2   2
#     4  10  22  41  63  93 132 174 217 270 330 383
#     4  11  24  42  65  95 131 174 217 272 327 387
#     4  10  21  38  64  94 127 173 214 266 330 381
#     4  10  21  42  65  88 122 167 207 265 323 379
#     4   9  21  40  61  93 132 169 220 269 320 398
#     4  10  22  42  66  94 126 170 216 258 332 382
#     4  11  24  40  62  96 129 168 220 270 318 389
#     4  10  24  39  59  96 124 156 222 261 315 385
#
# _framework density 25.373107999999998
#
# number of rings (size 3 to 8) (size 9 to 14) (size 15 to 20)
#    0.000    1.867    0.000    2.400    3.733    3.200 
#    0.000   10.000    0.000    0.000    0.000    0.000 
#    0.000    0.000    0.000    0.000    0.000    0.000 
#
# Total GULP energy -83567.116790 kJ/mol
# GULP energy per Si atom -5571.141119 kJ/mol
# Density = 2.531536 g / cm^3
# Si number density = 25.373108 Si / 1000 Ang^3
#
#
#
# Elastic Constant Matrix: (Units=GPa)
#
#
# Indices 1 2 3 4 5 6 
#
# 1 56.0098 46.0601 14.5225 5.6796 30.5825 27.4279
# 2 46.0601 177.4187 22.0337 -16.1171 15.7955 22.2647
# 3 14.5225 22.0337 76.3706 -16.8877 16.4504 22.1063
# 4 5.6796 -16.1171 -16.8877 45.7398 11.7152 10.5887
# 5 30.5825 15.7955 16.4504 11.7152 40.2592 15.2603
# 6 27.4279 22.2647 22.1063 10.5887 15.2603 45.8943
#
#
#
# Elastic Compliance Matrix: (Units=1/GPa)
#
#
# Indices 1 2 3 4 5 6 
#
# 1 0.047937 -0.007545 0.006647 0.006181 -0.030600 -0.019441
# 2 -0.007545 0.007801 -0.000459 0.003077 0.002144 -0.000477
# 3 0.006647 -0.000459 0.021247 0.013025 -0.012473 -0.012841
# 4 0.006181 0.003077 0.013025 0.034317 -0.015865 -0.014103
# 5 -0.030600 0.002144 -0.012473 -0.015865 0.053496 0.009128
# 6 -0.019441 -0.000477 -0.012841 -0.014103 0.009128 0.040043
#
#
# Mechanical properties :
#
#
# Convention : Reuss Voigt Hill
#
# Bulk Modulus (GPa) = 13.46438 52.78130 33.12284
# Shear Modulus (GPa) = 21.52276 41.52419 31.52347
#
# Velocity S-wave (km/s) = 2.91563 4.04981 3.52859
# Velocity P-wave (km/s) = 4.08076 6.53568 5.44829
#
# Compressibility (1/GPa) = 0.07427006
#
# Stress axis : x y z
#
# Youngs Moduli (GPa) = 20.86063 128.19312 47.06654
#
# Poissons Ratio (x) = 0.96722 -0.31284
# Poissons Ratio (y) = 0.15739 0.02161
# Poissons Ratio (z) = -0.13866 0.05885
#
# Static dielectric constant tensor:
#      x y z
#    x 2.149650 0.034140 0.005870 
#    y 0.034140 2.012500 0.139330 
#    z 0.005870 0.139330 2.135780 
# 
# From -- ./inp_files/138029.got.cif
#   From: 2010.05.17/outbox.cif.g08.bks.cpg/sg2_70_cif.got.tgz:138029.got - 2010.06.03 11:33:40.
