data_PCOD9006179
_publ_section_title
;
Structure prediction by ZEFSAII (Michael W. Deem and Ramdas Pophale) SiO2 
 PCOD9006179
Probable space group: P -1
;
_chemical_formula_sum "Si O2"
_cell_formula_units_Z 13
_cell_length_a 7.664962
_cell_length_b 10.263662
_cell_length_c 8.564136
_cell_angle_alpha 86.844943
_cell_angle_beta 127.297616
_cell_angle_gamma 83.373019
_cell_volume 525.682581
_symmetry_space_group_name_H-M "P -1"
_symmetry_group_IT_number 2
_symmetry_cell_setting 'triclinic'
loop_
_space_group_symop_operation_xyz
x,y,z
-x,-y,-z
loop_
_atom_site_type_symbol
_atom_site_label
_atom_site_fract_x
_atom_site_fract_y
_atom_site_fract_z
Si Si1 0.687412 0.466666 0.735510
Si Si2 0.076575 0.272569 0.802724
Si Si3 0.534882 0.350752 0.964792
Si Si4 0.048656 0.837683 0.733136
Si Si5 0.236698 0.909899 0.437028
Si Si6 0.000000 0.000000 0.000000
Si Si7 0.723218 0.756314 0.782020
O O1 0.500000 0.500000 0.500000
O O2 0.627236 0.365786 0.839112
O O3 0.701332 0.606160 0.815289
O O4 0.912985 0.401037 0.773662
O O5 0.300232 0.301198 0.845847
O O6 0.925975 0.196156 0.621761
O O7 0.149979 0.185551 0.008368
O O8 0.500000 0.500000 0.000000
O O9 0.719533 0.256051 0.177617
O O10 0.886730 0.746322 0.724616
O O11 0.118709 0.921576 0.911810
O O12 0.870032 0.952806 0.545155
O O13 0.217106 0.942297 0.239992
O O14 0.485892 0.845106 0.618344
#
# Coordination Sequence:
#
# PCOD9006179 Si02
#       7
#     2   2   2   2   2   1   2
#     4  12  25  44  70 101 134 183 233 281 342 409
#     4  12  23  44  69  98 142 178 224 287 345 406
#     4  12  25  43  71 102 138 184 230 280 349 410
#     4  10  21  40  68 100 131 182 228 276 340 407
#     4  10  21  38  65 103 129 175 234 274 337 411
#     4   8  18  38  66  94 136 166 234 266 332 408
#     4  12  20  40  71  93 137 181 224 283 339 404
#
# _framework density 24.729752000000001
#
# number of rings (size 3 to 8) (size 9 to 14) (size 15 to 20)
#    0.923    0.000    6.154    1.846    0.000    1.231 
#    0.000    0.769    0.000    0.000    0.000    0.000 
#    0.000    0.000    0.000    0.000    0.000    0.000 
#
# Total GULP energy -72454.932181 kJ/mol
# GULP energy per Si atom -5573.456322 kJ/mol
# Density = 2.467347 g / cm^3
# Si number density = 24.729752 Si / 1000 Ang^3
#
#
#
# Elastic Constant Matrix: (Units=GPa)
#
#
# Indices 1 2 3 4 5 6 
#
# 1 97.7574 22.5001 25.0486 -10.7567 38.9357 12.8039
# 2 22.5001 93.3098 33.0626 -16.8154 34.3286 -17.8953
# 3 25.0486 33.0626 158.7397 -20.2444 51.3033 -11.6161
# 4 -10.7567 -16.8154 -20.2444 38.7715 -6.7169 13.8325
# 5 38.9357 34.3286 51.3033 -6.7169 49.1357 0.2617
# 6 12.8039 -17.8953 -11.6161 13.8325 0.2617 42.5440
#
#
#
# Elastic Compliance Matrix: (Units=1/GPa)
#
#
# Indices 1 2 3 4 5 6 
#
# 1 0.017201 0.000739 0.002630 0.005799 -0.016068 -0.005934
# 2 0.000739 0.016823 0.001734 0.003842 -0.013657 0.006162
# 3 0.002630 0.001734 0.010637 0.004062 -0.013855 0.001607
# 4 0.005799 0.003842 0.004062 0.033519 -0.006887 -0.009876
# 5 -0.016068 -0.013657 -0.013855 -0.006887 0.056166 -0.002798
# 6 -0.005934 0.006162 0.001607 -0.009876 -0.002798 0.031550
#
#
# Mechanical properties :
#
#
# Convention : Reuss Voigt Hill
#
# Bulk Modulus (GPa) = 18.22576 56.78107 37.50341
# Shear Modulus (GPa) = 28.73929 44.03659 36.38794
#
# Velocity S-wave (km/s) = 3.41271 4.22443 3.84008
# Velocity P-wave (km/s) = 4.78693 6.84141 5.90422
#
# Compressibility (1/GPa) = 0.05486741
#
# Stress axis : x y z
#
# Youngs Moduli (GPa) = 58.13778 59.44224 94.01198
#
# Poissons Ratio (x) = -0.04391 -0.24728
# Poissons Ratio (y) = -0.04295 -0.16305
# Poissons Ratio (z) = -0.15292 -0.10309
#
# Static dielectric constant tensor:
#      x y z
#    x 2.007100 -0.032580 -0.067210 
#    y -0.032580 1.860210 -0.060620 
#    z -0.067210 -0.060620 2.012040 
# 
# From -- ./inp_files/387456.got.cif
#   From: 2010.05.17/outbox.cif.g08.bks.cpg/sg2_194_cif.got.tgz:387456.got - 2010.06.03 11:33:40.
