data_PCOD9006218
_publ_section_title
;
Structure prediction by ZEFSAII (Michael W. Deem and Ramdas Pophale) SiO2 
 PCOD9006218
Probable space group: P -1
;
_chemical_formula_sum "Si O2"
_cell_formula_units_Z 16
_cell_length_a 8.849081
_cell_length_b 15.976321
_cell_length_c 9.798724
_cell_angle_alpha 61.539856
_cell_angle_beta 123.618280
_cell_angle_gamma 83.093072
_cell_volume 863.396077
_symmetry_space_group_name_H-M "P -1"
_symmetry_group_IT_number 2
_symmetry_cell_setting 'triclinic'
loop_
_space_group_symop_operation_xyz
x,y,z
-x,-y,-z
loop_
_atom_site_type_symbol
_atom_site_label
_atom_site_fract_x
_atom_site_fract_y
_atom_site_fract_z
Si Si1 0.071464 0.428534 0.727850
Si Si2 0.182056 0.996940 0.502409
Si Si3 0.060340 0.749470 0.133301
Si Si4 0.426155 0.756637 0.483234
Si Si5 0.939422 0.243364 0.199553
Si Si6 0.440725 0.749472 0.823492
Si Si7 0.094091 0.405907 0.233778
Si Si8 0.175934 0.003062 0.176585
O O1 0.980467 0.346750 0.765316
O O2 0.000000 0.500000 0.500000
O O3 0.975154 0.524846 0.717435
O O4 0.326029 0.346747 0.938099
O O5 0.393208 0.875920 0.723272
O O6 0.125854 0.000001 0.312927
O O7 0.000000 0.000000 0.500000
O O8 0.148012 0.117829 0.417694
O O9 0.248230 0.746570 0.318134
O O10 0.105369 0.737888 0.000933
O O11 0.854959 0.875917 0.954150
O O12 0.418861 0.737889 0.657678
O O13 0.654366 0.669618 0.604440
O O14 0.383671 0.882174 0.348145
O O15 0.741364 0.253430 0.176663
O O16 0.993591 0.330385 0.219536
O O17 0.000000 0.500000 0.000000
O O18 0.000000 0.000000 0.000000
#
# Coordination Sequence:
#
# PCOD9006218 Si02
#       8
#     2   2   2   2   2   2   2   2
#     4  12  28  43  57  83 119 158 204 247 281 342
#     4   8  16  33  59  90 116 144 187 235 290 351
#     4  10  21  40  63  89 119 153 193 240 294 346
#     4  10  21  38  65  90 118 154 189 240 296 346
#     4  10  21  38  65  90 118 154 189 240 296 346
#     4  10  21  40  63  89 119 153 193 240 294 346
#     4  12  24  43  57  83 121 154 204 244 281 344
#     4   8  16  33  59  90 116 144 187 235 290 351
#
# _framework density 18.531472000000001
#
# number of rings (size 3 to 8) (size 9 to 14) (size 15 to 20)
#    0.000    2.000    2.500    0.000    3.500    3.000 
#    0.000    3.750    0.000    1.500    0.000    0.000 
#    0.000    0.000    0.000    0.000    0.000    0.000 
#
# Total GULP energy -89126.311527 kJ/mol
# GULP energy per Si atom -5570.394470 kJ/mol
# Density = 1.848929 g / cm^3
# Si number density = 18.531472 Si / 1000 Ang^3
#
#
#
# Elastic Constant Matrix: (Units=GPa)
#
#
# Indices 1 2 3 4 5 6 
#
# 1 99.7256 81.5221 75.4267 -10.6710 0.8199 0.3292
# 2 81.5221 183.9878 85.7975 -21.2037 -6.6706 1.0814
# 3 75.4267 85.7975 140.5722 -23.2504 -4.3451 -8.8012
# 4 -10.6710 -21.2037 -23.2504 29.9773 -3.0525 3.3087
# 5 0.8199 -6.6706 -4.3451 -3.0525 32.5396 -6.8780
# 6 0.3292 1.0814 -8.8012 3.3087 -6.8780 37.4747
#
#
#
# Elastic Compliance Matrix: (Units=1/GPa)
#
#
# Indices 1 2 3 4 5 6 
#
# 1 0.020846 -0.005794 -0.008466 -0.003354 -0.003661 -0.002380
# 2 -0.005794 0.009425 -0.002083 0.003259 0.001971 -0.000636
# 3 -0.008466 -0.002083 0.014323 0.006548 0.003049 0.003480
# 4 -0.003354 0.003259 0.006548 0.040198 0.005159 -0.001129
# 5 -0.003661 0.001971 0.003049 0.005159 0.033467 0.006378
# 6 -0.002380 -0.000636 0.003480 -0.001129 0.006378 0.028812
#
#
# Mechanical properties :
#
#
# Convention : Reuss Voigt Hill
#
# Bulk Modulus (GPa) = 83.98227 101.08645 92.53436
# Shear Modulus (GPa) = 27.21431 32.10095 29.65763
#
# Velocity S-wave (km/s) = 3.83632 4.16653 4.00483
# Velocity P-wave (km/s) = 8.06475 8.82120 8.45144
#
# Compressibility (1/GPa) = 0.01190728
#
# Stress axis : x y z
#
# Youngs Moduli (GPa) = 47.97039 106.10480 69.81760
#
# Poissons Ratio (x) = 0.61477 0.59108
# Poissons Ratio (y) = 0.27794 0.14545
# Poissons Ratio (z) = 0.40612 0.22105
#
# Static dielectric constant tensor:
#      x y z
#    x 1.617330 0.012880 0.002310 
#    y 0.012880 1.642260 -0.034540 
#    z 0.002310 -0.034540 1.642270 
# 
# From -- ./inp_files/178773.got.cif
#   From: 2010.05.17/outbox.cif.g08.bks.cpg/sg2_90_cif.got.tgz:178773.got - 2010.06.03 11:33:40.
