data_PCOD9006211
_publ_section_title
;
Structure prediction by ZEFSAII (Michael W. Deem and Ramdas Pophale) SiO2 
 PCOD9006211
Probable space group: P -1
;
_chemical_formula_sum "Si O2"
_cell_formula_units_Z 14
_cell_length_a 28.333486
_cell_length_b 15.689835
_cell_length_c 14.900886
_cell_angle_alpha 18.668610
_cell_angle_beta 161.044107
_cell_angle_gamma 162.703533
_cell_volume 568.199316
_symmetry_space_group_name_H-M "P -1"
_symmetry_group_IT_number 2
_symmetry_cell_setting 'triclinic'
loop_
_space_group_symop_operation_xyz
x,y,z
-x,-y,-z
loop_
_atom_site_type_symbol
_atom_site_label
_atom_site_fract_x
_atom_site_fract_y
_atom_site_fract_z
Si Si1 0.084372 0.909919 0.134685
Si Si2 0.381671 0.916697 0.112584
Si Si3 0.879300 0.197558 0.508831
Si Si4 0.444882 0.490237 0.767441
Si Si5 0.979330 0.337584 0.933211
Si Si6 0.781546 0.658920 0.321075
Si Si7 0.547233 0.797380 0.226938
O O1 0.203168 0.964810 0.380609
O O2 0.092669 0.827802 0.129442
O O3 0.918808 0.550236 0.226553
O O4 0.045583 0.180732 0.804803
O O5 0.474836 0.755331 0.484545
O O6 0.188635 0.609407 0.042007
O O7 0.364758 0.140384 0.929207
O O8 0.493635 0.170286 0.980584
O O9 0.758025 0.996191 0.409098
O O10 0.311324 0.468344 0.623074
O O11 0.623266 0.586247 0.042584
O O12 0.873439 0.488364 0.621968
O O13 0.925527 0.041777 0.197013
O O14 0.500000 0.500000 0.500000
O O15 0.500000 0.000000 0.000000
#
# Coordination Sequence:
#
# PCOD9006211 Si02
#       7
#     2   2   2   2   2   2   2
#     4  10  21  38  65  89 126 169 215 275 329 389
#     4  12  26  44  73 104 141 185 228 298 347 417
#     4  10  21  40  61  89 125 173 218 266 329 388
#     4  11  26  49  70 100 146 183 232 278 365 424
#     4  12  24  41  74 108 139 175 242 289 348 407
#     4  11  26  46  72 103 138 188 228 294 342 428
#     4  12  26  42  66  96 136 179 226 274 341 411
#
# _framework density 24.639241999999999
#
# number of rings (size 3 to 8) (size 9 to 14) (size 15 to 20)
#    0.000    0.857    1.429    5.143    2.000    9.143 
#    0.000    0.000    0.000    0.000    0.000    0.000 
#    0.000    0.000    0.000    0.000    0.000    0.000 
#
# Total GULP energy -78214.493140 kJ/mol
# GULP energy per Si atom -5586.749510 kJ/mol
# Density = 2.458316 g / cm^3
# Si number density = 24.639242 Si / 1000 Ang^3
#
#
#
# Elastic Constant Matrix: (Units=GPa)
#
#
# Indices 1 2 3 4 5 6 
#
# 1 84.4876 20.7570 28.7811 -15.1228 -2.7949 -1.4797
# 2 20.7570 71.6609 18.1917 -19.3273 -6.8519 -0.6440
# 3 28.7811 18.1917 98.6372 -37.0574 9.6174 -8.7201
# 4 -15.1228 -19.3273 -37.0574 37.1284 2.1537 -7.2518
# 5 -2.7949 -6.8519 9.6174 2.1537 44.3103 -5.4294
# 6 -1.4797 -0.6440 -8.7201 -7.2518 -5.4294 25.0760
#
#
#
# Elastic Compliance Matrix: (Units=1/GPa)
#
#
# Indices 1 2 3 4 5 6 
#
# 1 0.013847 -0.002847 -0.003324 0.000787 0.001124 0.000059
# 2 -0.002847 0.017367 0.001631 0.010217 0.002179 0.004272
# 3 -0.003324 0.001631 0.021154 0.023401 -0.004083 0.013085
# 4 0.000787 0.010217 0.023401 0.061081 -0.003307 0.025395
# 5 0.001124 0.002179 -0.004083 -0.003307 0.024394 0.003028
# 6 0.000059 0.004272 0.013085 0.025395 0.003028 0.052542
#
#
# Mechanical properties :
#
#
# Convention : Reuss Voigt Hill
#
# Bulk Modulus (GPa) = 23.10051 43.36058 33.23055
# Shear Modulus (GPa) = 23.37609 33.77335 28.57472
#
# Velocity S-wave (km/s) = 3.08349 3.70633 3.40917
# Velocity P-wave (km/s) = 4.69820 5.99602 5.38634
#
# Compressibility (1/GPa) = 0.04328908
#
# Stress axis : x y z
#
# Youngs Moduli (GPa) = 72.21863 57.57889 47.27262
#
# Poissons Ratio (x) = 0.16392 0.15714
# Poissons Ratio (y) = 0.20560 -0.07712
# Poissons Ratio (z) = 0.24007 -0.09394
#
# Static dielectric constant tensor:
#      x y z
#    x 2.015550 -0.001360 -0.080330 
#    y -0.001360 2.056220 0.075210 
#    z -0.080330 0.075210 1.974650 
# 
# From -- ./inp_files/544230.got.cif
#   From: 2010.05.17/outbox.cif.g08.bks.cpg/sg2_273_cif.got.tgz:544230.got - 2010.06.03 11:33:40.
