data_PCOD9006136
_publ_section_title
;
Structure prediction by ZEFSAII (Michael W. Deem and Ramdas Pophale) SiO2 
 PCOD9006136
Probable space group: P -1
;
_chemical_formula_sum "Si O2"
_cell_formula_units_Z 12
_cell_length_a 10.893549
_cell_length_b 8.782661
_cell_length_c 7.570048
_cell_angle_alpha 69.719953
_cell_angle_beta 91.818559
_cell_angle_gamma 134.398241
_cell_volume 460.772663
_symmetry_space_group_name_H-M "P -1"
_symmetry_group_IT_number 2
_symmetry_cell_setting 'triclinic'
loop_
_space_group_symop_operation_xyz
x,y,z
-x,-y,-z
loop_
_atom_site_type_symbol
_atom_site_label
_atom_site_fract_x
_atom_site_fract_y
_atom_site_fract_z
Si Si1 0.417143 0.815093 0.855902
Si Si2 0.502210 0.638243 0.210297
Si Si3 0.809500 0.307128 0.805955
Si Si4 0.454587 0.231098 0.441125
Si Si5 0.031019 0.835533 0.615562
Si Si6 0.926015 0.102595 0.005280
O O1 0.423744 0.768517 0.672773
O O2 0.615367 0.086279 0.792619
O O3 0.411798 0.654793 0.048376
O O4 0.255373 0.758261 0.961117
O O5 0.454909 0.406701 0.279931
O O6 0.471081 0.664012 0.400881
O O7 0.713436 0.864863 0.103208
O O8 0.938772 0.274269 0.813523
O O9 0.903847 0.565927 0.647897
O O10 0.240134 0.986131 0.532339
O O11 0.998857 0.793297 0.839850
O O12 0.000000 0.000000 0.500000
O O13 0.000000 0.000000 0.000000
#
# Coordination Sequence:
#
# PCOD9006136 Si02
#       6
#     2   2   2   2   2   2
#     4  10  21  40  69  90 127 180 214 269 334 383
#     4   9  20  39  64  97 132 162 229 269 316 404
#     4  10  23  43  66  97 133 167 229 267 319 407
#     4  10  21  38  64  98 130 172 214 271 334 383
#     4  11  24  40  65  99 135 166 217 280 324 391
#     4  10  23  42  67  92 128 180 215 266 334 386
#
# _framework density 26.043212
#
# number of rings (size 3 to 8) (size 9 to 14) (size 15 to 20)
#    0.000    2.000    0.000    2.000    7.000    0.667 
#    0.000   13.333    0.000    0.000    0.000    0.000 
#    0.000    0.000    0.000    0.000    0.000    0.000 
#
# Total GULP energy -67105.036764 kJ/mol
# GULP energy per Si atom -5592.086397 kJ/mol
# Density = 2.598394 g / cm^3
# Si number density = 26.043212 Si / 1000 Ang^3
#
#
#
# Elastic Constant Matrix: (Units=GPa)
#
#
# Indices 1 2 3 4 5 6 
#
# 1 100.6585 29.6486 27.7300 -9.2389 10.9057 -37.0630
# 2 29.6486 104.4226 43.6742 -35.0638 -8.2080 -9.4888
# 3 27.7300 43.6742 81.7227 -3.8016 6.4238 -27.1436
# 4 -9.2389 -35.0638 -3.8016 52.4951 -25.6779 -1.0654
# 5 10.9057 -8.2080 6.4238 -25.6779 48.6584 -6.8421
# 6 -37.0630 -9.4888 -27.1436 -1.0654 -6.8421 41.5690
#
#
#
# Elastic Compliance Matrix: (Units=1/GPa)
#
#
# Indices 1 2 3 4 5 6 
#
# 1 0.016301 -0.005344 0.002197 -0.002241 -0.004056 0.014024
# 2 -0.005344 0.027495 -0.014581 0.026724 0.021327 -0.003814
# 3 0.002197 -0.014581 0.023479 -0.012889 -0.011196 0.011789
# 4 -0.002241 0.026724 -0.012889 0.052708 0.034918 0.002784
# 5 -0.004056 0.021327 -0.011196 0.034918 0.045285 0.002290
# 6 0.014024 -0.003814 0.011789 0.002784 0.002290 0.043835
#
#
# Mechanical properties :
#
#
# Convention : Reuss Voigt Hill
#
# Bulk Modulus (GPa) = 31.42680 54.32327 42.87503
# Shear Modulus (GPa) = 19.59506 40.92792 30.26149
#
# Velocity S-wave (km/s) = 2.74598 3.96856 3.41247
# Velocity P-wave (km/s) = 4.70608 6.47329 5.65910
#
# Compressibility (1/GPa) = 0.03181998
#
# Stress axis : x y z
#
# Youngs Moduli (GPa) = 61.34734 36.36963 42.59063
#
# Poissons Ratio (x) = 0.19436 -0.09358
# Poissons Ratio (y) = 0.32785 0.62101
# Poissons Ratio (z) = -0.13480 0.53030
#
# Static dielectric constant tensor:
#      x y z
#    x 2.163100 -0.112560 -0.025430 
#    y -0.112560 2.126730 -0.007900 
#    z -0.025430 -0.007900 2.050990 
# 
# From -- ./inp_files/237667.got.cif
#   From: 2010.05.17/outbox.cif.g08.bks.cpg/sg2_119_cif.got.tgz:237667.got - 2010.06.03 11:33:40.
