data_PCOD9006512
_publ_section_title
;
Structure prediction by ZEFSAII (Michael W. Deem and Ramdas Pophale) SiO2 
 PCOD9006512
Probable space group: P -1
;
_chemical_formula_sum "Si O2"
_cell_formula_units_Z 16
_cell_length_a 15.238517
_cell_length_b 11.746905
_cell_length_c 8.590060
_cell_angle_alpha 74.818335
_cell_angle_beta 113.477518
_cell_angle_gamma 149.445689
_cell_volume 706.017034
_symmetry_space_group_name_H-M "P -1"
_symmetry_group_IT_number 2
_symmetry_cell_setting 'triclinic'
loop_
_space_group_symop_operation_xyz
x,y,z
-x,-y,-z
loop_
_atom_site_type_symbol
_atom_site_label
_atom_site_fract_x
_atom_site_fract_y
_atom_site_fract_z
Si Si1 0.354104 0.564511 0.233621
Si Si2 0.496562 0.354579 0.366026
Si Si3 0.974766 0.049603 0.120832
Si Si4 0.867342 0.996694 0.583203
Si Si5 0.981637 0.363399 0.432227
Si Si6 0.402401 0.954667 0.802251
Si Si7 0.352014 0.259026 0.803419
Si Si8 0.621129 0.230306 0.431880
O O1 0.397471 0.533620 0.431267
O O2 0.136895 0.318393 0.141927
O O3 0.452852 0.794617 0.249435
O O4 0.468982 0.632600 0.144070
O O5 0.576601 0.532495 0.239362
O O6 0.522424 0.250646 0.360184
O O7 0.290123 0.166866 0.337983
O O8 0.010032 0.987485 0.301565
O O9 0.775262 0.891648 0.081502
O O10 0.000000 0.000000 0.000000
O O11 0.962169 0.224513 0.570591
O O12 0.774892 0.894412 0.384670
O O13 0.000000 0.500000 0.500000
O O14 0.178552 0.553764 0.421876
O O15 0.793714 0.184701 0.266271
O O16 0.356980 0.796383 0.716322
O O17 0.500000 0.000000 0.000000
O O18 0.500000 0.000000 0.500000
#
# Coordination Sequence:
#
# PCOD9006512 Si02
#       8
#     2   2   2   2   2   2   2   2
#     4  11  22  43  67  95 134 170 228 278 332 406
#     4  11  19  38  71  99 125 169 234 279 320 396
#     4  12  27  41  62 103 141 173 215 279 351 410
#     4  11  20  41  65  96 127 171 230 273 324 408
#     4  10  21  38  66  94 127 178 234 276 326 406
#     4  11  24  44  66  97 136 178 224 288 350 396
#     4  11  22  40  71  94 123 176 224 269 333 393
#     4  11  22  39  66  97 131 180 231 278 331 403
#
# _framework density 22.662341999999999
#
# number of rings (size 3 to 8) (size 9 to 14) (size 15 to 20)
#    0.000    1.000    6.250    2.625    1.750    3.500 
#    2.250    0.625    0.000    0.000    0.000    0.000 
#    0.000    0.000    0.000    0.000    0.000    0.000 
#
# Total GULP energy -89378.430349 kJ/mol
# GULP energy per Si atom -5586.151897 kJ/mol
# Density = 2.261076 g / cm^3
# Si number density = 22.662342 Si / 1000 Ang^3
#
#
#
# Elastic Constant Matrix: (Units=GPa)
#
#
# Indices 1 2 3 4 5 6 
#
# 1 120.2983 46.3243 3.4452 2.4615 -4.1648 1.5186
# 2 46.3243 157.7321 15.4815 10.8659 -0.5224 7.6163
# 3 3.4452 15.4815 50.6931 8.9096 2.0838 12.3296
# 4 2.4615 10.8659 8.9096 19.4067 0.1018 -2.6423
# 5 -4.1648 -0.5224 2.0838 0.1018 27.5665 -4.9075
# 6 1.5186 7.6163 12.3296 -2.6423 -4.9075 51.7750
#
#
#
# Elastic Compliance Matrix: (Units=1/GPa)
#
#
# Indices 1 2 3 4 5 6 
#
# 1 0.009431 -0.002808 0.000018 0.000399 0.001420 0.000287
# 2 -0.002808 0.007570 -0.001279 -0.003420 -0.000338 -0.000933
# 3 0.000018 -0.001279 0.023700 -0.011008 -0.002893 -0.006292
# 4 0.000399 -0.003420 -0.011008 0.059296 0.001731 0.006303
# 5 0.001420 -0.000338 -0.002893 0.001731 0.037468 0.004337
# 6 0.000287 -0.000933 -0.006292 0.006303 0.004337 0.021674
#
#
# Mechanical properties :
#
#
# Convention : Reuss Voigt Hill
#
# Bulk Modulus (GPa) = 30.70985 51.02504 40.86745
# Shear Modulus (GPa) = 28.06921 37.31450 32.69186
#
# Velocity S-wave (km/s) = 3.52317 4.06216 3.80223
# Velocity P-wave (km/s) = 5.48915 6.67576 6.11132
#
# Compressibility (1/GPa) = 0.03256284
#
# Stress axis : x y z
#
# Youngs Moduli (GPa) = 106.03446 132.10577 42.19414
#
# Poissons Ratio (x) = 0.37098 -0.00077
# Poissons Ratio (y) = 0.29777 0.05396
# Poissons Ratio (z) = -0.00194 0.16895
#
# Static dielectric constant tensor:
#      x y z
#    x 1.900010 0.049270 0.011810 
#    y 0.049270 1.910750 0.073600 
#    z 0.011810 0.073600 1.975110 
# 
# From -- ./inp_files/307391.got.cif
#   From: 2010.05.17/outbox.cif.g08.bks.cpg/sg2_154_cif.got.tgz:307391.got - 2010.06.03 11:33:40.
