data_PCOD9006115
_publ_section_title
;
Structure prediction by ZEFSAII (Michael W. Deem and Ramdas Pophale) SiO2 
 PCOD9006115
Probable space group: P -1
;
_chemical_formula_sum "Si O2"
_cell_formula_units_Z 14
_cell_length_a 22.678529
_cell_length_b 13.304288
_cell_length_c 10.677042
_cell_angle_alpha 148.337889
_cell_angle_beta 31.086315
_cell_angle_gamma 160.591938
_cell_volume 534.719191
_symmetry_space_group_name_H-M "P -1"
_symmetry_group_IT_number 2
_symmetry_cell_setting 'triclinic'
loop_
_space_group_symop_operation_xyz
x,y,z
-x,-y,-z
loop_
_atom_site_type_symbol
_atom_site_label
_atom_site_fract_x
_atom_site_fract_y
_atom_site_fract_z
Si Si1 0.593105 0.471483 0.506582
Si Si2 0.047636 0.792122 0.860398
Si Si3 0.477352 0.175651 0.954443
Si Si4 0.051268 0.553516 0.108471
Si Si5 0.414310 0.598468 0.274152
Si Si6 0.694572 0.165574 0.706081
Si Si7 0.976629 0.874102 0.635219
O O1 0.552281 0.316765 0.551016
O O2 0.489597 0.198889 0.304770
O O3 0.518249 0.590766 0.774346
O O4 0.815314 0.786522 0.422920
O O5 0.058289 0.758613 0.953460
O O6 0.843501 0.449199 0.830748
O O7 0.192004 0.854384 0.590493
O O8 0.072241 0.051401 0.081473
O O9 0.498132 0.180103 0.770841
O O10 0.630351 0.254138 0.829535
O O11 0.273278 0.835395 0.005615
O O12 0.993146 0.670356 0.410362
O O13 0.000000 0.500000 0.000000
O O14 0.192430 0.323220 0.363612
O O15 0.500000 0.500000 0.000000
#
# Coordination Sequence:
#
# PCOD9006115 Si02
#       7
#     2   2   2   2   2   2   2
#     4  10  23  39  66  97 135 173 221 275 332 394
#     4  11  26  45  69  96 138 177 224 275 328 397
#     4  10  23  42  65  98 132 175 222 275 332 394
#     4  11  27  42  68 105 134 172 222 276 337 398
#     4  10  21  38  64  97 133 174 216 270 335 391
#     4  11  25  46  68  98 131 183 228 268 327 398
#     4  11  24  43  66  98 136 176 214 279 337 389
#
# _framework density 26.181965999999999
#
# number of rings (size 3 to 8) (size 9 to 14) (size 15 to 20)
#    0.000    1.429    0.000    3.857   12.000    4.000 
#    0.000    6.429    0.000    0.000    0.000    0.000 
#    0.000    0.000    0.000    0.000    0.000    0.000 
#
# Total GULP energy -78420.747759 kJ/mol
# GULP energy per Si atom -5601.481983 kJ/mol
# Density = 2.612237 g / cm^3
# Si number density = 26.181966 Si / 1000 Ang^3
#
#
#
# Elastic Constant Matrix: (Units=GPa)
#
#
# Indices 1 2 3 4 5 6 
#
# 1 54.0249 10.6807 29.0137 -12.8408 -12.4366 1.4069
# 2 10.6807 114.9467 25.5802 -9.6443 -12.5724 14.6410
# 3 29.0137 25.5802 159.0679 -4.3644 -30.8379 5.9757
# 4 -12.8408 -9.6443 -4.3644 44.3949 6.7927 -3.6566
# 5 -12.4366 -12.5724 -30.8379 6.7927 27.7707 -1.0709
# 6 1.4069 14.6410 5.9757 -3.6566 -1.0709 41.4828
#
#
#
# Elastic Compliance Matrix: (Units=1/GPa)
#
#
# Indices 1 2 3 4 5 6 
#
# 1 0.022665 -0.000475 -0.002870 0.005372 0.005451 0.000426
# 2 -0.000475 0.009733 -0.000759 0.001195 0.002938 -0.003128
# 3 -0.002870 -0.000759 0.008499 -0.001469 0.008138 -0.000779
# 4 0.005372 0.001195 -0.001469 0.025060 -0.004749 0.001694
# 5 0.005451 0.002938 0.008138 -0.004749 0.049920 -0.001524
# 6 0.000426 -0.003128 -0.000779 0.001694 -0.001524 0.025418
#
#
# Mechanical properties :
#
#
# Convention : Reuss Voigt Hill
#
# Bulk Modulus (GPa) = 30.58960 50.95429 40.77195
# Shear Modulus (GPa) = 31.17237 40.24734 35.70986
#
# Velocity S-wave (km/s) = 3.45426 3.92499 3.69712
# Velocity P-wave (km/s) = 5.25528 6.32808 5.81647
#
# Compressibility (1/GPa) = 0.03269084
#
# Stress axis : x y z
#
# Youngs Moduli (GPa) = 44.11999 102.74581 117.66563
#
# Poissons Ratio (x) = 0.04879 0.33765
# Poissons Ratio (y) = 0.02095 0.08926
# Poissons Ratio (z) = 0.12661 0.07794
#
# Static dielectric constant tensor:
#      x y z
#    x 2.037440 0.005490 0.031590 
#    y 0.005490 2.029600 -0.014000 
#    z 0.031590 -0.014000 2.055460 
# 
# From -- ./inp_files/475201.got.cif
#   From: 2010.05.17/outbox.cif.g08.bks.cpg/sg2_238_cif.got.tgz:475201.got - 2010.06.03 11:33:40.
