data_PCOD9006793
_publ_section_title
;
Structure prediction by ZEFSAII (Michael W. Deem and Ramdas Pophale) SiO2 
 PCOD9006793
Probable space group: P -1
;
_chemical_formula_sum "Si O2"
_cell_formula_units_Z 16
_cell_length_a 17.431495
_cell_length_b 8.283044
_cell_length_c 17.066374
_cell_angle_alpha 45.181383
_cell_angle_beta 147.494364
_cell_angle_gamma 147.751401
_cell_volume 706.276324
_symmetry_space_group_name_H-M "P -1"
_symmetry_group_IT_number 2
_symmetry_cell_setting 'triclinic'
loop_
_space_group_symop_operation_xyz
x,y,z
-x,-y,-z
loop_
_atom_site_type_symbol
_atom_site_label
_atom_site_fract_x
_atom_site_fract_y
_atom_site_fract_z
Si Si1 0.398876 0.560799 0.533211
Si Si2 0.699533 0.505976 0.829166
Si Si3 0.144064 0.681052 0.491081
Si Si4 0.488755 0.079560 0.330442
Si Si5 0.281994 0.690664 0.924224
Si Si6 0.980243 0.907742 0.197631
Si Si7 0.016760 0.250400 0.380015
Si Si8 0.804476 0.166458 0.960772
O O1 0.507413 0.436942 0.664222
O O2 0.463297 0.722407 0.619346
O O3 0.173124 0.352132 0.415242
O O4 0.463182 0.799931 0.439203
O O5 0.688395 0.234368 0.883321
O O6 0.728792 0.497226 0.948995
O O7 0.879447 0.831760 0.835922
O O8 0.347476 0.777173 0.642656
O O9 0.089087 0.502519 0.422423
O O10 0.000000 0.500000 0.500000
O O11 0.126581 0.928965 0.372093
O O12 0.303551 0.982569 0.162986
O O13 0.177274 0.436212 0.852445
O O14 0.160796 0.798451 0.791426
O O15 0.500000 0.000000 0.000000
O O16 0.861296 0.985987 0.107378
O O17 0.000000 0.000000 0.500000
O O18 0.000000 0.500000 0.000000
#
# Coordination Sequence:
#
# PCOD9006793 Si02
#       8
#     2   2   2   2   2   2   2   2
#     4  10  21  38  69  91 124 166 223 270 322 378
#     4  11  22  41  64  98 129 172 219 268 335 387
#     4  10  22  42  66  90 123 171 216 265 330 387
#     4  10  21  40  63  95 122 169 216 268 321 387
#     4  11  24  40  67  96 131 174 219 269 332 395
#     4  10  22  44  64  94 129 170 223 271 327 391
#     4  10  23  40  60  98 130 163 215 271 326 386
#     4  10  24  39  60  96 136 166 215 262 332 389
#
# _framework density 22.654024
#
# number of rings (size 3 to 8) (size 9 to 14) (size 15 to 20)
#    0.000    1.750    1.250    1.875    5.250    5.500 
#    2.250    1.250    0.000    0.000    0.000    0.000 
#    0.000    0.000    0.000    0.000    0.000    0.000 
#
# Total GULP energy -89209.729896 kJ/mol
# GULP energy per Si atom -5575.608118 kJ/mol
# Density = 2.260246 g / cm^3
# Si number density = 22.654024 Si / 1000 Ang^3
#
#
#
# Elastic Constant Matrix: (Units=GPa)
#
#
# Indices 1 2 3 4 5 6 
#
# 1 64.6584 15.9098 15.6490 0.1797 31.8415 10.5931
# 2 15.9098 61.1641 22.6075 3.4348 20.9089 8.7900
# 3 15.6490 22.6075 116.7274 1.2417 46.2030 -0.9798
# 4 0.1797 3.4348 1.2417 44.9077 -7.0175 7.6916
# 5 31.8415 20.9089 46.2030 -7.0175 45.9411 -5.4155
# 6 10.5931 8.7900 -0.9798 7.6916 -5.4155 33.5612
#
#
#
# Elastic Compliance Matrix: (Units=1/GPa)
#
#
# Indices 1 2 3 4 5 6 
#
# 1 0.032448 0.002660 0.008890 -0.003384 -0.034991 -0.015550
# 2 0.002660 0.021332 0.000942 -0.002447 -0.013825 -0.008069
# 3 0.008890 0.000942 0.017063 -0.003490 -0.024966 -0.005783
# 4 -0.003384 -0.002447 -0.003490 0.024600 0.010450 -0.002345
# 5 -0.034991 -0.013825 -0.024966 0.010450 0.081935 0.024763
# 6 -0.015550 -0.008069 -0.005783 -0.002345 0.024763 0.041182
#
#
# Mechanical properties :
#
#
# Convention : Reuss Voigt Hill
#
# Bulk Modulus (GPa) = 10.43517 38.98696 24.71106
# Shear Modulus (GPa) = 22.17108 37.44089 29.80599
#
# Velocity S-wave (km/s) = 3.13178 4.06978 3.63120
# Velocity P-wave (km/s) = 4.20639 6.27146 5.33971
#
# Compressibility (1/GPa) = 0.09582981
#
# Stress axis : x y z
#
# Youngs Moduli (GPa) = 30.81812 46.87693 58.60546
#
# Poissons Ratio (x) = -0.12470 -0.52102
# Poissons Ratio (y) = -0.08198 -0.05523
# Poissons Ratio (z) = -0.27398 -0.04417
#
# Static dielectric constant tensor:
#      x y z
#    x 1.737460 0.187040 -0.153610 
#    y 0.187040 1.675550 0.245460 
#    z -0.153610 0.245460 1.713580 
# 
# From -- ./inp_files/575508.got.cif
#   From: 2010.05.17/outbox.cif.g08.bks.cpg/sg2_288_cif.got.tgz:575508.got - 2010.06.03 11:33:40.
