data_PCOD9006841
_publ_section_title
;
Structure prediction by ZEFSAII (Michael W. Deem and Ramdas Pophale) SiO2 
 PCOD9006841
Probable space group: P -1
;
_chemical_formula_sum "Si O2"
_cell_formula_units_Z 12
_cell_length_a 11.359763
_cell_length_b 9.656821
_cell_length_c 9.621265
_cell_angle_alpha 119.287594
_cell_angle_beta 116.872357
_cell_angle_gamma 28.042381
_cell_volume 432.237490
_symmetry_space_group_name_H-M "P -1"
_symmetry_group_IT_number 2
_symmetry_cell_setting 'triclinic'
loop_
_space_group_symop_operation_xyz
x,y,z
-x,-y,-z
loop_
_atom_site_type_symbol
_atom_site_label
_atom_site_fract_x
_atom_site_fract_y
_atom_site_fract_z
Si Si1 0.192588 0.663873 0.407703
Si Si2 0.088384 0.588594 0.836199
Si Si3 0.789856 0.829415 0.169843
Si Si4 0.595880 0.220322 0.996841
Si Si5 0.295554 0.119031 0.545204
Si Si6 0.448969 0.637332 0.322842
O O1 0.368185 0.572063 0.344676
O O2 0.320155 0.513072 0.551310
O O3 0.028850 0.690602 0.272261
O O4 0.000000 0.000000 0.500000
O O5 0.355983 0.398067 0.875964
O O6 0.078869 0.467529 0.648477
O O7 0.855362 0.940705 0.913103
O O8 0.119215 0.444954 0.918515
O O9 0.617096 0.005873 0.306415
O O10 0.649768 0.047112 0.071869
O O11 0.470887 0.540480 0.857570
O O12 0.500000 0.000000 0.500000
O O13 0.254762 0.983008 0.395700
#
# Coordination Sequence:
#
# PCOD9006841 Si02
#       6
#     2   2   2   2   2   2
#     4  11  18  38  61 102 131 168 218 281 340 386
#     4  10  26  41  67 100 141 170 219 272 349 397
#     4  10  21  38  70  93 137 167 220 270 340 397
#     4  12  22  42  66 107 133 169 211 292 352 390
#     4  10  24  46  64  92 133 187 230 264 318 404
#     4  11  23  36  68  95 132 173 223 279 330 401
#
# _framework density 27.762516000000002
#
# number of rings (size 3 to 8) (size 9 to 14) (size 15 to 20)
#    1.000    0.333    3.333    3.000    2.333    0.000 
#    0.000    5.000    0.000    0.000    0.000    0.000 
#    0.000    0.000    0.000    0.000    0.000    0.000 
#
# Total GULP energy -67095.532690 kJ/mol
# GULP energy per Si atom -5591.294391 kJ/mol
# Density = 2.769933 g / cm^3
# Si number density = 27.762516 Si / 1000 Ang^3
#
#
#
# Elastic Constant Matrix: (Units=GPa)
#
#
# Indices 1 2 3 4 5 6 
#
# 1 146.9634 23.2259 24.1990 -3.1047 6.4053 6.7027
# 2 23.2259 146.5446 55.0364 38.5050 31.4675 10.4812
# 3 24.1990 55.0364 172.7575 22.9233 16.6727 -1.1809
# 4 -3.1047 38.5050 22.9233 52.5428 6.6707 10.2459
# 5 6.4053 31.4675 16.6727 6.6707 56.5872 3.9744
# 6 6.7027 10.4812 -1.1809 10.2459 3.9744 51.9969
#
#
#
# Elastic Compliance Matrix: (Units=1/GPa)
#
#
# Indices 1 2 3 4 5 6 
#
# 1 0.007237 -0.001243 -0.000880 0.001936 -0.000021 -0.001082
# 2 -0.001243 0.010296 -0.001877 -0.006177 -0.004275 -0.000414
# 3 -0.000880 -0.001877 0.006822 -0.001765 -0.000732 0.001050
# 4 0.001936 -0.006177 -0.001765 0.025102 0.001062 -0.004072
# 5 -0.000021 -0.004275 -0.000732 0.001062 0.020205 -0.000906
# 6 -0.001082 -0.000414 0.001050 -0.004072 -0.000906 0.020350
#
#
# Mechanical properties :
#
#
# Convention : Reuss Voigt Hill
#
# Bulk Modulus (GPa) = 61.14458 74.57645 67.86052
# Shear Modulus (GPa) = 48.32583 56.47900 52.40242
#
# Velocity S-wave (km/s) = 4.17668 4.51528 4.34928
# Velocity P-wave (km/s) = 6.73287 7.35556 7.05109
#
# Compressibility (1/GPa) = 0.01635468
#
# Stress axis : x y z
#
# Youngs Moduli (GPa) = 138.17900 97.12339 146.59336
#
# Poissons Ratio (x) = 0.12077 0.12899
# Poissons Ratio (y) = 0.17182 0.27510
# Poissons Ratio (z) = 0.12159 0.18226
#
# Static dielectric constant tensor:
#      x y z
#    x 2.151800 0.218490 -0.103820 
#    y 0.218490 1.882350 -0.063140 
#    z -0.103820 -0.063140 2.204660 
# 
# From -- ./inp_files/249963.got.cif
#   From: 2010.05.17/outbox.cif.g08.bks.cpg/sg2_125_cif.got.tgz:249963.got - 2010.06.03 11:33:40.
