data_PCOD9006228
_publ_section_title
;
Structure prediction by ZEFSAII (Michael W. Deem and Ramdas Pophale) SiO2 
 PCOD9006228
Probable space group: P -1
;
_chemical_formula_sum "Si O2"
_cell_formula_units_Z 12
_cell_length_a 9.209557
_cell_length_b 8.269977
_cell_length_c 20.422259
_cell_angle_alpha 132.583220
_cell_angle_beta 45.997044
_cell_angle_gamma 148.498507
_cell_volume 569.695041
_symmetry_space_group_name_H-M "P -1"
_symmetry_group_IT_number 2
_symmetry_cell_setting 'triclinic'
loop_
_space_group_symop_operation_xyz
x,y,z
-x,-y,-z
loop_
_atom_site_type_symbol
_atom_site_label
_atom_site_fract_x
_atom_site_fract_y
_atom_site_fract_z
Si Si1 0.891926 0.909725 0.082926
Si Si2 0.641270 0.355641 0.540985
Si Si3 0.824212 0.698814 0.716290
Si Si4 0.574978 0.805762 0.917538
Si Si5 0.374687 0.013889 0.714329
Si Si6 0.196046 0.989533 0.477528
O O1 0.664558 0.539470 0.069507
O O2 0.781953 0.057322 0.187540
O O3 0.151002 0.038301 0.082525
O O4 0.000000 0.000000 0.000000
O O5 0.733681 0.557948 0.632962
O O6 0.953293 0.619251 0.476988
O O7 0.500000 0.000000 0.500000
O O8 0.373722 0.243495 0.551216
O O9 0.677467 0.813591 0.814578
O O10 0.648991 0.391177 0.731939
O O11 0.156154 0.927055 0.700610
O O12 0.500000 0.000000 0.000000
O O13 0.534404 0.912112 0.618975
O O14 0.000000 0.000000 0.500000
#
# Coordination Sequence:
#
# PCOD9006228 Si02
#       6
#     2   2   2   2   2   2
#     4  10  21  40  67  93 123 170 214 251 312 389
#     4  12  24  41  70  92 124 169 224 256 298 397
#     4  10  21  38  65  98 118 167 222 255 306 377
#     4  10  21  40  67  92 132 158 202 275 321 359
#     4  10  21  38  65  90 128 169 213 256 311 382
#     4  12  26  42  63  93 138 168 203 268 330 358
#
# _framework density 21.063901999999999
#
# number of rings (size 3 to 8) (size 9 to 14) (size 15 to 20)
#    0.000    1.333    1.667    4.000    0.000    0.000 
#    3.000    0.000    0.000    0.000    0.000    0.000 
#    0.000    0.000    0.000    0.000    0.000    0.000 
#
# Total GULP energy -66817.658510 kJ/mol
# GULP energy per Si atom -5568.138209 kJ/mol
# Density = 2.101596 g / cm^3
# Si number density = 21.063902 Si / 1000 Ang^3
#
#
#
# Elastic Constant Matrix: (Units=GPa)
#
#
# Indices 1 2 3 4 5 6 
#
# 1 91.6989 35.6825 81.1355 -4.0479 -4.5176 18.2738
# 2 35.6825 145.2659 43.1216 -4.6667 2.4873 28.2858
# 3 81.1355 43.1216 207.6750 -12.5193 -1.0102 0.5296
# 4 -4.0479 -4.6667 -12.5193 30.2224 1.5464 0.4408
# 5 -4.5176 2.4873 -1.0102 1.5464 33.0119 1.6166
# 6 18.2738 28.2858 0.5296 0.4408 1.6166 32.3816
#
#
#
# Elastic Compliance Matrix: (Units=1/GPa)
#
#
# Indices 1 2 3 4 5 6 
#
# 1 0.020396 -0.000618 -0.007834 -0.000610 0.003165 -0.010992
# 2 -0.000618 0.008985 -0.001560 0.000792 -0.000481 -0.007461
# 3 -0.007834 -0.001560 0.008308 0.002124 -0.001078 0.005672
# 4 -0.000610 0.000792 0.002124 0.034103 -0.001638 -0.000765
# 5 0.003165 -0.000481 -0.001078 -0.001638 0.030946 -0.002871
# 6 -0.010992 -0.007461 0.005672 -0.000765 -0.002871 0.043663
#
#
# Mechanical properties :
#
#
# Convention : Reuss Voigt Hill
#
# Bulk Modulus (GPa) = 56.60429 84.94654 70.77542
# Shear Modulus (GPa) = 29.01683 38.10319 33.56001
#
# Velocity S-wave (km/s) = 3.71558 4.25777 3.99588
# Velocity P-wave (km/s) = 6.73338 8.03661 7.41368
#
# Compressibility (1/GPa) = 0.01766650
#
# Stress axis : x y z
#
# Youngs Moduli (GPa) = 49.02818 111.29305 120.36787
#
# Poissons Ratio (x) = 0.06880 0.94291
# Poissons Ratio (y) = 0.03031 0.18774
# Poissons Ratio (z) = 0.38407 0.17359
#
# Static dielectric constant tensor:
#      x y z
#    x 1.776690 -0.025470 -0.004390 
#    y -0.025470 1.750590 0.005510 
#    z -0.004390 0.005510 1.997940 
# 
# From -- ./inp_files/588105.got.cif
#   From: 2010.05.17/outbox.cif.g08.bks.cpg/sg2_295_cif.got.tgz:588105.got - 2010.06.03 11:33:40.
