data_PCOD9006544
_publ_section_title
;
Structure prediction by ZEFSAII (Michael W. Deem and Ramdas Pophale) SiO2 
 PCOD9006544
Probable space group: P -1
;
_chemical_formula_sum "Si O2"
_cell_formula_units_Z 14
_cell_length_a 14.377523
_cell_length_b 7.409523
_cell_length_c 20.863691
_cell_angle_alpha 134.559121
_cell_angle_beta 24.117328
_cell_angle_gamma 143.924257
_cell_volume 528.749710
_symmetry_space_group_name_H-M "P -1"
_symmetry_group_IT_number 2
_symmetry_cell_setting 'triclinic'
loop_
_space_group_symop_operation_xyz
x,y,z
-x,-y,-z
loop_
_atom_site_type_symbol
_atom_site_label
_atom_site_fract_x
_atom_site_fract_y
_atom_site_fract_z
Si Si1 0.196231 0.286278 0.666530
Si Si2 0.280292 0.215094 0.219332
Si Si3 0.807659 0.296944 0.314436
Si Si4 0.318093 0.767315 0.293871
Si Si5 0.273931 0.540597 0.809900
Si Si6 0.678519 0.409365 0.563033
Si Si7 0.363801 0.732952 0.110434
O O1 0.500000 0.500000 0.500000
O O2 0.080712 0.480747 0.762351
O O3 0.179832 0.277175 0.750058
O O4 0.040436 0.969497 0.647054
O O5 0.370332 0.563615 0.257531
O O6 0.305877 0.996545 0.197332
O O7 0.413603 0.200766 0.065579
O O8 0.738761 0.427653 0.452497
O O9 0.100225 0.377289 0.175416
O O10 0.535358 0.962417 0.386025
O O11 0.423439 0.757766 0.153926
O O12 0.986522 0.617067 0.453597
O O13 0.517108 0.129368 0.274380
O O14 0.476241 0.521212 0.726442
O O15 0.000000 0.500000 0.000000
#
# Coordination Sequence:
#
# PCOD9006544 Si02
#       7
#     2   2   2   2   2   2   2
#     4  11  21  41  66  94 125 168 224 265 310 391
#     4  10  21  38  66  97 128 167 226 267 321 383
#     4   9  19  37  69  94 120 169 226 271 308 383
#     4  11  23  41  63  94 133 176 209 269 334 390
#     4  12  27  42  64  98 138 170 212 272 339 388
#     4  10  21  41  65  96 128 172 221 266 326 389
#     4   9  20  37  65  96 130 168 218 274 317 387
#
# _framework density 26.477557999999998
#
# number of rings (size 3 to 8) (size 9 to 14) (size 15 to 20)
#    0.000    1.714    1.429    2.571    6.000    0.000 
#    2.571    2.143    0.000    0.000    0.000    0.000 
#    0.000    0.000    0.000    0.000    0.000    0.000 
#
# Total GULP energy -78154.360299 kJ/mol
# GULP energy per Si atom -5582.454307 kJ/mol
# Density = 2.641729 g / cm^3
# Si number density = 26.477558 Si / 1000 Ang^3
#
#
#
# Elastic Constant Matrix: (Units=GPa)
#
#
# Indices 1 2 3 4 5 6 
#
# 1 90.1726 36.5570 17.7497 1.8001 0.2800 -16.3869
# 2 36.5570 133.2860 24.3107 -20.0316 -21.2787 -20.5324
# 3 17.7497 24.3107 125.5293 -5.8302 -4.1656 -7.4946
# 4 1.8001 -20.0316 -5.8302 31.0951 -9.1962 -3.9008
# 5 0.2800 -21.2787 -4.1656 -9.1962 35.3133 4.6569
# 6 -16.3869 -20.5324 -7.4946 -3.9008 4.6569 50.0566
#
#
#
# Elastic Compliance Matrix: (Units=1/GPa)
#
#
# Indices 1 2 3 4 5 6 
#
# 1 0.013820 -0.004724 -0.001294 -0.005195 -0.004783 0.002433
# 2 -0.004724 0.012958 -0.000721 0.012020 0.010412 0.003629
# 3 -0.001294 -0.000721 0.008424 0.001526 0.000891 0.000578
# 4 -0.005195 0.012020 0.001526 0.046760 0.018937 0.005340
# 5 -0.004783 0.010412 0.000891 0.018937 0.039583 0.000632
# 6 0.002433 0.003629 0.000578 0.005340 0.000632 0.022706
#
#
# Mechanical properties :
#
#
# Convention : Reuss Voigt Hill
#
# Bulk Modulus (GPa) = 46.03307 56.24698 51.14002
# Shear Modulus (GPa) = 30.30838 41.31768 35.81303
#
# Velocity S-wave (km/s) = 3.38699 3.95458 3.68173
# Velocity P-wave (km/s) = 5.72005 6.49161 6.11800
#
# Compressibility (1/GPa) = 0.02172352
#
# Stress axis : x y z
#
# Youngs Moduli (GPa) = 72.35635 77.17474 118.71120
#
# Poissons Ratio (x) = 0.36458 0.15362
# Poissons Ratio (y) = 0.34182 0.08559
# Poissons Ratio (z) = 0.09363 0.05565
#
# Static dielectric constant tensor:
#      x y z
#    x 2.244690 -0.042070 -0.158930 
#    y -0.042070 2.162810 0.073250 
#    z -0.158930 0.073250 2.166200 
# 
# From -- ./inp_files/423517.got.cif
#   From: 2010.05.17/outbox.cif.g08.bks.cpg/sg2_212_cif.got.tgz:423517.got - 2010.06.03 11:33:40.
