data_PCOD9006377
_publ_section_title
;
Structure prediction by ZEFSAII (Michael W. Deem and Ramdas Pophale) SiO2 
 PCOD9006377
Probable space group: P -1
;
_chemical_formula_sum "Si O2"
_cell_formula_units_Z 16
_cell_length_a 8.508034
_cell_length_b 8.937969
_cell_length_c 11.566413
_cell_angle_alpha 60.570423
_cell_angle_beta 65.168757
_cell_angle_gamma 72.309895
_cell_volume 689.928231
_symmetry_space_group_name_H-M "P -1"
_symmetry_group_IT_number 2
_symmetry_cell_setting 'triclinic'
loop_
_space_group_symop_operation_xyz
x,y,z
-x,-y,-z
loop_
_atom_site_type_symbol
_atom_site_label
_atom_site_fract_x
_atom_site_fract_y
_atom_site_fract_z
Si Si1 0.780442 0.222271 0.821367
Si Si2 0.607189 0.819857 0.384715
Si Si3 0.993287 0.200220 0.388488
Si Si4 0.634736 0.883692 0.616404
Si Si5 0.151093 0.178334 0.117152
Si Si6 0.094226 0.170987 0.884475
Si Si7 0.189048 0.540085 0.478739
Si Si8 0.500773 0.704728 0.924689
O O1 0.722263 0.357995 0.688276
O O2 0.961058 0.274880 0.797877
O O3 0.813362 0.030303 0.829900
O O4 0.651809 0.221962 0.968935
O O5 0.649702 0.895593 0.469212
O O6 0.723866 0.867175 0.223541
O O7 0.672223 0.619046 0.462370
O O8 0.412283 0.920803 0.393382
O O9 0.186786 0.228553 0.359712
O O10 0.996374 0.216048 0.243379
O O11 0.859343 0.332820 0.447210
O O12 0.000000 0.000000 0.500000
O O13 0.493551 0.783716 0.766720
O O14 0.323536 0.244412 0.089572
O O15 0.111703 0.252143 0.973449
O O16 0.000000 0.000000 0.000000
O O17 0.000000 0.500000 0.500000
O O18 0.500000 0.500000 0.000000
#
# Coordination Sequence:
#
# PCOD9006377 Si02
#       8
#     2   2   2   2   2   2   2   2
#     4  11  21  40  69  96 132 180 227 274 340 407
#     4  11  22  40  66  95 136 174 222 275 336 401
#     4  11  22  42  66  97 130 174 226 276 337 404
#     4  10  22  40  67  97 133 174 219 282 338 400
#     4  10  23  41  67  95 135 174 222 282 340 408
#     4  10  21  38  65  98 129 175 222 273 338 399
#     4  12  22  40  71  99 131 176 231 281 330 406
#     4  11  24  42  68  98 131 178 230 282 343 404
#
# _framework density 23.190818
#
# number of rings (size 3 to 8) (size 9 to 14) (size 15 to 20)
#    0.000    1.250    3.750    2.625    3.500    1.000 
#    0.000    3.125    0.000    0.000    0.000    0.000 
#    0.000    0.000    0.000    0.000    0.000    0.000 
#
# Total GULP energy -89286.072990 kJ/mol
# GULP energy per Si atom -5580.379562 kJ/mol
# Density = 2.313804 g / cm^3
# Si number density = 23.190818 Si / 1000 Ang^3
#
#
#
# Elastic Constant Matrix: (Units=GPa)
#
#
# Indices 1 2 3 4 5 6 
#
# 1 38.1607 21.8472 7.2167 4.0035 8.1335 6.9905
# 2 21.8472 133.6533 55.5301 13.2079 9.6353 -17.3473
# 3 7.2167 55.5301 143.5819 22.4099 18.7341 4.1761
# 4 4.0035 13.2079 22.4099 47.5835 -2.2768 6.1856
# 5 8.1335 9.6353 18.7341 -2.2768 24.7989 -0.2652
# 6 6.9905 -17.3473 4.1761 6.1856 -0.2652 35.7958
#
#
#
# Elastic Compliance Matrix: (Units=1/GPa)
#
#
# Indices 1 2 3 4 5 6 
#
# 1 0.034175 -0.007268 0.003051 -0.001469 -0.010936 -0.010379
# 2 -0.007268 0.011502 -0.004199 -0.001564 0.001026 0.007761
# 3 0.003051 -0.004199 0.010078 -0.003773 -0.007363 -0.003209
# 4 -0.001469 -0.001564 -0.003773 0.024184 0.006115 -0.004165
# 5 -0.010936 0.001026 -0.007363 0.006115 0.049667 0.002803
# 6 -0.010379 0.007761 -0.003209 -0.004165 0.002803 0.034839
#
#
# Mechanical properties :
#
#
# Convention : Reuss Voigt Hill
#
# Bulk Modulus (GPa) = 25.69050 53.84266 39.76658
# Shear Modulus (GPa) = 25.73988 37.02242 31.38115
#
# Velocity S-wave (km/s) = 3.33516 3.99986 3.68254
# Velocity P-wave (km/s) = 5.09244 6.67829 5.93854
#
# Compressibility (1/GPa) = 0.03892490
#
# Stress axis : x y z
#
# Youngs Moduli (GPa) = 29.26122 86.93801 99.22467
#
# Poissons Ratio (x) = 0.63182 -0.30274
# Poissons Ratio (y) = 0.21266 0.41663
# Poissons Ratio (z) = -0.08928 0.36504
#
# Static dielectric constant tensor:
#      x y z
#    x 2.388510 -0.075000 -0.070860 
#    y -0.075000 1.886300 -0.023570 
#    z -0.070860 -0.023570 1.950250 
# 
# From -- ./inp_files/381256.got.cif
#   From: 2010.05.17/outbox.cif.g08.bks.cpg/sg2_191_cif.got.tgz:381256.got - 2010.06.03 11:33:40.
