data_PCOD9006311
_publ_section_title
;
Structure prediction by ZEFSAII (Michael W. Deem and Ramdas Pophale) SiO2 
 PCOD9006311
Probable space group: P -1
;
_chemical_formula_sum "Si O2"
_cell_formula_units_Z 14
_cell_length_a 17.904933
_cell_length_b 8.181346
_cell_length_c 6.936526
_cell_angle_alpha 100.341353
_cell_angle_beta 139.347767
_cell_angle_gamma 55.996167
_cell_volume 489.163486
_symmetry_space_group_name_H-M "P -1"
_symmetry_group_IT_number 2
_symmetry_cell_setting 'triclinic'
loop_
_space_group_symop_operation_xyz
x,y,z
-x,-y,-z
loop_
_atom_site_type_symbol
_atom_site_label
_atom_site_fract_x
_atom_site_fract_y
_atom_site_fract_z
Si Si1 0.340351 0.738404 0.455002
Si Si2 0.502563 0.104618 0.751492
Si Si3 0.739737 0.901172 0.893421
Si Si4 0.873292 0.288772 0.205324
Si Si5 0.118327 0.993378 0.370136
Si Si6 0.006757 0.552737 0.801981
Si Si7 0.366524 0.365198 0.918584
O O1 0.263144 0.689689 0.144356
O O2 0.517293 0.606570 0.773208
O O3 0.268286 0.979415 0.284785
O O4 0.276195 0.773021 0.552086
O O5 0.367465 0.155138 0.370560
O O6 0.632981 0.081643 0.888069
O O7 0.586648 0.861105 0.952765
O O8 0.411307 0.296752 0.770733
O O9 0.915746 0.676672 0.212334
O O10 0.885483 0.411994 0.080363
O O11 0.803363 0.432599 0.295666
O O12 0.042339 0.044227 0.442861
O O13 0.133348 0.182029 0.423313
O O14 0.000000 0.000000 0.000000
O O15 0.000000 0.500000 0.000000
#
# Coordination Sequence:
#
# PCOD9006311 Si02
#       7
#     2   2   2   2   2   2   2
#     4  10  18  30  53  76 103 134 169 199 253 301
#     4   9  19  31  51  73 103 132 166 211 251 293
#     4  10  17  32  52  74  97 132 170 207 251 292
#     4   9  18  31  50  75 103 133 166 207 243 303
#     4   8  16  29  47  74  98 130 164 203 241 297
#     4  10  17  28  53  77  98 124 176 212 245 291
#     4  10  18  32  51  76 104 133 168 208 249 297
#
# _framework density 28.620287999999999
#
# number of rings (size 3 to 8) (size 9 to 14) (size 15 to 20)
#    0.857    1.714    2.857    0.429    0.000    0.000 
#    0.000    0.714    3.143    4.286    0.000    6.000 
#    0.000    0.000    0.000    0.000    0.000    0.143 
#
# Total GULP energy -77934.725404 kJ/mol
# GULP energy per Si atom -5566.766100 kJ/mol
# Density = 2.855515 g / cm^3
# Si number density = 28.620288 Si / 1000 Ang^3
#
#
#
# Elastic Constant Matrix: (Units=GPa)
#
#
# Indices 1 2 3 4 5 6 
#
# 1 167.2089 62.3053 28.1126 -0.1165 24.3237 -64.9040
# 2 62.3053 146.4956 20.6601 -15.5077 2.8547 -63.3058
# 3 28.1126 20.6601 89.3906 -5.0366 27.9388 -12.8621
# 4 -0.1165 -15.5077 -5.0366 29.6336 -10.8009 -8.2749
# 5 24.3237 2.8547 27.9388 -10.8009 40.6916 -3.6676
# 6 -64.9040 -63.3058 -12.8621 -8.2749 -3.6676 63.9291
#
#
#
# Elastic Compliance Matrix: (Units=1/GPa)
#
#
# Indices 1 2 3 4 5 6 
#
# 1 0.011088 0.000806 -0.000321 0.001982 -0.004860 0.011968
# 2 0.000806 0.016716 -0.002277 0.015894 0.005868 0.019307
# 3 -0.000321 -0.002277 0.014914 -0.002691 -0.010651 -0.000540
# 4 0.001982 0.015894 -0.002691 0.054599 0.016313 0.025212
# 5 -0.004860 0.005868 -0.010651 0.016313 0.038989 0.003083
# 6 0.011968 0.019307 -0.000540 0.025212 0.003083 0.050244
#
#
# Mechanical properties :
#
#
# Convention : Reuss Voigt Hill
#
# Bulk Modulus (GPa) = 25.55382 69.47234 47.51308
# Shear Modulus (GPa) = 24.60879 46.31866 35.46372
#
# Velocity S-wave (km/s) = 2.93548 4.02728 3.52392
# Velocity P-wave (km/s) = 4.52077 6.77878 5.76147
#
# Compressibility (1/GPa) = 0.03913310
#
# Stress axis : x y z
#
# Youngs Moduli (GPa) = 90.18596 59.82341 67.05186
#
# Poissons Ratio (x) = -0.04821 0.02151
# Poissons Ratio (y) = -0.07267 0.15271
# Poissons Ratio (z) = 0.02893 0.13624
#
# Static dielectric constant tensor:
#      x y z
#    x 2.221210 0.020630 -0.052950 
#    y 0.020630 2.456910 0.037700 
#    z -0.052950 0.037700 2.344430 
# 
# From -- ./inp_files/177181.got.cif
#   From: 2010.05.17/outbox.cif.g08.bks.cpg/sg2_89_cif.got.tgz:177181.got - 2010.06.03 11:33:40.
