data_PCOD9006695
_publ_section_title
;
Structure prediction by ZEFSAII (Michael W. Deem and Ramdas Pophale) SiO2 
 PCOD9006695
Probable space group: P -1
;
_chemical_formula_sum "Si O2"
_cell_formula_units_Z 14
_cell_length_a 9.439055
_cell_length_b 10.603434
_cell_length_c 8.188640
_cell_angle_alpha 124.841349
_cell_angle_beta 55.059711
_cell_angle_gamma 116.801562
_cell_volume 542.006304
_symmetry_space_group_name_H-M "P -1"
_symmetry_group_IT_number 2
_symmetry_cell_setting 'triclinic'
loop_
_space_group_symop_operation_xyz
x,y,z
-x,-y,-z
loop_
_atom_site_type_symbol
_atom_site_label
_atom_site_fract_x
_atom_site_fract_y
_atom_site_fract_z
Si Si1 0.907613 0.182055 0.312575
Si Si2 0.000986 0.559444 0.355858
Si Si3 0.324716 0.049145 0.222385
Si Si4 0.399051 0.574042 0.981450
Si Si5 0.599004 0.124388 0.650485
Si Si6 0.979887 0.864338 0.132945
Si Si7 0.727225 0.634299 0.373728
O O1 0.018273 0.261056 0.450059
O O2 0.723052 0.228973 0.513679
O O3 0.974000 0.230963 0.126118
O O4 0.884822 0.995436 0.208384
O O5 0.187219 0.558499 0.143170
O O6 0.000000 0.500000 0.500000
O O7 0.834774 0.521918 0.319382
O O8 0.348323 0.234883 0.375716
O O9 0.300631 0.967213 0.355640
O O10 0.158140 0.962589 0.164249
O O11 0.500000 0.000000 0.000000
O O12 0.480077 0.757557 0.093505
O O13 0.500000 0.500000 0.000000
O O14 0.407337 0.478180 0.738780
O O15 0.500000 0.000000 0.500000
O O16 0.867079 0.747581 0.246832
#
# Coordination Sequence:
#
# PCOD9006695 Si02
#       7
#     2   2   2   2   2   2   2
#     4  10  21  38  68 101 129 177 234 282 337 420
#     4  11  24  44  69 101 142 188 236 287 355 430
#     4  12  25  42  69 104 140 183 240 295 354 412
#     4  11  26  44  69 103 141 187 236 292 367 417
#     4  11  23  44  67  99 141 182 228 294 353 422
#     4  11  21  40  71 101 134 177 236 284 348 413
#     4  12  24  47  72 102 143 192 239 298 353 426
#
# _framework density 25.829958999999999
#
# number of rings (size 3 to 8) (size 9 to 14) (size 15 to 20)
#    0.000    0.857    2.857    5.143    0.000    3.429 
#    0.000    1.429    0.000    0.000    0.000    0.000 
#    0.000    0.000    0.000    0.000    0.000    0.000 
#
# Total GULP energy -78123.397523 kJ/mol
# GULP energy per Si atom -5580.242680 kJ/mol
# Density = 2.577117 g / cm^3
# Si number density = 25.829959 Si / 1000 Ang^3
#
#
#
# Elastic Constant Matrix: (Units=GPa)
#
#
# Indices 1 2 3 4 5 6 
#
# 1 119.4233 9.8285 43.7236 23.2946 23.4164 -4.3665
# 2 9.8285 73.0312 13.8853 0.8521 -6.0251 -3.9952
# 3 43.7236 13.8853 162.7669 5.1201 14.2960 9.1791
# 4 23.2946 0.8521 5.1201 53.0240 3.7233 6.1774
# 5 23.4164 -6.0251 14.2960 3.7233 37.9512 14.2524
# 6 -4.3665 -3.9952 9.1791 6.1774 14.2524 45.3817
#
#
#
# Elastic Compliance Matrix: (Units=1/GPa)
#
#
# Indices 1 2 3 4 5 6 
#
# 1 0.012180 -0.001503 -0.002543 -0.005070 -0.008096 0.004787
# 2 -0.001503 0.014416 -0.001158 0.000267 0.003548 0.000208
# 3 -0.002543 -0.001158 0.007060 0.000696 -0.000726 -0.001641
# 4 -0.005070 0.000267 0.000696 0.021343 0.002418 -0.004270
# 5 -0.008096 0.003548 -0.000726 0.002418 0.036492 -0.012109
# 6 0.004787 0.000208 -0.001641 -0.004270 -0.012109 0.027231
#
#
# Mechanical properties :
#
#
# Convention : Reuss Voigt Hill
#
# Bulk Modulus (GPa) = 43.01260 54.45515 48.73388
# Shear Modulus (GPa) = 36.52888 46.45698 41.49293
#
# Velocity S-wave (km/s) = 3.76467 4.24556 4.01232
# Velocity P-wave (km/s) = 5.96535 6.72019 6.35399
#
# Compressibility (1/GPa) = 0.02324900
#
# Stress axis : x y z
#
# Youngs Moduli (GPa) = 82.10365 69.36692 141.64113
#
# Poissons Ratio (x) = 0.10423 0.36019
# Poissons Ratio (y) = 0.12336 0.16401
# Poissons Ratio (z) = 0.20879 0.08032
#
# Static dielectric constant tensor:
#      x y z
#    x 2.049580 0.068130 0.028490 
#    y 0.068130 2.277550 0.088130 
#    z 0.028490 0.088130 2.168460 
# 
# From -- ./inp_files/189505.got.cif
#   From: 2010.05.17/outbox.cif.g08.bks.cpg/sg2_95_cif.got.tgz:189505.got - 2010.06.03 11:33:40.
