data_PCOD9006677
_publ_section_title
;
Structure prediction by ZEFSAII (Michael W. Deem and Ramdas Pophale) SiO2 
 PCOD9006677
Probable space group: P -1
;
_chemical_formula_sum "Si O2"
_cell_formula_units_Z 16
_cell_length_a 8.830270
_cell_length_b 11.539222
_cell_length_c 21.813264
_cell_angle_alpha 32.462517
_cell_angle_beta 46.598486
_cell_angle_gamma 71.746682
_cell_volume 632.765807
_symmetry_space_group_name_H-M "P -1"
_symmetry_group_IT_number 2
_symmetry_cell_setting 'triclinic'
loop_
_space_group_symop_operation_xyz
x,y,z
-x,-y,-z
loop_
_atom_site_type_symbol
_atom_site_label
_atom_site_fract_x
_atom_site_fract_y
_atom_site_fract_z
Si Si1 0.669262 0.115254 0.836445
Si Si2 0.564293 0.517591 0.831665
Si Si3 0.972029 0.955498 0.613014
Si Si4 0.285783 0.122431 0.569011
Si Si5 0.916035 0.470946 0.228351
Si Si6 0.189322 0.275505 0.655326
Si Si7 0.131671 0.530982 0.885123
Si Si8 0.165512 0.980798 0.012122
O O1 0.578496 0.815807 0.968717
O O2 0.507863 0.202834 0.810980
O O3 0.010108 0.355706 0.643198
O O4 0.500000 0.000000 0.000000
O O5 0.350059 0.501112 0.856236
O O6 0.652057 0.701969 0.788304
O O7 0.855408 0.748200 0.607719
O O8 0.087141 0.789397 0.645957
O O9 0.055663 0.055618 0.615515
O O10 0.617480 0.390693 0.341619
O O11 0.222291 0.144103 0.646431
O O12 0.280421 0.860945 0.679936
O O13 0.058441 0.631492 0.051000
O O14 0.062708 0.668386 0.159937
O O15 0.500000 0.500000 0.500000
O O16 0.970416 0.057534 0.867828
O O17 0.000000 0.500000 0.000000
O O18 0.000000 0.000000 0.000000
#
# Coordination Sequence:
#
# PCOD9006677 Si02
#       8
#     2   2   2   2   2   2   2   2
#     4  10  24  43  66  97 137 176 229 283 335 403
#     4  11  20  39  66 100 131 169 226 271 344 391
#     4  10  21  38  67  98 129 178 213 277 338 402
#     4  11  21  41  63  94 137 171 224 267 334 407
#     4  11  20  42  64  92 133 175 223 268 331 406
#     4  11  24  45  70  97 134 185 224 286 338 397
#     4  11  23  36  61  97 130 170 214 271 328 398
#     4  11  25  44  72  95 131 182 232 278 341 400
#
# _framework density 25.285817000000002
#
# number of rings (size 3 to 8) (size 9 to 14) (size 15 to 20)
#    0.000    1.250    5.000    1.500    5.250    0.000 
#    2.250    2.500    0.000    0.000    0.000    0.000 
#    0.000    0.000    0.000    0.000    0.000    0.000 
#
# Total GULP energy -89187.701714 kJ/mol
# GULP energy per Si atom -5574.231357 kJ/mol
# Density = 2.522827 g / cm^3
# Si number density = 25.285817 Si / 1000 Ang^3
#
#
#
# Elastic Constant Matrix: (Units=GPa)
#
#
# Indices 1 2 3 4 5 6 
#
# 1 179.2918 36.2042 33.1333 4.7319 -21.5958 5.9000
# 2 36.2042 112.3906 27.2466 4.2190 -3.5418 32.0695
# 3 33.1333 27.2466 56.0035 3.6701 -17.5344 5.5054
# 4 4.7319 4.2190 3.6701 33.4912 5.6131 -1.3191
# 5 -21.5958 -3.5418 -17.5344 5.6131 40.4619 3.6413
# 6 5.9000 32.0695 5.5054 -1.3191 3.6413 53.8148
#
#
#
# Elastic Compliance Matrix: (Units=1/GPa)
#
#
# Indices 1 2 3 4 5 6 
#
# 1 0.006638 -0.001516 -0.002376 -0.000894 0.002484 0.000229
# 2 -0.001516 0.012463 -0.004776 -0.000921 -0.001055 -0.006724
# 3 -0.002376 -0.004776 0.024814 -0.003389 0.009552 -0.000161
# 4 -0.000894 -0.000921 -0.003389 0.031669 -0.006619 0.002217
# 5 0.002484 -0.001055 0.009552 -0.006619 0.031266 -0.002899
# 6 0.000229 -0.006724 -0.000161 0.002217 -0.002899 0.022831
#
#
# Mechanical properties :
#
#
# Convention : Reuss Voigt Hill
#
# Bulk Modulus (GPa) = 37.62214 60.09490 48.85852
# Shear Modulus (GPa) = 32.07666 42.29371 37.18519
#
# Velocity S-wave (km/s) = 3.56555 4.09421 3.83899
# Velocity P-wave (km/s) = 5.64464 6.79470 6.24619
#
# Compressibility (1/GPa) = 0.02658009
#
# Stress axis : x y z
#
# Youngs Moduli (GPa) = 150.65007 80.23468 40.30016
#
# Poissons Ratio (x) = 0.12161 0.09575
# Poissons Ratio (y) = 0.22833 0.19247
# Poissons Ratio (z) = 0.35794 0.38320
#
# Static dielectric constant tensor:
#      x y z
#    x 1.386690 0.471410 0.582320 
#    y 0.471410 1.874830 -0.400880 
#    z 0.582320 -0.400880 1.610750 
# 
# From -- ./inp_files/314383.got.cif
#   From: 2010.05.17/outbox.cif.g08.bks.cpg/sg2_158_cif.got.tgz:314383.got - 2010.06.03 11:33:40.
