data_PCOD9006630
_publ_section_title
;
Structure prediction by ZEFSAII (Michael W. Deem and Ramdas Pophale) SiO2 
 PCOD9006630
Probable space group: P -1
;
_chemical_formula_sum "Si O2"
_cell_formula_units_Z 16
_cell_length_a 5.027310
_cell_length_b 8.404475
_cell_length_c 19.066525
_cell_angle_alpha 85.366793
_cell_angle_beta 115.134974
_cell_angle_gamma 92.072319
_cell_volume 726.929949
_symmetry_space_group_name_H-M "P -1"
_symmetry_group_IT_number 2
_symmetry_cell_setting 'triclinic'
loop_
_space_group_symop_operation_xyz
x,y,z
-x,-y,-z
loop_
_atom_site_type_symbol
_atom_site_label
_atom_site_fract_x
_atom_site_fract_y
_atom_site_fract_z
Si Si1 0.932421 0.868144 0.553480
Si Si2 0.296181 0.780162 0.853681
Si Si3 0.974887 0.981812 0.296029
Si Si4 0.888205 0.940980 0.915022
Si Si5 0.319668 0.588878 0.669541
Si Si6 0.367803 0.819399 0.232669
Si Si7 0.311574 0.411956 0.539281
Si Si8 0.067384 0.478547 0.234975
O O1 0.181432 0.738234 0.607476
O O2 0.697869 0.762878 0.488132
O O3 0.885089 0.957106 0.618283
O O4 0.000000 0.000000 0.500000
O O5 0.175340 0.600973 0.839578
O O6 0.183710 0.870837 0.767003
O O7 0.641833 0.803558 0.897827
O O8 0.146085 0.874674 0.897205
O O9 0.719645 0.846041 0.278338
O O10 0.228692 0.915466 0.278063
O O11 0.730648 0.087274 0.851748
O O12 0.000000 0.000000 0.000000
O O13 0.400013 0.448287 0.627436
O O14 0.641940 0.633514 0.732002
O O15 0.090600 0.529844 0.705457
O O16 0.202509 0.648427 0.220952
O O17 0.500000 0.500000 0.500000
O O18 0.000000 0.500000 0.500000
#
# Coordination Sequence:
#
# PCOD9006630 Si02
#       8
#     2   2   2   2   2   2   2   2
#     4  11  25  42  63  91 124 160 222 275 324 374
#     4  10  21  38  67  93 124 170 209 249 304 376
#     4  10  22  42  59  89 124 165 212 263 316 371
#     4  10  21  42  67  99 134 164 198 249 313 373
#     4  11  24  42  65  86 123 173 207 275 325 376
#     4  10  24  40  66  93 126 166 211 253 310 374
#     4  10  23  43  59  82 117 159 207 257 333 376
#     4  12  23  41  68  90 126 164 222 254 310 375
#
# _framework density 22.010373999999999
#
# number of rings (size 3 to 8) (size 9 to 14) (size 15 to 20)
#    0.000    1.500    1.250    3.375    7.000    1.000 
#    0.000    8.750    0.000    0.000    0.000    0.000 
#    0.000    0.000    0.000    0.000    0.000    0.000 
#
# Total GULP energy -89349.159567 kJ/mol
# GULP energy per Si atom -5584.322473 kJ/mol
# Density = 2.196028 g / cm^3
# Si number density = 22.010374 Si / 1000 Ang^3
#
#
#
# Elastic Constant Matrix: (Units=GPa)
#
#
# Indices 1 2 3 4 5 6 
#
# 1 99.3027 5.9617 11.4900 -7.2453 -7.3415 20.1093
# 2 5.9617 108.8615 31.3790 14.2818 -0.4317 30.2431
# 3 11.4900 31.3790 110.3787 18.8289 -16.8898 2.2056
# 4 -7.2453 14.2818 18.8289 18.1465 1.9990 5.4708
# 5 -7.3415 -0.4317 -16.8898 1.9990 24.6734 3.1444
# 6 20.1093 30.2431 2.2056 5.4708 3.1444 34.7237
#
#
#
# Elastic Compliance Matrix: (Units=1/GPa)
#
#
# Indices 1 2 3 4 5 6 
#
# 1 0.013486 0.001911 -0.003064 0.010127 0.002544 -0.011106
# 2 0.001911 0.013937 -0.003345 -0.002978 0.000370 -0.012598
# 3 -0.003064 -0.003345 0.014462 -0.016299 0.009553 0.005472
# 4 0.010127 -0.002978 -0.016299 0.084171 -0.013193 -0.014302
# 5 0.002544 0.000370 0.009553 -0.013193 0.049514 -0.004807
# 6 -0.011106 -0.012598 0.005472 -0.014302 -0.004807 0.048544
#
#
# Mechanical properties :
#
#
# Convention : Reuss Voigt Hill
#
# Bulk Modulus (GPa) = 30.40274 46.24490 38.32382
# Shear Modulus (GPa) = 20.48574 33.48953 26.98763
#
# Velocity S-wave (km/s) = 3.05410 3.90492 3.50542
# Velocity P-wave (km/s) = 5.12636 6.43329 5.81665
#
# Compressibility (1/GPa) = 0.03289177
#
# Stress axis : x y z
#
# Youngs Moduli (GPa) = 74.15144 71.74912 69.14542
#
# Poissons Ratio (x) = -0.13714 0.21183
# Poissons Ratio (y) = -0.14174 0.23128
# Poissons Ratio (z) = 0.22716 0.23999
#
# Static dielectric constant tensor:
#      x y z
#    x 1.799000 0.005660 0.025030 
#    y 0.005660 1.850660 0.030700 
#    z 0.025030 0.030700 1.833690 
# 
# From -- ./inp_files/45734.got.cif
#   From: 2010.05.17/outbox.cif.g08.bks.cpg/sg2_23_cif.got.tgz:45734.got - 2010.06.03 11:33:40.
