data_PCOD9006293
_publ_section_title
;
Structure prediction by ZEFSAII (Michael W. Deem and Ramdas Pophale) SiO2 
 PCOD9006293
Probable space group: P -1
;
_chemical_formula_sum "Si O2"
_cell_formula_units_Z 16
_cell_length_a 18.634484
_cell_length_b 5.456906
_cell_length_c 8.395740
_cell_angle_alpha 123.715111
_cell_angle_beta 74.002045
_cell_angle_gamma 94.929732
_cell_volume 680.236411
_symmetry_space_group_name_H-M "P -1"
_symmetry_group_IT_number 2
_symmetry_cell_setting 'triclinic'
loop_
_space_group_symop_operation_xyz
x,y,z
-x,-y,-z
loop_
_atom_site_type_symbol
_atom_site_label
_atom_site_fract_x
_atom_site_fract_y
_atom_site_fract_z
Si Si1 0.985549 0.959560 0.680945
Si Si2 0.535366 0.918675 0.120825
Si Si3 0.093361 0.265778 0.927242
Si Si4 0.255726 0.542303 0.368940
Si Si5 0.317208 0.907580 0.986721
Si Si6 0.814130 0.339282 0.214992
Si Si7 0.897023 0.496805 0.656465
Si Si8 0.390263 0.741377 0.221289
O O1 0.905563 0.834981 0.715963
O O2 0.049511 0.685109 0.565992
O O3 0.984846 0.824068 0.128841
O O4 0.000000 0.000000 0.500000
O O5 0.571626 0.585634 0.955571
O O6 0.606819 0.103695 0.170749
O O7 0.461312 0.929180 0.279266
O O8 0.500000 0.000000 0.000000
O O9 0.135303 0.437732 0.826745
O O10 0.143103 0.971056 0.856973
O O11 0.081168 0.482227 0.164682
O O12 0.225532 0.503483 0.550129
O O13 0.180877 0.647328 0.356825
O O14 0.325981 0.737632 0.391330
O O15 0.282936 0.242471 0.153301
O O16 0.346062 0.822987 0.115103
O O17 0.252660 0.732011 0.888834
#
# Coordination Sequence:
#
# PCOD9006293 Si02
#       8
#     2   2   2   2   2   2   2   2
#     4  11  26  44  69  96 132 174 218 277 329 395
#     4   8  16  34  60  94 128 167 218 263 324 389
#     4  12  27  46  68  96 135 173 221 274 330 395
#     4  11  22  40  65  93 131 171 219 271 329 390
#     4  10  21  38  65  93 129 174 216 272 328 389
#     4  12  27  42  67 100 133 173 221 274 328 392
#     4  11  24  44  68  95 131 173 221 268 335 393
#     4   9  18  34  64  94 126 172 216 267 326 388
#
# _framework density 23.521235999999998
#
# number of rings (size 3 to 8) (size 9 to 14) (size 15 to 20)
#    0.000    1.500    2.500    1.875    7.000    2.500 
#    0.000    0.625    0.000   25.500    0.000    0.000 
#    0.000    0.000    0.000    0.000    0.000    0.000 
#
# Total GULP energy -89239.746701 kJ/mol
# GULP energy per Si atom -5577.484169 kJ/mol
# Density = 2.346770 g / cm^3
# Si number density = 23.521236 Si / 1000 Ang^3
#
#
#
# Elastic Constant Matrix: (Units=GPa)
#
#
# Indices 1 2 3 4 5 6 
#
# 1 81.5738 8.5022 17.3053 -4.8421 -20.2023 10.5653
# 2 8.5022 55.9928 -2.4061 -23.5028 -14.0431 14.7138
# 3 17.3053 -2.4061 80.5218 -22.5478 1.1814 26.5055
# 4 -4.8421 -23.5028 -22.5478 36.6238 7.2216 -8.2694
# 5 -20.2023 -14.0431 1.1814 7.2216 29.8397 -12.7186
# 6 10.5653 14.7138 26.5055 -8.2694 -12.7186 29.8682
#
#
#
# Elastic Compliance Matrix: (Units=1/GPa)
#
#
# Indices 1 2 3 4 5 6 
#
# 1 0.016704 -0.004174 -0.008500 -0.006787 0.014778 0.008104
# 2 -0.004174 0.039260 0.020998 0.031903 -0.005734 -0.030107
# 3 -0.008500 0.020998 0.037468 0.030432 -0.022515 -0.041749
# 4 -0.006787 0.031903 0.030432 0.062348 -0.019185 -0.031229
# 5 0.014778 -0.005734 -0.022515 -0.019185 0.063020 0.039101
# 6 0.008104 -0.030107 -0.041749 -0.031229 0.039101 0.090499
#
#
# Mechanical properties :
#
#
# Convention : Reuss Voigt Hill
#
# Bulk Modulus (GPa) = 9.08403 29.43235 19.25819
# Shear Modulus (GPa) = 15.18173 32.24547 23.71360
#
# Velocity S-wave (km/s) = 2.54332 3.70660 3.17863
# Velocity P-wave (km/s) = 3.53484 5.55506 4.65585
#
# Compressibility (1/GPa) = 0.11008327
#
# Stress axis : x y z
#
# Youngs Moduli (GPa) = 59.86421 25.47096 26.68962
#
# Poissons Ratio (x) = 0.10630 0.22685
# Poissons Ratio (y) = 0.24985 -0.56044
# Poissons Ratio (z) = 0.50882 -0.53485
#
# Static dielectric constant tensor:
#      x y z
#    x 1.770330 -0.072160 -0.003460 
#    y -0.072160 2.109640 0.092050 
#    z -0.003460 0.092050 1.890720 
# 
# From -- ./inp_files/340638.got.cif
#   From: 2010.05.17/outbox.cif.g08.bks.cpg/sg2_171_cif.got.tgz:340638.got - 2010.06.03 11:33:40.
