data_PCOD9006539
_publ_section_title
;
Structure prediction by ZEFSAII (Michael W. Deem and Ramdas Pophale) SiO2 
 PCOD9006539
Probable space group: P -1
;
_chemical_formula_sum "Si O2"
_cell_formula_units_Z 16
_cell_length_a 8.119396
_cell_length_b 8.904517
_cell_length_c 15.452947
_cell_angle_alpha 52.887276
_cell_angle_beta 58.051021
_cell_angle_gamma 92.893954
_cell_volume 633.112549
_symmetry_space_group_name_H-M "P -1"
_symmetry_group_IT_number 2
_symmetry_cell_setting 'triclinic'
loop_
_space_group_symop_operation_xyz
x,y,z
-x,-y,-z
loop_
_atom_site_type_symbol
_atom_site_label
_atom_site_fract_x
_atom_site_fract_y
_atom_site_fract_z
Si Si1 0.315213 0.713365 0.098399
Si Si2 0.243046 0.134099 0.433007
Si Si3 0.749994 0.073326 0.789848
Si Si4 0.189087 0.701648 0.660197
Si Si5 0.672740 0.635054 0.983568
Si Si6 0.559308 0.798098 0.375509
Si Si7 0.766598 0.593626 0.507169
Si Si8 0.297247 0.712054 0.821530
O O1 0.255058 0.830703 0.148091
O O2 0.502772 0.651449 0.093963
O O3 0.077240 0.487881 0.218312
O O4 0.470072 0.897767 0.915940
O O5 0.282376 0.332020 0.414414
O O6 0.429457 0.198297 0.283864
O O7 0.240912 0.950784 0.559429
O O8 0.000000 0.000000 0.500000
O O9 0.955888 0.290167 0.609647
O O10 0.828573 0.895560 0.823893
O O11 0.355416 0.716560 0.532492
O O12 0.246230 0.653978 0.754792
O O13 0.806115 0.517886 0.015919
O O14 0.500000 0.500000 0.000000
O O15 0.713402 0.710503 0.401419
O O16 0.418434 0.666599 0.373805
O O17 0.702329 0.067708 0.232973
#
# Coordination Sequence:
#
# PCOD9006539 Si02
#       8
#     2   2   2   2   2   2   2   2
#     4   9  20  40  65  88 121 176 208 265 319 379
#     4  11  23  36  65  98 132 174 210 265 329 386
#     4   9  21  39  66  86 127 170 215 260 321 377
#     4  11  19  40  64  94 131 168 213 267 331 383
#     4  10  23  41  67  90 124 171 218 267 318 379
#     4  10  21  38  66  96 136 164 212 271 330 377
#     4  11  20  39  66  99 130 172 211 268 324 389
#     4  11  22  42  62 100 131 166 217 265 333 390
#
# _framework density 25.271968000000001
#
# number of rings (size 3 to 8) (size 9 to 14) (size 15 to 20)
#    0.750    1.000    3.750    1.500    3.500    0.000 
#    0.000    9.375    0.000    0.000    0.000    0.000 
#    0.000    0.000    0.000    0.000    0.000    0.000 
#
# Total GULP energy -89328.385493 kJ/mol
# GULP energy per Si atom -5583.024093 kJ/mol
# Density = 2.521445 g / cm^3
# Si number density = 25.271968 Si / 1000 Ang^3
#
#
#
# Elastic Constant Matrix: (Units=GPa)
#
#
# Indices 1 2 3 4 5 6 
#
# 1 42.0258 -0.7595 5.3934 -3.0162 7.9638 0.4346
# 2 -0.7595 132.9483 33.1437 -22.6839 7.6104 9.0815
# 3 5.3934 33.1437 121.1185 -29.1471 -5.9739 -3.9802
# 4 -3.0162 -22.6839 -29.1471 43.7992 -0.5688 -7.6404
# 5 7.9638 7.6104 -5.9739 -0.5688 50.1179 -6.5822
# 6 0.4346 9.0815 -3.9802 -7.6404 -6.5822 30.1716
#
#
#
# Elastic Compliance Matrix: (Units=1/GPa)
#
#
# Indices 1 2 3 4 5 6 
#
# 1 0.024933 0.001030 -0.001435 0.000959 -0.004488 -0.001595
# 2 0.001030 0.008798 -0.001959 0.002835 -0.002049 -0.002651
# 3 -0.001435 -0.001959 0.010762 0.006829 0.002450 0.004294
# 4 0.000959 0.002835 0.006829 0.030340 0.001636 0.008074
# 5 -0.004488 -0.002049 0.002450 0.001636 0.022108 0.006242
# 6 -0.001595 -0.002651 0.004294 0.008074 0.006242 0.037937
#
#
# Mechanical properties :
#
#
# Convention : Reuss Voigt Hill
#
# Bulk Modulus (GPa) = 25.14873 41.29422 33.22147
# Shear Modulus (GPa) = 32.70926 42.03874 37.37400
#
# Velocity S-wave (km/s) = 3.60153 4.08297 3.84978
# Velocity P-wave (km/s) = 5.22183 6.21313 5.73892
#
# Compressibility (1/GPa) = 0.03976345
#
# Stress axis : x y z
#
# Youngs Moduli (GPa) = 40.10683 113.66106 92.92139
#
# Poissons Ratio (x) = -0.11703 0.13335
# Poissons Ratio (y) = -0.04129 0.18208
# Poissons Ratio (z) = 0.05756 0.22272
#
# Static dielectric constant tensor:
#      x y z
#    x 2.068840 -0.053930 0.036930 
#    y -0.053930 2.010260 -0.048460 
#    z 0.036930 -0.048460 2.100480 
# 
# From -- ./inp_files/556842.got.cif
#   From: 2010.05.17/outbox.cif.g08.bks.cpg/sg2_279_cif.got.tgz:556842.got - 2010.06.03 11:33:40.
