data_PCOD9006078
_publ_section_title
;
Structure prediction by ZEFSAII (Michael W. Deem and Ramdas Pophale) SiO2 
 PCOD9006078
Probable space group: P -1
;
_chemical_formula_sum "Si O2"
_cell_formula_units_Z 14
_cell_length_a 11.307758
_cell_length_b 12.848675
_cell_length_c 22.036542
_cell_angle_alpha 23.211366
_cell_angle_beta 33.478005
_cell_angle_gamma 31.573156
_cell_volume 640.127689
_symmetry_space_group_name_H-M "P -1"
_symmetry_group_IT_number 2
_symmetry_cell_setting 'triclinic'
loop_
_space_group_symop_operation_xyz
x,y,z
-x,-y,-z
loop_
_atom_site_type_symbol
_atom_site_label
_atom_site_fract_x
_atom_site_fract_y
_atom_site_fract_z
Si Si1 0.135657 0.686759 0.816631
Si Si2 0.553241 0.633270 0.752210
Si Si3 0.975286 0.721442 0.738608
Si Si4 0.465479 0.733718 0.941402
Si Si5 0.734990 0.302661 0.472597
Si Si6 0.614831 0.876503 0.339435
Si Si7 0.993455 0.655617 0.483624
O O1 0.377239 0.608639 0.790136
O O2 0.145787 0.625379 0.773650
O O3 0.000375 0.032324 0.695956
O O4 0.000000 0.500000 0.000000
O O5 0.755527 0.696222 0.598714
O O6 0.411763 0.892290 0.720371
O O7 0.644835 0.349692 0.907767
O O8 0.728187 0.696167 0.867419
O O9 0.110773 0.571835 0.699707
O O10 0.893524 0.061680 0.579484
O O11 0.337508 0.021223 0.802573
O O12 0.500000 0.500000 0.000000
O O13 0.500000 0.500000 0.500000
O O14 0.635708 0.138209 0.554519
O O15 0.798262 0.569668 0.445599
O O16 0.000000 0.500000 0.500000
#
# Coordination Sequence:
#
# PCOD9006078 Si02
#       7
#     2   2   2   2   2   2   2
#     4  12  24  44  73  97 142 184 221 280 349 402
#     4  11  23  45  70  98 137 184 226 276 343 407
#     4  10  21  39  62  95 128 171 221 270 337 394
#     4   9  20  40  68  95 128 176 226 276 336 400
#     4  10  21  38  64  95 130 167 218 279 333 391
#     4  10  22  42  69 100 132 177 229 280 333 408
#     4  12  26  42  69 101 136 181 233 272 336 411
#
# _framework density 21.870636999999999
#
# number of rings (size 3 to 8) (size 9 to 14) (size 15 to 20)
#    0.000    1.429    2.857    2.143    2.000    5.143 
#    0.000    7.857    0.000    0.000    0.000    0.000 
#    0.000    0.000    0.000    0.000    0.000    0.000 
#
# Total GULP energy -78150.413006 kJ/mol
# GULP energy per Si atom -5582.172358 kJ/mol
# Density = 2.182086 g / cm^3
# Si number density = 21.870637 Si / 1000 Ang^3
#
#
#
# Elastic Constant Matrix: (Units=GPa)
#
#
# Indices 1 2 3 4 5 6 
#
# 1 113.6276 18.3241 36.9706 -1.4021 14.6678 -11.3107
# 2 18.3241 78.8056 42.0453 -0.9430 13.6681 -0.7274
# 3 36.9706 42.0453 141.4562 -7.3567 16.4803 -0.4542
# 4 -1.4021 -0.9430 -7.3567 24.1035 -3.0278 8.7634
# 5 14.6678 13.6681 16.4803 -3.0278 38.1733 -4.3231
# 6 -11.3107 -0.7274 -0.4542 8.7634 -4.3231 35.2641
#
#
#
# Elastic Compliance Matrix: (Units=1/GPa)
#
#
# Indices 1 2 3 4 5 6 
#
# 1 0.010287 -0.000752 -0.002254 -0.001651 -0.002461 0.003364
# 2 -0.000752 0.015667 -0.004091 -0.001085 -0.003658 -0.000149
# 3 -0.002254 -0.004091 0.009206 0.002902 -0.001595 -0.001605
# 4 -0.001651 -0.001085 0.002902 0.046826 0.002138 -0.011889
# 5 -0.002461 -0.003658 -0.001595 0.002138 0.029560 0.002207
# 6 0.003364 -0.000149 -0.001605 -0.011889 0.002207 0.032638
#
#
# Mechanical properties :
#
#
# Convention : Reuss Voigt Hill
#
# Bulk Modulus (GPa) = 47.69250 58.72995 53.21122
# Shear Modulus (GPa) = 30.23609 35.27814 32.75712
#
# Velocity S-wave (km/s) = 3.72223 4.02062 3.87430
# Velocity P-wave (km/s) = 6.35038 6.96171 6.66306
#
# Compressibility (1/GPa) = 0.02096766
#
# Stress axis : x y z
#
# Youngs Moduli (GPa) = 97.20784 63.82875 108.62552
#
# Poissons Ratio (x) = 0.04797 0.24480
# Poissons Ratio (y) = 0.07306 0.44439
# Poissons Ratio (z) = 0.21907 0.26113
#
# Static dielectric constant tensor:
#      x y z
#    x 1.844240 0.021610 0.019620 
#    y 0.021610 1.795350 -0.029890 
#    z 0.019620 -0.029890 1.891040 
# 
# From -- ./inp_files/610480.got.cif
#   From: 2010.05.17/outbox.cif.g08.bks.cpg/sg2_306_cif.got.tgz:610480.got - 2010.06.03 11:33:40.
