data_PCOD9006646
_publ_section_title
;
Structure prediction by ZEFSAII (Michael W. Deem and Ramdas Pophale) SiO2 
 PCOD9006646
Probable space group: P -1
;
_chemical_formula_sum "Si O2"
_cell_formula_units_Z 14
_cell_length_a 11.407126
_cell_length_b 7.721128
_cell_length_c 12.044576
_cell_angle_alpha 100.559836
_cell_angle_beta 34.954420
_cell_angle_gamma 106.160679
_cell_volume 581.819881
_symmetry_space_group_name_H-M "P -1"
_symmetry_group_IT_number 2
_symmetry_cell_setting 'triclinic'
loop_
_space_group_symop_operation_xyz
x,y,z
-x,-y,-z
loop_
_atom_site_type_symbol
_atom_site_label
_atom_site_fract_x
_atom_site_fract_y
_atom_site_fract_z
Si Si1 0.778327 0.352659 0.509322
Si Si2 0.259432 0.229583 0.645604
Si Si3 0.282733 0.970749 0.319061
Si Si4 0.320923 0.396533 0.852269
Si Si5 0.641854 0.215962 0.179004
Si Si6 0.992332 0.751810 0.366784
Si Si7 0.118417 0.828908 0.801339
O O1 0.814466 0.183478 0.532228
O O2 0.545577 0.377685 0.717805
O O3 0.778820 0.295594 0.373444
O O4 0.939497 0.544125 0.422065
O O5 0.306269 0.367701 0.726813
O O6 0.457032 0.240032 0.411922
O O7 0.070801 0.247819 0.712808
O O8 0.206662 0.031968 0.718075
O O9 0.219179 0.865254 0.241552
O O10 0.522856 0.049963 0.176626
O O11 0.167017 0.137475 0.438476
O O12 0.295713 0.598701 0.915458
O O13 0.129104 0.246770 0.031189
O O14 0.821830 0.186422 0.118713
#
# Coordination Sequence:
#
# PCOD9006646 Si02
#       7
#     2   2   2   2   2   2   2
#     4  12  21  42  68  94 131 166 212 260 324 376
#     4  11  20  40  61  91 133 164 206 266 312 373
#     4  10  21  38  67  95 122 171 220 256 311 380
#     4  12  24  38  65  99 131 166 209 264 322 381
#     4  11  20  40  61  91 133 164 206 266 312 373
#     4  10  21  38  67  95 122 171 220 256 311 380
#     4  12  24  38  65  99 131 166 209 264 322 381
#
# _framework density 24.062431
#
# number of rings (size 3 to 8) (size 9 to 14) (size 15 to 20)
#    0.000    0.857    7.143    3.857    0.000    0.000 
#    0.000    0.000    0.000   13.714    0.000    0.000 
#    0.000    0.000    0.000    0.000    0.000    0.000 
#
# Total GULP energy -78378.533976 kJ/mol
# GULP energy per Si atom -5598.466713 kJ/mol
# Density = 2.400766 g / cm^3
# Si number density = 24.062431 Si / 1000 Ang^3
#
#
#
# Elastic Constant Matrix: (Units=GPa)
#
#
# Indices 1 2 3 4 5 6 
#
# 1 60.0941 20.3160 -2.9547 3.8876 3.4236 11.8634
# 2 20.3160 159.2828 9.9482 -8.2329 -1.1234 17.4538
# 3 -2.9547 9.9482 51.1809 -1.5126 -8.4432 0.3712
# 4 3.8876 -8.2329 -1.5126 23.5870 -2.2895 -3.0955
# 5 3.4236 -1.1234 -8.4432 -2.2895 24.0511 -4.0872
# 6 11.8634 17.4538 0.3712 -3.0955 -4.0872 33.8444
#
#
#
# Elastic Compliance Matrix: (Units=1/GPa)
#
#
# Indices 1 2 3 4 5 6 
#
# 1 0.019263 -0.002066 0.000716 -0.005134 -0.004210 -0.006673
# 2 -0.002066 0.007046 -0.001418 0.002345 -0.000109 -0.002693
# 3 0.000716 -0.001418 0.021155 0.001659 0.007641 0.001323
# 4 -0.005134 0.002345 0.001659 0.045546 0.006701 0.005547
# 5 -0.004210 -0.000109 0.007641 0.006701 0.046803 0.007713
# 6 -0.006673 -0.002693 0.001323 0.005547 0.007713 0.034699
#
#
# Mechanical properties :
#
#
# Convention : Reuss Voigt Hill
#
# Bulk Modulus (GPa) = 23.84985 36.13079 29.99032
# Shear Modulus (GPa) = 25.76995 32.51307 29.14151
#
# Velocity S-wave (km/s) = 3.27611 3.67985 3.48383
# Velocity P-wave (km/s) = 4.92379 5.75353 5.35475
#
# Compressibility (1/GPa) = 0.04192899
#
# Stress axis : x y z
#
# Youngs Moduli (GPa) = 51.91190 141.93195 47.26916
#
# Poissons Ratio (x) = 0.29317 -0.03383
# Poissons Ratio (y) = 0.10723 0.06702
# Poissons Ratio (z) = -0.03715 0.20124
#
# Static dielectric constant tensor:
#      x y z
#    x 1.950300 0.013060 -0.007470 
#    y 0.013060 1.870510 0.016830 
#    z -0.007470 0.016830 1.958720 
# 
# From -- ./inp_files/415089.got.cif
#   From: 2010.05.17/outbox.cif.g08.bks.cpg/sg2_208_cif.got.tgz:415089.got - 2010.06.03 11:33:40.
