data_PCOD9006660
_publ_section_title
;
Structure prediction by ZEFSAII (Michael W. Deem and Ramdas Pophale) SiO2 
 PCOD9006660
Probable space group: P -1
;
_chemical_formula_sum "Si O2"
_cell_formula_units_Z 16
_cell_length_a 10.941644
_cell_length_b 13.373770
_cell_length_c 13.303489
_cell_angle_alpha 40.839468
_cell_angle_beta 146.142923
_cell_angle_gamma 134.175680
_cell_volume 696.551141
_symmetry_space_group_name_H-M "P -1"
_symmetry_group_IT_number 2
_symmetry_cell_setting 'triclinic'
loop_
_space_group_symop_operation_xyz
x,y,z
-x,-y,-z
loop_
_atom_site_type_symbol
_atom_site_label
_atom_site_fract_x
_atom_site_fract_y
_atom_site_fract_z
Si Si1 0.658604 0.567119 0.879430
Si Si2 0.991476 0.714998 0.840567
Si Si3 0.391566 0.786096 0.925347
Si Si4 0.921026 0.748903 0.080160
Si Si5 0.338976 0.595989 0.459989
Si Si6 0.686525 0.701547 0.462367
Si Si7 0.060700 0.934793 0.448438
Si Si8 0.110056 0.085721 0.858638
O O1 0.896344 0.613316 0.947620
O O2 0.699619 0.662161 0.938064
O O3 0.481397 0.618532 0.642582
O O4 0.600018 0.381975 0.989043
O O5 0.849537 0.644286 0.700115
O O6 0.249087 0.747226 0.960360
O O7 0.919579 0.881322 0.679757
O O8 0.249191 0.875751 0.686089
O O9 0.636744 0.885461 0.030168
O O10 0.889508 0.802805 0.130568
O O11 0.023966 0.908956 0.970303
O O12 0.098565 0.634907 0.284617
O O13 0.465163 0.701988 0.375087
O O14 0.340445 0.422525 0.551558
O O15 0.825695 0.862818 0.395819
O O16 0.044449 0.878445 0.365426
#
# Coordination Sequence:
#
# PCOD9006660 Si02
#       8
#     2   2   2   2   2   2   2   2
#     4  11  23  43  66 100 125 171 213 257 328 395
#     4  10  21  38  67  96 135 169 205 259 333 386
#     4  11  24  40  68  96 134 162 214 269 319 383
#     4  11  25  45  65  90 132 171 222 273 309 374
#     4  10  22  40  68  93 133 172 205 262 328 382
#     4   9  19  37  64 100 129 158 211 254 326 395
#     4  11  22  42  63  96 134 167 208 273 321 379
#     4  11  27  43  63  97 124 174 230 261 314 377
#
# _framework density 22.970317999999999
#
# number of rings (size 3 to 8) (size 9 to 14) (size 15 to 20)
#    0.000    1.500    1.250    4.125    5.250    5.000 
#    0.000    6.875    0.000    0.000    0.000    0.000 
#    0.000    0.000    0.000    0.000    0.000    0.000 
#
# Total GULP energy -89534.412909 kJ/mol
# GULP energy per Si atom -5595.900807 kJ/mol
# Density = 2.291804 g / cm^3
# Si number density = 22.970318 Si / 1000 Ang^3
#
#
#
# Elastic Constant Matrix: (Units=GPa)
#
#
# Indices 1 2 3 4 5 6 
#
# 1 40.3786 -3.4846 25.7169 7.9430 -12.4253 -11.8453
# 2 -3.4846 80.3486 25.3690 -3.9450 -11.7658 -14.7125
# 3 25.7169 25.3690 77.3856 8.8215 -12.4003 -16.7427
# 4 7.9430 -3.9450 8.8215 29.4785 2.1401 -12.3193
# 5 -12.4253 -11.7658 -12.4003 2.1401 18.5667 13.8947
# 6 -11.8453 -14.7125 -16.7427 -12.3193 13.8947 44.6987
#
#
#
# Elastic Compliance Matrix: (Units=1/GPa)
#
#
# Indices 1 2 3 4 5 6 
#
# 1 0.043768 0.009236 -0.012108 -0.009821 0.029521 -0.001780
# 2 0.009236 0.017102 -0.006677 0.002394 0.009926 0.003150
# 3 -0.012108 -0.006677 0.019792 -0.003190 0.000532 0.000963
# 4 -0.009821 0.002394 -0.003190 0.047362 -0.026274 0.018211
# 5 0.029521 0.009926 0.000532 -0.026274 0.104592 -0.028464
# 6 -0.001780 0.003150 0.000963 0.018211 -0.028464 0.037165
#
#
# Mechanical properties :
#
#
# Convention : Reuss Voigt Hill
#
# Bulk Modulus (GPa) = 16.24307 32.59059 24.41683
# Shear Modulus (GPa) = 16.16031 28.58289 22.37160
#
# Velocity S-wave (km/s) = 2.65529 3.53135 3.12418
# Velocity P-wave (km/s) = 4.06047 5.55393 4.86485
#
# Compressibility (1/GPa) = 0.06156473
#
# Stress axis : x y z
#
# Youngs Moduli (GPa) = 22.84776 58.47187 50.52556
#
# Poissons Ratio (x) = -0.54003 0.61176
# Poissons Ratio (y) = -0.21102 0.33734
# Poissons Ratio (z) = 0.27664 0.39039
#
# Static dielectric constant tensor:
#      x y z
#    x 1.875580 -0.003830 -0.017540 
#    y -0.003830 1.885500 0.024040 
#    z -0.017540 0.024040 1.822870 
# 
# From -- ./inp_files/521493.got.cif
#   From: 2010.05.17/outbox.cif.g08.bks.cpg/sg2_261_cif.got.tgz:521493.got - 2010.06.03 11:33:40.
