data_PCOD9006701
_publ_section_title
;
Structure prediction by ZEFSAII (Michael W. Deem and Ramdas Pophale) SiO2 
 PCOD9006701
Probable space group: P -1
;
_chemical_formula_sum "Si O2"
_cell_formula_units_Z 16
_cell_length_a 9.001086
_cell_length_b 14.285146
_cell_length_c 8.314827
_cell_angle_alpha 141.310654
_cell_angle_beta 88.500687
_cell_angle_gamma 94.345290
_cell_volume 665.459829
_symmetry_space_group_name_H-M "P -1"
_symmetry_group_IT_number 2
_symmetry_cell_setting 'triclinic'
loop_
_space_group_symop_operation_xyz
x,y,z
-x,-y,-z
loop_
_atom_site_type_symbol
_atom_site_label
_atom_site_fract_x
_atom_site_fract_y
_atom_site_fract_z
Si Si1 0.310963 0.801925 0.230325
Si Si2 0.066834 0.398799 0.541948
Si Si3 0.187018 0.408282 0.220981
Si Si4 0.229769 0.177357 0.411284
Si Si5 0.526157 0.176784 0.260093
Si Si6 0.335146 0.142784 0.731331
Si Si7 0.368097 0.592315 0.191381
Si Si8 0.176516 0.828310 0.935133
O O1 0.488168 0.806416 0.180321
O O2 0.273056 0.646609 0.118981
O O3 0.307312 0.966149 0.532545
O O4 0.196251 0.809098 0.097657
O O5 0.186805 0.445123 0.460380
O O6 0.122918 0.309404 0.571702
O O7 0.969449 0.536639 0.760396
O O8 0.953841 0.272554 0.284071
O O9 0.300204 0.500650 0.221128
O O10 0.227906 0.239250 0.966961
O O11 0.358413 0.223109 0.335824
O O12 0.293752 0.168389 0.578582
O O13 0.166210 0.006692 0.144304
O O14 0.581721 0.243309 0.518021
O O15 0.663774 0.219173 0.197033
O O16 0.500000 0.000000 0.000000
O O17 0.500000 0.500000 0.000000
#
# Coordination Sequence:
#
# PCOD9006701 Si02
#       8
#     2   2   2   2   2   2   2   2
#     4  10  22  40  73  98 138 170 224 294 345 406
#     4  11  25  46  62  95 144 184 225 274 341 418
#     4  11  25  46  64  95 140 185 229 274 343 414
#     4  10  21  41  71  99 130 176 229 287 338 407
#     4  10  21  38  68 103 132 171 233 284 339 403
#     4  10  21  43  66 103 131 173 227 281 350 406
#     4  12  22  44  70 104 138 176 232 288 348 407
#     4  10  22  43  66 102 133 178 232 278 345 413
#
# _framework density 24.043524999999999
#
# number of rings (size 3 to 8) (size 9 to 14) (size 15 to 20)
#    0.000    1.500    3.750    0.375    3.500    1.500 
#   13.500    3.125    0.000    0.000    0.000    0.000 
#    0.000    0.000    0.000    0.000    0.000    0.000 
#
# Total GULP energy -89260.520946 kJ/mol
# GULP energy per Si atom -5578.782559 kJ/mol
# Density = 2.398880 g / cm^3
# Si number density = 24.043525 Si / 1000 Ang^3
#
#
#
# Elastic Constant Matrix: (Units=GPa)
#
#
# Indices 1 2 3 4 5 6 
#
# 1 42.0569 27.1488 27.2720 9.2455 -2.8247 4.2459
# 2 27.1488 125.1736 18.1724 25.1640 -9.5730 -13.4139
# 3 27.2720 18.1724 107.5001 19.4225 -30.7033 -1.4725
# 4 9.2455 25.1640 19.4225 26.0685 -5.2567 -15.9133
# 5 -2.8247 -9.5730 -30.7033 -5.2567 40.7298 4.9821
# 6 4.2459 -13.4139 -1.4725 -15.9133 4.9821 38.7470
#
#
#
# Elastic Compliance Matrix: (Units=1/GPa)
#
#
# Indices 1 2 3 4 5 6 
#
# 1 0.035171 -0.006469 -0.008296 -0.006126 -0.005115 -0.008267
# 2 -0.006469 0.011197 0.002163 -0.009292 0.002550 0.000523
# 3 -0.008296 0.002163 0.016220 -0.011300 0.011167 -0.003802
# 4 -0.006126 -0.009292 -0.011300 0.074055 -0.005004 0.028083
# 5 -0.005115 0.002550 0.011167 -0.005004 0.033113 -0.004445
# 6 -0.008267 0.000523 -0.003802 0.028083 -0.004445 0.038856
#
#
# Mechanical properties :
#
#
# Convention : Reuss Voigt Hill
#
# Bulk Modulus (GPa) = 26.75055 46.65745 36.70400
# Shear Modulus (GPa) = 20.30217 34.58490 27.44353
#
# Velocity S-wave (km/s) = 2.90900 3.79678 3.38214
# Velocity P-wave (km/s) = 4.73635 6.21838 5.52726
#
# Compressibility (1/GPa) = 0.03738241
#
# Stress axis : x y z
#
# Youngs Moduli (GPa) = 28.43258 89.30855 61.65085
#
# Poissons Ratio (x) = 0.57777 0.51148
# Poissons Ratio (y) = 0.18394 -0.13333
# Poissons Ratio (z) = 0.23589 -0.19315
#
# Static dielectric constant tensor:
#      x y z
#    x 1.929300 -0.025750 0.016400 
#    y -0.025750 1.898710 -0.052890 
#    z 0.016400 -0.052890 1.922840 
# 
# From -- ./inp_files/209360.got.cif
#   From: 2010.05.17/outbox.cif.g08.bks.cpg/sg2_105_cif.got.tgz:209360.got - 2010.06.03 11:33:40.
