data_PCOD9006801
_publ_section_title
;
Structure prediction by ZEFSAII (Michael W. Deem and Ramdas Pophale) SiO2 
 PCOD9006801
Probable space group: P -1
;
_chemical_formula_sum "Si O2"
_cell_formula_units_Z 16
_cell_length_a 18.521490
_cell_length_b 27.180340
_cell_length_c 5.325389
_cell_angle_alpha 111.023064
_cell_angle_beta 78.215506
_cell_angle_gamma 160.558982
_cell_volume 751.378188
_symmetry_space_group_name_H-M "P -1"
_symmetry_group_IT_number 2
_symmetry_cell_setting 'triclinic'
loop_
_space_group_symop_operation_xyz
x,y,z
-x,-y,-z
loop_
_atom_site_type_symbol
_atom_site_label
_atom_site_fract_x
_atom_site_fract_y
_atom_site_fract_z
Si Si1 0.964082 0.706950 0.316814
Si Si2 0.793135 0.489098 0.741452
Si Si3 0.486747 0.067181 0.362631
Si Si4 0.200334 0.173117 0.853189
Si Si5 0.201477 0.806224 0.709602
Si Si6 0.714246 0.832798 0.719825
Si Si7 0.432402 0.484502 0.768633
Si Si8 0.844780 0.406250 0.690869
O O1 0.835832 0.675294 0.328889
O O2 0.997777 0.706865 0.569767
O O3 0.821735 0.562776 0.013892
O O4 0.237895 0.898983 0.380286
O O5 0.553313 0.330272 0.450176
O O6 0.775457 0.421052 0.768669
O O7 0.048685 0.663895 0.736852
O O8 0.674695 0.151236 0.488671
O O9 0.617994 0.211920 0.502041
O O10 0.400056 0.979885 0.006263
O O11 0.220916 0.167349 0.540132
O O12 0.253687 0.165162 0.014374
O O13 0.407737 0.355305 0.068012
O O14 0.944599 0.025635 0.841111
O O15 0.500000 0.500000 0.500000
O O16 0.500000 0.500000 0.000000
O O17 0.000000 0.500000 0.500000
O O18 0.000000 0.500000 0.000000
#
# Coordination Sequence:
#
# PCOD9006801 Si02
#       8
#     2   2   2   2   2   2   2   2
#     4  11  24  42  71  98 135 180 238 278 336 417
#     4  11  23  40  70  99 131 181 231 274 336 403
#     4  10  23  41  68 102 139 177 228 275 345 400
#     4  10  21  42  65  93 132 162 222 276 336 391
#     4  10  21  41  71  98 135 180 228 278 333 405
#     4  10  21  38  69  95 123 173 218 278 323 399
#     4  12  27  44  69  98 137 180 223 287 346 399
#     4  12  27  45  66  99 144 180 219 279 340 397
#
# _framework density 21.294205000000002
#
# number of rings (size 3 to 8) (size 9 to 14) (size 15 to 20)
#    0.000    1.250    2.500    2.625    5.250    1.000 
#    0.000    0.000    0.000    0.000    0.000    0.000 
#    0.000    0.000    0.000    0.000    0.000    0.000 
#
# Total GULP energy -89194.922020 kJ/mol
# GULP energy per Si atom -5574.682626 kJ/mol
# Density = 2.124574 g / cm^3
# Si number density = 21.294205 Si / 1000 Ang^3
#
#
#
# Elastic Constant Matrix: (Units=GPa)
#
#
# Indices 1 2 3 4 5 6 
#
# 1 118.4898 42.5058 33.9560 -1.0321 14.0041 7.1930
# 2 42.5058 94.7877 26.5757 16.3022 -4.3405 -2.7528
# 3 33.9560 26.5757 84.1821 -3.6153 17.9019 1.8490
# 4 -1.0321 16.3022 -3.6153 39.9892 2.4694 -0.6341
# 5 14.0041 -4.3405 17.9019 2.4694 30.6051 4.6296
# 6 7.1930 -2.7528 1.8490 -0.6341 4.6296 32.9615
#
#
#
# Elastic Compliance Matrix: (Units=1/GPa)
#
#
# Indices 1 2 3 4 5 6 
#
# 1 0.011648 -0.005478 -0.001751 0.002648 -0.004970 -0.002152
# 2 -0.005478 0.016126 -0.004961 -0.007638 0.008079 0.001539
# 3 -0.001751 -0.004961 0.016424 0.004083 -0.009917 0.000518
# 4 0.002648 -0.007638 0.004083 0.028994 -0.007038 0.000101
# 5 -0.004970 0.008079 -0.009917 -0.007038 0.043048 -0.003866
# 6 -0.002152 0.001539 0.000518 0.000101 -0.003866 0.031452
#
#
# Mechanical properties :
#
#
# Convention : Reuss Voigt Hill
#
# Bulk Modulus (GPa) = 50.45912 55.94829 53.20371
# Shear Modulus (GPa) = 27.98337 33.67262 30.82800
#
# Velocity S-wave (km/s) = 3.62903 3.98088 3.80902
# Velocity P-wave (km/s) = 6.42708 6.88918 6.66214
#
# Compressibility (1/GPa) = 0.01981802
#
# Stress axis : x y z
#
# Youngs Moduli (GPa) = 85.85531 62.01342 60.88516
#
# Poissons Ratio (x) = 0.33970 0.10660
# Poissons Ratio (y) = 0.47030 0.30205
# Poissons Ratio (z) = 0.15032 0.30765
#
# Static dielectric constant tensor:
#      x y z
#    x 1.734960 -0.032870 0.035330 
#    y -0.032870 1.738050 -0.003950 
#    z 0.035330 -0.003950 1.864270 
# 
# From -- ./inp_files/81374.got.cif
#   From: 2010.05.17/outbox.cif.g08.bks.cpg/sg2_41_cif.got.tgz:81374.got - 2010.06.03 11:33:40.
