data_PCOD9006719
_publ_section_title
;
Structure prediction by ZEFSAII (Michael W. Deem and Ramdas Pophale) SiO2 
 PCOD9006719
Probable space group: P -1
;
_chemical_formula_sum "Si O2"
_cell_formula_units_Z 14
_cell_length_a 19.110246
_cell_length_b 8.343834
_cell_length_c 9.067273
_cell_angle_alpha 85.592053
_cell_angle_beta 54.547761
_cell_angle_gamma 41.782598
_cell_volume 592.799767
_symmetry_space_group_name_H-M "P -1"
_symmetry_group_IT_number 2
_symmetry_cell_setting 'triclinic'
loop_
_space_group_symop_operation_xyz
x,y,z
-x,-y,-z
loop_
_atom_site_type_symbol
_atom_site_label
_atom_site_fract_x
_atom_site_fract_y
_atom_site_fract_z
Si Si1 0.222875 0.435268 0.735503
Si Si2 0.519969 0.170308 0.332372
Si Si3 0.560173 0.438384 0.100579
Si Si4 0.036220 0.185403 0.736735
Si Si5 0.712247 0.717605 0.876810
Si Si6 0.184403 0.767416 0.333136
Si Si7 0.747191 0.848533 0.535400
O O1 0.337604 0.409950 0.598846
O O2 0.204056 0.385556 0.602709
O O3 0.337535 0.116568 0.704948
O O4 0.046747 0.739331 0.015782
O O5 0.546412 0.307064 0.231889
O O6 0.557569 0.000627 0.154550
O O7 0.437181 0.773667 0.294141
O O8 0.500000 0.500000 0.000000
O O9 0.749469 0.199898 0.858528
O O10 0.119117 0.225309 0.650933
O O11 0.877545 0.448919 0.799042
O O12 0.171603 0.854815 0.508355
O O13 0.694738 0.578197 0.822925
O O14 0.742278 0.806550 0.714838
O O15 0.000000 0.000000 0.500000
#
# Coordination Sequence:
#
# PCOD9006719 Si02
#       7
#     2   2   2   2   2   2   2
#     4  10  24  40  64  89 129 171 207 249 320 389
#     4  10  22  45  63  90 126 168 208 261 318 372
#     4  12  23  39  69  95 125 158 216 272 308 358
#     4  10  21  42  59  91 133 167 204 262 318 376
#     4  10  21  38  68  89 124 164 219 261 312 363
#     4  10  22  40  64  96 124 163 210 263 317 369
#     4  12  23  38  65  97 124 163 219 261 312 369
#
# _framework density 23.616743
#
# number of rings (size 3 to 8) (size 9 to 14) (size 15 to 20)
#    0.000    1.429    2.857    1.714    2.000    6.286 
#    0.000    4.286    0.000    0.000    0.000    0.000 
#    0.000    0.000    0.000    0.000    0.000    0.000 
#
# Total GULP energy -78321.575414 kJ/mol
# GULP energy per Si atom -5594.398244 kJ/mol
# Density = 2.356299 g / cm^3
# Si number density = 23.616743 Si / 1000 Ang^3
#
#
#
# Elastic Constant Matrix: (Units=GPa)
#
#
# Indices 1 2 3 4 5 6 
#
# 1 53.5065 -9.1815 24.3813 1.3559 -13.0563 8.1759
# 2 -9.1815 62.0967 3.3799 -17.0546 -6.7203 9.7315
# 3 24.3813 3.3799 146.0942 -14.5157 -11.7834 22.0169
# 4 1.3559 -17.0546 -14.5157 27.9210 12.0265 0.2446
# 5 -13.0563 -6.7203 -11.7834 12.0265 49.1925 -4.3963
# 6 8.1759 9.7315 22.0169 0.2446 -4.3963 36.4083
#
#
#
# Elastic Compliance Matrix: (Units=1/GPa)
#
#
# Indices 1 2 3 4 5 6 
#
# 1 0.022976 0.003970 -0.003190 -0.003034 0.006304 -0.003510
# 2 0.003970 0.021570 0.001351 0.013612 0.000324 -0.007526
# 3 -0.003190 0.001351 0.008623 0.005692 -0.000431 -0.004949
# 4 -0.003034 0.013612 0.005692 0.052059 -0.011032 -0.008081
# 5 0.006304 0.000324 -0.000431 -0.011032 0.024803 0.001827
# 6 -0.003510 -0.007526 -0.004949 -0.008081 0.001827 0.033534
#
#
# Mechanical properties :
#
#
# Convention : Reuss Voigt Hill
#
# Bulk Modulus (GPa) = 17.41243 33.20633 25.30938
# Shear Modulus (GPa) = 28.01961 38.91220 33.46590
#
# Velocity S-wave (km/s) = 3.44820 4.06353 3.76844
# Velocity P-wave (km/s) = 4.82103 6.00895 5.44747
#
# Compressibility (1/GPa) = 0.05743024
#
# Stress axis : x y z
#
# Youngs Moduli (GPa) = 43.52411 46.36013 115.97207
#
# Poissons Ratio (x) = -0.18404 0.36999
# Poissons Ratio (y) = -0.17278 -0.15671
# Poissons Ratio (z) = 0.13885 -0.06265
#
# Static dielectric constant tensor:
#      x y z
#    x 1.894740 0.006100 0.002360 
#    y 0.006100 1.919810 0.035010 
#    z 0.002360 0.035010 1.917150 
# 
# From -- ./inp_files/159953.got.cif
#   From: 2010.05.17/outbox.cif.g08.bks.cpg/sg2_80_cif.got.tgz:159953.got - 2010.06.03 11:33:40.
