data_PCOD9006521
_publ_section_title
;
Structure prediction by ZEFSAII (Michael W. Deem and Ramdas Pophale) SiO2 
 PCOD9006521
Probable space group: P -1
;
_chemical_formula_sum "Si O2"
_cell_formula_units_Z 14
_cell_length_a 10.074104
_cell_length_b 10.675257
_cell_length_c 11.967604
_cell_angle_alpha 106.697377
_cell_angle_beta 99.961116
_cell_angle_gamma 139.289560
_cell_volume 627.348289
_symmetry_space_group_name_H-M "P -1"
_symmetry_group_IT_number 2
_symmetry_cell_setting 'triclinic'
loop_
_space_group_symop_operation_xyz
x,y,z
-x,-y,-z
loop_
_atom_site_type_symbol
_atom_site_label
_atom_site_fract_x
_atom_site_fract_y
_atom_site_fract_z
Si Si1 0.408844 0.039573 0.133010
Si Si2 0.230534 0.399340 0.400414
Si Si3 0.757425 0.808501 0.831033
Si Si4 0.388984 0.854495 0.289590
Si Si5 0.183829 0.279885 0.617396
Si Si6 0.101903 0.671044 0.792577
Si Si7 0.676942 0.948858 0.528796
O O1 0.300428 0.086466 0.174055
O O2 0.719386 0.291981 0.225919
O O3 0.363114 0.876144 0.164010
O O4 0.277624 0.904999 0.959991
O O5 0.178229 0.224848 0.276923
O O6 0.220299 0.369902 0.522458
O O7 0.512518 0.685702 0.472527
O O8 0.029485 0.344497 0.320860
O O9 0.481705 0.521784 0.766218
O O10 0.000000 0.000000 0.000000
O O11 0.605246 0.932968 0.387001
O O12 0.123459 0.575575 0.227347
O O13 0.435952 0.030647 0.404554
O O14 0.000000 0.000000 0.500000
O O15 0.986469 0.195825 0.646244
#
# Coordination Sequence:
#
# PCOD9006521 Si02
#       7
#     2   2   2   2   2   2   2
#     4  11  22  39  65  91 133 173 216 264 331 390
#     4  11  23  45  69  94 137 172 216 275 334 381
#     4  12  25  45  66  99 137 175 215 273 332 390
#     4  10  21  38  66  95 127 164 220 276 321 380
#     4  12  25  41  70  96 130 175 224 263 324 399
#     4  10  22  41  64  94 128 173 217 269 324 393
#     4  10  22  41  66  99 127 169 221 273 323 389
#
# _framework density 22.316151999999999
#
# number of rings (size 3 to 8) (size 9 to 14) (size 15 to 20)
#    0.000    1.143    2.857    3.429    2.000    0.000 
#    0.000    7.857    0.000    0.000    0.000    0.000 
#    0.000    0.000    0.000    0.000    0.000    0.000 
#
# Total GULP energy -78212.653627 kJ/mol
# GULP energy per Si atom -5586.618116 kJ/mol
# Density = 2.226536 g / cm^3
# Si number density = 22.316152 Si / 1000 Ang^3
#
#
#
# Elastic Constant Matrix: (Units=GPa)
#
#
# Indices 1 2 3 4 5 6 
#
# 1 59.4883 17.3334 31.5466 10.9863 7.2332 -0.0412
# 2 17.3334 88.0041 33.7432 8.1146 17.5093 -6.3728
# 3 31.5466 33.7432 104.9447 9.1946 22.7859 1.0343
# 4 10.9863 8.1146 9.1946 31.6056 6.2947 2.7293
# 5 7.2332 17.5093 22.7859 6.2947 40.7210 6.4880
# 6 -0.0412 -6.3728 1.0343 2.7293 6.4880 29.5271
#
#
#
# Elastic Compliance Matrix: (Units=1/GPa)
#
#
# Indices 1 2 3 4 5 6 
#
# 1 0.021141 -0.001706 -0.005520 -0.005497 0.000890 0.000167
# 2 -0.001706 0.014212 -0.002959 -0.001656 -0.004586 0.004329
# 3 -0.005520 -0.002959 0.013272 -0.000159 -0.005155 0.000036
# 4 -0.005497 -0.001656 -0.000159 0.034901 -0.003157 -0.002892
# 5 0.000890 -0.004586 -0.005155 -0.003157 0.030908 -0.007308
# 6 0.000167 0.004329 0.000036 -0.002892 -0.007308 0.036674
#
#
# Mechanical properties :
#
#
# Convention : Reuss Voigt Hill
#
# Bulk Modulus (GPa) = 35.38933 46.40927 40.89930
# Shear Modulus (GPa) = 27.64018 31.69165 29.66592
#
# Velocity S-wave (km/s) = 3.52315 3.77254 3.64998
# Velocity P-wave (km/s) = 5.69585 6.31011 6.01083
#
# Compressibility (1/GPa) = 0.02825711
#
# Stress axis : x y z
#
# Youngs Moduli (GPa) = 47.30084 70.36205 75.34441
#
# Poissons Ratio (x) = 0.12001 0.41590
# Poissons Ratio (y) = 0.08068 0.22293
# Poissons Ratio (z) = 0.26110 0.20819
#
# Static dielectric constant tensor:
#      x y z
#    x 1.936590 -0.002240 0.002100 
#    y -0.002240 1.816940 0.012140 
#    z 0.002100 0.012140 1.854860 
# 
# From -- ./inp_files/428393.got.cif
#   From: 2010.05.17/outbox.cif.g08.bks.cpg/sg2_215_cif.got.tgz:428393.got - 2010.06.03 11:33:40.
