data_PCOD9006932
_publ_section_title
;
Structure prediction by ZEFSAII (Michael W. Deem and Ramdas Pophale) SiO2 
 PCOD9006932
Probable space group: P -1
;
_chemical_formula_sum "Si O2"
_cell_formula_units_Z 16
_cell_length_a 8.189761
_cell_length_b 17.255642
_cell_length_c 6.491999
_cell_angle_alpha 99.341187
_cell_angle_beta 57.678922
_cell_angle_gamma 94.372456
_cell_volume 764.959982
_symmetry_space_group_name_H-M "P -1"
_symmetry_group_IT_number 2
_symmetry_cell_setting 'triclinic'
loop_
_space_group_symop_operation_xyz
x,y,z
-x,-y,-z
loop_
_atom_site_type_symbol
_atom_site_label
_atom_site_fract_x
_atom_site_fract_y
_atom_site_fract_z
Si Si1 0.683504 0.001356 0.148865
Si Si2 0.684624 0.398468 0.785425
Si Si3 0.398363 0.263014 0.902027
Si Si4 0.809849 0.815156 0.374184
Si Si5 0.496975 0.127458 0.060284
Si Si6 0.109046 0.327029 0.466601
Si Si7 0.059758 0.020354 0.698837
Si Si8 0.429484 0.452222 0.333072
O O1 0.640523 0.084318 0.104559
O O2 0.728149 0.003095 0.362952
O O3 0.894894 0.975139 0.913310
O O4 0.546582 0.937705 0.111913
O O5 0.529391 0.335922 0.777933
O O6 0.662217 0.483068 0.730974
O O7 0.900542 0.366641 0.595437
O O8 0.609498 0.410791 0.075867
O O9 0.321714 0.214713 0.737907
O O10 0.525050 0.207183 0.946750
O O11 0.213130 0.293132 0.174474
O O12 0.682160 0.853304 0.660106
O O13 0.912544 0.741503 0.380513
O O14 0.942901 0.885396 0.240287
O O15 0.266885 0.389067 0.466030
O O16 0.000000 0.000000 0.500000
O O17 0.500000 0.500000 0.500000
#
# Coordination Sequence:
#
# PCOD9006932 Si02
#       8
#     2   2   2   2   2   2   2   2
#     4  10  22  37  58  82 114 152 204 259 309 361
#     4  10  22  40  63  92 120 162 198 239 302 356
#     4  10  22  41  58  85 128 159 200 257 299 360
#     4  11  22  39  58  83 120 161 198 252 311 361
#     4  10  21  39  57  84 114 155 205 256 307 362
#     4  10  23  39  61  92 125 157 203 244 296 365
#     4  11  22  38  58  84 116 156 204 257 307 365
#     4  10  21  40  66  92 127 154 196 248 290 357
#
# _framework density 20.916129000000002
#
# number of rings (size 3 to 8) (size 9 to 14) (size 15 to 20)
#    0.000    1.750    2.500    1.125    1.750    3.000 
#    2.250    0.000    0.000    0.000    0.000    0.000 
#    0.000    0.000    0.000    0.000    0.000    0.000 
#
# Total GULP energy -89202.045822 kJ/mol
# GULP energy per Si atom -5575.127864 kJ/mol
# Density = 2.086852 g / cm^3
# Si number density = 20.916129 Si / 1000 Ang^3
#
#
#
# Elastic Constant Matrix: (Units=GPa)
#
#
# Indices 1 2 3 4 5 6 
#
# 1 75.5492 24.6337 37.6036 18.1903 7.7644 -7.5636
# 2 24.6337 79.6175 24.0175 3.0921 -4.5159 -0.1124
# 3 37.6036 24.0175 72.3420 15.9591 3.8358 8.3451
# 4 18.1903 3.0921 15.9591 25.8841 4.7830 4.7380
# 5 7.7644 -4.5159 3.8358 4.7830 32.2228 5.2790
# 6 -7.5636 -0.1124 8.3451 4.7380 5.2790 44.2834
#
#
#
# Elastic Compliance Matrix: (Units=1/GPa)
#
#
# Indices 1 2 3 4 5 6 
#
# 1 0.022641 -0.004251 -0.008611 -0.010549 -0.004633 0.007160
# 2 -0.004251 0.015000 -0.003495 0.002885 0.003233 -0.000723
# 3 -0.008611 -0.003495 0.021290 -0.005888 0.000735 -0.004949
# 4 -0.010549 0.002885 -0.005888 0.050939 -0.002967 -0.005781
# 5 -0.004633 0.003233 0.000735 -0.002967 0.033714 -0.004623
# 6 0.007160 -0.000723 -0.004949 -0.005781 -0.004623 0.025905
#
#
# Mechanical properties :
#
#
# Convention : Reuss Voigt Hill
#
# Bulk Modulus (GPa) = 38.14096 44.44646 41.29371
# Shear Modulus (GPa) = 23.70322 29.89498 26.79910
#
# Velocity S-wave (km/s) = 3.37003 3.78468 3.58336
# Velocity P-wave (km/s) = 5.78079 6.35566 6.07503
#
# Compressibility (1/GPa) = 0.02621853
#
# Stress axis : x y z
#
# Youngs Moduli (GPa) = 44.16711 66.66780 46.96968
#
# Poissons Ratio (x) = 0.28338 0.40445
# Poissons Ratio (y) = 0.18774 0.16415
# Poissons Ratio (z) = 0.38032 0.23299
#
# Static dielectric constant tensor:
#      x y z
#    x 1.812790 -0.035680 0.030020 
#    y -0.035680 1.764240 -0.029590 
#    z 0.030020 -0.029590 1.838020 
# 
# From -- ./inp_files/44866.got.cif
#   From: 2010.05.17/outbox.cif.g08.bks.cpg/sg2_23_cif.got.tgz:44866.got - 2010.06.03 11:33:40.
