data_PCOD9006334
_publ_section_title
;
Structure prediction by ZEFSAII (Michael W. Deem and Ramdas Pophale) SiO2 
 PCOD9006334
Probable space group: P -1
;
_chemical_formula_sum "Si O2"
_cell_formula_units_Z 14
_cell_length_a 10.150950
_cell_length_b 14.048404
_cell_length_c 12.516146
_cell_angle_alpha 39.473484
_cell_angle_beta 144.684935
_cell_angle_gamma 146.784604
_cell_volume 542.281706
_symmetry_space_group_name_H-M "P -1"
_symmetry_group_IT_number 2
_symmetry_cell_setting 'triclinic'
loop_
_space_group_symop_operation_xyz
x,y,z
-x,-y,-z
loop_
_atom_site_type_symbol
_atom_site_label
_atom_site_fract_x
_atom_site_fract_y
_atom_site_fract_z
Si Si1 0.910288 0.314218 0.042108
Si Si2 0.360360 0.793416 0.619329
Si Si3 0.279619 0.723562 0.391249
Si Si4 0.179816 0.885847 0.628650
Si Si5 0.467605 0.473914 0.753866
Si Si6 0.841281 0.793541 0.025960
Si Si7 0.428284 0.305540 0.661124
O O1 0.799680 0.171483 0.189036
O O2 0.208469 0.369462 0.151683
O O3 0.672460 0.275371 0.835495
O O4 0.000000 0.500000 0.000000
O O5 0.202642 0.695952 0.491197
O O6 0.214880 0.771056 0.656920
O O7 0.500000 0.000000 0.500000
O O8 0.609474 0.769568 0.815236
O O9 0.324351 0.568079 0.528555
O O10 0.060825 0.753185 0.166559
O O11 0.576207 0.909893 0.409878
O O12 0.874951 0.842223 0.452916
O O13 0.333558 0.360410 0.868873
O O14 0.416374 0.323119 0.765356
O O15 0.000000 0.000000 0.000000
O O16 0.500000 0.500000 0.500000
#
# Coordination Sequence:
#
# PCOD9006334 Si02
#       7
#     2   2   2   2   2   2   2
#     4  10  21  40  64  97 124 168 216 263 315 380
#     4  10  21  38  65  95 126 169 219 252 310 387
#     4  11  26  43  63 101 135 167 208 274 329 371
#     4  11  21  39  68  93 128 168 219 255 313 389
#     4  11  25  45  65  95 141 159 212 280 325 369
#     4  12  23  41  69  96 127 177 217 260 314 389
#     4  11  22  39  68  94 120 173 223 252 314 390
#
# _framework density 25.816839000000002
#
# number of rings (size 3 to 8) (size 9 to 14) (size 15 to 20)
#    0.000    1.143    5.714    3.000    2.000    1.143 
#    2.571    0.714    0.000    0.000    0.000    0.000 
#    0.000    0.000    0.000    0.000    0.000    0.000 
#
# Total GULP energy -78373.583948 kJ/mol
# GULP energy per Si atom -5598.113139 kJ/mol
# Density = 2.575808 g / cm^3
# Si number density = 25.816839 Si / 1000 Ang^3
#
#
#
# Elastic Constant Matrix: (Units=GPa)
#
#
# Indices 1 2 3 4 5 6 
#
# 1 107.3348 43.7156 49.7651 -6.3749 17.3635 18.1860
# 2 43.7156 114.3751 60.9445 2.0309 -2.8328 36.6602
# 3 49.7651 60.9445 207.1049 23.3608 22.4186 27.6673
# 4 -6.3749 2.0309 23.3608 42.9785 6.1222 4.9118
# 5 17.3635 -2.8328 22.4186 6.1222 40.1353 -2.1714
# 6 18.1860 36.6602 27.6673 4.9118 -2.1714 42.7586
#
#
#
# Elastic Compliance Matrix: (Units=1/GPa)
#
#
# Indices 1 2 3 4 5 6 
#
# 1 0.013096 -0.003677 -0.001615 0.004058 -0.005758 -0.002132
# 2 -0.003677 0.014550 -0.002643 0.000748 0.003487 -0.009109
# 3 -0.001615 -0.002643 0.006842 -0.003282 -0.002876 -0.001243
# 4 0.004058 0.000748 -0.003282 0.026605 -0.004118 -0.003509
# 5 -0.005758 0.003487 -0.002876 -0.004118 0.030067 0.003320
# 6 -0.002132 -0.009109 -0.001243 -0.003509 0.003320 0.033480
#
#
# Mechanical properties :
#
#
# Convention : Reuss Voigt Hill
#
# Bulk Modulus (GPa) = 53.70786 81.96280 67.83533
# Shear Modulus (GPa) = 34.07964 43.46712 38.77338
#
# Velocity S-wave (km/s) = 3.63720 4.10771 3.87959
# Velocity P-wave (km/s) = 6.20383 7.36983 6.81183
#
# Compressibility (1/GPa) = 0.01861925
#
# Stress axis : x y z
#
# Youngs Moduli (GPa) = 76.35765 68.73049 146.16015
#
# Poissons Ratio (x) = 0.25270 0.23600
# Poissons Ratio (y) = 0.28074 0.38629
# Poissons Ratio (z) = 0.12329 0.18165
#
# Static dielectric constant tensor:
#      x y z
#    x 2.136090 -0.035160 0.033860 
#    y -0.035160 2.039530 0.034350 
#    z 0.033860 0.034350 2.019200 
# 
# From -- ./inp_files/182072.got.cif
#   From: 2010.05.17/outbox.cif.g08.bks.cpg/sg2_92_cif.got.tgz:182072.got - 2010.06.03 11:33:40.
