data_PCOD9006720
_publ_section_title
;
Structure prediction by ZEFSAII (Michael W. Deem and Ramdas Pophale) SiO2 
 PCOD9006720
Probable space group: P -1
;
_chemical_formula_sum "Si O2"
_cell_formula_units_Z 16
_cell_length_a 16.345816
_cell_length_b 5.221543
_cell_length_c 12.128354
_cell_angle_alpha 105.539618
_cell_angle_beta 46.068611
_cell_angle_gamma 91.669264
_cell_volume 699.674406
_symmetry_space_group_name_H-M "P -1"
_symmetry_group_IT_number 2
_symmetry_cell_setting 'triclinic'
loop_
_space_group_symop_operation_xyz
x,y,z
-x,-y,-z
loop_
_atom_site_type_symbol
_atom_site_label
_atom_site_fract_x
_atom_site_fract_y
_atom_site_fract_z
Si Si1 0.945223 0.522961 0.434380
Si Si2 0.508440 0.089587 0.127428
Si Si3 0.625829 0.154703 0.364486
Si Si4 0.284236 0.517103 0.441760
Si Si5 0.208382 0.144279 0.654008
Si Si6 0.710091 0.299566 0.077301
Si Si7 0.488715 0.217707 0.703725
Si Si8 0.983067 0.098170 0.768519
O O1 0.975348 0.770715 0.365860
O O2 0.000000 0.500000 0.500000
O O3 0.805963 0.559869 0.571085
O O4 0.993806 0.230129 0.295809
O O5 0.414587 0.374626 0.266378
O O6 0.635001 0.121864 0.056292
O O7 0.469931 0.881582 0.225037
O O8 0.500000 0.000000 0.000000
O O9 0.722599 0.913438 0.302825
O O10 0.689742 0.284644 0.225735
O O11 0.561146 0.322978 0.549045
O O12 0.527770 0.055969 0.374198
O O13 0.249877 0.845352 0.521792
O O14 0.247589 0.375228 0.571223
O O15 0.068696 0.184927 0.790133
O O16 0.640106 0.598336 0.143172
O O17 0.846393 0.220135 0.920973
#
# Coordination Sequence:
#
# PCOD9006720 Si02
#       8
#     2   2   2   2   2   2   2   2
#     4  10  22  42  69  92 123 179 225 268 318 388
#     4  11  25  41  62  95 132 174 213 273 334 389
#     4  10  21  38  68  89 129 171 225 267 328 385
#     4  10  22  41  64  95 128 164 224 267 318 388
#     4  10  21  42  67  94 126 171 216 273 318 390
#     4  11  25  40  63  95 137 169 215 276 336 391
#     4  10  22  41  61  96 125 173 226 264 327 395
#     4  10  24  41  63  97 136 164 220 274 329 391
#
# _framework density 22.86778
#
# number of rings (size 3 to 8) (size 9 to 14) (size 15 to 20)
#    0.000    1.750    1.250    1.500    7.000    1.000 
#    0.000    0.625    0.000    0.000    0.000    0.000 
#    0.000    0.000    0.000    0.000    0.000    0.000 
#
# Total GULP energy -89273.078329 kJ/mol
# GULP energy per Si atom -5579.567396 kJ/mol
# Density = 2.281573 g / cm^3
# Si number density = 22.867780 Si / 1000 Ang^3
#
#
#
# Elastic Constant Matrix: (Units=GPa)
#
#
# Indices 1 2 3 4 5 6 
#
# 1 127.3402 20.3109 41.4481 -20.2084 -2.3593 -18.1140
# 2 20.3109 104.8563 11.2750 -6.8543 5.0627 -5.2134
# 3 41.4481 11.2750 71.7290 -3.6720 -12.8731 6.4857
# 4 -20.2084 -6.8543 -3.6720 20.5427 -5.1510 -1.4584
# 5 -2.3593 5.0627 -12.8731 -5.1510 60.4697 -2.4942
# 6 -18.1140 -5.2134 6.4857 -1.4584 -2.4942 37.7518
#
#
#
# Elastic Compliance Matrix: (Units=1/GPa)
#
#
# Indices 1 2 3 4 5 6 
#
# 1 0.013694 -0.000586 -0.007876 0.012540 0.000319 0.008348
# 2 -0.000586 0.010072 -0.001409 0.002404 -0.000904 0.001385
# 3 -0.007876 -0.001409 0.019751 -0.004369 0.003342 -0.007315
# 4 0.012540 0.002404 -0.004369 0.063024 0.005134 0.009873
# 5 0.000319 -0.000904 0.003342 0.005134 0.017808 0.000829
# 6 0.008348 0.001385 -0.007315 0.009873 0.000829 0.032378
#
#
# Mechanical properties :
#
#
# Convention : Reuss Voigt Hill
#
# Bulk Modulus (GPa) = 42.06250 49.99928 46.03089
# Shear Modulus (GPa) = 27.11577 39.14560 33.13069
#
# Velocity S-wave (km/s) = 3.44723 4.14191 3.81043
# Velocity P-wave (km/s) = 5.85476 6.69222 6.28745
#
# Compressibility (1/GPa) = 0.02377414
#
# Stress axis : x y z
#
# Youngs Moduli (GPa) = 73.02706 99.28995 50.62916
#
# Poissons Ratio (x) = 0.05820 0.39876
# Poissons Ratio (y) = 0.04281 0.07133
# Poissons Ratio (z) = 0.57517 0.13988
#
# Static dielectric constant tensor:
#      x y z
#    x 1.982730 0.069520 -0.055150 
#    y 0.069520 1.908020 0.006740 
#    z -0.055150 0.006740 1.842990 
# 
# From -- ./inp_files/81210.got.cif
#   From: 2010.05.17/outbox.cif.g08.bks.cpg/sg2_41_cif.got.tgz:81210.got - 2010.06.03 11:33:40.
