data_PCOD9006342
_publ_section_title
;
Structure prediction by ZEFSAII (Michael W. Deem and Ramdas Pophale) SiO2 
 PCOD9006342
Probable space group: P -1
;
_chemical_formula_sum "Si O2"
_cell_formula_units_Z 16
_cell_length_a 8.184047
_cell_length_b 6.519468
_cell_length_c 18.601843
_cell_angle_alpha 89.167332
_cell_angle_beta 135.766616
_cell_angle_gamma 86.774092
_cell_volume 689.115725
_symmetry_space_group_name_H-M "P -1"
_symmetry_group_IT_number 2
_symmetry_cell_setting 'triclinic'
loop_
_space_group_symop_operation_xyz
x,y,z
-x,-y,-z
loop_
_atom_site_type_symbol
_atom_site_label
_atom_site_fract_x
_atom_site_fract_y
_atom_site_fract_z
Si Si1 0.973353 0.751484 0.348395
Si Si2 0.892617 0.975075 0.076051
Si Si3 0.164984 0.293784 0.069680
Si Si4 0.973132 0.858486 0.561168
Si Si5 0.712920 0.352907 0.104372
Si Si6 0.639525 0.442485 0.249760
Si Si7 0.620668 0.532688 0.460709
Si Si8 0.860532 0.389868 0.757535
O O1 0.154376 0.635822 0.463595
O O2 0.056898 0.676975 0.296757
O O3 0.713922 0.675765 0.277818
O O4 0.999649 0.989432 0.364248
O O5 0.027051 0.134273 0.071219
O O6 0.735588 0.121557 0.080863
O O7 0.081408 0.813671 0.175736
O O8 0.761924 0.832411 0.980095
O O9 0.380855 0.379302 0.178105
O O10 0.000000 0.500000 0.000000
O O11 0.184394 0.683541 0.640089
O O12 0.733115 0.749570 0.488438
O O13 0.000000 0.000000 0.500000
O O14 0.692615 0.374320 0.183849
O O15 0.960185 0.446676 0.163805
O O16 0.500000 0.500000 0.000000
O O17 0.500000 0.500000 0.500000
O O18 0.412549 0.528261 0.337643
#
# Coordination Sequence:
#
# PCOD9006342 Si02
#       8
#     2   2   2   2   2   2   2   2
#     4   9  21  42  65  89 130 167 212 273 327 386
#     4  11  24  40  65  96 130 170 221 270 329 398
#     4  11  25  45  62  93 137 176 215 270 333 402
#     4  11  24  41  63  96 129 173 227 266 332 406
#     4  11  23  42  67  97 131 170 224 279 332 397
#     4  10  23  42  67  93 129 174 217 276 336 391
#     4   9  21  40  62  92 129 165 212 275 326 384
#     4  10  21  38  65  96 121 166 216 267 331 390
#
# _framework density 23.218163000000001
#
# number of rings (size 3 to 8) (size 9 to 14) (size 15 to 20)
#    0.000    1.750    0.000    3.750    1.750   11.000 
#    4.500    0.000    0.000    0.000    0.000    0.000 
#    0.000    0.000    0.000    0.000    0.000    0.000 
#
# Total GULP energy -89431.233659 kJ/mol
# GULP energy per Si atom -5589.452104 kJ/mol
# Density = 2.316532 g / cm^3
# Si number density = 23.218163 Si / 1000 Ang^3
#
#
#
# Elastic Constant Matrix: (Units=GPa)
#
#
# Indices 1 2 3 4 5 6 
#
# 1 64.2941 29.9718 38.5605 15.8394 -2.3190 15.3219
# 2 29.9718 102.9701 43.7704 14.5810 5.9486 14.4747
# 3 38.5605 43.7704 151.6679 10.2422 12.3929 17.4341
# 4 15.8394 14.5810 10.2422 42.5672 13.0206 -6.5721
# 5 -2.3190 5.9486 12.3929 13.0206 48.0204 9.6500
# 6 15.3219 14.4747 17.4341 -6.5721 9.6500 45.2648
#
#
#
# Elastic Compliance Matrix: (Units=1/GPa)
#
#
# Indices 1 2 3 4 5 6 
#
# 1 0.024470 -0.003005 -0.004220 -0.010652 0.007299 -0.008799
# 2 -0.003005 0.012342 -0.002324 -0.003017 0.000252 -0.002526
# 3 -0.004220 -0.002324 0.008515 0.000936 -0.002269 -0.000489
# 4 -0.010652 -0.003017 0.000936 0.033685 -0.011852 0.011627
# 5 0.007299 0.000252 -0.002269 -0.011852 0.026775 -0.009106
# 6 -0.008799 -0.002526 -0.000489 0.011627 -0.009106 0.029696
#
#
# Mechanical properties :
#
#
# Convention : Reuss Voigt Hill
#
# Bulk Modulus (GPa) = 38.12585 60.39305 49.25945
# Shear Modulus (GPa) = 30.61399 40.94577 35.77988
#
# Velocity S-wave (km/s) = 3.63510 4.20399 3.92985
# Velocity P-wave (km/s) = 5.83738 7.04502 6.46944
#
# Compressibility (1/GPa) = 0.02622893
#
# Stress axis : x y z
#
# Youngs Moduli (GPa) = 40.86709 81.02377 117.43614
#
# Poissons Ratio (x) = 0.24349 0.49553
# Poissons Ratio (y) = 0.12281 0.27295
# Poissons Ratio (z) = 0.17244 0.18832
#
# Static dielectric constant tensor:
#      x y z
#    x 1.936410 -0.022920 -0.009230 
#    y -0.022920 1.862960 0.050410 
#    z -0.009230 0.050410 1.879630 
# 
# From -- ./inp_files/135152.got.cif
#   From: 2010.05.17/outbox.cif.g08.bks.cpg/sg2_68_cif.got.tgz:135152.got - 2010.06.03 11:33:40.
