data_PCOD9006727
_publ_section_title
;
Structure prediction by ZEFSAII (Michael W. Deem and Ramdas Pophale) SiO2 
 PCOD9006727
Probable space group: P -1
;
_chemical_formula_sum "Si O2"
_cell_formula_units_Z 10
_cell_length_a 13.415264
_cell_length_b 4.895450
_cell_length_c 18.159151
_cell_angle_alpha 75.925224
_cell_angle_beta 20.168211
_cell_angle_gamma 83.943207
_cell_volume 370.987588
_symmetry_space_group_name_H-M "P -1"
_symmetry_group_IT_number 2
_symmetry_cell_setting 'triclinic'
loop_
_space_group_symop_operation_xyz
x,y,z
-x,-y,-z
loop_
_atom_site_type_symbol
_atom_site_label
_atom_site_fract_x
_atom_site_fract_y
_atom_site_fract_z
Si Si1 0.448222 0.718356 0.607936
Si Si2 0.626169 0.290960 0.973610
Si Si3 0.977981 0.352769 0.858711
Si Si4 0.169124 0.155184 0.522632
Si Si5 0.385058 0.813696 0.282878
O O1 0.102989 0.492116 0.841790
O O2 0.564941 0.813581 0.602665
O O3 0.500000 0.000000 0.500000
O O4 0.706450 0.592084 0.408198
O O5 0.794220 0.477719 0.918579
O O6 0.867210 0.171296 0.772059
O O7 0.500000 0.500000 0.000000
O O8 0.373440 0.986142 0.204265
O O9 0.742424 0.003654 0.048323
O O10 0.167066 0.882033 0.490501
O O11 0.297143 0.459946 0.365076
#
# Coordination Sequence:
#
# PCOD9006727 Si02
#       5
#     2   2   2   2   2
#     4  10  21  38  68  91 135 177 214 270 331 397
#     4   9  22  46  70  94 137 175 218 281 328 385
#     4   8  21  39  59  97 131 165 225 262 326 391
#     4  11  25  42  70  99 135 174 218 276 332 392
#     4  10  25  43  66 104 131 170 232 263 333 404
#
# _framework density 26.955079000000001
#
# number of rings (size 3 to 8) (size 9 to 14) (size 15 to 20)
#    1.200    1.200    0.000    0.000   11.200    4.800 
#    0.000    2.000    0.000    0.000    0.000    0.000 
#    0.000    0.000    0.000    0.000    0.000    0.000 
#
# Total GULP energy -55924.882402 kJ/mol
# GULP energy per Si atom -5592.488240 kJ/mol
# Density = 2.689373 g / cm^3
# Si number density = 26.955079 Si / 1000 Ang^3
#
#
#
# Elastic Constant Matrix: (Units=GPa)
#
#
# Indices 1 2 3 4 5 6 
#
# 1 126.8471 45.0673 39.2907 23.2495 -4.3920 -21.2240
# 2 45.0673 102.6215 14.2292 -0.1319 0.9284 -18.1801
# 3 39.2907 14.2292 115.9571 10.4806 -0.4695 5.5387
# 4 23.2495 -0.1319 10.4806 38.9883 9.2973 6.1194
# 5 -4.3920 0.9284 -0.4695 9.2973 47.5833 2.0151
# 6 -21.2240 -18.1801 5.5387 6.1194 2.0151 49.9215
#
#
#
# Elastic Compliance Matrix: (Units=1/GPa)
#
#
# Indices 1 2 3 4 5 6 
#
# 1 0.012936 -0.004331 -0.003341 -0.008277 0.002642 0.005201
# 2 -0.004331 0.012129 -0.000378 0.002658 -0.001259 0.002343
# 3 -0.003341 -0.000378 0.009952 -0.000262 -0.000040 -0.002629
# 4 -0.008277 0.002658 -0.000262 0.033341 -0.007065 -0.006324
# 5 0.002642 -0.001259 -0.000040 -0.007065 0.022638 0.000622
# 6 0.005201 0.002343 -0.002629 -0.006324 0.000622 0.024138
#
#
# Mechanical properties :
#
#
# Convention : Reuss Voigt Hill
#
# Bulk Modulus (GPa) = 52.86634 60.28891 56.57763
# Shear Modulus (GPa) = 36.35345 43.75453 40.05399
#
# Velocity S-wave (km/s) = 3.67641 4.03331 3.85899
# Velocity P-wave (km/s) = 6.13813 6.64117 6.39460
#
# Compressibility (1/GPa) = 0.01891563
#
# Stress axis : x y z
#
# Youngs Moduli (GPa) = 77.30369 82.44900 100.48719
#
# Poissons Ratio (x) = 0.35707 0.33577
# Poissons Ratio (y) = 0.33479 0.03799
# Poissons Ratio (z) = 0.25830 0.03117
#
# Static dielectric constant tensor:
#      x y z
#    x 2.284910 -0.049720 -0.068820 
#    y -0.049720 2.163430 -0.008390 
#    z -0.068820 -0.008390 2.191480 
# 
# From -- ./inp_files/129695.got.cif
#   From: 2010.05.17/outbox.cif.g08.bks.cpg/sg2_65_cif.got.tgz:129695.got - 2010.06.03 11:33:40.
