data_PCOD9006969
_publ_section_title
;
Structure prediction by ZEFSAII (Michael W. Deem and Ramdas Pophale) SiO2 
 PCOD9006969
Probable space group: P -1
;
_chemical_formula_sum "Si O2"
_cell_formula_units_Z 16
_cell_length_a 14.743875
_cell_length_b 11.358271
_cell_length_c 14.072048
_cell_angle_alpha 31.251343
_cell_angle_beta 135.236587
_cell_angle_gamma 136.220578
_cell_volume 817.137020
_symmetry_space_group_name_H-M "P -1"
_symmetry_group_IT_number 2
_symmetry_cell_setting 'triclinic'
loop_
_space_group_symop_operation_xyz
x,y,z
-x,-y,-z
loop_
_atom_site_type_symbol
_atom_site_label
_atom_site_fract_x
_atom_site_fract_y
_atom_site_fract_z
Si Si1 0.854548 0.507826 0.852091
Si Si2 0.622809 0.009116 0.017001
Si Si3 0.147007 0.180691 0.194622
Si Si4 0.643529 0.515988 0.340161
Si Si5 0.660106 0.072889 0.781727
Si Si6 0.419045 0.187651 0.284414
Si Si7 0.945487 0.412908 0.792084
Si Si8 0.051787 0.347612 0.569243
O O1 0.745640 0.248248 0.964498
O O2 0.816582 0.701191 0.755197
O O3 0.879626 0.540027 0.735776
O O4 0.000000 0.500000 0.000000
O O5 0.598697 0.019124 0.878261
O O6 0.500000 0.000000 0.000000
O O7 0.652863 0.762559 0.227207
O O8 0.276577 0.145412 0.262304
O O9 0.028647 0.929677 0.287752
O O10 0.077815 0.352803 0.968273
O O11 0.629449 0.300304 0.552732
O O12 0.520233 0.433411 0.230978
O O13 0.786554 0.574962 0.352676
O O14 0.824017 0.166594 0.849815
O O15 0.612229 0.857591 0.819281
O O16 0.500000 0.000000 0.500000
O O17 0.974584 0.570733 0.611601
O O18 0.000000 0.500000 0.500000
#
# Coordination Sequence:
#
# PCOD9006969 Si02
#       8
#     2   2   2   2   2   2   2   2
#     4   9  19  38  58  82 115 146 185 235 283 334
#     4  11  22  38  59  84 112 151 199 230 273 345
#     4  11  21  38  63  84 115 153 186 239 286 327
#     4  10  21  39  59  82 119 154 181 237 294 328
#     4   9  20  38  58  83 118 151 187 236 285 339
#     4  10  21  39  58  84 120 152 187 232 288 342
#     4   9  20  37  59  88 115 148 192 233 285 340
#     4  11  22  37  61  89 113 148 197 234 277 346
#
# _framework density 19.580559999999998
#
# number of rings (size 3 to 8) (size 9 to 14) (size 15 to 20)
#    0.000    2.000    0.000    5.250    0.000    4.500 
#    0.000   17.500    0.000    0.000    0.000    0.000 
#    0.000    0.000    0.000    0.000    0.000    0.000 
#
# Total GULP energy -89239.377391 kJ/mol
# GULP energy per Si atom -5577.461087 kJ/mol
# Density = 1.953599 g / cm^3
# Si number density = 19.580560 Si / 1000 Ang^3
#
#
#
# Elastic Constant Matrix: (Units=GPa)
#
#
# Indices 1 2 3 4 5 6 
#
# 1 131.9957 34.6266 40.3184 7.5526 -4.4184 9.3550
# 2 34.6266 84.4571 19.2762 5.5511 -20.4670 -4.5274
# 3 40.3184 19.2762 36.8230 -0.0250 -8.4526 0.5814
# 4 7.5526 5.5511 -0.0250 29.8798 2.4558 3.2979
# 5 -4.4184 -20.4670 -8.4526 2.4558 21.7531 -2.6667
# 6 9.3550 -4.5274 0.5814 3.2979 -2.6667 27.8853
#
#
#
# Elastic Compliance Matrix: (Units=1/GPa)
#
#
# Indices 1 2 3 4 5 6 
#
# 1 0.013048 -0.004128 -0.013657 -0.001383 -0.007030 -0.005272
# 2 -0.004128 0.018787 -0.001373 -0.004638 0.017650 0.006700
# 3 -0.013657 -0.001373 0.046002 0.002087 0.014126 0.004504
# 4 -0.001383 -0.004638 0.002087 0.035981 -0.008559 -0.005406
# 5 -0.007030 0.017650 0.014126 -0.008559 0.069143 0.012554
# 6 -0.005272 0.006700 0.004504 -0.005406 0.012554 0.040464
#
#
# Mechanical properties :
#
#
# Convention : Reuss Voigt Hill
#
# Bulk Modulus (GPa) = 25.30251 49.07980 37.19115
# Shear Modulus (GPa) = 18.18761 26.50728 22.34744
#
# Velocity S-wave (km/s) = 3.05103 3.68333 3.38199
# Velocity P-wave (km/s) = 5.03607 6.57337 5.85539
#
# Compressibility (1/GPa) = 0.03952177
#
# Stress axis : x y z
#
# Youngs Moduli (GPa) = 76.64097 53.22793 21.73832
#
# Poissons Ratio (x) = 0.21972 0.29688
# Poissons Ratio (y) = 0.31636 0.02984
# Poissons Ratio (z) = 1.04669 0.07306
#
# Static dielectric constant tensor:
#      x y z
#    x 1.653990 -0.041530 -0.022320 
#    y -0.041530 1.710650 0.000410 
#    z -0.022320 0.000410 1.683140 
# 
# From -- ./inp_files/268363.got.cif
#   From: 2010.05.17/outbox.cif.g08.bks.cpg/sg2_135_cif.got.tgz:268363.got - 2010.06.03 11:33:40.
