data_PCOD9006864
_publ_section_title
;
Structure prediction by ZEFSAII (Michael W. Deem and Ramdas Pophale) SiO2 
 PCOD9006864
Probable space group: P -1
;
_chemical_formula_sum "Si O2"
_cell_formula_units_Z 14
_cell_length_a 12.066333
_cell_length_b 5.333830
_cell_length_c 13.901998
_cell_angle_alpha 82.890147
_cell_angle_beta 142.822563
_cell_angle_gamma 100.659486
_cell_volume 530.921974
_symmetry_space_group_name_H-M "P -1"
_symmetry_group_IT_number 2
_symmetry_cell_setting 'triclinic'
loop_
_space_group_symop_operation_xyz
x,y,z
-x,-y,-z
loop_
_atom_site_type_symbol
_atom_site_label
_atom_site_fract_x
_atom_site_fract_y
_atom_site_fract_z
Si Si1 0.815206 0.957361 0.741845
Si Si2 0.629658 0.049062 0.236555
Si Si3 0.056263 0.564671 0.644538
Si Si4 0.660797 0.684024 0.045701
Si Si5 0.544642 0.233008 0.615683
Si Si6 0.484280 0.500640 0.753626
Si Si7 0.124255 0.508757 0.280079
O O1 0.657848 0.896713 0.551237
O O2 0.924796 0.719104 0.819137
O O3 0.682303 0.015862 0.735436
O O4 0.946303 0.222034 0.801544
O O5 0.795250 0.180238 0.278214
O O6 0.617422 0.250866 0.307454
O O7 0.642146 0.762206 0.287207
O O8 0.429841 0.061941 0.047813
O O9 0.161176 0.338027 0.768787
O O10 0.000000 0.500000 0.500000
O O11 0.915586 0.585461 0.634471
O O12 0.500000 0.500000 0.000000
O O13 0.655574 0.552950 0.943703
O O14 0.547713 0.416914 0.698949
O O15 0.659600 0.389658 0.601334
#
# Coordination Sequence:
#
# PCOD9006864 Si02
#       7
#     2   2   2   2   2   2   2
#     4   9  21  34  59  85 128 166 203 255 306 377
#     4   9  23  41  66  93 126 165 219 249 313 375
#     4  11  24  41  67  94 136 165 207 267 326 375
#     4   8  20  43  62  94 123 173 213 256 306 380
#     4   9  21  35  66  86 125 163 218 248 313 367
#     4  10  21  38  71  92 118 167 221 261 295 378
#     4  10  22  39  54  92 128 162 202 257 325 364
#
# _framework density 26.369222000000001
#
# number of rings (size 3 to 8) (size 9 to 14) (size 15 to 20)
#    1.714    0.857    0.000    0.429    6.000    3.429 
#    2.571    2.143    0.000    1.714    0.000    0.000 
#    0.000    0.000    0.000    0.000    0.000    0.000 
#
# Total GULP energy -78014.332998 kJ/mol
# GULP energy per Si atom -5572.452357 kJ/mol
# Density = 2.630920 g / cm^3
# Si number density = 26.369222 Si / 1000 Ang^3
#
#
#
# Elastic Constant Matrix: (Units=GPa)
#
#
# Indices 1 2 3 4 5 6 
#
# 1 176.8618 34.1916 30.0373 21.6817 -10.3997 -18.7598
# 2 34.1916 172.0230 9.2200 17.2096 -4.7510 -26.8353
# 3 30.0373 9.2200 62.0459 9.8911 -13.2311 -15.5959
# 4 21.6817 17.2096 9.8911 24.2529 -6.9584 -11.7893
# 5 -10.3997 -4.7510 -13.2311 -6.9584 29.4873 15.9596
# 6 -18.7598 -26.8353 -15.5959 -11.7893 15.9596 42.5789
#
#
#
# Elastic Compliance Matrix: (Units=1/GPa)
#
#
# Indices 1 2 3 4 5 6 
#
# 1 0.006777 -0.000708 -0.002373 -0.004374 -0.000087 0.000492
# 2 -0.000708 0.006799 0.000417 -0.002943 -0.001824 0.003994
# 3 -0.002373 0.000417 0.019735 -0.002910 0.005452 0.003596
# 4 -0.004374 -0.002943 -0.002910 0.053822 0.004938 0.008203
# 5 -0.000087 -0.001824 0.005452 0.004938 0.045189 -0.014762
# 6 0.000492 0.003994 0.003596 0.008203 -0.014762 0.035342
#
#
# Mechanical properties :
#
#
# Convention : Reuss Voigt Hill
#
# Bulk Modulus (GPa) = 35.73787 61.98094 48.85941
# Shear Modulus (GPa) = 27.42422 41.76262 34.59342
#
# Velocity S-wave (km/s) = 3.22842 3.98397 3.62593
# Velocity P-wave (km/s) = 5.24206 6.68721 6.00824
#
# Compressibility (1/GPa) = 0.02798152
#
# Stress axis : x y z
#
# Youngs Moduli (GPa) = 147.54908 147.08677 50.67234
#
# Poissons Ratio (x) = 0.10412 0.12027
# Poissons Ratio (y) = 0.10445 -0.02112
# Poissons Ratio (z) = 0.35020 -0.06129
#
# Static dielectric constant tensor:
#      x y z
#    x 2.169430 -0.039930 0.026180 
#    y -0.039930 2.258530 -0.096210 
#    z 0.026180 -0.096210 2.129900 
# 
# From -- ./inp_files/510395.got.cif
#   From: 2010.05.17/outbox.cif.g08.bks.cpg/sg2_256_cif.got.tgz:510395.got - 2010.06.03 11:33:40.
