data_PCOD9006404
_publ_section_title
;
Structure prediction by ZEFSAII (Michael W. Deem and Ramdas Pophale) SiO2 
 PCOD9006404
Probable space group: P -1
;
_chemical_formula_sum "Si O2"
_cell_formula_units_Z 16
_cell_length_a 10.459869
_cell_length_b 12.547599
_cell_length_c 19.000682
_cell_angle_alpha 150.988984
_cell_angle_beta 129.972817
_cell_angle_gamma 38.396913
_cell_volume 743.497891
_symmetry_space_group_name_H-M "P -1"
_symmetry_group_IT_number 2
_symmetry_cell_setting 'triclinic'
loop_
_space_group_symop_operation_xyz
x,y,z
-x,-y,-z
loop_
_atom_site_type_symbol
_atom_site_label
_atom_site_fract_x
_atom_site_fract_y
_atom_site_fract_z
Si Si1 0.857282 0.253325 0.148749
Si Si2 0.020479 0.224936 0.842201
Si Si3 0.559682 0.094764 0.505577
Si Si4 0.397569 0.532622 0.086008
Si Si5 0.907305 0.505675 0.598274
Si Si6 0.819723 0.281153 0.309491
Si Si7 0.530208 0.113782 0.778351
Si Si8 0.998436 0.959162 0.557374
O O1 0.618282 0.395056 0.124306
O O2 0.903767 0.154911 0.189245
O O3 0.917377 0.465300 0.294423
O O4 0.000000 0.000000 0.000000
O O5 0.798742 0.314371 0.844725
O O6 0.053648 0.131398 0.719510
O O7 0.188677 0.944895 0.783022
O O8 0.000000 0.500000 0.000000
O O9 0.383081 0.414086 0.606848
O O10 0.776671 0.049862 0.560753
O O11 0.500000 0.000000 0.500000
O O12 0.581903 0.924624 0.346313
O O13 0.377143 0.746013 0.146700
O O14 0.405543 0.304897 0.910895
O O15 0.945501 0.345177 0.444858
O O16 0.711264 0.814270 0.695617
O O17 0.856673 0.356158 0.549833
O O18 0.000000 0.000000 0.500000
#
# Coordination Sequence:
#
# PCOD9006404 Si02
#       8
#     2   2   2   2   2   2   2   2
#     4  12  22  36  62 102 134 165 210 271 330 389
#     4  11  26  47  66  88 131 182 219 271 327 391
#     4  11  22  43  72  96 130 172 223 268 332 392
#     4  11  23  39  63  98 137 165 218 262 335 385
#     4  10  21  42  62  95 129 172 210 266 329 388
#     4  10  23  42  65  93 128 175 224 265 320 393
#     4  10  21  38  66 100 129 166 209 274 320 394
#     4  11  25  44  68  97 129 168 225 278 325 391
#
# _framework density 21.5199
#
# number of rings (size 3 to 8) (size 9 to 14) (size 15 to 20)
#    0.000    1.250    1.250    4.875    3.500    5.000 
#    2.250    5.000    0.000    0.000    0.000    0.000 
#    0.000    0.000    0.000    0.000    0.000    0.000 
#
# Total GULP energy -89325.367200 kJ/mol
# GULP energy per Si atom -5582.835450 kJ/mol
# Density = 2.147092 g / cm^3
# Si number density = 21.519900 Si / 1000 Ang^3
#
#
#
# Elastic Constant Matrix: (Units=GPa)
#
#
# Indices 1 2 3 4 5 6 
#
# 1 43.5139 31.1642 21.9949 5.9435 -5.9447 23.8486
# 2 31.1642 140.4840 60.9122 11.3660 -5.2470 22.6846
# 3 21.9949 60.9122 164.7301 -3.5423 -5.0242 33.6960
# 4 5.9435 11.3660 -3.5423 31.4217 13.2872 -4.5175
# 5 -5.9447 -5.2470 -5.0242 13.2872 34.5216 -4.3974
# 6 23.8486 22.6846 33.6960 -4.5175 -4.3974 41.5393
#
#
#
# Elastic Compliance Matrix: (Units=1/GPa)
#
#
# Indices 1 2 3 4 5 6 
#
# 1 0.040831 -0.004432 0.000686 -0.012848 0.008592 -0.022066
# 2 -0.004432 0.009870 -0.002947 -0.003891 0.001717 -0.000697
# 3 0.000686 -0.002947 0.008173 0.001214 -0.000284 -0.005312
# 4 -0.012848 -0.003891 0.001214 0.045318 -0.018608 0.011475
# 5 0.008592 0.001717 -0.000284 -0.018608 0.037356 -0.003709
# 6 -0.022066 -0.000697 -0.005312 0.011475 -0.003709 0.042287
#
#
# Mechanical properties :
#
#
# Convention : Reuss Voigt Hill
#
# Bulk Modulus (GPa) = 21.98311 64.09673 43.03992
# Shear Modulus (GPa) = 23.54237 37.14030 30.34134
#
# Velocity S-wave (km/s) = 3.31113 4.15885 3.75896
# Velocity P-wave (km/s) = 4.98553 7.27399 6.23564
#
# Compressibility (1/GPa) = 0.04548946
#
# Stress axis : x y z
#
# Youngs Moduli (GPa) = 24.49145 101.31217 122.35948
#
# Poissons Ratio (x) = 0.44899 -0.08399
# Poissons Ratio (y) = 0.10854 0.36057
# Poissons Ratio (z) = -0.01681 0.29855
#
# Static dielectric constant tensor:
#      x y z
#    x 1.791620 -0.031090 0.014400 
#    y -0.031090 1.840700 -0.005730 
#    z 0.014400 -0.005730 1.839730 
# 
# From -- ./inp_files/569004.got.cif
#   From: 2010.05.17/outbox.cif.g08.bks.cpg/sg2_285_cif.got.tgz:569004.got - 2010.06.03 11:33:40.
