data_PCOD9006085
_publ_section_title
;
Structure prediction by ZEFSAII (Michael W. Deem and Ramdas Pophale) SiO2 
 PCOD9006085
Probable space group: P -1
;
_chemical_formula_sum "Si O2"
_cell_formula_units_Z 13
_cell_length_a 7.051315
_cell_length_b 12.502613
_cell_length_c 11.173847
_cell_angle_alpha 123.843935
_cell_angle_beta 39.015586
_cell_angle_gamma 106.879324
_cell_volume 495.603528
_symmetry_space_group_name_H-M "P -1"
_symmetry_group_IT_number 2
_symmetry_cell_setting 'triclinic'
loop_
_space_group_symop_operation_xyz
x,y,z
-x,-y,-z
loop_
_atom_site_type_symbol
_atom_site_label
_atom_site_fract_x
_atom_site_fract_y
_atom_site_fract_z
Si Si1 0.357090 0.412391 0.755110
Si Si2 0.250941 0.428175 0.431766
Si Si3 0.528744 0.253458 0.974890
Si Si4 0.500000 0.500000 0.000000
Si Si5 0.666629 0.997712 0.046931
Si Si6 0.309961 0.892344 0.553790
Si Si7 0.088712 0.212763 0.523285
O O1 0.530407 0.471962 0.600821
O O2 0.482929 0.456081 0.843426
O O3 0.471335 0.251580 0.599053
O O4 0.000000 0.500000 0.000000
O O5 0.090968 0.364176 0.577696
O O6 0.000000 0.500000 0.500000
O O7 0.455534 0.300027 0.176242
O O8 0.390251 0.367822 0.018478
O O9 0.896309 0.217323 0.741871
O O10 0.392140 0.130684 0.940764
O O11 0.032597 0.968595 0.827187
O O12 0.500000 0.000000 0.000000
O O13 0.444143 0.126656 0.298726
O O14 0.110034 0.849666 0.514371
O O15 0.500000 0.000000 0.500000
#
# Coordination Sequence:
#
# PCOD9006085 Si02
#       7
#     2   2   2   1   2   2   2
#     4  11  24  42  73 108 143 195 243 308 376 436
#     4  11  20  39  69 100 138 187 249 299 370 437
#     4  11  19  37  68  98 139 171 246 306 345 432
#     4  10  22  40  72 104 138 188 242 302 366 438
#     4  10  21  38  64  95 137 188 243 286 364 447
#     4  11  23  41  65  99 149 191 239 301 369 441
#     4  11  21  39  65 106 132 194 246 293 367 449
#
# _framework density 26.230646
#
# number of rings (size 3 to 8) (size 9 to 14) (size 15 to 20)
#    0.000    1.231    6.154    1.385    2.154    1.231 
#    0.000    0.769    0.000   28.615    0.000    0.000 
#    0.000    0.000    0.000    0.000    0.000    0.000 
#
# Total GULP energy -72501.007812 kJ/mol
# GULP energy per Si atom -5577.000601 kJ/mol
# Density = 2.617094 g / cm^3
# Si number density = 26.230646 Si / 1000 Ang^3
#
#
#
# Elastic Constant Matrix: (Units=GPa)
#
#
# Indices 1 2 3 4 5 6 
#
# 1 80.0620 34.5956 38.8198 -1.3435 0.4405 20.7805
# 2 34.5956 244.3136 63.3857 -11.4414 -33.9089 12.2744
# 3 38.8198 63.3857 189.2801 -0.3042 -35.9944 11.4918
# 4 -1.3435 -11.4414 -0.3042 59.6657 -0.8832 4.7812
# 5 0.4405 -33.9089 -35.9944 -0.8832 47.2079 -6.4031
# 6 20.7805 12.2744 11.4918 4.7812 -6.4031 19.9696
#
#
#
# Elastic Compliance Matrix: (Units=1/GPa)
#
#
# Indices 1 2 3 4 5 6 
#
# 1 0.020525 -0.001812 -0.003686 0.001657 -0.007093 -0.020794
# 2 -0.001812 0.005010 -0.000717 0.000964 0.003084 -0.000023
# 3 -0.003686 -0.000717 0.007158 -0.000258 0.005230 0.001896
# 4 0.001657 0.000964 -0.000258 0.017491 -0.000058 -0.006374
# 5 -0.007093 0.003084 0.005230 -0.000058 0.029052 0.011805
# 6 -0.020794 -0.000023 0.001896 -0.006374 0.011805 0.075949
#
#
# Mechanical properties :
#
#
# Convention : Reuss Voigt Hill
#
# Bulk Modulus (GPa) = 49.35179 87.47310 68.41245
# Shear Modulus (GPa) = 28.67464 50.49226 39.58345
#
# Velocity S-wave (km/s) = 3.30990 4.39217 3.88887
# Velocity P-wave (km/s) = 5.78469 7.69036 6.80457
#
# Compressibility (1/GPa) = 0.02026269
#
# Stress axis : x y z
#
# Youngs Moduli (GPa) = 48.72126 199.60202 139.69954
#
# Poissons Ratio (x) = 0.36171 0.51499
# Poissons Ratio (y) = 0.08829 0.10012
# Poissons Ratio (z) = 0.17961 0.14304
#
# Static dielectric constant tensor:
#      x y z
#    x 3.001270 -1.272990 -0.942780 
#    y -1.272990 3.946530 1.316280 
#    z -0.942780 1.316280 3.093750 
# 
# From -- ./inp_files/498164.got.cif
#   From: 2010.05.17/outbox.cif.g08.bks.cpg/sg2_250_cif.got.tgz:498164.got - 2010.06.03 11:33:40.
