data_PCOD9006081
_publ_section_title
;
Structure prediction by ZEFSAII (Michael W. Deem and Ramdas Pophale) SiO2 
 PCOD9006081
Probable space group: P -1
;
_chemical_formula_sum "Si O2"
_cell_formula_units_Z 16
_cell_length_a 5.861692
_cell_length_b 17.631017
_cell_length_c 11.752330
_cell_angle_alpha 39.824552
_cell_angle_beta 88.300549
_cell_angle_gamma 87.269134
_cell_volume 776.931997
_symmetry_space_group_name_H-M "P -1"
_symmetry_group_IT_number 2
_symmetry_cell_setting 'triclinic'
loop_
_space_group_symop_operation_xyz
x,y,z
-x,-y,-z
loop_
_atom_site_type_symbol
_atom_site_label
_atom_site_fract_x
_atom_site_fract_y
_atom_site_fract_z
Si Si1 0.162532 0.281373 0.494823
Si Si2 0.077285 0.865162 0.147050
Si Si3 0.036917 0.526557 0.332325
Si Si4 0.309566 0.929298 0.651205
Si Si5 0.437798 0.892971 0.293449
Si Si6 0.529994 0.599110 0.286044
Si Si7 0.389018 0.848125 0.984376
Si Si8 0.937372 0.129541 0.494157
O O1 0.106325 0.413165 0.384156
O O2 0.411442 0.221611 0.537105
O O3 0.091450 0.209272 0.691633
O O4 0.021252 0.242644 0.431052
O O5 0.312852 0.854281 0.226224
O O6 0.134589 0.830674 0.057801
O O7 0.000000 0.000000 0.000000
O O8 0.274171 0.596659 0.236882
O O9 0.000000 0.500000 0.500000
O O10 0.774663 0.569277 0.256083
O O11 0.403301 0.852190 0.843447
O O12 0.172911 0.855410 0.645451
O O13 0.500000 0.000000 0.500000
O O14 0.140221 0.030883 0.590521
O O15 0.249571 0.920896 0.360265
O O16 0.556165 0.017934 0.132387
O O17 0.500000 0.500000 0.500000
O O18 0.541487 0.738116 0.157142
#
# Coordination Sequence:
#
# PCOD9006081 Si02
#       8
#     2   2   2   2   2   2   2   2
#     4  11  22  38  63  91 132 172 212 273 328 401
#     4  11  22  33  52  95 133 162 204 250 336 412
#     4  10  23  41  64  88 127 178 227 263 315 383
#     4  11  21  41  62  95 133 166 213 266 335 406
#     4  11  22  36  59  99 129 168 205 263 346 401
#     4  10  24  42  60  90 127 179 222 262 316 384
#     4  12  22  39  62  92 134 167 214 269 328 400
#     4  10  21  38  64  95 132 165 214 263 339 401
#
# _framework density 20.593821999999999
#
# number of rings (size 3 to 8) (size 9 to 14) (size 15 to 20)
#    0.000    1.250    3.750    2.625    7.000    2.000 
#    0.000    0.000    0.000    1.500    0.000    0.000 
#    0.000    0.000    0.000    0.000    0.000    0.000 
#
# Total GULP energy -89108.645834 kJ/mol
# GULP energy per Si atom -5569.290365 kJ/mol
# Density = 2.054695 g / cm^3
# Si number density = 20.593822 Si / 1000 Ang^3
#
#
#
# Elastic Constant Matrix: (Units=GPa)
#
#
# Indices 1 2 3 4 5 6 
#
# 1 113.9368 38.9519 12.1879 -6.1863 -5.0989 -23.4345
# 2 38.9519 125.6525 25.4981 -8.4135 1.8320 -17.7944
# 3 12.1879 25.4981 45.8287 4.8949 7.6789 -13.5398
# 4 -6.1863 -8.4135 4.8949 33.9219 -9.5027 6.2398
# 5 -5.0989 1.8320 7.6789 -9.5027 17.6212 4.7434
# 6 -23.4345 -17.7944 -13.5398 6.2398 4.7434 40.6965
#
#
#
# Elastic Compliance Matrix: (Units=1/GPa)
#
#
# Indices 1 2 3 4 5 6 
#
# 1 0.010855 -0.002492 -0.001133 0.001841 0.003794 0.004059
# 2 -0.002492 0.010125 -0.005704 0.003550 0.002559 0.000252
# 3 -0.001133 -0.005704 0.036669 -0.017988 -0.029520 0.015252
# 4 0.001841 0.003550 -0.017988 0.046376 0.036994 -0.014795
# 5 0.003794 0.002559 -0.029520 0.036994 0.096712 -0.023463
# 6 0.004059 0.000252 0.015252 -0.014795 -0.023463 0.037097
#
#
# Mechanical properties :
#
#
# Convention : Reuss Voigt Hill
#
# Bulk Modulus (GPa) = 25.64775 48.74377 37.19576
# Shear Modulus (GPa) = 18.55368 32.36660 25.46014
#
# Velocity S-wave (km/s) = 3.00481 3.96872 3.51992
# Velocity P-wave (km/s) = 4.95173 6.68742 5.88393
#
# Compressibility (1/GPa) = 0.03898978
#
# Stress axis : x y z
#
# Youngs Moduli (GPa) = 92.12609 98.77016 27.27094
#
# Poissons Ratio (x) = 0.24615 0.03090
# Poissons Ratio (y) = 0.22959 0.15555
# Poissons Ratio (z) = 0.10440 0.56337
#
# Static dielectric constant tensor:
#      x y z
#    x 1.840650 0.037080 0.021510 
#    y 0.037080 1.788350 -0.012770 
#    z 0.021510 -0.012770 1.761140 
# 
# From -- ./inp_files/66223.got.cif
#   From: 2010.05.17/outbox.cif.g08.bks.cpg/sg2_34_cif.got.tgz:66223.got - 2010.06.03 11:33:40.
