data_PCOD9006592
_publ_section_title
;
Structure prediction by ZEFSAII (Michael W. Deem and Ramdas Pophale) SiO2 
 PCOD9006592
Probable space group: P -1
;
_chemical_formula_sum "Si O2"
_cell_formula_units_Z 15
_cell_length_a 9.137123
_cell_length_b 9.671912
_cell_length_c 15.198583
_cell_angle_alpha 47.214847
_cell_angle_beta 49.786135
_cell_angle_gamma 45.381955
_cell_volume 664.133205
_symmetry_space_group_name_H-M "P -1"
_symmetry_group_IT_number 2
_symmetry_cell_setting 'triclinic'
loop_
_space_group_symop_operation_xyz
x,y,z
-x,-y,-z
loop_
_atom_site_type_symbol
_atom_site_label
_atom_site_fract_x
_atom_site_fract_y
_atom_site_fract_z
Si Si1 0.775687 0.008502 0.112329
Si Si2 0.553848 0.772993 0.538924
Si Si3 0.976691 0.686908 0.665822
Si Si4 0.500000 0.500000 0.000000
Si Si5 0.437167 0.585085 0.194811
Si Si6 0.018720 0.338142 0.668341
Si Si7 0.676648 0.168631 0.583953
Si Si8 0.318657 0.315451 0.803837
O O1 0.828398 0.854274 0.242595
O O2 0.711248 0.891519 0.111740
O O3 0.604565 0.247253 0.097617
O O4 0.000000 0.000000 0.000000
O O5 0.488349 0.642678 0.688920
O O6 0.810994 0.655844 0.469250
O O7 0.429556 0.794810 0.486692
O O8 0.500000 0.000000 0.500000
O O9 0.919490 0.549165 0.678186
O O10 0.143538 0.751597 0.524628
O O11 0.098409 0.525985 0.768900
O O12 0.784491 0.914763 0.670549
O O13 0.539983 0.424751 0.913551
O O14 0.582697 0.676081 0.144998
O O15 0.178715 0.703957 0.266281
O O16 0.497262 0.297133 0.670274
#
# Coordination Sequence:
#
# PCOD9006592 Si02
#       8
#     2   2   2   1   2   2   2   2
#     4  11  24  48  76  95 138 188 237 294 360 418
#     4  12  23  39  70 111 147 188 234 288 357 430
#     4  10  21  38  67 102 147 188 220 281 361 425
#     4  12  28  50  72  96 140 192 240 296 354 418
#     4  12  26  45  73 105 146 188 244 291 352 426
#     4  11  23  44  71 102 143 186 235 295 356 423
#     4  11  21  39  67 104 150 181 224 290 360 425
#     4  11  24  44  72 103 142 186 236 296 354 422
#
# _framework density 22.585830999999999
#
# number of rings (size 3 to 8) (size 9 to 14) (size 15 to 20)
#    0.000    0.800    5.333    3.200    1.867    2.667 
#    2.400    0.667    0.000    0.000    0.000    0.000 
#    0.000    0.000    0.000    0.000    0.000    0.000 
#
# Total GULP energy -83709.243743 kJ/mol
# GULP energy per Si atom -5580.616250 kJ/mol
# Density = 2.253443 g / cm^3
# Si number density = 22.585831 Si / 1000 Ang^3
#
#
#
# Elastic Constant Matrix: (Units=GPa)
#
#
# Indices 1 2 3 4 5 6 
#
# 1 97.0779 15.4431 7.9619 3.7559 -8.8542 7.8930
# 2 15.4431 89.4854 2.8117 -30.4505 7.4397 -1.6994
# 3 7.9619 2.8117 43.0427 5.0105 3.2496 8.4709
# 4 3.7559 -30.4505 5.0105 41.1154 11.1608 7.3239
# 5 -8.8542 7.4397 3.2496 11.1608 33.5568 -7.9230
# 6 7.8930 -1.6994 8.4709 7.3239 -7.9230 21.8688
#
#
#
# Elastic Compliance Matrix: (Units=1/GPa)
#
#
# Indices 1 2 3 4 5 6 
#
# 1 0.011982 -0.004641 -0.001771 -0.006158 0.006509 0.000421
# 2 -0.004641 0.020208 0.000023 0.021071 -0.014891 -0.009216
# 3 -0.001771 0.000023 0.026296 0.000776 -0.006115 -0.012020
# 4 -0.006158 0.021071 0.000776 0.052964 -0.029892 -0.025008
# 5 0.006509 -0.014891 -0.006115 -0.029892 0.051886 0.027671
# 6 0.000421 -0.009216 -0.012020 -0.025008 0.027671 0.067915
#
#
# Mechanical properties :
#
#
# Convention : Reuss Voigt Hill
#
# Bulk Modulus (GPa) = 21.87713 31.33771 26.60742
# Shear Modulus (GPa) = 19.28524 32.86750 26.07637
#
# Velocity S-wave (km/s) = 2.92527 3.81888 3.40155
# Velocity P-wave (km/s) = 4.59530 5.77496 5.21857
#
# Compressibility (1/GPa) = 0.04570983
#
# Stress axis : x y z
#
# Youngs Moduli (GPa) = 83.45712 49.48421 38.02908
#
# Poissons Ratio (x) = 0.22965 0.06734
# Poissons Ratio (y) = 0.38731 -0.00089
# Poissons Ratio (z) = 0.14779 -0.00116
#
# Static dielectric constant tensor:
#      x y z
#    x 1.907360 -0.060130 -0.021190 
#    y -0.060130 1.827130 -0.009040 
#    z -0.021190 -0.009040 1.847730 
# 
# From -- ./inp_files/491974.got.cif
#   From: 2010.05.17/outbox.cif.g08.bks.cpg/sg2_246_cif.got.tgz:491974.got - 2010.06.03 11:33:40.
