data_PCOD9006412
_publ_section_title
;
Structure prediction by ZEFSAII (Michael W. Deem and Ramdas Pophale) SiO2 
 PCOD9006412
Probable space group: P -1
;
_chemical_formula_sum "Si O2"
_cell_formula_units_Z 14
_cell_length_a 9.603763
_cell_length_b 15.828098
_cell_length_c 15.735510
_cell_angle_alpha 37.369574
_cell_angle_beta 28.835172
_cell_angle_gamma 37.311718
_cell_volume 658.801963
_symmetry_space_group_name_H-M "P -1"
_symmetry_group_IT_number 2
_symmetry_cell_setting 'triclinic'
loop_
_space_group_symop_operation_xyz
x,y,z
-x,-y,-z
loop_
_atom_site_type_symbol
_atom_site_label
_atom_site_fract_x
_atom_site_fract_y
_atom_site_fract_z
Si Si1 0.823208 0.363247 0.105395
Si Si2 0.228895 0.589207 0.320740
Si Si3 0.878112 0.101501 0.903231
Si Si4 0.829194 0.118987 0.605457
Si Si5 0.559302 0.603616 0.312249
Si Si6 0.222513 0.935572 0.691329
Si Si7 0.818963 0.825870 0.774624
O O1 0.525982 0.501380 0.176043
O O2 0.728792 0.238952 0.202667
O O3 0.979885 0.276531 0.177211
O O4 0.087539 0.417872 0.880278
O O5 0.020439 0.755971 0.273550
O O6 0.366281 0.593211 0.339236
O O7 0.000000 0.500000 0.500000
O O8 0.514540 0.184892 0.038311
O O9 0.987535 0.002770 0.840180
O O10 0.000000 0.000000 0.000000
O O11 0.574461 0.231128 0.709680
O O12 0.988868 0.204709 0.390135
O O13 0.729455 0.003429 0.695640
O O14 0.071580 0.010497 0.625107
O O15 0.500000 0.500000 0.500000
O O16 0.500000 0.000000 0.500000
#
# Coordination Sequence:
#
# PCOD9006412 Si02
#       7
#     2   2   2   2   2   2   2
#     4  11  24  44  73 100 137 187 230 289 356 421
#     4  12  27  47  69 104 149 186 232 299 366 419
#     4  12  25  43  69  97 139 185 234 282 355 418
#     4  10  21  38  66 101 130 173 227 286 339 415
#     4  12  25  43  71  99 141 186 247 288 350 425
#     4  11  22  42  68  99 137 175 228 285 351 422
#     4  10  21  41  71 100 133 174 235 286 345 422
#
# _framework density 21.250695
#
# number of rings (size 3 to 8) (size 9 to 14) (size 15 to 20)
#    0.000    0.857    2.857    3.857    2.000    6.857 
#    0.000    1.429    0.000    0.000    0.000    0.000 
#    0.000    0.000    0.000    0.000    0.000    0.000 
#
# Total GULP energy -78186.032091 kJ/mol
# GULP energy per Si atom -5584.716578 kJ/mol
# Density = 2.120233 g / cm^3
# Si number density = 21.250695 Si / 1000 Ang^3
#
#
#
# Elastic Constant Matrix: (Units=GPa)
#
#
# Indices 1 2 3 4 5 6 
#
# 1 62.0307 34.4465 45.1374 -7.8845 4.5233 9.5989
# 2 34.4465 125.7184 31.2456 -4.8351 1.7363 19.2501
# 3 45.1374 31.2456 107.2826 2.6023 11.6701 11.9003
# 4 -7.8845 -4.8351 2.6023 43.7815 -5.1389 2.5457
# 5 4.5233 1.7363 11.6701 -5.1389 28.7817 -2.2989
# 6 9.5989 19.2501 11.9003 2.5457 -2.2989 28.1311
#
#
#
# Elastic Compliance Matrix: (Units=1/GPa)
#
#
# Indices 1 2 3 4 5 6 
#
# 1 0.026697 -0.004297 -0.009933 0.005158 0.000823 -0.002367
# 2 -0.004297 0.010106 -0.000567 0.000682 -0.000004 -0.005272
# 3 -0.009933 -0.000567 0.014574 -0.003168 -0.005081 -0.002517
# 4 0.005158 0.000682 -0.003168 0.024736 0.004630 -0.002747
# 5 0.000823 -0.000004 -0.005081 0.004630 0.037865 0.004546
# 6 -0.002367 -0.005272 -0.002517 -0.002747 0.004546 0.041648
#
#
# Mechanical properties :
#
#
# Convention : Reuss Voigt Hill
#
# Bulk Modulus (GPa) = 45.90603 57.41008 51.65805
# Shear Modulus (GPa) = 25.97675 32.41902 29.19788
#
# Velocity S-wave (km/s) = 3.50007 3.91007 3.71074
# Velocity P-wave (km/s) = 6.16304 6.88906 6.53613
#
# Compressibility (1/GPa) = 0.02178363
#
# Stress axis : x y z
#
# Youngs Moduli (GPa) = 37.45776 98.95166 68.61510
#
# Poissons Ratio (x) = 0.42517 0.68155
# Poissons Ratio (y) = 0.16095 0.03890
# Poissons Ratio (z) = 0.37206 0.05610
#
# Static dielectric constant tensor:
#      x y z
#    x 1.813430 0.104240 -0.100380 
#    y 0.104240 1.857580 -0.140890 
#    z -0.100380 -0.140890 1.995440 
# 
# From -- ./inp_files/157105.got.cif
#   From: 2010.05.17/outbox.cif.g08.bks.cpg/sg2_79_cif.got.tgz:157105.got - 2010.06.03 11:33:40.
