data_PCOD9006656
_publ_section_title
;
Structure prediction by ZEFSAII (Michael W. Deem and Ramdas Pophale) SiO2 
 PCOD9006656
Probable space group: P -1
;
_chemical_formula_sum "Si O2"
_cell_formula_units_Z 16
_cell_length_a 9.097249
_cell_length_b 23.685700
_cell_length_c 5.494792
_cell_angle_alpha 108.863063
_cell_angle_beta 125.381813
_cell_angle_gamma 44.358848
_cell_volume 666.308985
_symmetry_space_group_name_H-M "P -1"
_symmetry_group_IT_number 2
_symmetry_cell_setting 'triclinic'
loop_
_space_group_symop_operation_xyz
x,y,z
-x,-y,-z
loop_
_atom_site_type_symbol
_atom_site_label
_atom_site_fract_x
_atom_site_fract_y
_atom_site_fract_z
Si Si1 0.856801 0.621286 0.055886
Si Si2 0.147759 0.953252 0.330958
Si Si3 0.353866 0.494666 0.556400
Si Si4 0.873277 0.745379 0.451040
Si Si5 0.841668 0.186877 0.861594
Si Si6 0.313893 0.713384 0.642931
Si Si7 0.614153 0.915064 0.605466
Si Si8 0.155087 0.629801 0.962366
O O1 0.085761 0.533570 0.270147
O O2 0.781870 0.699795 0.237096
O O3 0.987271 0.622689 0.949545
O O4 0.609508 0.638911 0.827105
O O5 0.226726 0.866785 0.274258
O O6 0.391983 0.937144 0.569861
O O7 0.000000 0.000000 0.500000
O O8 0.000000 0.000000 0.000000
O O9 0.500000 0.500000 0.500000
O O10 0.578616 0.403833 0.743838
O O11 0.263044 0.562980 0.761505
O O12 0.115054 0.704328 0.460834
O O13 0.695816 0.842456 0.399631
O O14 0.976139 0.717762 0.787093
O O15 0.746259 0.236112 0.587062
O O16 0.748216 0.238188 0.094352
O O17 0.139400 0.123424 0.068962
O O18 0.500000 0.000000 0.500000
#
# Coordination Sequence:
#
# PCOD9006656 Si02
#       8
#     2   2   2   2   2   2   2   2
#     4  10  21  38  67  96 129 176 216 274 329 392
#     4  12  26  44  69  97 125 167 221 276 333 400
#     4   8  16  34  62  95 131 169 214 264 326 392
#     4  10  24  41  64  96 128 177 220 273 332 395
#     4  11  26  46  65  95 130 173 218 280 330 398
#     4  11  26  42  68  95 136 167 225 271 331 392
#     4  11  25  47  69  94 135 176 221 275 340 388
#     4   9  18  36  63  96 129 170 220 265 328 396
#
# _framework density 24.012882999999999
#
# number of rings (size 3 to 8) (size 9 to 14) (size 15 to 20)
#    0.000    1.750    1.250    1.500   10.500    2.500 
#    0.000    0.625    0.000   25.500    0.000    0.000 
#    0.000    0.000    0.000    0.000    0.000    0.000 
#
# Total GULP energy -89332.942568 kJ/mol
# GULP energy per Si atom -5583.308911 kJ/mol
# Density = 2.395823 g / cm^3
# Si number density = 24.012883 Si / 1000 Ang^3
#
#
#
# Elastic Constant Matrix: (Units=GPa)
#
#
# Indices 1 2 3 4 5 6 
#
# 1 87.8038 13.9043 29.9811 -10.4939 20.8080 -26.0721
# 2 13.9043 107.4188 16.9723 -9.1275 -0.5357 -17.4122
# 3 29.9811 16.9723 95.6742 -15.3653 4.1390 -22.9070
# 4 -10.4939 -9.1275 -15.3653 41.5350 -1.0069 9.8675
# 5 20.8080 -0.5357 4.1390 -1.0069 51.3800 -7.3853
# 6 -26.0721 -17.4122 -22.9070 9.8675 -7.3853 43.3229
#
#
#
# Elastic Compliance Matrix: (Units=1/GPa)
#
#
# Indices 1 2 3 4 5 6 
#
# 1 0.015779 -0.000440 -0.002867 0.001120 -0.005184 0.006664
# 2 -0.000440 0.010114 -0.000726 0.001076 0.000840 0.003314
# 3 -0.002867 -0.000726 0.012940 0.002901 0.000786 0.004298
# 4 0.001120 0.001076 0.002901 0.026485 -0.000661 -0.003504
# 5 -0.005184 0.000840 0.000786 -0.000661 0.021708 0.001484
# 6 0.006664 0.003314 0.004298 -0.003504 0.001484 0.031749
#
#
# Mechanical properties :
#
#
# Convention : Reuss Voigt Hill
#
# Bulk Modulus (GPa) = 32.50203 45.84578 39.17391
# Shear Modulus (GPa) = 36.47046 42.58351 39.52699
#
# Velocity S-wave (km/s) = 3.90139 4.21570 4.06159
# Velocity P-wave (km/s) = 5.81886 6.54444 6.19229
#
# Compressibility (1/GPa) = 0.03076731
#
# Stress axis : x y z
#
# Youngs Moduli (GPa) = 63.37601 98.87398 77.27756
#
# Poissons Ratio (x) = 0.04349 0.22153
# Poissons Ratio (y) = 0.02788 0.05613
# Poissons Ratio (z) = 0.18168 0.07182
#
# Static dielectric constant tensor:
#      x y z
#    x 1.885430 -0.011310 -0.038470 
#    y -0.011310 1.956320 0.048250 
#    z -0.038470 0.048250 2.064300 
# 
# From -- ./inp_files/56484.got.cif
#   From: 2010.05.17/outbox.cif.g08.bks.cpg/sg2_29_cif.got.tgz:56484.got - 2010.06.03 11:33:40.
