data_PCOD9006119
_publ_section_title
;
Structure prediction by ZEFSAII (Michael W. Deem and Ramdas Pophale) SiO2 
 PCOD9006119
Probable space group: P -1
;
_chemical_formula_sum "Si O2"
_cell_formula_units_Z 14
_cell_length_a 9.196271
_cell_length_b 9.070772
_cell_length_c 12.700436
_cell_angle_alpha 59.311536
_cell_angle_beta 51.191600
_cell_angle_gamma 75.894555
_cell_volume 705.346644
_symmetry_space_group_name_H-M "P -1"
_symmetry_group_IT_number 2
_symmetry_cell_setting 'triclinic'
loop_
_space_group_symop_operation_xyz
x,y,z
-x,-y,-z
loop_
_atom_site_type_symbol
_atom_site_label
_atom_site_fract_x
_atom_site_fract_y
_atom_site_fract_z
Si Si1 0.610574 0.005088 0.112556
Si Si2 0.473066 0.355630 0.656291
Si Si3 0.117389 0.665465 0.436625
Si Si4 0.993769 0.697560 0.716649
Si Si5 0.211792 0.017051 0.174138
Si Si6 0.791876 0.450757 0.161292
Si Si7 0.333669 0.599674 0.989721
O O1 0.411679 0.011403 0.142266
O O2 0.665765 0.201577 0.050834
O O3 0.577290 0.849553 0.269094
O O4 0.751609 0.954107 0.976252
O O5 0.500000 0.500000 0.500000
O O6 0.667440 0.370035 0.628562
O O7 0.303189 0.403303 0.788370
O O8 0.000000 0.500000 0.500000
O O9 0.046912 0.722679 0.562101
O O10 0.106775 0.827068 0.306511
O O11 0.885864 0.840169 0.770781
O O12 0.174732 0.683829 0.712936
O O13 0.857551 0.517234 0.847938
O O14 0.661233 0.399307 0.139788
O O15 0.000000 0.500000 0.000000
O O16 0.500000 0.500000 0.000000
#
# Coordination Sequence:
#
# PCOD9006119 Si02
#       7
#     2   2   2   2   2   2   2
#     4  10  21  38  64  98 117 166 225 260 320 381
#     4  11  23  45  67  87 134 174 207 266 331 384
#     4  11  24  39  65  96 127 168 222 267 319 378
#     4  11  21  41  60  91 133 170 212 261 331 382
#     4  10  21  38  65  90 130 167 211 270 321 380
#     4  10  23  41  63  92 127 175 208 258 326 381
#     4  11  22  38  66  95 127 162 221 272 307 379
#
# _framework density 19.848398
#
# number of rings (size 3 to 8) (size 9 to 14) (size 15 to 20)
#    0.000    1.429    2.857    3.000    6.000    0.000 
#    2.571    4.286    0.000    0.000    0.000    0.000 
#    0.000    0.000    0.000    0.000    0.000    0.000 
#
# Total GULP energy -78042.190638 kJ/mol
# GULP energy per Si atom -5574.442188 kJ/mol
# Density = 1.980322 g / cm^3
# Si number density = 19.848398 Si / 1000 Ang^3
#
#
#
# Elastic Constant Matrix: (Units=GPa)
#
#
# Indices 1 2 3 4 5 6 
#
# 1 71.7494 38.5753 29.1103 -3.1205 11.9178 -4.2844
# 2 38.5753 152.3283 61.4001 -12.6241 1.2053 -14.2908
# 3 29.1103 61.4001 90.2039 -17.9736 15.0354 -11.6869
# 4 -3.1205 -12.6241 -17.9736 43.3358 -3.7085 -4.5331
# 5 11.9178 1.2053 15.0354 -3.7085 31.5216 1.5630
# 6 -4.2844 -14.2908 -11.6869 -4.5331 1.5630 18.9533
#
#
#
# Elastic Compliance Matrix: (Units=1/GPa)
#
#
# Indices 1 2 3 4 5 6 
#
# 1 0.017752 -0.003470 -0.002759 -0.001359 -0.005414 -0.000184
# 2 -0.003470 0.010120 -0.005766 0.000954 0.003628 0.003220
# 3 -0.002759 -0.005766 0.019754 0.006631 -0.007847 0.009442
# 4 -0.001359 0.000954 0.006631 0.027153 -0.000036 0.010998
# 5 -0.005414 0.003628 -0.007847 -0.000036 0.037691 -0.006444
# 6 -0.000184 0.003220 0.009442 0.010998 -0.006444 0.064131
#
#
# Mechanical properties :
#
#
# Convention : Reuss Voigt Hill
#
# Bulk Modulus (GPa) = 42.31065 63.60591 52.95828
# Shear Modulus (GPa) = 23.98433 31.10853 27.54643
#
# Velocity S-wave (km/s) = 3.47994 3.96322 3.72942
# Velocity P-wave (km/s) = 6.12453 7.28411 6.72934
#
# Compressibility (1/GPa) = 0.02363471
#
# Stress axis : x y z
#
# Youngs Moduli (GPa) = 56.33255 98.81171 50.62338
#
# Poissons Ratio (x) = 0.34292 0.13966
# Poissons Ratio (y) = 0.19550 0.29191
# Poissons Ratio (z) = 0.15541 0.56977
#
# Static dielectric constant tensor:
#      x y z
#    x 1.717880 -0.000790 0.029100 
#    y -0.000790 1.724130 0.030580 
#    z 0.029100 0.030580 1.814770 
# 
# From -- ./inp_files/175256.got.cif
#   From: 2010.05.17/outbox.cif.g08.bks.cpg/sg2_88_cif.got.tgz:175256.got - 2010.06.03 11:33:40.
