data_PCOD9006117
_publ_section_title
;
Structure prediction by ZEFSAII (Michael W. Deem and Ramdas Pophale) SiO2 
 PCOD9006117
Probable space group: P -1
;
_chemical_formula_sum "Si O2"
_cell_formula_units_Z 11
_cell_length_a 9.795076
_cell_length_b 8.547939
_cell_length_c 9.319064
_cell_angle_alpha 110.168247
_cell_angle_beta 62.064577
_cell_angle_gamma 68.382231
_cell_volume 497.731248
_symmetry_space_group_name_H-M "P -1"
_symmetry_group_IT_number 2
_symmetry_cell_setting 'triclinic'
loop_
_space_group_symop_operation_xyz
x,y,z
-x,-y,-z
loop_
_atom_site_type_symbol
_atom_site_label
_atom_site_fract_x
_atom_site_fract_y
_atom_site_fract_z
Si Si1 0.517429 0.538354 0.169349
Si Si2 0.617549 0.644083 0.598024
Si Si3 0.500000 0.000000 0.000000
Si Si4 0.949840 0.364000 0.898069
Si Si5 0.943565 0.597647 0.716309
Si Si6 0.624990 0.085609 0.461877
O O1 0.422956 0.465293 0.295488
O O2 0.410969 0.786929 0.334557
O O3 0.500000 0.500000 0.000000
O O4 0.749044 0.408510 0.054709
O O5 0.580556 0.841712 0.766610
O O6 0.464522 0.748115 0.573631
O O7 0.842284 0.469248 0.367000
O O8 0.736302 0.841274 0.895507
O O9 0.912203 0.456989 0.785364
O O10 0.143706 0.116125 0.733903
O O11 0.000000 0.500000 0.000000
O O12 0.000000 0.500000 0.500000
O O13 0.500000 0.000000 0.500000
#
# Coordination Sequence:
#
# PCOD9006117 Si02
#       6
#     2   2   1   2   2   2
#     4  12  28  45  69 110 147 179 243 304 346 414
#     4  11  24  43  69 103 142 182 238 293 353 418
#     4  10  22  38  72  98 138 184 238 278 362 416
#     4  12  24  44  73 103 138 188 240 287 350 431
#     4  10  21  38  64  97 135 182 230 281 345 422
#     4  12  25  45  74  99 142 193 234 284 363 419
#
# _framework density 22.100279
#
# number of rings (size 3 to 8) (size 9 to 14) (size 15 to 20)
#    0.000    0.727    3.636    3.818    2.545    2.909 
#    0.000    0.000    0.000    0.000    0.000    0.000 
#    0.000    0.000    0.000    0.000    0.000    0.000 
#
# Total GULP energy -61237.390858 kJ/mol
# GULP energy per Si atom -5567.035533 kJ/mol
# Density = 2.204998 g / cm^3
# Si number density = 22.100279 Si / 1000 Ang^3
#
#
#
# Elastic Constant Matrix: (Units=GPa)
#
#
# Indices 1 2 3 4 5 6 
#
# 1 90.7695 28.3179 55.2359 23.8131 -1.5415 -17.6795
# 2 28.3179 72.8037 49.7568 4.4451 -13.1231 -4.0809
# 3 55.2359 49.7568 130.4555 44.6415 -28.2599 -15.4549
# 4 23.8131 4.4451 44.6415 57.1186 -13.5047 -16.9450
# 5 -1.5415 -13.1231 -28.2599 -13.5047 71.2627 6.4700
# 6 -17.6795 -4.0809 -15.4549 -16.9450 6.4700 22.9923
#
#
#
# Elastic Compliance Matrix: (Units=1/GPa)
#
#
# Indices 1 2 3 4 5 6 
#
# 1 0.017293 -0.002929 -0.005612 -0.000562 -0.003363 0.009538
# 2 -0.002929 0.020611 -0.008560 0.006734 0.001599 0.000166
# 3 -0.005612 -0.008560 0.017327 -0.010606 0.003433 -0.002970
# 4 -0.000562 0.006734 -0.010606 0.030496 0.001374 0.015723
# 5 -0.003363 0.001599 0.003433 0.001374 0.016198 -0.003540
# 6 0.009538 0.000166 -0.002970 0.015723 -0.003540 0.061444
#
#
# Mechanical properties :
#
#
# Convention : Reuss Voigt Hill
#
# Bulk Modulus (GPa) = 47.54576 62.29446 54.92011
# Shear Modulus (GPa) = 24.44044 40.98925 32.71484
#
# Velocity S-wave (km/s) = 3.32910 4.31129 3.85163
# Velocity P-wave (km/s) = 6.02806 7.28226 6.68464
#
# Compressibility (1/GPa) = 0.02103237
#
# Stress axis : x y z
#
# Youngs Moduli (GPa) = 57.82582 48.51790 57.71212
#
# Poissons Ratio (x) = 0.14209 0.32385
# Poissons Ratio (y) = 0.16935 0.49399
# Poissons Ratio (z) = 0.32449 0.41529
#
# Static dielectric constant tensor:
#      x y z
#    x 1.838520 -0.011260 0.068700 
#    y -0.011260 1.817930 -0.012610 
#    z 0.068700 -0.012610 1.771490 
# 
# From -- ./inp_files/152878.got.cif
#   From: 2010.05.17/outbox.cif.g08.bks.cpg/sg2_77_cif.got.tgz:152878.got - 2010.06.03 11:33:40.
