data_PCOD9006409
_publ_section_title
;
Structure prediction by ZEFSAII (Michael W. Deem and Ramdas Pophale) SiO2 
 PCOD9006409
Probable space group: P -1
;
_chemical_formula_sum "Si O2"
_cell_formula_units_Z 16
_cell_length_a 12.026048
_cell_length_b 12.710481
_cell_length_c 13.108554
_cell_angle_alpha 134.356464
_cell_angle_beta 147.830230
_cell_angle_gamma 68.703388
_cell_volume 609.972984
_symmetry_space_group_name_H-M "P -1"
_symmetry_group_IT_number 2
_symmetry_cell_setting 'triclinic'
loop_
_space_group_symop_operation_xyz
x,y,z
-x,-y,-z
loop_
_atom_site_type_symbol
_atom_site_label
_atom_site_fract_x
_atom_site_fract_y
_atom_site_fract_z
Si Si1 0.223416 0.938928 0.203921
Si Si2 0.822158 0.623799 0.526104
Si Si3 0.249406 0.038849 0.658011
Si Si4 0.948097 0.265496 0.863571
Si Si5 0.261957 0.703735 0.657253
Si Si6 0.625963 0.750706 0.802834
Si Si7 0.926707 0.812318 0.517513
Si Si8 0.527502 0.324436 0.601064
O O1 0.069486 0.845747 0.125132
O O2 0.500000 0.000000 0.500000
O O3 0.306635 0.130565 0.355599
O O4 0.069853 0.788972 0.895488
O O5 0.835260 0.456483 0.444987
O O6 0.545654 0.556986 0.317530
O O7 0.843559 0.700700 0.482496
O O8 0.295917 0.186803 0.709914
O O9 0.199168 0.871513 0.439037
O O10 0.489394 0.117965 0.972847
O O11 0.000000 0.000000 0.500000
O O12 0.810448 0.361615 0.850348
O O13 0.247971 0.352293 0.132205
O O14 0.371354 0.672982 0.620784
O O15 0.041705 0.729913 0.482457
O O16 0.553425 0.722586 0.610243
O O17 0.835664 0.970417 0.135628
#
# Coordination Sequence:
#
# PCOD9006409 Si02
#       8
#     2   2   2   2   2   2   2   2
#     4  10  21  40  68  96 126 172 227 272 322 395
#     4  12  25  45  65 103 139 171 223 281 335 395
#     4  11  23  42  69  99 131 171 232 271 316 407
#     4  10  21  38  66 101 124 166 231 277 313 383
#     4  12  27  43  66 100 143 176 215 280 339 389
#     4  11  21  40  70  98 127 173 227 268 324 400
#     4  11  24  45  70  94 132 184 226 270 328 399
#     4  11  21  39  70  95 128 173 221 273 327 392
#
# _framework density 26.23067
#
# number of rings (size 3 to 8) (size 9 to 14) (size 15 to 20)
#    0.000    1.000    5.000    3.375    3.500    1.000 
#    4.500    0.625    0.000    0.000    0.000    0.000 
#    0.000    0.000    0.000    0.000    0.000    0.000 
#
# Total GULP energy -89515.163681 kJ/mol
# GULP energy per Si atom -5594.697730 kJ/mol
# Density = 2.617097 g / cm^3
# Si number density = 26.230670 Si / 1000 Ang^3
#
#
#
# Elastic Constant Matrix: (Units=GPa)
#
#
# Indices 1 2 3 4 5 6 
#
# 1 77.3614 10.9037 1.0990 -19.9353 7.9951 0.1980
# 2 10.9037 106.1467 18.9384 -27.5908 6.2643 -21.5143
# 3 1.0990 18.9384 43.4238 -22.9108 4.4040 3.1662
# 4 -19.9353 -27.5908 -22.9108 38.1397 1.8571 11.4879
# 5 7.9951 6.2643 4.4040 1.8571 33.1161 -10.7563
# 6 0.1980 -21.5143 3.1662 11.4879 -10.7563 52.2775
#
#
#
# Elastic Compliance Matrix: (Units=1/GPa)
#
#
# Indices 1 2 3 4 5 6 
#
# 1 0.018533 0.000256 0.010724 0.018753 -0.009150 -0.006618
# 2 0.000256 0.012298 -0.001734 0.007064 -0.001479 0.003309
# 3 0.010724 -0.001734 0.045623 0.036943 -0.015195 -0.014762
# 4 0.018753 0.007064 0.036943 0.070098 -0.020914 -0.019108
# 5 -0.009150 -0.001479 -0.015195 -0.020914 0.040169 0.013207
# 6 -0.006618 0.003309 -0.014762 -0.019108 0.013207 0.028326
#
#
# Mechanical properties :
#
#
# Convention : Reuss Voigt Hill
#
# Bulk Modulus (GPa) = 10.53227 32.09045 21.31136
# Shear Modulus (GPa) = 21.91030 37.77271 29.84150
#
# Velocity S-wave (km/s) = 2.89328 3.79888 3.37658
# Velocity P-wave (km/s) = 3.89684 5.61271 4.83155
#
# Compressibility (1/GPa) = 0.09494629
#
# Stress axis : x y z
#
# Youngs Moduli (GPa) = 53.95762 81.31330 21.91888
#
# Poissons Ratio (x) = -0.02082 -0.23506
# Poissons Ratio (y) = -0.01382 0.03801
# Poissons Ratio (z) = -0.57866 0.14101
#
# Static dielectric constant tensor:
#      x y z
#    x 2.609840 0.071630 0.584760 
#    y 0.071630 2.186540 0.075880 
#    z 0.584760 0.075880 2.563190 
# 
# From -- ./inp_files/522549.got.cif
#   From: 2010.05.17/outbox.cif.g08.bks.cpg/sg2_262_cif.got.tgz:522549.got - 2010.06.03 11:33:40.
