data_PCOD9006736
_publ_section_title
;
Structure prediction by ZEFSAII (Michael W. Deem and Ramdas Pophale) SiO2 
 PCOD9006736
Probable space group: P -1
;
_chemical_formula_sum "Si O2"
_cell_formula_units_Z 14
_cell_length_a 19.489072
_cell_length_b 9.954362
_cell_length_c 15.781482
_cell_angle_alpha 131.346615
_cell_angle_beta 20.137661
_cell_angle_gamma 141.969656
_cell_volume 602.750910
_symmetry_space_group_name_H-M "P -1"
_symmetry_group_IT_number 2
_symmetry_cell_setting 'triclinic'
loop_
_space_group_symop_operation_xyz
x,y,z
-x,-y,-z
loop_
_atom_site_type_symbol
_atom_site_label
_atom_site_fract_x
_atom_site_fract_y
_atom_site_fract_z
Si Si1 0.806646 0.728525 0.090193
Si Si2 0.366883 0.639716 0.030884
Si Si3 0.633961 0.932597 0.004902
Si Si4 0.125830 0.605145 0.575459
Si Si5 0.101071 0.113118 0.179573
Si Si6 0.507062 0.251822 0.265086
Si Si7 0.503990 0.811125 0.370418
O O1 0.676084 0.513113 0.216274
O O2 0.559135 0.688580 0.321976
O O3 0.985025 0.706619 0.812957
O O4 0.000000 0.000000 0.000000
O O5 0.567711 0.833746 0.946045
O O6 0.255315 0.390144 0.098765
O O7 0.110516 0.614279 0.297593
O O8 0.492876 0.707928 0.819726
O O9 0.367270 0.755648 0.294858
O O10 0.668538 0.165654 0.059674
O O11 0.843551 0.932439 0.810043
O O12 0.258919 0.620392 0.515035
O O13 0.242885 0.054262 0.928249
O O14 0.794911 0.946214 0.444236
O O15 0.500000 0.000000 0.500000
#
# Coordination Sequence:
#
# PCOD9006736 Si02
#       7
#     2   2   2   2   2   2   2
#     4  11  22  43  69  93 129 176 218 273 338 387
#     4  11  22  44  70  94 138 185 214 269 334 390
#     4  11  23  42  66 103 135 176 224 268 331 391
#     4  10  21  38  68  93 132 171 215 273 320 393
#     4  11  24  44  65  99 140 171 223 277 324 397
#     4  11  24  43  67  98 137 168 223 279 325 399
#     4  11  21  40  71  93 125 175 224 269 334 389
#
# _framework density 23.226842000000001
#
# number of rings (size 3 to 8) (size 9 to 14) (size 15 to 20)
#    0.000    1.143    5.714    1.286    0.000    2.857 
#    0.000    3.571    0.000    0.000    0.000    0.000 
#    0.000    0.000    0.000    0.000    0.000    0.000 
#
# Total GULP energy -78008.887335 kJ/mol
# GULP energy per Si atom -5572.063381 kJ/mol
# Density = 2.317398 g / cm^3
# Si number density = 23.226842 Si / 1000 Ang^3
#
#
#
# Elastic Constant Matrix: (Units=GPa)
#
#
# Indices 1 2 3 4 5 6 
#
# 1 60.0804 11.6780 0.9460 0.0778 -23.0793 -13.6062
# 2 11.6780 69.7951 6.4961 -9.7869 -12.5580 -21.0978
# 3 0.9460 6.4961 77.6333 -5.8937 -3.6185 -9.7704
# 4 0.0778 -9.7869 -5.8937 27.3482 -6.1722 -3.3320
# 5 -23.0793 -12.5580 -3.6185 -6.1722 38.8259 8.4383
# 6 -13.6062 -21.0978 -9.7704 -3.3320 8.4383 24.8493
#
#
#
# Elastic Compliance Matrix: (Units=1/GPa)
#
#
# Indices 1 2 3 4 5 6 
#
# 1 0.024192 0.002926 0.002166 0.006096 0.013730 0.012737
# 2 0.002926 0.023175 0.002024 0.012874 0.006799 0.021491
# 3 0.002166 0.002024 0.014261 0.005336 0.002283 0.008452
# 4 0.006096 0.012874 0.005336 0.047232 0.011725 0.018718
# 5 0.013730 0.006799 0.002283 0.011725 0.037538 0.003013
# 6 0.012737 0.021491 0.008452 0.018718 0.003013 0.070274
#
#
# Mechanical properties :
#
#
# Convention : Reuss Voigt Hill
#
# Bulk Modulus (GPa) = 13.18218 27.30546 20.24382
# Shear Modulus (GPa) = 21.95620 30.76393 26.36007
#
# Velocity S-wave (km/s) = 3.07790 3.64332 3.37248
# Velocity P-wave (km/s) = 4.28007 5.42953 4.88870
#
# Compressibility (1/GPa) = 0.07586001
#
# Stress axis : x y z
#
# Youngs Moduli (GPa) = 41.33550 43.15024 70.12360
#
# Poissons Ratio (x) = -0.12625 -0.15190
# Poissons Ratio (y) = -0.12094 -0.14194
# Poissons Ratio (z) = -0.08954 -0.08734
#
# Static dielectric constant tensor:
#      x y z
#    x 2.029530 0.052500 -0.027720 
#    y 0.052500 1.981460 -0.024400 
#    z -0.027720 -0.024400 1.881510 
# 
# From -- ./inp_files/577408.got.cif
#   From: 2010.05.17/outbox.cif.g08.bks.cpg/sg2_289_cif.got.tgz:577408.got - 2010.06.03 11:33:40.
