data_PCOD9006937
_publ_section_title
;
Structure prediction by ZEFSAII (Michael W. Deem and Ramdas Pophale) SiO2 
 PCOD9006937
Probable space group: P -1
;
_chemical_formula_sum "Si O2"
_cell_formula_units_Z 16
_cell_length_a 8.220421
_cell_length_b 15.053010
_cell_length_c 8.938841
_cell_angle_alpha 68.972134
_cell_angle_beta 127.442528
_cell_angle_gamma 110.397070
_cell_volume 806.943923
_symmetry_space_group_name_H-M "P -1"
_symmetry_group_IT_number 2
_symmetry_cell_setting 'triclinic'
loop_
_space_group_symop_operation_xyz
x,y,z
-x,-y,-z
loop_
_atom_site_type_symbol
_atom_site_label
_atom_site_fract_x
_atom_site_fract_y
_atom_site_fract_z
Si Si1 0.607807 0.554062 0.880155
Si Si2 0.584850 0.283836 0.475545
Si Si3 0.946124 0.971837 0.317669
Si Si4 0.674776 0.081514 0.615996
Si Si5 0.733342 0.575447 0.392307
Si Si6 0.977739 0.431252 0.734784
Si Si7 0.658519 0.089127 0.960429
Si Si8 0.621342 0.775575 0.300319
O O1 0.514960 0.651025 0.736900
O O2 0.498683 0.486244 0.725178
O O3 0.500000 0.500000 0.000000
O O4 0.856899 0.571827 0.036197
O O5 0.648759 0.189929 0.493257
O O6 0.417038 0.247189 0.532424
O O7 0.784576 0.345368 0.637792
O O8 0.779125 0.873602 0.298212
O O9 0.116942 0.943263 0.320946
O O10 0.000000 0.000000 0.500000
O O11 0.874132 0.066784 0.152799
O O12 0.657775 0.078260 0.787872
O O13 0.500000 0.000000 0.500000
O O14 0.870946 0.567640 0.325636
O O15 0.701374 0.684038 0.333279
O O16 0.865296 0.525541 0.617332
O O17 0.592419 0.191813 0.897496
O O18 0.500000 0.000000 0.000000
#
# Coordination Sequence:
#
# PCOD9006937 Si02
#       8
#     2   2   2   2   2   2   2   2
#     4   9  19  37  58  87 119 153 203 254 304 371
#     4  10  21  39  58  87 124 158 202 258 306 373
#     4  11  22  41  62  88 127 166 207 261 314 375
#     4  11  22  41  65  92 122 168 209 255 320 373
#     4   9  18  36  59  82 116 154 194 256 305 359
#     4   9  18  36  59  82 117 153 202 247 304 370
#     4   9  20  40  60  86 125 157 203 256 308 370
#     4  10  21  39  57  85 122 158 202 255 311 363
#
# _framework density 19.827897
#
# number of rings (size 3 to 8) (size 9 to 14) (size 15 to 20)
#    0.000    2.250    0.000    4.125    0.000    2.000 
#   27.000    1.250    0.000    0.000    0.000    0.000 
#    0.000    0.000    0.000    0.000    0.000    0.000 
#
# Total GULP energy -89077.296558 kJ/mol
# GULP energy per Si atom -5567.331035 kJ/mol
# Density = 1.978277 g / cm^3
# Si number density = 19.827897 Si / 1000 Ang^3
#
#
#
# Elastic Constant Matrix: (Units=GPa)
#
#
# Indices 1 2 3 4 5 6 
#
# 1 81.6076 23.2965 37.1073 -12.9661 10.0218 -2.4026
# 2 23.2965 120.7988 67.8788 -31.4460 32.3138 -22.6478
# 3 37.1073 67.8788 147.6400 -26.5880 26.4451 -11.0999
# 4 -12.9661 -31.4460 -26.5880 39.0267 0.5479 10.5011
# 5 10.0218 32.3138 26.4451 0.5479 28.8966 -3.1867
# 6 -2.4026 -22.6478 -11.0999 10.5011 -3.1867 32.0838
#
#
#
# Elastic Compliance Matrix: (Units=1/GPa)
#
#
# Indices 1 2 3 4 5 6 
#
# 1 0.014264 0.000203 -0.002604 0.003473 -0.002981 -0.001122
# 2 0.000203 0.019159 -0.002920 0.011942 -0.018299 0.006803
# 3 -0.002604 -0.002920 0.010469 0.004138 -0.005551 -0.000540
# 4 0.003473 0.011942 0.004138 0.040900 -0.019697 -0.005222
# 5 -0.002981 -0.018299 -0.005551 -0.019697 0.061278 -0.002528
# 6 -0.001122 0.006803 -0.000540 -0.005222 -0.002528 0.037158
#
#
# Mechanical properties :
#
#
# Convention : Reuss Voigt Hill
#
# Bulk Modulus (GPa) = 30.07318 67.40130 48.73724
# Shear Modulus (GPa) = 24.39592 34.78567 29.59079
#
# Velocity S-wave (km/s) = 3.51149 4.19308 3.86733
# Velocity P-wave (km/s) = 5.62501 7.58350 6.67646
#
# Compressibility (1/GPa) = 0.03325222
#
# Stress axis : x y z
#
# Youngs Moduli (GPa) = 70.10421 52.19487 95.52233
#
# Poissons Ratio (x) = -0.01061 0.24869
# Poissons Ratio (y) = -0.01425 0.27890
# Poissons Ratio (z) = 0.18252 0.15240
#
# Static dielectric constant tensor:
#      x y z
#    x 1.721820 0.023950 0.044720 
#    y 0.023950 1.701360 -0.003720 
#    z 0.044720 -0.003720 1.765270 
# 
# From -- ./inp_files/206567.got.cif
#   From: 2010.05.17/outbox.cif.g08.bks.cpg/sg2_104_cif.got.tgz:206567.got - 2010.06.03 11:33:40.
