data_PCOD9006970
_publ_section_title
;
Structure prediction by ZEFSAII (Michael W. Deem and Ramdas Pophale) SiO2 
 PCOD9006970
Probable space group: P -1
;
_chemical_formula_sum "Si O2"
_cell_formula_units_Z 16
_cell_length_a 24.402611
_cell_length_b 6.389491
_cell_length_c 8.769898
_cell_angle_alpha 116.370682
_cell_angle_beta 135.596841
_cell_angle_gamma 43.878051
_cell_volume 656.062227
_symmetry_space_group_name_H-M "P -1"
_symmetry_group_IT_number 2
_symmetry_cell_setting 'triclinic'
loop_
_space_group_symop_operation_xyz
x,y,z
-x,-y,-z
loop_
_atom_site_type_symbol
_atom_site_label
_atom_site_fract_x
_atom_site_fract_y
_atom_site_fract_z
Si Si1 0.282257 0.938888 0.450506
Si Si2 0.506646 0.761095 0.147357
Si Si3 0.197523 0.641535 0.057212
Si Si4 0.646686 0.597361 0.123673
Si Si5 0.490342 0.530589 0.311613
Si Si6 0.892395 0.463168 0.881675
Si Si7 0.010071 0.250215 0.747372
Si Si8 0.805953 0.602319 0.312655
O O1 0.399829 0.786093 0.624758
O O2 0.211200 0.217726 0.282722
O O3 0.237090 0.091785 0.577705
O O4 0.272965 0.689750 0.293285
O O5 0.490130 0.775044 0.299120
O O6 0.424007 0.082282 0.005985
O O7 0.500000 0.500000 0.000000
O O8 0.613167 0.644769 0.248839
O O9 0.232856 0.363443 0.926259
O O10 0.120770 0.924164 0.880660
O O11 0.136263 0.660635 0.085313
O O12 0.608939 0.426812 0.921096
O O13 0.758836 0.475303 0.274481
O O14 0.500000 0.500000 0.500000
O O15 0.948198 0.272347 0.778179
O O16 0.967950 0.517395 0.113930
O O17 0.929360 0.375066 0.491840
#
# Coordination Sequence:
#
# PCOD9006970 Si02
#       8
#     2   2   2   2   2   2   2   2
#     4  10  23  41  59  89 124 154 198 249 296 359
#     4   9  19  37  59  81 113 155 197 242 294 352
#     4  11  22  39  63  89 118 157 200 246 301 357
#     4  10  21  39  58  84 122 157 197 247 295 355
#     4  11  23  39  61  89 121 159 202 249 302 357
#     4   9  20  40  63  87 121 157 196 249 301 355
#     4   9  20  39  59  87 122 154 196 247 297 359
#     4  11  22  39  63  89 120 158 200 247 300 357
#
# _framework density 24.387930999999998
#
# number of rings (size 3 to 8) (size 9 to 14) (size 15 to 20)
#    0.000    2.000    0.000    4.500    0.000    5.000 
#    0.000   11.250    0.000    0.000    0.000    0.000 
#    0.000    0.000    0.000    0.000    0.000    0.000 
#
# Total GULP energy -89281.210186 kJ/mol
# GULP energy per Si atom -5580.075637 kJ/mol
# Density = 2.433242 g / cm^3
# Si number density = 24.387931 Si / 1000 Ang^3
#
#
#
# Elastic Constant Matrix: (Units=GPa)
#
#
# Indices 1 2 3 4 5 6 
#
# 1 84.2969 1.3901 20.4736 -0.0572 -7.0083 17.6751
# 2 1.3901 48.7469 20.3106 -6.4433 -6.4566 4.0928
# 3 20.4736 20.3106 119.3459 22.1667 5.0180 2.0730
# 4 -0.0572 -6.4433 22.1667 36.8604 -7.6437 1.0807
# 5 -7.0083 -6.4566 5.0180 -7.6437 44.4245 -7.3849
# 6 17.6751 4.0928 2.0730 1.0807 -7.3849 26.2314
#
#
#
# Elastic Compliance Matrix: (Units=1/GPa)
#
#
# Indices 1 2 3 4 5 6 
#
# 1 0.014886 0.002571 -0.003524 0.003307 0.002076 -0.009705
# 2 0.002571 0.025742 -0.006860 0.009986 0.005986 -0.003933
# 3 -0.003524 -0.006860 0.012042 -0.009376 -0.004246 0.001684
# 4 0.003307 0.009986 -0.009376 0.036437 0.008965 -0.002022
# 5 0.002076 0.005986 -0.004246 0.008965 0.026580 0.005117
# 6 -0.009705 -0.003933 0.001684 -0.002022 0.005117 0.046666
#
#
# Mechanical properties :
#
#
# Convention : Reuss Voigt Hill
#
# Bulk Modulus (GPa) = 26.99556 37.41538 32.20547
# Shear Modulus (GPa) = 26.27055 35.51762 30.89408
#
# Velocity S-wave (km/s) = 3.28562 3.82037 3.56304
# Velocity P-wave (km/s) = 5.04847 5.90215 5.49192
#
# Compressibility (1/GPa) = 0.03704313
#
# Stress axis : x y z
#
# Youngs Moduli (GPa) = 67.17707 38.84706 83.04441
#
# Poissons Ratio (x) = -0.09986 0.29265
# Poissons Ratio (y) = -0.17269 0.56968
# Poissons Ratio (z) = 0.23673 0.26649
#
# Static dielectric constant tensor:
#      x y z
#    x 1.942630 -0.055320 -0.054060 
#    y -0.055320 2.040310 0.042200 
#    z -0.054060 0.042200 2.026950 
# 
# From -- ./inp_files/351057.got.cif
#   From: 2010.05.17/outbox.cif.g08.bks.cpg/sg2_176_cif.got.tgz:351057.got - 2010.06.03 11:33:40.
