data_PCOD9006133
_publ_section_title
;
Structure prediction by ZEFSAII (Michael W. Deem and Ramdas Pophale) SiO2 
 PCOD9006133
Probable space group: P -1
;
_chemical_formula_sum "Si O2"
_cell_formula_units_Z 16
_cell_length_a 9.445841
_cell_length_b 14.107706
_cell_length_c 6.511052
_cell_angle_alpha 108.911463
_cell_angle_beta 104.457228
_cell_angle_gamma 101.124611
_cell_volume 758.480679
_symmetry_space_group_name_H-M "P -1"
_symmetry_group_IT_number 2
_symmetry_cell_setting 'triclinic'
loop_
_space_group_symop_operation_xyz
x,y,z
-x,-y,-z
loop_
_atom_site_type_symbol
_atom_site_label
_atom_site_fract_x
_atom_site_fract_y
_atom_site_fract_z
Si Si1 0.166935 0.194267 0.500911
Si Si2 0.813964 0.650341 0.000255
Si Si3 0.604251 0.244777 0.033864
Si Si4 0.069334 0.785115 0.910290
Si Si5 0.771078 0.018555 0.623820
Si Si6 0.476359 0.010680 0.761595
Si Si7 0.433756 0.313609 0.377198
Si Si8 0.612992 0.443425 0.894194
O O1 0.178937 0.266492 0.756145
O O2 0.159655 0.075184 0.462912
O O3 0.316658 0.241433 0.446484
O O4 0.026095 0.198403 0.308966
O O5 0.672665 0.649410 0.797827
O O6 0.774336 0.533714 0.995374
O O7 0.964115 0.691009 0.944236
O O8 0.773314 0.234767 0.109102
O O9 0.530540 0.257732 0.233902
O O10 0.502837 0.135178 0.821795
O O11 0.612460 0.343727 0.961810
O O12 0.113402 0.887817 0.144783
O O13 0.694094 0.051517 0.417052
O O14 0.614974 0.982329 0.679116
O O15 0.500000 0.000000 0.000000
O O16 0.547418 0.402720 0.618194
O O17 0.500000 0.500000 0.000000
#
# Coordination Sequence:
#
# PCOD9006133 Si02
#       8
#     2   2   2   2   2   2   2   2
#     4  11  22  41  65  93 128 171 216 260 312 374
#     4  11  24  41  63  94 128 166 214 261 314 381
#     4  11  24  41  65  99 127 167 212 261 321 376
#     4  10  26  42  59  92 136 172 209 258 318 381
#     4  10  21  39  63  93 128 167 215 258 313 375
#     4  10  21  38  64  98 130 160 209 266 316 369
#     4  11  21  39  69  94 124 156 215 267 317 367
#     4  12  23  41  69  98 123 162 214 271 317 371
#
# _framework density 21.094802999999999
#
# number of rings (size 3 to 8) (size 9 to 14) (size 15 to 20)
#    0.000    1.250    2.500    3.000    0.000    7.000 
#    0.000    1.250    0.000    0.000    0.000    0.000 
#    0.000    0.000    0.000    0.000    0.000    0.000 
#
# Total GULP energy -89458.253311 kJ/mol
# GULP energy per Si atom -5591.140832 kJ/mol
# Density = 2.104679 g / cm^3
# Si number density = 21.094803 Si / 1000 Ang^3
#
#
#
# Elastic Constant Matrix: (Units=GPa)
#
#
# Indices 1 2 3 4 5 6 
#
# 1 76.1626 8.4961 27.6673 5.2302 -2.1577 4.5483
# 2 8.4961 62.7211 7.2486 2.8330 8.4799 -7.1775
# 3 27.6673 7.2486 125.4539 4.6722 2.6592 -10.2609
# 4 5.2302 2.8330 4.6722 33.8025 0.7361 -1.9872
# 5 -2.1577 8.4799 2.6592 0.7361 30.6087 -0.4604
# 6 4.5483 -7.1775 -10.2609 -1.9872 -0.4604 24.2057
#
#
#
# Elastic Compliance Matrix: (Units=1/GPa)
#
#
# Indices 1 2 3 4 5 6 
#
# 1 0.015221 -0.002427 -0.003613 -0.002004 0.002029 -0.005238
# 2 -0.002427 0.017598 0.000104 -0.000678 -0.004956 0.005569
# 3 -0.003613 0.000104 0.009171 -0.000428 -0.001002 0.004543
# 4 -0.002004 -0.000678 -0.000428 0.030168 -0.000605 0.002459
# 5 0.002029 -0.004956 -0.001002 -0.000605 0.034263 -0.001673
# 6 -0.005238 0.005569 0.004543 0.002459 -0.001673 0.046044
#
#
# Mechanical properties :
#
#
# Convention : Reuss Voigt Hill
#
# Bulk Modulus (GPa) = 33.20355 39.01793 36.11074
# Shear Modulus (GPa) = 28.67366 32.45174 30.56270
#
# Velocity S-wave (km/s) = 3.69084 3.92647 3.81047
# Velocity P-wave (km/s) = 5.82558 6.25243 6.04277
#
# Compressibility (1/GPa) = 0.03011726
#
# Stress axis : x y z
#
# Youngs Moduli (GPa) = 65.69840 56.82389 109.04331
#
# Poissons Ratio (x) = 0.13793 0.39401
# Poissons Ratio (y) = 0.15947 -0.01137
# Poissons Ratio (z) = 0.23739 -0.00593
#
# Static dielectric constant tensor:
#      x y z
#    x 1.736400 0.021710 0.008660 
#    y 0.021710 1.796680 -0.015710 
#    z 0.008660 -0.015710 1.771200 
# 
# From -- ./inp_files/40012.got.cif
#   From: 2010.05.17/outbox.cif.g08.bks.cpg/sg2_21_cif.got.tgz:40012.got - 2010.06.03 11:33:40.
