data_PCOD9006911
_publ_section_title
;
Structure prediction by ZEFSAII (Michael W. Deem and Ramdas Pophale) SiO2 
 PCOD9006911
Probable space group: P -1
;
_chemical_formula_sum "Si O2"
_cell_formula_units_Z 14
_cell_length_a 20.768304
_cell_length_b 8.172357
_cell_length_c 12.110051
_cell_angle_alpha 36.529780
_cell_angle_beta 35.280797
_cell_angle_gamma 39.046345
_cell_volume 661.685080
_symmetry_space_group_name_H-M "P -1"
_symmetry_group_IT_number 2
_symmetry_cell_setting 'triclinic'
loop_
_space_group_symop_operation_xyz
x,y,z
-x,-y,-z
loop_
_atom_site_type_symbol
_atom_site_label
_atom_site_fract_x
_atom_site_fract_y
_atom_site_fract_z
Si Si1 0.466598 0.000491 0.733024
Si Si2 0.174772 0.410022 0.588157
Si Si3 0.261822 0.577765 0.612980
Si Si4 0.069272 0.436609 0.054121
Si Si5 0.653739 0.153798 0.285342
Si Si6 0.533149 0.202988 0.757559
Si Si7 0.268801 0.797413 0.098826
O O1 0.358829 0.278422 0.686451
O O2 0.570558 0.950205 0.524856
O O3 0.525680 0.075874 0.717357
O O4 0.395119 0.786398 0.979475
O O5 0.216714 0.526418 0.581869
O O6 0.225910 0.546216 0.343088
O O7 0.032133 0.508278 0.742352
O O8 0.229849 0.056790 0.701977
O O9 0.337536 0.789094 0.397144
O O10 0.151537 0.636304 0.819762
O O11 0.161224 0.102209 0.110020
O O12 0.000000 0.500000 0.000000
O O13 0.568270 0.471010 0.274186
O O14 0.698844 0.207207 0.073152
O O15 0.500000 0.000000 0.000000
#
# Coordination Sequence:
#
# PCOD9006911 Si02
#       7
#     2   2   2   2   2   2   2
#     4  10  21  39  56  81 120 156 181 231 292 345
#     4  11  21  34  60  92 113 149 189 245 282 329
#     4   9  18  36  59  80 115 154 185 231 284 338
#     4   9  17  36  56  86 119 148 184 237 290 330
#     4  11  22  37  57  86 122 142 193 239 287 330
#     4  11  24  39  58  85 115 158 192 227 288 355
#     4  11  21  35  62  90 114 149 192 236 280 340
#
# _framework density 21.158100000000001
#
# number of rings (size 3 to 8) (size 9 to 14) (size 15 to 20)
#    0.000    1.714    4.286    3.429    4.000    0.571 
#    0.000    0.000    0.000    8.571    0.000    0.000 
#    0.000    0.000    0.000    0.000    0.000    0.000 
#
# Total GULP energy -78006.423181 kJ/mol
# GULP energy per Si atom -5571.887370 kJ/mol
# Density = 2.110994 g / cm^3
# Si number density = 21.158100 Si / 1000 Ang^3
#
#
#
# Elastic Constant Matrix: (Units=GPa)
#
#
# Indices 1 2 3 4 5 6 
#
# 1 47.5859 21.0535 38.3214 2.8682 3.6642 -5.3835
# 2 21.0535 78.0605 48.7171 13.6951 -5.8668 -13.1568
# 3 38.3214 48.7171 216.9861 16.3098 -3.2948 -0.9662
# 4 2.8682 13.6951 16.3098 34.5196 -3.3851 -1.8727
# 5 3.6642 -5.8668 -3.2948 -3.3851 25.8378 5.0890
# 6 -5.3835 -13.1568 -0.9662 -1.8727 5.0890 16.6444
#
#
#
# Elastic Compliance Matrix: (Units=1/GPa)
#
#
# Indices 1 2 3 4 5 6 
#
# 1 0.027466 -0.004345 -0.004026 0.001087 -0.006708 0.007389
# 2 -0.004345 0.018936 -0.003039 -0.004902 0.001445 0.012393
# 3 -0.004026 -0.003039 0.006111 -0.001437 0.001238 -0.003890
# 4 0.001087 -0.004902 -0.001437 0.031736 0.002889 -0.000919
# 5 -0.006708 0.001445 0.001238 0.002889 0.043247 -0.013853
# 6 0.007389 0.012393 -0.003890 -0.000919 -0.013853 0.076173
#
#
# Mechanical properties :
#
#
# Convention : Reuss Voigt Hill
#
# Bulk Modulus (GPa) = 33.67561 62.09070 47.88316
# Shear Modulus (GPa) = 21.15182 31.03639 26.09411
#
# Velocity S-wave (km/s) = 3.16524 3.83414 3.51564
# Velocity P-wave (km/s) = 5.41378 7.00076 6.25778
#
# Compressibility (1/GPa) = 0.02969508
#
# Stress axis : x y z
#
# Youngs Moduli (GPa) = 36.40887 52.80875 163.63113
#
# Poissons Ratio (x) = 0.22944 0.65876
# Poissons Ratio (y) = 0.15818 0.49721
# Poissons Ratio (z) = 0.14658 0.16047
#
# Static dielectric constant tensor:
#      x y z
#    x 1.804350 0.030260 -0.015300 
#    y 0.030260 1.813340 -0.012450 
#    z -0.015300 -0.012450 1.839930 
# 
# From -- ./inp_files/304740.got.cif
#   From: 2010.05.17/outbox.cif.g08.bks.cpg/sg2_153_cif.got.tgz:304740.got - 2010.06.03 11:33:40.
