data_PCOD9006094
_publ_section_title
;
Structure prediction by ZEFSAII (Michael W. Deem and Ramdas Pophale) SiO2 
 PCOD9006094
Probable space group: P -1
;
_chemical_formula_sum "Si O2"
_cell_formula_units_Z 13
_cell_length_a 14.774922
_cell_length_b 8.583671
_cell_length_c 11.442908
_cell_angle_alpha 114.623353
_cell_angle_beta 29.812398
_cell_angle_gamma 126.503035
_cell_volume 561.695536
_symmetry_space_group_name_H-M "P -1"
_symmetry_group_IT_number 2
_symmetry_cell_setting 'triclinic'
loop_
_space_group_symop_operation_xyz
x,y,z
-x,-y,-z
loop_
_atom_site_type_symbol
_atom_site_label
_atom_site_fract_x
_atom_site_fract_y
_atom_site_fract_z
Si Si1 0.997983 0.994288 0.193476
Si Si2 0.341345 0.261291 0.689424
Si Si3 0.239723 0.187541 0.289088
Si Si4 0.128010 0.392755 0.296638
Si Si5 0.447368 0.652401 0.814204
Si Si6 0.641320 0.023070 0.094408
Si Si7 0.500000 0.000000 0.500000
O O1 0.989895 0.166834 0.329077
O O2 0.165213 0.119812 0.940331
O O3 0.783460 0.833612 0.320395
O O4 0.123775 0.905546 0.093250
O O5 0.409113 0.486159 0.710104
O O6 0.522322 0.209109 0.493881
O O7 0.232692 0.365922 0.287585
O O8 0.328452 0.236151 0.335099
O O9 0.000000 0.000000 0.500000
O O10 0.378916 0.129084 0.032217
O O11 0.000000 0.500000 0.500000
O O12 0.295235 0.521857 0.050564
O O13 0.383501 0.805698 0.884341
O O14 0.491920 0.933806 0.347793
#
# Coordination Sequence:
#
# PCOD9006094 Si02
#       7
#     2   2   2   2   2   2   1
#     4   8  18  37  58  85 125 164 200 251 320 382
#     4   9  19  37  59  86 121 164 208 254 312 381
#     4  11  24  43  65  93 132 172 214 270 333 389
#     4  10  21  38  64  96 127 165 214 269 322 387
#     4  11  23  40  65  97 128 166 221 272 320 389
#     4  10  22  40  64  92 127 168 212 266 329 387
#     4  10  22  40  60  90 128 172 210 258 324 382
#
# _framework density 23.144210999999999
#
# number of rings (size 3 to 8) (size 9 to 14) (size 15 to 20)
#    0.000    2.154    0.000    2.769    0.000    6.154 
#    0.000    3.077    0.000    0.000    0.000    0.000 
#    0.000    0.000    0.000    0.000    0.000    0.000 
#
# Total GULP energy -72407.661084 kJ/mol
# GULP energy per Si atom -5569.820083 kJ/mol
# Density = 2.309153 g / cm^3
# Si number density = 23.144211 Si / 1000 Ang^3
#
#
#
# Elastic Constant Matrix: (Units=GPa)
#
#
# Indices 1 2 3 4 5 6 
#
# 1 218.9553 104.8884 35.5212 20.2855 -4.8350 -14.7071
# 2 104.8884 125.4377 31.1279 14.4447 -31.1000 -12.4474
# 3 35.5212 31.1279 46.6719 4.3293 11.2473 0.6352
# 4 20.2855 14.4447 4.3293 48.1140 -2.6936 -4.3266
# 5 -4.8350 -31.1000 11.2473 -2.6936 46.2428 8.4011
# 6 -14.7071 -12.4474 0.6352 -4.3266 8.4011 49.4633
#
#
#
# Elastic Compliance Matrix: (Units=1/GPa)
#
#
# Indices 1 2 3 4 5 6 
#
# 1 0.008521 -0.008133 0.000236 -0.001340 -0.004933 0.001205
# 2 -0.008133 0.022359 -0.012757 -0.001143 0.017158 0.000358
# 3 0.000236 -0.012757 0.033808 -0.000314 -0.016656 -0.000773
# 4 -0.001340 -0.001143 -0.000314 0.021840 0.000223 0.001190
# 5 -0.004933 0.017158 -0.016656 0.000223 0.037303 -0.003251
# 6 0.001205 0.000358 -0.000773 0.001190 -0.003251 0.021332
#
#
# Mechanical properties :
#
#
# Convention : Reuss Voigt Hill
#
# Bulk Modulus (GPa) = 42.76963 81.57110 62.17037
# Shear Modulus (GPa) = 25.73806 43.39917 34.56862
#
# Velocity S-wave (km/s) = 3.33839 4.33501 3.86893
# Velocity P-wave (km/s) = 5.77751 7.77031 6.84680
#
# Compressibility (1/GPa) = 0.02338107
#
# Stress axis : x y z
#
# Youngs Moduli (GPa) = 117.35852 44.72409 29.57844
#
# Poissons Ratio (x) = 0.36372 -0.00697
# Poissons Ratio (y) = 0.95443 0.37732
# Poissons Ratio (z) = -0.02765 0.57053
#
# Static dielectric constant tensor:
#      x y z
#    x 1.904420 0.022650 0.047330 
#    y 0.022650 1.832060 -0.039190 
#    z 0.047330 -0.039190 2.027560 
# 
# From -- ./inp_files/447978.got.cif
#   From: 2010.05.17/outbox.cif.g08.bks.cpg/sg2_224_cif.got.tgz:447978.got - 2010.06.03 11:33:40.
