data_PCOD9006689
_publ_section_title
;
Structure prediction by ZEFSAII (Michael W. Deem and Ramdas Pophale) SiO2 
 PCOD9006689
Probable space group: P -1
;
_chemical_formula_sum "Si O2"
_cell_formula_units_Z 14
_cell_length_a 12.296282
_cell_length_b 22.159842
_cell_length_c 5.703322
_cell_angle_alpha 53.479238
_cell_angle_beta 126.251205
_cell_angle_gamma 151.774559
_cell_volume 581.418337
_symmetry_space_group_name_H-M "P -1"
_symmetry_group_IT_number 2
_symmetry_cell_setting 'triclinic'
loop_
_space_group_symop_operation_xyz
x,y,z
-x,-y,-z
loop_
_atom_site_type_symbol
_atom_site_label
_atom_site_fract_x
_atom_site_fract_y
_atom_site_fract_z
Si Si1 0.718249 0.054825 0.541368
Si Si2 0.997302 0.321974 0.263731
Si Si3 0.804125 0.949582 0.161241
Si Si4 0.327636 0.713071 0.342443
Si Si5 0.620891 0.571037 0.744767
Si Si6 0.960525 0.543363 0.646308
Si Si7 0.953157 0.858438 0.585250
O O1 0.922184 0.205916 0.524874
O O2 0.810462 0.079162 0.336714
O O3 0.500000 0.000000 0.500000
O O4 0.701235 0.962578 0.822060
O O5 0.160818 0.386753 0.099115
O O6 0.122336 0.421636 0.403135
O O7 0.785172 0.276562 0.002826
O O8 0.601502 0.840387 0.348333
O O9 0.893558 0.911207 0.265123
O O10 0.002278 0.089628 0.218265
O O11 0.226859 0.583883 0.459189
O O12 0.204425 0.672539 0.528162
O O13 0.500000 0.500000 0.500000
O O14 0.738752 0.706545 0.608263
O O15 0.500000 0.500000 0.000000
O O16 0.000000 0.500000 0.000000
#
# Coordination Sequence:
#
# PCOD9006689 Si02
#       7
#     2   2   2   2   2   2   2
#     4  11  23  43  68 102 137 186 238 302 373 433
#     4  10  23  41  66 102 136 182 245 304 361 443
#     4  11  24  45  70 100 147 188 242 302 372 446
#     4  10  21  38  67  99 140 185 234 306 365 439
#     4  11  28  49  75 106 146 199 248 310 376 442
#     4   9  21  38  61  99 135 178 235 296 358 438
#     4  10  27  45  68 107 141 193 245 299 369 455
#
# _framework density 24.079049000000001
#
# number of rings (size 3 to 8) (size 9 to 14) (size 15 to 20)
#    0.000    1.714    1.429    0.429   10.000    4.000 
#    0.000    0.000    0.000    0.000    0.000    0.000 
#    0.000    0.000    0.000    0.000    0.000    0.000 
#
# Total GULP energy -77981.207420 kJ/mol
# GULP energy per Si atom -5570.086244 kJ/mol
# Density = 2.402424 g / cm^3
# Si number density = 24.079049 Si / 1000 Ang^3
#
#
#
# Elastic Constant Matrix: (Units=GPa)
#
#
# Indices 1 2 3 4 5 6 
#
# 1 172.4923 54.9030 23.6074 -12.1443 -2.7094 -9.6654
# 2 54.9030 97.0206 21.6498 -9.1619 -17.7747 -15.1956
# 3 23.6074 21.6498 60.7708 -13.8719 -10.0487 6.5518
# 4 -12.1443 -9.1619 -13.8719 27.6723 6.3660 1.1273
# 5 -2.7094 -17.7747 -10.0487 6.3660 36.9649 -4.1706
# 6 -9.6654 -15.1956 6.5518 1.1273 -4.1706 45.7669
#
#
#
# Elastic Compliance Matrix: (Units=1/GPa)
#
#
# Indices 1 2 3 4 5 6 
#
# 1 0.007373 -0.004050 -0.001403 0.001656 -0.002053 0.000185
# 2 -0.004050 0.015442 -0.003417 -0.000170 0.006837 0.005388
# 3 -0.001403 -0.003417 0.020964 0.008487 0.001988 -0.004460
# 4 0.001656 -0.000170 0.008487 0.042363 -0.005225 -0.002441
# 5 -0.002053 0.006837 0.001988 -0.005225 0.032150 0.004610
# 6 0.000185 0.005388 -0.004460 -0.002441 0.004610 0.024797
#
#
# Mechanical properties :
#
#
# Convention : Reuss Voigt Hill
#
# Bulk Modulus (GPa) = 38.40308 58.95601 48.67955
# Shear Modulus (GPa) = 29.49692 37.42238 33.45965
#
# Velocity S-wave (km/s) = 3.50380 3.94654 3.73174
# Velocity P-wave (km/s) = 5.68790 6.73086 6.23124
#
# Compressibility (1/GPa) = 0.02603957
#
# Stress axis : x y z
#
# Youngs Moduli (GPa) = 135.62653 64.75919 47.70008
#
# Poissons Ratio (x) = 0.26228 0.06691
# Poissons Ratio (y) = 0.54929 0.16300
# Poissons Ratio (z) = 0.19025 0.22129
#
# Static dielectric constant tensor:
#      x y z
#    x 1.981040 0.049370 0.007190 
#    y 0.049370 1.953280 0.034180 
#    z 0.007190 0.034180 2.045570 
# 
# From -- ./inp_files/83099.got.cif
#   From: 2010.05.17/outbox.cif.g08.bks.cpg/sg2_42_cif.got.tgz:83099.got - 2010.06.03 11:33:40.
