data_PCOD9006185
_publ_section_title
;
Structure prediction by ZEFSAII (Michael W. Deem and Ramdas Pophale) SiO2 
 PCOD9006185
Probable space group: P -1
;
_chemical_formula_sum "Si O2"
_cell_formula_units_Z 16
_cell_length_a 15.858271
_cell_length_b 9.672425
_cell_length_c 7.108191
_cell_angle_alpha 75.735068
_cell_angle_beta 78.178652
_cell_angle_gamma 36.038171
_cell_volume 621.647798
_symmetry_space_group_name_H-M "P -1"
_symmetry_group_IT_number 2
_symmetry_cell_setting 'triclinic'
loop_
_space_group_symop_operation_xyz
x,y,z
-x,-y,-z
loop_
_atom_site_type_symbol
_atom_site_label
_atom_site_fract_x
_atom_site_fract_y
_atom_site_fract_z
Si Si1 0.255149 0.713860 0.772543
Si Si2 0.538893 0.315962 0.262049
Si Si3 0.806803 0.850092 0.929103
Si Si4 0.212674 0.826199 0.330637
Si Si5 0.022704 0.391609 0.725804
Si Si6 0.466451 0.820024 0.310161
Si Si7 0.867633 0.312467 0.848738
Si Si8 0.447958 0.143674 0.172031
O O1 0.345969 0.716960 0.838825
O O2 0.197424 0.845922 0.555517
O O3 0.380939 0.436212 0.747493
O O4 0.144900 0.775820 0.934973
O O5 0.381685 0.592656 0.275314
O O6 0.584567 0.210252 0.485562
O O7 0.514236 0.204954 0.191687
O O8 0.852434 0.949910 0.816710
O O9 0.652334 0.036798 0.843917
O O10 0.906399 0.613126 0.844337
O O11 0.831074 0.784705 0.160714
O O12 0.146469 0.769933 0.297018
O O13 0.990937 0.265168 0.780012
O O14 0.000000 0.500000 0.500000
O O15 0.476364 0.965117 0.340762
O O16 0.720643 0.599095 0.836844
O O17 0.500000 0.000000 0.000000
#
# Coordination Sequence:
#
# PCOD9006185 Si02
#       8
#     2   2   2   2   2   2   2   2
#     4  11  21  41  69 106 151 178 217 277 343 427
#     4  10  21  38  65 105 151 186 220 262 344 429
#     4  11  23  47  76  97 132 184 235 287 345 405
#     4  10  22  41  69 108 141 181 220 280 343 417
#     4  11  28  52  70  96 130 180 246 298 344 402
#     4  11  19  41  68 103 143 183 228 272 346 416
#     4  11  25  43  67 102 137 181 234 284 346 407
#     4  11  22  38  60 105 147 186 223 273 335 414
#
# _framework density 25.738050000000001
#
# number of rings (size 3 to 8) (size 9 to 14) (size 15 to 20)
#    0.000    1.250    5.000    1.125    0.000    6.500 
#    2.250    1.250    0.000    0.000    0.000    0.000 
#    0.000    0.000    0.000    0.000    0.000    0.000 
#
# Total GULP energy -89568.916547 kJ/mol
# GULP energy per Si atom -5598.057284 kJ/mol
# Density = 2.567947 g / cm^3
# Si number density = 25.738050 Si / 1000 Ang^3
#
#
#
# Elastic Constant Matrix: (Units=GPa)
#
#
# Indices 1 2 3 4 5 6 
#
# 1 136.2801 42.1788 75.1726 -1.5839 14.3393 24.9126
# 2 42.1788 112.3379 27.7317 -4.0977 6.3635 28.9345
# 3 75.1726 27.7317 164.8126 -19.2452 18.4301 1.7789
# 4 -1.5839 -4.0977 -19.2452 41.9510 -2.1842 -1.4016
# 5 14.3393 6.3635 18.4301 -2.1842 40.6900 -6.0623
# 6 24.9126 28.9345 1.7789 -1.4016 -6.0623 56.0474
#
#
#
# Elastic Compliance Matrix: (Units=1/GPa)
#
#
# Indices 1 2 3 4 5 6 
#
# 1 0.011704 -0.002010 -0.004961 -0.002296 -0.002330 -0.004317
# 2 -0.002010 0.011222 -0.000702 0.000455 -0.001453 -0.005024
# 3 -0.004961 -0.000702 0.009071 0.003889 -0.001715 0.002191
# 4 -0.002296 0.000455 0.003889 0.025654 0.000557 0.001364
# 5 -0.002330 -0.001453 -0.001715 0.000557 0.027145 0.004790
# 6 -0.004317 -0.005024 0.002191 0.001364 0.004790 0.022837
#
#
# Mechanical properties :
#
#
# Convention : Reuss Voigt Hill
#
# Bulk Modulus (GPa) = 60.05368 78.17740 69.11554
# Shear Modulus (GPa) = 38.90193 45.62753 42.26473
#
# Velocity S-wave (km/s) = 3.89196 4.21499 4.05669
# Velocity P-wave (km/s) = 6.60150 7.35720 6.98957
#
# Compressibility (1/GPa) = 0.01665177
#
# Stress axis : x y z
#
# Youngs Moduli (GPa) = 85.44135 89.10762 110.24503
#
# Poissons Ratio (x) = 0.17907 0.54694
# Poissons Ratio (y) = 0.17171 0.07738
# Poissons Ratio (z) = 0.42389 0.06254
#
# Static dielectric constant tensor:
#      x y z
#    x 2.050510 0.009960 -0.077460 
#    y 0.009960 2.079980 -0.083270 
#    z -0.077460 -0.083270 2.146290 
# 
# From -- ./inp_files/326049.got.cif
#   From: 2010.05.17/outbox.cif.g08.bks.cpg/sg2_164_cif.got.tgz:326049.got - 2010.06.03 11:33:40.
