data_PCOD9006356
_publ_section_title
;
Structure prediction by ZEFSAII (Michael W. Deem and Ramdas Pophale) SiO2 
 PCOD9006356
Probable space group: P -1
;
_chemical_formula_sum "Si O2"
_cell_formula_units_Z 16
_cell_length_a 11.765231
_cell_length_b 8.735176
_cell_length_c 22.270722
_cell_angle_alpha 51.547113
_cell_angle_beta 39.208926
_cell_angle_gamma 27.593679
_cell_volume 653.545177
_symmetry_space_group_name_H-M "P -1"
_symmetry_group_IT_number 2
_symmetry_cell_setting 'triclinic'
loop_
_space_group_symop_operation_xyz
x,y,z
-x,-y,-z
loop_
_atom_site_type_symbol
_atom_site_label
_atom_site_fract_x
_atom_site_fract_y
_atom_site_fract_z
Si Si1 0.104165 0.998830 0.332094
Si Si2 0.362665 0.347842 0.718117
Si Si3 0.099673 0.289051 0.652642
Si Si4 0.549490 0.490272 0.793308
Si Si5 0.389063 0.401940 0.993412
Si Si6 0.073927 0.318328 0.074153
Si Si7 0.085871 0.220480 0.803066
Si Si8 0.809174 0.516469 0.534642
O O1 0.293864 0.919744 0.330423
O O2 0.336905 0.781552 0.231098
O O3 0.078168 0.796913 0.414492
O O4 0.793006 0.376015 0.338248
O O5 0.301445 0.180030 0.761996
O O6 0.160699 0.554108 0.811228
O O7 0.994645 0.414364 0.733336
O O8 0.117480 0.476840 0.564064
O O9 0.850422 0.358365 0.711677
O O10 0.442220 0.886455 0.603625
O O11 0.397510 0.560130 0.901403
O O12 0.284818 0.863656 0.784761
O O13 0.746022 0.025617 0.943398
O O14 0.247439 0.331071 0.039261
O O15 0.200734 0.595744 0.083985
O O16 0.000000 0.500000 0.000000
O O17 0.000000 0.500000 0.500000
#
# Coordination Sequence:
#
# PCOD9006356 Si02
#       8
#     2   2   2   2   2   2   2   2
#     4  12  24  46  75 109 134 192 246 300 346 444
#     4  11  27  44  73 104 153 189 245 290 368 424
#     4  11  24  42  72 104 142 182 237 303 371 421
#     4  12  23  42  72 104 143 186 253 293 353 424
#     4  10  23  39  61 103 141 192 240 285 351 428
#     4  10  21  38  65  96 146 192 241 289 347 418
#     4  11  26  44  66 102 152 195 225 305 360 427
#     4  11  23  44  74 106 135 179 243 308 364 426
#
# _framework density 24.481857000000002
#
# number of rings (size 3 to 8) (size 9 to 14) (size 15 to 20)
#    0.000    1.000    3.750    1.875    7.000    2.500 
#    0.000    1.250    0.000    0.000    0.000    0.000 
#    0.000    0.000    0.000    0.000    0.000    0.000 
#
# Total GULP energy -89337.066854 kJ/mol
# GULP energy per Si atom -5583.566678 kJ/mol
# Density = 2.442614 g / cm^3
# Si number density = 24.481857 Si / 1000 Ang^3
#
#
#
# Elastic Constant Matrix: (Units=GPa)
#
#
# Indices 1 2 3 4 5 6 
#
# 1 83.4640 22.2611 25.8702 10.0519 -2.5223 -17.4427
# 2 22.2611 88.9949 25.5081 -14.1339 4.2762 -11.9769
# 3 25.8702 25.5081 156.0331 -18.4936 16.4704 -14.8628
# 4 10.0519 -14.1339 -18.4936 37.5141 -5.2536 10.4404
# 5 -2.5223 4.2762 16.4704 -5.2536 45.4699 -1.5598
# 6 -17.4427 -11.9769 -14.8628 10.4404 -1.5598 24.4797
#
#
#
# Elastic Compliance Matrix: (Units=1/GPa)
#
#
# Indices 1 2 3 4 5 6 
#
# 1 0.018226 -0.003754 -0.002525 -0.011393 0.001462 0.014569
# 2 -0.003754 0.013416 -0.000780 0.005287 -0.000538 0.001126
# 3 -0.002525 -0.000780 0.007716 0.003624 -0.002415 0.000804
# 4 -0.011393 0.005287 0.003624 0.039245 0.001407 -0.019979
# 5 0.001462 -0.000538 -0.002415 0.001407 0.023168 0.000188
# 6 0.014569 0.001126 0.000804 -0.019979 0.000188 0.060803
#
#
# Mechanical properties :
#
#
# Convention : Reuss Voigt Hill
#
# Bulk Modulus (GPa) = 39.61973 52.86344 46.24158
# Shear Modulus (GPa) = 27.01127 38.48291 32.74709
#
# Velocity S-wave (km/s) = 3.32523 3.96901 3.66130
# Velocity P-wave (km/s) = 5.56429 6.53023 6.06651
#
# Compressibility (1/GPa) = 0.02523995
#
# Stress axis : x y z
#
# Youngs Moduli (GPa) = 54.86616 74.53547 129.59676
#
# Poissons Ratio (x) = 0.27983 0.32724
# Poissons Ratio (y) = 0.20598 0.10110
# Poissons Ratio (z) = 0.13854 0.05815
#
# Static dielectric constant tensor:
#      x y z
#    x 1.976200 -0.034890 -0.009350 
#    y -0.034890 1.813620 0.253620 
#    z -0.009350 0.253620 1.687430 
# 
# From -- ./inp_files/112915.got.cif
#   From: 2010.05.17/outbox.cif.g08.bks.cpg/sg2_57_cif.got.tgz:112915.got - 2010.06.03 11:33:40.
