data_PCOD9006859
_publ_section_title
;
Structure prediction by ZEFSAII (Michael W. Deem and Ramdas Pophale) SiO2 
 PCOD9006859
Probable space group: P -1
;
_chemical_formula_sum "Si O2"
_cell_formula_units_Z 14
_cell_length_a 11.405024
_cell_length_b 10.067503
_cell_length_c 21.319922
_cell_angle_alpha 139.658357
_cell_angle_beta 147.182468
_cell_angle_gamma 27.475849
_cell_volume 610.760487
_symmetry_space_group_name_H-M "P -1"
_symmetry_group_IT_number 2
_symmetry_cell_setting 'triclinic'
loop_
_space_group_symop_operation_xyz
x,y,z
-x,-y,-z
loop_
_atom_site_type_symbol
_atom_site_label
_atom_site_fract_x
_atom_site_fract_y
_atom_site_fract_z
Si Si1 0.101947 0.075717 0.798655
Si Si2 0.105904 0.056951 0.008927
Si Si3 0.425504 0.597499 0.880005
Si Si4 0.285102 0.663937 0.523055
Si Si5 0.393199 0.280078 0.205765
Si Si6 0.779598 0.895172 0.548639
Si Si7 0.883655 0.587599 0.372974
O O1 0.260352 0.855186 0.848159
O O2 0.363738 0.942831 0.818023
O O3 0.868330 0.069724 0.660153
O O4 0.897528 0.408084 0.841834
O O5 0.783919 0.338116 0.933959
O O6 0.325398 0.771328 0.962146
O O7 0.277587 0.149454 0.138192
O O8 0.000000 0.000000 0.000000
O O9 0.292281 0.453782 0.764755
O O10 0.500000 0.500000 0.500000
O O11 0.452087 0.671751 0.657467
O O12 0.153694 0.530679 0.439586
O O13 0.000000 0.000000 0.500000
O O14 0.045608 0.603765 0.603138
O O15 0.727606 0.873748 0.445280
O O16 0.500000 0.000000 0.500000
#
# Coordination Sequence:
#
# PCOD9006859 Si02
#       7
#     2   2   2   2   2   2   2
#     4  11  24  44  75 109 139 173 236 294 370 404
#     4  12  29  50  71  98 143 193 241 279 346 421
#     4  11  27  45  75 107 135 186 236 293 345 420
#     4  12  28  44  70 103 142 189 234 284 348 425
#     4  12  26  48  73 100 145 184 230 301 349 412
#     4  10  21  38  71 103 145 181 213 288 364 425
#     4  10  24  41  68 105 140 176 231 286 351 419
#
# _framework density 22.922242000000001
#
# number of rings (size 3 to 8) (size 9 to 14) (size 15 to 20)
#    0.000    0.857    1.429    3.857   14.000    3.429 
#    0.000    0.000    0.000    0.000    0.000    0.000 
#    0.000    0.000    0.000    0.000    0.000    0.000 
#
# Total GULP energy -78220.748101 kJ/mol
# GULP energy per Si atom -5587.196293 kJ/mol
# Density = 2.287007 g / cm^3
# Si number density = 22.922242 Si / 1000 Ang^3
#
#
#
# Elastic Constant Matrix: (Units=GPa)
#
#
# Indices 1 2 3 4 5 6 
#
# 1 104.5804 19.3481 10.6591 0.4690 24.8859 -4.8081
# 2 19.3481 103.9305 9.6071 -7.9408 0.6980 -5.2335
# 3 10.6591 9.6071 52.6515 -2.3475 24.0494 15.4862
# 4 0.4690 -7.9408 -2.3475 16.3175 3.1869 1.5119
# 5 24.8859 0.6980 24.0494 3.1869 42.0720 3.8904
# 6 -4.8081 -5.2335 15.4862 1.5119 3.8904 44.3332
#
#
#
# Elastic Compliance Matrix: (Units=1/GPa)
#
#
# Indices 1 2 3 4 5 6 
#
# 1 0.011735 -0.002164 0.001169 0.000164 -0.007704 0.001279
# 2 -0.002164 0.010682 -0.002842 0.004257 0.002250 0.001676
# 3 0.001169 -0.002842 0.030530 0.007332 -0.017767 -0.009564
# 4 0.000164 0.004257 0.007332 0.066503 -0.009071 -0.003513
# 5 -0.007704 0.002250 -0.017767 -0.009071 0.038898 0.002532
# 6 0.001279 0.001676 -0.009564 -0.003513 0.002532 0.026132
#
#
# Mechanical properties :
#
#
# Convention : Reuss Voigt Hill
#
# Bulk Modulus (GPa) = 22.08796 37.82121 29.95458
# Shear Modulus (GPa) = 24.12632 35.31443 29.72038
#
# Velocity S-wave (km/s) = 3.24779 3.92933 3.60470
# Velocity P-wave (km/s) = 4.87044 6.09276 5.51557
#
# Compressibility (1/GPa) = 0.04527354
#
# Stress axis : x y z
#
# Youngs Moduli (GPa) = 85.21822 93.61605 32.75462
#
# Poissons Ratio (x) = 0.20258 -0.03830
# Poissons Ratio (y) = 0.18441 0.09309
# Poissons Ratio (z) = -0.09965 0.26605
#
# Static dielectric constant tensor:
#      x y z
#    x 1.855860 0.081150 -0.035040 
#    y 0.081150 2.003270 -0.012310 
#    z -0.035040 -0.012310 1.908280 
# 
# From -- ./inp_files/595128.got.cif
#   From: 2010.05.17/outbox.cif.g08.bks.cpg/sg2_298_cif.got.tgz:595128.got - 2010.06.03 11:33:40.
