data_PCOD9006455
_publ_section_title
;
Structure prediction by ZEFSAII (Michael W. Deem and Ramdas Pophale) SiO2 
 PCOD9006455
Probable space group: P -1
;
_chemical_formula_sum "Si O2"
_cell_formula_units_Z 16
_cell_length_a 20.765064
_cell_length_b 5.153672
_cell_length_c 17.885406
_cell_angle_alpha 89.237255
_cell_angle_beta 19.867574
_cell_angle_gamma 87.141387
_cell_volume 646.479475
_symmetry_space_group_name_H-M "P -1"
_symmetry_group_IT_number 2
_symmetry_cell_setting 'triclinic'
loop_
_space_group_symop_operation_xyz
x,y,z
-x,-y,-z
loop_
_atom_site_type_symbol
_atom_site_label
_atom_site_fract_x
_atom_site_fract_y
_atom_site_fract_z
Si Si1 0.221423 0.962867 0.361950
Si Si2 0.522459 0.964055 0.592115
Si Si3 0.131616 0.737404 0.807771
Si Si4 0.335387 0.430008 0.455669
Si Si5 0.638067 0.119030 0.954183
Si Si6 0.665611 0.623367 0.022873
Si Si7 0.716262 0.684852 0.249538
Si Si8 0.923169 0.544307 0.401196
O O1 0.239478 0.897315 0.255080
O O2 0.084436 0.222544 0.531235
O O3 0.162536 0.709672 0.470410
O O4 0.427551 0.046355 0.161458
O O5 0.731441 0.054315 0.365791
O O6 0.375724 0.211050 0.728367
O O7 0.508603 0.795005 0.681419
O O8 0.547904 0.769910 0.493058
O O9 0.191139 0.521432 0.679329
O O10 0.196475 0.599152 0.815850
O O11 0.909155 0.825666 0.045879
O O12 0.208021 0.358596 0.526041
O O13 0.468207 0.648920 0.283837
O O14 0.706614 0.887777 0.936823
O O15 0.634059 0.400415 0.996301
O O16 0.856836 0.530032 0.859891
#
# Coordination Sequence:
#
# PCOD9006455 Si02
#       8
#     2   2   2   2   2   2   2   2
#     4  11  23  45  74 100 133 177 227 288 343 395
#     4  10  21  38  66  89 130 165 214 270 325 395
#     4  10  21  38  66  89 130 165 214 270 325 395
#     4  11  26  42  57  94 133 178 216 268 335 404
#     4  11  23  45  74 100 133 177 227 288 343 395
#     4  12  26  44  68  98 139 179 229 280 337 408
#     4   9  20  40  62 100 117 162 218 270 329 380
#     4  12  26  44  68  98 139 179 229 280 337 408
#
# _framework density 24.749431000000001
#
# number of rings (size 3 to 8) (size 9 to 14) (size 15 to 20)
#    0.000    1.250    2.500    2.250    3.500    7.000 
#    0.000    2.500    0.000    0.000    0.000    0.000 
#    0.000    0.000    0.000    0.000    0.000    0.000 
#
# Total GULP energy -89464.572208 kJ/mol
# GULP energy per Si atom -5591.535763 kJ/mol
# Density = 2.469310 g / cm^3
# Si number density = 24.749431 Si / 1000 Ang^3
#
#
#
# Elastic Constant Matrix: (Units=GPa)
#
#
# Indices 1 2 3 4 5 6 
#
# 1 79.3604 14.9662 44.2434 5.9478 0.2694 -10.1113
# 2 14.9662 100.0793 12.1108 -4.4159 16.9353 4.2297
# 3 44.2434 12.1108 103.9567 6.9750 -9.0401 -8.1515
# 4 5.9478 -4.4159 6.9750 38.3240 5.2899 -2.7424
# 5 0.2694 16.9353 -9.0401 5.2899 26.3951 1.6680
# 6 -10.1113 4.2297 -8.1515 -2.7424 1.6680 38.5829
#
#
#
# Elastic Compliance Matrix: (Units=1/GPa)
#
#
# Indices 1 2 3 4 5 6 
#
# 1 0.017305 -0.001690 -0.006961 -0.001183 -0.001443 0.003228
# 2 -0.001690 0.012180 -0.001808 0.003118 -0.008944 -0.001552
# 3 -0.006961 -0.001808 0.013566 -0.002411 0.006310 0.000796
# 4 -0.001183 0.003118 -0.002411 0.028346 -0.008573 0.001224
# 5 -0.001443 -0.008944 0.006310 -0.008573 0.047565 -0.000730
# 6 0.003228 -0.001552 0.000796 0.001224 -0.000730 0.027221
#
#
# Mechanical properties :
#
#
# Convention : Reuss Voigt Hill
#
# Bulk Modulus (GPa) = 45.18319 47.33744 46.26032
# Shear Modulus (GPa) = 28.65677 34.79880 31.72778
#
# Velocity S-wave (km/s) = 3.40645 3.75379 3.58433
# Velocity P-wave (km/s) = 5.81100 6.16086 5.98848
#
# Compressibility (1/GPa) = 0.02213212
#
# Stress axis : x y z
#
# Youngs Moduli (GPa) = 57.78642 82.09964 73.71579
#
# Poissons Ratio (x) = 0.13874 0.51314
# Poissons Ratio (y) = 0.09765 0.13331
# Poissons Ratio (z) = 0.40226 0.14847
#
# Static dielectric constant tensor:
#      x y z
#    x 2.019900 0.064710 0.023340 
#    y 0.064710 2.022470 0.056230 
#    z 0.023340 0.056230 1.960580 
# 
# From -- ./inp_files/56940.got.cif
#   From: 2010.05.17/outbox.cif.g08.bks.cpg/sg2_29_cif.got.tgz:56940.got - 2010.06.03 11:33:40.
