data_PCOD9006064
_publ_section_title
;
Structure prediction by ZEFSAII (Michael W. Deem and Ramdas Pophale) SiO2 
 PCOD9006064
Probable space group: P -1
;
_chemical_formula_sum "Si O2"
_cell_formula_units_Z 14
_cell_length_a 8.763028
_cell_length_b 25.309727
_cell_length_c 29.466811
_cell_angle_alpha 11.208971
_cell_angle_beta 151.665129
_cell_angle_gamma 153.412949
_cell_volume 568.244953
_symmetry_space_group_name_H-M "P -1"
_symmetry_group_IT_number 2
_symmetry_cell_setting 'triclinic'
loop_
_space_group_symop_operation_xyz
x,y,z
-x,-y,-z
loop_
_atom_site_type_symbol
_atom_site_label
_atom_site_fract_x
_atom_site_fract_y
_atom_site_fract_z
Si Si1 0.229832 0.249043 0.088118
Si Si2 0.018842 0.534768 0.029563
Si Si3 0.746112 0.808017 0.441831
Si Si4 0.937708 0.696499 0.676064
Si Si5 0.609521 0.217733 0.418655
Si Si6 0.004032 0.836114 0.997990
Si Si7 0.561896 0.582359 0.393118
O O1 0.260980 0.952360 0.365035
O O2 0.611688 0.438255 0.015038
O O3 0.093083 0.440917 0.923809
O O4 0.977196 0.182220 0.036005
O O5 0.148947 0.336010 0.266040
O O6 0.215861 0.862569 0.818796
O O7 0.000000 0.500000 0.000000
O O8 0.531027 0.669074 0.457723
O O9 0.663831 0.670107 0.586967
O O10 0.121440 0.787116 0.546519
O O11 0.236114 0.003699 0.489157
O O12 0.673368 0.556835 0.157816
O O13 0.287162 0.743664 0.176052
O O14 0.082558 0.178494 0.733015
O O15 0.500000 0.500000 0.500000
#
# Coordination Sequence:
#
# PCOD9006064 Si02
#       7
#     2   2   2   2   2   2   2
#     4  11  18  34  57  83 110 147 184 226 278 332
#     4  11  24  36  53  84 119 148 181 224 277 336
#     4  11  19  33  56  77 114 148 178 227 282 328
#     4  11  19  33  58  83 106 149 185 226 278 335
#     4  10  17  28  51  83 106 139 173 229 275 327
#     4  10  19  30  50  81 113 140 180 227 278 323
#     4  10  21  32  50  82 118 140 181 234 288 319
#
# _framework density 24.637263000000001
#
# number of rings (size 3 to 8) (size 9 to 14) (size 15 to 20)
#    0.000    1.429    5.714    3.857    0.000    0.571 
#    0.000    0.000    0.000    0.857    0.000    6.000 
#    0.000    0.000    0.000    0.000    0.000    0.000 
#
# Total GULP energy -78067.046340 kJ/mol
# GULP energy per Si atom -5576.217596 kJ/mol
# Density = 2.458119 g / cm^3
# Si number density = 24.637263 Si / 1000 Ang^3
#
#
#
# Elastic Constant Matrix: (Units=GPa)
#
#
# Indices 1 2 3 4 5 6 
#
# 1 50.5296 36.7722 40.4029 -3.4978 -7.4552 -23.7551
# 2 36.7722 175.8355 84.7427 8.5489 -14.2431 -44.4166
# 3 40.4029 84.7427 186.5389 -17.9461 -12.0671 -25.9385
# 4 -3.4978 8.5489 -17.9461 61.9729 -2.7103 0.4299
# 5 -7.4552 -14.2431 -12.0671 -2.7103 29.4067 4.2209
# 6 -23.7551 -44.4166 -25.9385 0.4299 4.2209 32.6846
#
#
#
# Elastic Compliance Matrix: (Units=1/GPa)
#
#
# Indices 1 2 3 4 5 6 
#
# 1 0.033324 0.000799 -0.004294 0.000556 0.004058 0.021368
# 2 0.000799 0.010395 -0.003352 -0.002356 0.001947 0.011827
# 3 -0.004294 -0.003352 0.007907 0.002564 0.000993 -0.001562
# 4 0.000556 -0.002356 0.002564 0.017323 0.001825 -0.001226
# 5 0.004058 0.001947 0.000993 0.001825 0.036314 0.001670
# 6 0.021368 0.011827 -0.001562 -0.001226 0.001670 0.060758
#
#
# Mechanical properties :
#
#
# Convention : Reuss Voigt Hill
#
# Bulk Modulus (GPa) = 26.36107 81.85993 54.11050
# Shear Modulus (GPa) = 25.99305 41.54526 33.76915
#
# Velocity S-wave (km/s) = 3.25165 4.11089 3.70625
# Velocity P-wave (km/s) = 4.98202 7.47199 6.35024
#
# Compressibility (1/GPa) = 0.03793473
#
# Stress axis : x y z
#
# Youngs Moduli (GPa) = 30.00798 96.19896 126.46815
#
# Poissons Ratio (x) = -0.07691 0.54302
# Poissons Ratio (y) = -0.02399 0.42388
# Poissons Ratio (z) = 0.12885 0.32243
#
# Static dielectric constant tensor:
#      x y z
#    x 2.145690 0.065480 -0.010040 
#    y 0.065480 2.023480 -0.012320 
#    z -0.010040 -0.012320 2.060290 
# 
# From -- ./inp_files/404302.got.cif
#   From: 2010.05.17/outbox.cif.g08.bks.cpg/sg2_203_cif.got.tgz:404302.got - 2010.06.03 11:33:40.
