data_PCOD9006829
_publ_section_title
;
Structure prediction by ZEFSAII (Michael W. Deem and Ramdas Pophale) SiO2 
 PCOD9006829
Probable space group: P -1
;
_chemical_formula_sum "Si O2"
_cell_formula_units_Z 16
_cell_length_a 14.901801
_cell_length_b 9.423906
_cell_length_c 17.343256
_cell_angle_alpha 50.225209
_cell_angle_beta 140.801013
_cell_angle_gamma 153.070539
_cell_volume 685.924225
_symmetry_space_group_name_H-M "P -1"
_symmetry_group_IT_number 2
_symmetry_cell_setting 'triclinic'
loop_
_space_group_symop_operation_xyz
x,y,z
-x,-y,-z
loop_
_atom_site_type_symbol
_atom_site_label
_atom_site_fract_x
_atom_site_fract_y
_atom_site_fract_z
Si Si1 0.641828 0.338898 0.879180
Si Si2 0.872713 0.257853 0.430134
Si Si3 0.635254 0.657754 0.117542
Si Si4 0.771068 0.850278 0.855280
Si Si5 0.160511 0.072490 0.366129
Si Si6 0.743303 0.134992 0.617127
Si Si7 0.191309 0.803296 0.858042
Si Si8 0.684197 0.355374 0.731854
O O1 0.698464 0.613935 0.828348
O O2 0.744352 0.375587 0.854154
O O3 0.352764 0.006214 0.818799
O O4 0.760754 0.348704 0.023894
O O5 0.000000 0.500000 0.500000
O O6 0.027363 0.490748 0.380014
O O7 0.890993 0.063995 0.535511
O O8 0.587940 0.007917 0.330408
O O9 0.449956 0.369788 0.154890
O O10 0.695495 0.927230 0.098039
O O11 0.500000 0.500000 0.000000
O O12 0.898647 0.838415 0.232926
O O13 0.797965 0.069225 0.751643
O O14 0.000000 0.000000 0.000000
O O15 0.314186 0.421407 0.350841
O O16 0.284802 0.046155 0.407117
O O17 0.500000 0.000000 0.500000
O O18 0.901681 0.525875 0.761667
#
# Coordination Sequence:
#
# PCOD9006829 Si02
#       8
#     2   2   2   2   2   2   2   2
#     4  10  21  42  62 102 139 177 234 284 339 429
#     4  10  24  43  65  96 130 175 230 286 335 418
#     4  10  21  38  70 102 137 181 224 285 354 418
#     4  11  23  41  67 101 142 180 224 291 346 406
#     4  10  21  43  66  95 133 176 234 281 341 422
#     4  11  23  44  66  95 139 179 227 287 349 413
#     4   9  22  39  66  99 140 177 230 280 347 417
#     4  11  21  42  72  92 136 183 229 286 357 406
#
# _framework density 23.326191999999999
#
# number of rings (size 3 to 8) (size 9 to 14) (size 15 to 20)
#    0.000    1.750    1.250    2.250    1.750    5.000 
#   13.500    0.625    0.000    0.000    0.000    0.000 
#    0.000    0.000    0.000    0.000    0.000    0.000 
#
# Total GULP energy -89430.720764 kJ/mol
# GULP energy per Si atom -5589.420048 kJ/mol
# Density = 2.327310 g / cm^3
# Si number density = 23.326192 Si / 1000 Ang^3
#
#
#
# Elastic Constant Matrix: (Units=GPa)
#
#
# Indices 1 2 3 4 5 6 
#
# 1 63.1995 33.3386 27.4171 -1.5034 21.0663 8.2695
# 2 33.3386 168.1891 74.3833 -1.7341 5.1682 24.8082
# 3 27.4171 74.3833 118.5551 1.5776 17.1305 11.7920
# 4 -1.5034 -1.7341 1.5776 49.5711 9.5954 2.6638
# 5 21.0663 5.1682 17.1305 9.5954 38.8115 3.0766
# 6 8.2695 24.8082 11.7920 2.6638 3.0766 33.8345
#
#
#
# Elastic Compliance Matrix: (Units=1/GPa)
#
#
# Indices 1 2 3 4 5 6 
#
# 1 0.022270 -0.003164 -0.001337 0.002963 -0.011664 -0.001830
# 2 -0.003164 0.009457 -0.005190 0.000048 0.003105 -0.004638
# 3 -0.001337 -0.005190 0.012593 0.000183 -0.004196 0.000110
# 4 0.002963 0.000048 0.000183 0.021699 -0.006909 -0.001904
# 5 -0.011664 0.003105 -0.004196 -0.006909 0.035293 -0.000629
# 6 -0.001830 -0.004638 0.000110 -0.001904 -0.000629 0.033572
#
#
# Mechanical properties :
#
#
# Convention : Reuss Voigt Hill
#
# Bulk Modulus (GPa) = 40.09886 68.91353 54.50619
# Shear Modulus (GPa) = 30.75421 38.76371 34.75896
#
# Velocity S-wave (km/s) = 3.63497 4.08095 3.86440
# Velocity P-wave (km/s) = 5.90298 7.19813 6.58249
#
# Compressibility (1/GPa) = 0.02493837
#
# Stress axis : x y z
#
# Youngs Moduli (GPa) = 44.90367 105.73683 79.40847
#
# Poissons Ratio (x) = 0.33458 0.10616
# Poissons Ratio (y) = 0.14209 0.41212
# Poissons Ratio (z) = 0.06003 0.54876
#
# Static dielectric constant tensor:
#      x y z
#    x 1.910160 -0.005350 -0.038400 
#    y -0.005350 1.914280 -0.012140 
#    z -0.038400 -0.012140 1.905440 
# 
# From -- ./inp_files/600064.got.cif
#   From: 2010.05.17/outbox.cif.g08.bks.cpg/sg2_301_cif.got.tgz:600064.got - 2010.06.03 11:33:40.
