data_PCOD9006212
_publ_section_title
;
Structure prediction by ZEFSAII (Michael W. Deem and Ramdas Pophale) SiO2 
 PCOD9006212
Probable space group: P -1
;
_chemical_formula_sum "Si O2"
_cell_formula_units_Z 14
_cell_length_a 9.442960
_cell_length_b 24.320238
_cell_length_c 11.780680
_cell_angle_alpha 154.303464
_cell_angle_beta 141.057331
_cell_angle_gamma 29.342722
_cell_volume 574.484493
_symmetry_space_group_name_H-M "P -1"
_symmetry_group_IT_number 2
_symmetry_cell_setting 'triclinic'
loop_
_space_group_symop_operation_xyz
x,y,z
-x,-y,-z
loop_
_atom_site_type_symbol
_atom_site_label
_atom_site_fract_x
_atom_site_fract_y
_atom_site_fract_z
Si Si1 0.290731 0.627995 0.476024
Si Si2 0.882423 0.076299 0.190708
Si Si3 0.386080 0.361631 0.886253
Si Si4 0.066755 0.582145 0.457949
Si Si5 0.432213 0.167258 0.234871
Si Si6 0.651262 0.030225 0.554431
Si Si7 0.134312 0.831360 0.333608
O O1 0.148710 0.761292 0.537907
O O2 0.608377 0.571112 0.594480
O O3 0.116788 0.680518 0.582955
O O4 0.321947 0.476351 0.163306
O O5 0.568887 0.133335 0.132805
O O6 0.120291 0.961382 0.219639
O O7 0.000000 0.000000 0.000000
O O8 0.128934 0.444062 0.787304
O O9 0.450492 0.196803 0.667413
O O10 0.674215 0.307498 0.898663
O O11 0.888264 0.685633 0.650464
O O12 0.630360 0.195113 0.482076
O O13 0.500000 0.000000 0.000000
O O14 0.500000 0.000000 0.500000
O O15 0.860912 0.875100 0.313200
O O16 0.000000 0.000000 0.500000
#
# Coordination Sequence:
#
# PCOD9006212 Si02
#       7
#     2   2   2   2   2   2   2
#     4  11  24  41  67  92 132 173 212 267 324 387
#     4  11  25  43  62  96 132 162 218 270 323 384
#     4  10  21  42  67  91 127 172 215 263 319 388
#     4  10  23  40  66  94 129 169 217 258 326 381
#     4  10  21  38  65  89 126 170 210 263 320 385
#     4  10  21  39  64  94 128 166 214 265 324 375
#     4   8  18  35  60  89 121 160 210 254 311 378
#
# _framework density 24.369674
#
# number of rings (size 3 to 8) (size 9 to 14) (size 15 to 20)
#    0.000    2.000    0.000    2.143   10.000    2.857 
#    0.000    7.857    0.000    0.000    0.000    0.000 
#    0.000    0.000    0.000    0.000    0.000    0.000 
#
# Total GULP energy -78184.772101 kJ/mol
# GULP energy per Si atom -5584.626579 kJ/mol
# Density = 2.431421 g / cm^3
# Si number density = 24.369674 Si / 1000 Ang^3
#
#
#
# Elastic Constant Matrix: (Units=GPa)
#
#
# Indices 1 2 3 4 5 6 
#
# 1 186.6735 13.1116 22.1897 11.6304 -20.8413 -42.6499
# 2 13.1116 93.1598 17.1174 -23.9129 -5.9947 -8.8855
# 3 22.1897 17.1174 49.8450 -8.6414 -8.8849 -14.1832
# 4 11.6304 -23.9129 -8.6414 26.9667 4.1844 -2.8237
# 5 -20.8413 -5.9947 -8.8849 4.1844 28.2731 8.9378
# 6 -42.6499 -8.8855 -14.1832 -2.8237 8.9378 38.6310
#
#
#
# Elastic Compliance Matrix: (Units=1/GPa)
#
#
# Indices 1 2 3 4 5 6 
#
# 1 0.007835 -0.001200 -0.001339 -0.004745 0.003690 0.006681
# 2 -0.001200 0.014904 -0.001627 0.013678 -0.001135 0.002768
# 3 -0.001339 -0.001627 0.025117 0.007439 0.003192 0.007174
# 4 -0.004745 0.013678 0.007439 0.055682 -0.008620 0.006703
# 5 0.003690 -0.001135 0.003192 -0.008620 0.041809 -0.005318
# 6 0.006681 0.002768 0.007174 0.006703 -0.005318 0.038253
#
#
# Mechanical properties :
#
#
# Convention : Reuss Voigt Hill
#
# Bulk Modulus (GPa) = 25.30195 48.27952 36.79074
# Shear Modulus (GPa) = 24.37746 37.25815 30.81781
#
# Velocity S-wave (km/s) = 3.16621 3.91432 3.55997
# Velocity P-wave (km/s) = 4.87562 6.34693 5.65929
#
# Compressibility (1/GPa) = 0.03952264
#
# Stress axis : x y z
#
# Youngs Moduli (GPa) = 127.64001 67.09519 39.81318
#
# Poissons Ratio (x) = 0.08050 0.05333
# Poissons Ratio (y) = 0.15315 0.06479
# Poissons Ratio (z) = 0.17097 0.10919
#
# Static dielectric constant tensor:
#      x y z
#    x 2.036940 -0.036090 -0.000940 
#    y -0.036090 1.943250 0.008170 
#    z -0.000940 0.008170 1.993920 
# 
# From -- ./inp_files/406923.got.cif
#   From: 2010.05.17/outbox.cif.g08.bks.cpg/sg2_204_cif.got.tgz:406923.got - 2010.06.03 11:33:40.
