data_PCOD9006926
_publ_section_title
;
Structure prediction by ZEFSAII (Michael W. Deem and Ramdas Pophale) SiO2 
 PCOD9006926
Probable space group: P -1
;
_chemical_formula_sum "Si O2"
_cell_formula_units_Z 16
_cell_length_a 17.534260
_cell_length_b 9.244375
_cell_length_c 6.075582
_cell_angle_alpha 121.727862
_cell_angle_beta 104.273105
_cell_angle_gamma 49.018019
_cell_volume 624.884339
_symmetry_space_group_name_H-M "P -1"
_symmetry_group_IT_number 2
_symmetry_cell_setting 'triclinic'
loop_
_space_group_symop_operation_xyz
x,y,z
-x,-y,-z
loop_
_atom_site_type_symbol
_atom_site_label
_atom_site_fract_x
_atom_site_fract_y
_atom_site_fract_z
Si Si1 0.578992 0.924346 0.189636
Si Si2 0.779610 0.170124 0.547773
Si Si3 0.581530 0.686744 0.406653
Si Si4 0.002601 0.278219 0.574985
Si Si5 0.250308 0.402938 0.247061
Si Si6 0.987915 0.330480 0.122128
Si Si7 0.623232 0.315372 0.932382
Si Si8 0.785994 0.906957 0.954147
O O1 0.563042 0.794475 0.244540
O O2 0.531472 0.162591 0.446047
O O3 0.693974 0.747531 0.052035
O O4 0.500000 0.000000 0.000000
O O5 0.786038 0.355131 0.613285
O O6 0.683641 0.299224 0.750439
O O7 0.760728 0.035845 0.266048
O O8 0.892403 0.974739 0.562525
O O9 0.657712 0.706869 0.601225
O O10 0.641726 0.430131 0.227797
O O11 0.949181 0.314697 0.322076
O O12 0.034304 0.435506 0.714286
O O13 0.966028 0.298518 0.826717
O O14 0.183947 0.332698 0.210335
O O15 0.110582 0.142908 0.082481
O O16 0.500000 0.500000 0.000000
O O17 0.686779 0.065371 0.857172
#
# Coordination Sequence:
#
# PCOD9006926 Si02
#       8
#     2   2   2   2   2   2   2   2
#     4   9  20  35  56  77 109 155 208 255 314 366
#     4  11  23  44  61  92 125 168 212 266 323 391
#     4  10  21  39  57  79 115 162 210 265 313 377
#     4   9  18  36  71  92 132 168 212 264 333 394
#     4  11  23  39  62  85 120 168 207 262 323 378
#     4   9  18  38  64 102 125 170 212 267 329 395
#     4  12  26  38  59  90 125 165 218 269 319 380
#     4  11  25  41  61  92 127 161 217 266 320 387
#
# _framework density 25.604741000000001
#
# number of rings (size 3 to 8) (size 9 to 14) (size 15 to 20)
#    0.000    1.750    3.750    0.000    7.000    0.500 
#    0.000    0.625    0.000    0.000    0.000    9.625 
#    0.000    0.000    0.000    0.000    0.000    0.000 
#
# Total GULP energy -89103.038969 kJ/mol
# GULP energy per Si atom -5568.939936 kJ/mol
# Density = 2.554646 g / cm^3
# Si number density = 25.604741 Si / 1000 Ang^3
#
#
#
# Elastic Constant Matrix: (Units=GPa)
#
#
# Indices 1 2 3 4 5 6 
#
# 1 59.6511 17.9831 37.8940 -5.8518 6.0846 1.8954
# 2 17.9831 151.5960 45.6712 -11.0324 6.7303 1.1953
# 3 37.8940 45.6712 122.8340 -0.2397 -19.7086 5.1453
# 4 -5.8518 -11.0324 -0.2397 46.3180 -4.2551 -1.1440
# 5 6.0846 6.7303 -19.7086 -4.2551 28.9584 8.9702
# 6 1.8954 1.1953 5.1453 -1.1440 8.9702 24.7320
#
#
#
# Elastic Compliance Matrix: (Units=1/GPa)
#
#
# Indices 1 2 3 4 5 6 
#
# 1 0.024473 0.000924 -0.010309 0.002131 -0.013699 0.005292
# 2 0.000924 0.008124 -0.004300 0.001581 -0.005557 0.002520
# 3 -0.010309 -0.004300 0.015902 -0.000941 0.016424 -0.008311
# 4 0.002131 0.001581 -0.000941 0.022398 0.001722 0.000368
# 5 -0.013699 -0.005557 0.016424 0.001722 0.057183 -0.022759
# 6 0.005292 0.002520 -0.008311 0.000368 -0.022759 0.049907
#
#
# Mechanical properties :
#
#
# Convention : Reuss Voigt Hill
#
# Bulk Modulus (GPa) = 47.32761 59.68640 53.50701
# Shear Modulus (GPa) = 23.54076 35.50386 29.52231
#
# Velocity S-wave (km/s) = 3.03544 3.72776 3.39927
# Velocity P-wave (km/s) = 5.55060 6.47222 6.02905
#
# Compressibility (1/GPa) = 0.02112931
#
# Stress axis : x y z
#
# Youngs Moduli (GPa) = 40.86212 123.08938 62.88714
#
# Poissons Ratio (x) = -0.11376 0.64829
# Poissons Ratio (y) = -0.03776 0.27040
# Poissons Ratio (z) = 0.42124 0.52926
#
# Static dielectric constant tensor:
#      x y z
#    x 2.078300 -0.024780 -0.031130 
#    y -0.024780 2.029850 -0.002480 
#    z -0.031130 -0.002480 2.259140 
# 
# From -- ./inp_files/117409.got.cif
#   From: 2010.05.17/outbox.cif.g08.bks.cpg/sg2_59_cif.got.tgz:117409.got - 2010.06.03 11:33:40.
