data_PCOD9006223
_publ_section_title
;
Structure prediction by ZEFSAII (Michael W. Deem and Ramdas Pophale) SiO2 
 PCOD9006223
Probable space group: P -1
;
_chemical_formula_sum "Si O2"
_cell_formula_units_Z 15
_cell_length_a 8.088870
_cell_length_b 17.890212
_cell_length_c 16.172720
_cell_angle_alpha 31.052154
_cell_angle_beta 112.719809
_cell_angle_gamma 135.107764
_cell_volume 677.617806
_symmetry_space_group_name_H-M "P -1"
_symmetry_group_IT_number 2
_symmetry_cell_setting 'triclinic'
loop_
_space_group_symop_operation_xyz
x,y,z
-x,-y,-z
loop_
_atom_site_type_symbol
_atom_site_label
_atom_site_fract_x
_atom_site_fract_y
_atom_site_fract_z
Si Si1 0.929891 0.656988 0.939595
Si Si2 0.256958 0.337293 0.679803
Si Si3 0.388621 0.850864 0.396587
Si Si4 0.454871 0.466365 0.159281
Si Si5 0.216145 0.741150 0.651018
Si Si6 0.000000 0.500000 0.500000
Si Si7 0.737948 0.677498 0.577559
Si Si8 0.854471 0.976155 0.815874
O O1 0.812558 0.653106 0.836386
O O2 0.702211 0.561162 0.057294
O O3 0.894179 0.460378 0.122018
O O4 0.263923 0.916825 0.773058
O O5 0.500000 0.500000 0.500000
O O6 0.453900 0.432982 0.707019
O O7 0.106046 0.396627 0.607120
O O8 0.024180 0.076734 0.841070
O O9 0.305502 0.744583 0.573274
O O10 0.278544 0.948035 0.283948
O O11 0.215237 0.655643 0.476430
O O12 0.350190 0.304266 0.370685
O O13 0.606904 0.702215 0.007802
O O14 0.960886 0.694090 0.631740
O O15 0.500000 0.000000 0.500000
O O16 0.911331 0.882890 0.348328
#
# Coordination Sequence:
#
# PCOD9006223 Si02
#       8
#     2   2   2   2   2   1   2   2
#     4  11  25  40  59  94 130 170 215 269 327 387
#     4   9  20  38  64  95 126 167 219 265 327 389
#     4  10  22  41  67  93 125 172 216 270 327 389
#     4  11  24  39  59  92 132 167 213 266 324 392
#     4  11  23  42  67  95 127 171 223 272 329 395
#     4  10  22  40  68  98 132 172 218 274 332 390
#     4  10  21  38  65  90 121 168 213 264 314 391
#     4   9  20  40  63  89 122 167 210 263 327 380
#
# _framework density 22.136372000000001
#
# number of rings (size 3 to 8) (size 9 to 14) (size 15 to 20)
#    0.000    1.867    0.000    4.000    5.600    2.133 
#    0.000    4.000    0.000    0.000    0.000    0.000 
#    0.000    0.000    0.000    0.000    0.000    0.000 
#
# Total GULP energy -83559.431533 kJ/mol
# GULP energy per Si atom -5570.628769 kJ/mol
# Density = 2.208599 g / cm^3
# Si number density = 22.136372 Si / 1000 Ang^3
#
#
#
# Elastic Constant Matrix: (Units=GPa)
#
#
# Indices 1 2 3 4 5 6 
#
# 1 56.3216 37.7492 9.6585 -6.6909 -12.8871 -12.0870
# 2 37.7492 200.8957 50.8753 -2.3837 -20.5630 -2.6335
# 3 9.6585 50.8753 72.6325 0.1015 -13.7842 -6.1738
# 4 -6.6909 -2.3837 0.1015 35.3318 -8.7018 -2.9544
# 5 -12.8871 -20.5630 -13.7842 -8.7018 29.5970 -5.6566
# 6 -12.0870 -2.6335 -6.1738 -2.9544 -5.6566 31.0645
#
#
#
# Elastic Compliance Matrix: (Units=1/GPa)
#
#
# Indices 1 2 3 4 5 6 
#
# 1 0.028553 -0.004205 0.003773 0.010715 0.017418 0.015694
# 2 -0.004205 0.006884 -0.004331 -0.000358 0.000474 -0.001861
# 3 0.003773 -0.004331 0.018710 0.003319 0.009641 0.006891
# 4 0.010715 -0.000358 0.003319 0.035884 0.018734 0.011623
# 5 0.017418 0.000474 0.009641 0.018734 0.055645 0.020648
# 6 0.015694 -0.001861 0.006891 0.011623 0.020648 0.044374
#
#
# Mechanical properties :
#
#
# Convention : Reuss Voigt Hill
#
# Bulk Modulus (GPa) = 22.41031 58.49066 40.45048
# Shear Modulus (GPa) = 23.31537 34.63643 28.97590
#
# Velocity S-wave (km/s) = 3.24892 3.95990 3.62190
# Velocity P-wave (km/s) = 4.92135 6.88389 5.98363
#
# Compressibility (1/GPa) = 0.04462232
#
# Stress axis : x y z
#
# Youngs Moduli (GPa) = 35.02282 145.25450 53.44626
#
# Poissons Ratio (x) = 0.61080 -0.20166
# Poissons Ratio (y) = 0.14727 0.23146
# Poissons Ratio (z) = -0.13214 0.62906
#
# Static dielectric constant tensor:
#      x y z
#    x 1.836400 -0.004490 -0.021870 
#    y -0.004490 1.795690 0.049770 
#    z -0.021870 0.049770 1.960600 
# 
# From -- ./inp_files/506626.got.cif
#   From: 2010.05.17/outbox.cif.g08.bks.cpg/sg2_254_cif.got.tgz:506626.got - 2010.06.03 11:33:40.
