data_PCOD9006149
_publ_section_title
;
Structure prediction by ZEFSAII (Michael W. Deem and Ramdas Pophale) SiO2 
 PCOD9006149
Probable space group: P -1
;
_chemical_formula_sum "Si O2"
_cell_formula_units_Z 16
_cell_length_a 15.528219
_cell_length_b 5.356814
_cell_length_c 10.485502
_cell_angle_alpha 98.371367
_cell_angle_beta 107.858735
_cell_angle_gamma 62.126583
_cell_volume 733.858712
_symmetry_space_group_name_H-M "P -1"
_symmetry_group_IT_number 2
_symmetry_cell_setting 'triclinic'
loop_
_space_group_symop_operation_xyz
x,y,z
-x,-y,-z
loop_
_atom_site_type_symbol
_atom_site_label
_atom_site_fract_x
_atom_site_fract_y
_atom_site_fract_z
Si Si1 0.513183 0.609783 0.649802
Si Si2 0.421714 0.383137 0.914097
Si Si3 0.737932 0.718154 0.039270
Si Si4 0.959317 0.480282 0.336671
Si Si5 0.027855 0.693133 0.931978
Si Si6 0.897377 0.073978 0.381647
Si Si7 0.307292 0.862254 0.708525
Si Si8 0.587932 0.026784 0.796536
O O1 0.500000 0.500000 0.500000
O O2 0.399289 0.826804 0.659096
O O3 0.558686 0.324588 0.735962
O O4 0.579961 0.781466 0.691909
O O5 0.351712 0.567331 0.781632
O O6 0.500419 0.086913 0.868880
O O7 0.500000 0.500000 0.000000
O O8 0.342346 0.406397 0.986574
O O9 0.693709 0.917231 0.910735
O O10 0.851243 0.484467 0.051040
O O11 0.718898 0.909154 0.172548
O O12 0.020485 0.284765 0.231244
O O13 0.879052 0.359627 0.323624
O O14 0.000000 0.500000 0.500000
O O15 0.925919 0.794037 0.290334
O O16 0.000000 0.500000 0.000000
O O17 0.000000 0.000000 0.000000
O O18 0.795982 0.098738 0.404148
O O19 0.000000 0.000000 0.500000
#
# Coordination Sequence:
#
# PCOD9006149 Si02
#       8
#     2   2   2   2   2   2   2   2
#     4  11  25  44  64  96 146 182 221 275 351 421
#     4  11  21  36  66 108 138 166 226 293 349 419
#     4  12  23  41  72 100 141 180 239 286 365 429
#     4  10  21  43  69  92 126 177 237 288 345 413
#     4  12  28  45  68 102 146 188 240 306 374 413
#     4  10  21  38  64  99 126 172 239 297 327 401
#     4  11  22  37  69  99 132 180 235 281 350 416
#     4  11  23  41  67 104 133 174 224 287 344 423
#
# _framework density 21.802562000000002
#
# number of rings (size 3 to 8) (size 9 to 14) (size 15 to 20)
#    0.000    1.000    3.750    3.750    1.750    0.000 
#    0.000    7.500    0.000    0.000    0.000    0.000 
#    0.000    0.000    0.000    0.000    0.000    0.000 
#
# Total GULP energy -89087.857264 kJ/mol
# GULP energy per Si atom -5567.991079 kJ/mol
# Density = 2.175294 g / cm^3
# Si number density = 21.802562 Si / 1000 Ang^3
#
#
#
# Elastic Constant Matrix: (Units=GPa)
#
#
# Indices 1 2 3 4 5 6 
#
# 1 89.5444 36.6472 32.0521 3.4170 18.6252 -3.5144
# 2 36.6472 109.5360 37.5910 21.2203 12.2977 -5.8305
# 3 32.0521 37.5910 124.3079 18.5592 6.5553 -10.2477
# 4 3.4170 21.2203 18.5592 41.9008 -1.1103 10.5914
# 5 18.6252 12.2977 6.5553 -1.1103 30.6954 1.8247
# 6 -3.5144 -5.8305 -10.2477 10.5914 1.8247 43.9311
#
#
#
# Elastic Compliance Matrix: (Units=1/GPa)
#
#
# Indices 1 2 3 4 5 6 
#
# 1 0.014999 -0.003634 -0.002636 0.001596 -0.007025 0.000010
# 2 -0.003634 0.012521 -0.001579 -0.006074 -0.002848 0.002586
# 3 -0.002636 -0.001579 0.010087 -0.004207 -0.000250 0.002957
# 4 0.001596 -0.006074 -0.004207 0.031143 0.004045 -0.009336
# 5 -0.007025 -0.002848 -0.000250 0.004045 0.038394 -0.003568
# 6 0.000010 0.002586 0.002957 -0.009336 -0.003568 0.026196
#
#
# Mechanical properties :
#
#
# Convention : Reuss Voigt Hill
#
# Bulk Modulus (GPa) = 45.64109 59.55207 52.59658
# Shear Modulus (GPa) = 31.98178 37.77868 34.88023
#
# Velocity S-wave (km/s) = 3.83414 4.16716 4.00412
# Velocity P-wave (km/s) = 6.37025 7.10825 6.74935
#
# Compressibility (1/GPa) = 0.02191008
#
# Stress axis : x y z
#
# Youngs Moduli (GPa) = 66.67188 79.86438 99.13956
#
# Poissons Ratio (x) = 0.29019 0.26129
# Poissons Ratio (y) = 0.24225 0.15657
# Poissons Ratio (z) = 0.17572 0.12613
#
# Static dielectric constant tensor:
#      x y z
#    x 1.836980 0.013120 0.029500 
#    y 0.013120 1.977700 -0.124780 
#    z 0.029500 -0.124780 2.010270 
# 
# From -- ./inp_files/442180.got.cif
#   From: 2010.05.17/outbox.cif.g08.bks.cpg/sg2_222_cif.got.tgz:442180.got - 2010.06.03 11:33:40.
