data_PCOD9006118
_publ_section_title
;
Structure prediction by ZEFSAII (Michael W. Deem and Ramdas Pophale) SiO2 
 PCOD9006118
Probable space group: P -1
;
_chemical_formula_sum "Si O2"
_cell_formula_units_Z 16
_cell_length_a 15.373061
_cell_length_b 10.251672
_cell_length_c 11.287836
_cell_angle_alpha 145.247922
_cell_angle_beta 55.713740
_cell_angle_gamma 136.872824
_cell_volume 690.208571
_symmetry_space_group_name_H-M "P -1"
_symmetry_group_IT_number 2
_symmetry_cell_setting 'triclinic'
loop_
_space_group_symop_operation_xyz
x,y,z
-x,-y,-z
loop_
_atom_site_type_symbol
_atom_site_label
_atom_site_fract_x
_atom_site_fract_y
_atom_site_fract_z
Si Si1 0.643332 0.729963 0.202254
Si Si2 0.922874 0.889460 0.099735
Si Si3 0.053441 0.269730 0.502251
Si Si4 0.882101 0.219829 0.064496
Si Si5 0.358564 0.212069 0.494469
Si Si6 0.623629 0.859241 0.056650
Si Si7 0.140422 0.903802 0.260794
Si Si8 0.421492 0.765950 0.785725
O O1 0.667020 0.886728 0.424949
O O2 0.622425 0.860719 0.200768
O O3 0.771152 0.734072 0.087431
O O4 0.509882 0.424991 0.090219
O O5 0.975872 0.132078 0.338965
O O6 0.000000 0.000000 0.000000
O O7 0.978886 0.723171 0.985565
O O8 0.128261 0.598469 0.692101
O O9 0.135002 0.147581 0.383953
O O10 0.961183 0.197264 0.631692
O O11 0.758574 0.907447 0.953225
O O12 0.873197 0.278336 0.977179
O O13 0.268090 0.003758 0.306938
O O14 0.341486 0.467818 0.689972
O O15 0.495511 0.286718 0.407516
O O16 0.634151 0.106633 0.159887
O O17 0.500000 0.000000 0.000000
#
# Coordination Sequence:
#
# PCOD9006118 Si02
#       8
#     2   2   2   2   2   2   2   2
#     4  11  24  46  70  99 139 182 231 285 340 411
#     4  11  23  46  69  95 135 184 228 283 339 405
#     4  10  22  40  64 100 134 177 229 282 336 412
#     4  11  23  41  70  98 135 182 225 281 348 408
#     4  11  23  41  71  97 140 180 226 285 344 405
#     4  11  24  45  69  99 142 179 227 283 343 412
#     4  10  21  38  64  97 137 175 223 285 341 400
#     4  11  23  41  66 101 135 181 225 275 343 418
#
# _framework density 23.181395999999999
#
# number of rings (size 3 to 8) (size 9 to 14) (size 15 to 20)
#    0.000    1.250    3.750    1.875    1.750    2.000 
#    2.250    0.000    0.000    0.000    0.000    0.000 
#    0.000    0.000    0.000    0.000    0.000    0.000 
#
# Total GULP energy -89219.714339 kJ/mol
# GULP energy per Si atom -5576.232146 kJ/mol
# Density = 2.312863 g / cm^3
# Si number density = 23.181396 Si / 1000 Ang^3
#
#
#
# Elastic Constant Matrix: (Units=GPa)
#
#
# Indices 1 2 3 4 5 6 
#
# 1 112.0033 14.2858 27.3125 -2.6653 24.5333 -4.0629
# 2 14.2858 72.5711 22.4856 -17.4073 8.2257 4.9944
# 3 27.3125 22.4856 97.6113 -10.2728 20.6906 -9.8174
# 4 -2.6653 -17.4073 -10.2728 29.1224 -2.0322 10.5942
# 5 24.5333 8.2257 20.6906 -2.0322 35.8462 -10.9475
# 6 -4.0629 4.9944 -9.8174 10.5942 -10.9475 39.5880
#
#
#
# Elastic Compliance Matrix: (Units=1/GPa)
#
#
# Indices 1 2 3 4 5 6 
#
# 1 0.010827 -0.000891 -0.001538 -0.000206 -0.006614 -0.000932
# 2 -0.000891 0.018777 -0.002713 0.012673 -0.003722 -0.007554
# 3 -0.001538 -0.002713 0.012725 0.001849 -0.005129 0.001427
# 4 -0.000206 0.012673 0.001849 0.047804 -0.005883 -0.015581
# 5 -0.006614 -0.003722 -0.005129 -0.005883 0.039248 0.010946
# 6 -0.000932 -0.007554 0.001427 -0.015581 0.010946 0.033668
#
#
# Mechanical properties :
#
#
# Convention : Reuss Voigt Hill
#
# Bulk Modulus (GPa) = 31.20490 45.59482 38.39986
# Shear Modulus (GPa) = 27.17162 35.45144 31.31153
#
# Velocity S-wave (km/s) = 3.42735 3.91488 3.67920
# Velocity P-wave (km/s) = 5.39933 6.33612 5.88639
#
# Compressibility (1/GPa) = 0.03204625
#
# Stress axis : x y z
#
# Youngs Moduli (GPa) = 92.36186 53.25599 78.58251
#
# Poissons Ratio (x) = 0.04743 0.12084
# Poissons Ratio (y) = 0.08225 0.21323
# Poissons Ratio (z) = 0.14203 0.14451
#
# Static dielectric constant tensor:
#      x y z
#    x 1.935180 0.009600 -0.027790 
#    y 0.009600 1.961800 0.074370 
#    z -0.027790 0.074370 1.910550 
# 
# From -- ./inp_files/464945.got.cif
#   From: 2010.05.17/outbox.cif.g08.bks.cpg/sg2_233_cif.got.tgz:464945.got - 2010.06.03 11:33:40.
