data_PCOD9006199
_publ_section_title
;
Structure prediction by ZEFSAII (Michael W. Deem and Ramdas Pophale) SiO2 
 PCOD9006199
Probable space group: P -1
;
_chemical_formula_sum "Si O2"
_cell_formula_units_Z 16
_cell_length_a 5.342908
_cell_length_b 19.369306
_cell_length_c 8.832720
_cell_angle_alpha 47.898730
_cell_angle_beta 90.488278
_cell_angle_gamma 76.020566
_cell_volume 639.411701
_symmetry_space_group_name_H-M "P -1"
_symmetry_group_IT_number 2
_symmetry_cell_setting 'triclinic'
loop_
_space_group_symop_operation_xyz
x,y,z
-x,-y,-z
loop_
_atom_site_type_symbol
_atom_site_label
_atom_site_fract_x
_atom_site_fract_y
_atom_site_fract_z
Si Si1 0.758743 0.126330 0.709740
Si Si2 0.343840 0.107488 0.275904
Si Si3 0.243467 0.143291 0.561098
Si Si4 0.027076 0.369244 0.282313
Si Si5 0.437860 0.672934 0.768170
Si Si6 0.093013 0.466010 0.717099
Si Si7 0.703849 0.345480 0.894783
Si Si8 0.200523 0.843428 0.982269
O O1 0.528735 0.083967 0.720885
O O2 0.625350 0.238682 0.482021
O O3 0.813260 0.124542 0.890148
O O4 0.031935 0.088534 0.672853
O O5 0.268158 0.165021 0.351935
O O6 0.500000 0.000000 0.500000
O O7 0.550269 0.138083 0.126983
O O8 0.077555 0.113668 0.173688
O O9 0.120027 0.250574 0.483808
O O10 0.249303 0.381272 0.152164
O O11 0.733087 0.394809 0.178640
O O12 0.021272 0.438068 0.320814
O O13 0.323379 0.716145 0.865907
O O14 0.413449 0.427634 0.773336
O O15 0.000000 0.500000 0.500000
O O16 0.946423 0.385367 0.861899
O O17 0.742907 0.274870 0.855101
#
# Coordination Sequence:
#
# PCOD9006199 Si02
#       8
#     2   2   2   2   2   2   2   2
#     4  10  22  39  71 101 136 178 238 287 332 422
#     4  12  26  49  76 109 146 179 228 293 356 431
#     4  10  21  42  70  96 136 193 225 277 356 424
#     4  10  21  38  65  86 135 174 232 272 343 398
#     4  10  21  39  63  91 123 180 230 284 336 401
#     4  12  28  41  62 100 143 180 233 301 344 382
#     4  12  26  43  69  98 139 185 240 282 341 422
#     4  12  25  45  75 109 139 190 238 281 360 425
#
# _framework density 25.023001000000001
#
# number of rings (size 3 to 8) (size 9 to 14) (size 15 to 20)
#    0.000    1.000    0.000    7.500    7.000    3.000 
#    0.000    3.750    0.000    0.000    0.000    0.000 
#    0.000    0.000    0.000    0.000    0.000    0.000 
#
# Total GULP energy -89518.223078 kJ/mol
# GULP energy per Si atom -5594.888942 kJ/mol
# Density = 2.496605 g / cm^3
# Si number density = 25.023001 Si / 1000 Ang^3
#
#
#
# Elastic Constant Matrix: (Units=GPa)
#
#
# Indices 1 2 3 4 5 6 
#
# 1 225.4351 21.0824 27.7632 20.7715 8.1672 7.3777
# 2 21.0824 59.7740 22.8351 4.7484 4.5107 -4.6771
# 3 27.7632 22.8351 87.2576 21.2533 6.1088 1.7431
# 4 20.7715 4.7484 21.2533 43.5497 2.8272 4.9143
# 5 8.1672 4.5107 6.1088 2.8272 34.2842 3.7608
# 6 7.3777 -4.6771 1.7431 4.9143 3.7608 30.1826
#
#
#
# Elastic Compliance Matrix: (Units=1/GPa)
#
#
# Indices 1 2 3 4 5 6 
#
# 1 0.004859 -0.001336 -0.000729 -0.001663 -0.000604 -0.001007
# 2 -0.001336 0.019397 -0.004724 0.000525 -0.001846 0.003750
# 3 -0.000729 -0.004724 0.014510 -0.006109 -0.001260 -0.000240
# 4 -0.001663 0.000525 -0.006109 0.027105 -0.000433 -0.003519
# 5 -0.000604 -0.001846 -0.001260 -0.000433 0.030228 -0.003762
# 6 -0.001007 0.003750 -0.000240 -0.003519 -0.003762 0.035014
#
#
# Mechanical properties :
#
#
# Convention : Reuss Voigt Hill
#
# Bulk Modulus (GPa) = 39.70392 57.31423 48.50907
# Shear Modulus (GPa) = 32.66130 41.65571 37.15850
#
# Velocity S-wave (km/s) = 3.61675 4.08450 3.85772
# Velocity P-wave (km/s) = 5.77430 6.72298 6.26662
#
# Compressibility (1/GPa) = 0.02518643
#
# Stress axis : x y z
#
# Youngs Moduli (GPa) = 205.81813 51.55463 68.91986
#
# Poissons Ratio (x) = 0.06889 0.05022
# Poissons Ratio (y) = 0.27504 0.32560
# Poissons Ratio (z) = 0.14997 0.24356
#
# Static dielectric constant tensor:
#      x y z
#    x 2.073540 0.004150 -0.016140 
#    y 0.004150 2.035880 -0.042300 
#    z -0.016140 -0.042300 1.988850 
# 
# From -- ./inp_files/141137.got.cif
#   From: 2010.05.17/outbox.cif.g08.bks.cpg/sg2_71_cif.got.tgz:141137.got - 2010.06.03 11:33:40.
