data_PCOD9006253
_publ_section_title
;
Structure prediction by ZEFSAII (Michael W. Deem and Ramdas Pophale) SiO2 
 PCOD9006253
Probable space group: P -1
;
_chemical_formula_sum "Si O2"
_cell_formula_units_Z 16
_cell_length_a 9.710226
_cell_length_b 12.621803
_cell_length_c 9.160268
_cell_angle_alpha 54.752638
_cell_angle_beta 122.101152
_cell_angle_gamma 105.368804
_cell_volume 775.276034
_symmetry_space_group_name_H-M "P -1"
_symmetry_group_IT_number 2
_symmetry_cell_setting 'triclinic'
loop_
_space_group_symop_operation_xyz
x,y,z
-x,-y,-z
loop_
_atom_site_type_symbol
_atom_site_label
_atom_site_fract_x
_atom_site_fract_y
_atom_site_fract_z
Si Si1 0.059266 0.832976 0.519666
Si Si2 0.201353 0.412702 0.077707
Si Si3 0.690748 0.934355 0.243308
Si Si4 0.625264 0.067628 0.409393
Si Si5 0.564555 0.296244 0.380531
Si Si6 0.378949 0.829178 0.186619
Si Si7 0.133621 0.564828 0.620199
Si Si8 0.868144 0.315066 0.028850
O O1 0.180328 0.937455 0.442439
O O2 0.061134 0.707321 0.516654
O O3 0.136137 0.777433 0.758784
O O4 0.877613 0.888233 0.402431
O O5 0.174633 0.476569 0.853743
O O6 0.178013 0.535033 0.076561
O O7 0.378879 0.345891 0.252955
O O8 0.057949 0.315332 0.093352
O O9 0.568277 0.818580 0.250193
O O10 0.623183 0.010963 0.289823
O O11 0.677593 0.029417 0.021211
O O12 0.581278 0.220458 0.295599
O O13 0.500000 0.000000 0.500000
O O14 0.617757 0.197046 0.618897
O O15 0.691763 0.407840 0.372253
O O16 0.256828 0.733466 0.120529
O O17 0.000000 0.500000 0.500000
#
# Coordination Sequence:
#
# PCOD9006253 Si02
#       8
#     2   2   2   2   2   2   2   2
#     4  10  22  41  67  91 120 173 208 250 314 377
#     4  10  22  40  63  91 120 168 207 252 315 375
#     4  11  23  42  64  91 127 166 211 259 309 369
#     4  11  22  40  64  90 124 166 212 255 310 378
#     4  11  23  40  63  90 128 167 205 255 318 372
#     4  11  23  38  62  94 126 157 212 260 302 370
#     4  10  22  42  61  95 130 157 208 266 313 373
#     4  10  21  38  65  92 121 155 217 257 300 373
#
# _framework density 20.637810000000002
#
# number of rings (size 3 to 8) (size 9 to 14) (size 15 to 20)
#    0.000    1.500    2.500    2.250    0.000    1.500 
#    4.500    2.500    0.000    0.000    0.000    0.000 
#    0.000    0.000    0.000    0.000    0.000    0.000 
#
# Total GULP energy -89255.102564 kJ/mol
# GULP energy per Si atom -5578.443910 kJ/mol
# Density = 2.059084 g / cm^3
# Si number density = 20.637810 Si / 1000 Ang^3
#
#
#
# Elastic Constant Matrix: (Units=GPa)
#
#
# Indices 1 2 3 4 5 6 
#
# 1 159.8569 58.2999 51.8158 9.7562 16.2211 26.8907
# 2 58.2999 101.5884 48.1533 29.9314 13.0693 27.0172
# 3 51.8158 48.1533 75.1805 17.5120 5.2935 -2.4715
# 4 9.7562 29.9314 17.5120 22.7895 9.1866 4.0853
# 5 16.2211 13.0693 5.2935 9.1866 38.6148 -4.9410
# 6 26.8907 27.0172 -2.4715 4.0853 -4.9410 39.8330
#
#
#
# Elastic Compliance Matrix: (Units=1/GPa)
#
#
# Indices 1 2 3 4 5 6 
#
# 1 0.011055 -0.001853 -0.008096 0.007733 -0.005799 -0.008221
# 2 -0.001853 0.027980 -0.011695 -0.022422 -0.003883 -0.016634
# 3 -0.008096 -0.011695 0.028559 -0.009353 0.007858 0.017103
# 4 0.007733 -0.022422 -0.009353 0.083114 -0.014264 -0.000887
# 5 -0.005799 -0.003883 0.007858 -0.014264 0.033584 0.012664
# 6 -0.008221 -0.016634 0.017103 -0.000887 0.012664 0.044660
#
#
# Mechanical properties :
#
#
# Convention : Reuss Voigt Hill
#
# Bulk Modulus (GPa) = 41.14007 72.57376 56.85692
# Shear Modulus (GPa) = 17.83541 32.13792 24.98666
#
# Velocity S-wave (km/s) = 2.94293 3.95046 3.48332
# Velocity P-wave (km/s) = 5.61475 7.48665 6.61723
#
# Compressibility (1/GPa) = 0.02430720
#
# Stress axis : x y z
#
# Youngs Moduli (GPa) = 90.45845 35.73974 35.01489
#
# Poissons Ratio (x) = 0.06622 0.28347
# Poissons Ratio (y) = 0.16762 0.40950
# Poissons Ratio (z) = 0.73232 0.41797
#
# Static dielectric constant tensor:
#      x y z
#    x 1.799270 0.024210 -0.018060 
#    y 0.024210 1.788910 -0.003840 
#    z -0.018060 -0.003840 1.716070 
# 
# From -- ./inp_files/185351.got.cif
#   From: 2010.05.17/outbox.cif.g08.bks.cpg/sg2_93_cif.got.tgz:185351.got - 2010.06.03 11:33:40.
