data_PCOD9006113
_publ_section_title
;
Structure prediction by ZEFSAII (Michael W. Deem and Ramdas Pophale) SiO2 
 PCOD9006113
Probable space group: P -1
;
_chemical_formula_sum "Si O2"
_cell_formula_units_Z 13
_cell_length_a 13.084351
_cell_length_b 9.144140
_cell_length_c 7.318130
_cell_angle_alpha 83.164952
_cell_angle_beta 74.085763
_cell_angle_gamma 137.151323
_cell_volume 499.379130
_symmetry_space_group_name_H-M "P -1"
_symmetry_group_IT_number 2
_symmetry_cell_setting 'triclinic'
loop_
_space_group_symop_operation_xyz
x,y,z
-x,-y,-z
loop_
_atom_site_type_symbol
_atom_site_label
_atom_site_fract_x
_atom_site_fract_y
_atom_site_fract_z
Si Si1 0.776173 0.402455 0.878487
Si Si2 0.205640 0.374574 0.708099
Si Si3 0.092529 0.576453 0.641749
Si Si4 0.500000 0.500000 0.500000
Si Si5 0.360518 0.244301 0.999741
Si Si6 0.947252 0.881425 0.791609
Si Si7 0.589614 0.988653 0.756045
O O1 0.872229 0.663402 0.743054
O O2 0.932638 0.467301 0.854019
O O3 0.661176 0.214448 0.792174
O O4 0.621823 0.243230 0.130334
O O5 0.145113 0.466750 0.661401
O O6 0.409753 0.557804 0.602808
O O7 0.096047 0.229235 0.969809
O O8 0.145693 0.165718 0.639651
O O9 0.000000 0.500000 0.500000
O O10 0.275937 0.872356 0.500252
O O11 0.408416 0.315158 0.754091
O O12 0.500000 0.500000 0.000000
O O13 0.172292 0.106515 0.164055
O O14 0.372247 0.097855 0.104458
#
# Coordination Sequence:
#
# PCOD9006113 Si02
#       7
#     2   2   2   1   2   2   2
#     4  10  21  38  64  97 131 176 224 272 356 403
#     4  10  23  44  65  94 140 175 235 291 337 421
#     4  10  22  40  63  98 131 172 224 282 341 415
#     4  10  26  42  70 100 134 184 232 288 356 404
#     4  11  22  43  69  98 140 180 232 291 341 419
#     4  10  21  42  65  96 133 185 227 285 353 404
#     4  10  22  40  64  97 138 172 226 285 341 415
#
# _framework density 26.032325
#
# number of rings (size 3 to 8) (size 9 to 14) (size 15 to 20)
#    0.000    1.846    1.538    1.846    6.462    1.846 
#    0.000    6.923    0.000    0.000    0.000    0.000 
#    0.000    0.000    0.000    0.000    0.000    0.000 
#
# Total GULP energy -72386.941487 kJ/mol
# GULP energy per Si atom -5568.226268 kJ/mol
# Density = 2.597307 g / cm^3
# Si number density = 26.032325 Si / 1000 Ang^3
#
#
#
# Elastic Constant Matrix: (Units=GPa)
#
#
# Indices 1 2 3 4 5 6 
#
# 1 188.3350 12.6505 58.1286 -2.5559 14.4391 -34.2255
# 2 12.6505 90.7855 21.9755 -16.9237 10.7781 -17.2053
# 3 58.1286 21.9755 80.8891 -15.7481 5.5705 -4.7082
# 4 -2.5559 -16.9237 -15.7481 28.7616 -2.8977 -0.1301
# 5 14.4391 10.7781 5.5705 -2.8977 37.1130 -5.1261
# 6 -34.2255 -17.2053 -4.7082 -0.1301 -5.1261 31.5619
#
#
#
# Elastic Compliance Matrix: (Units=1/GPa)
#
#
# Indices 1 2 3 4 5 6 
#
# 1 0.009169 0.002112 -0.006816 -0.001827 -0.001953 0.009752
# 2 0.002112 0.014979 -0.003509 0.006841 -0.002798 0.009506
# 3 -0.006816 -0.003509 0.019360 0.007954 0.000516 -0.006300
# 4 -0.001827 0.006841 0.007954 0.043139 0.001359 0.003333
# 5 -0.001953 -0.002798 0.000516 0.001359 0.028698 0.001100
# 6 0.009752 0.009506 -0.006300 0.003333 0.001100 0.046693
#
#
# Mechanical properties :
#
#
# Convention : Reuss Voigt Hill
#
# Bulk Modulus (GPa) = 36.92600 60.61318 48.76959
# Shear Modulus (GPa) = 26.66773 37.30432 31.98602
#
# Velocity S-wave (km/s) = 3.20411 3.78961 3.50909
# Velocity P-wave (km/s) = 5.28241 6.51786 5.93239
#
# Compressibility (1/GPa) = 0.02708119
#
# Stress axis : x y z
#
# Youngs Moduli (GPa) = 109.06541 66.75963 51.65158
#
# Poissons Ratio (x) = -0.14098 0.35207
# Poissons Ratio (y) = -0.23032 0.18125
# Poissons Ratio (z) = 0.74342 0.23426
#
# Static dielectric constant tensor:
#      x y z
#    x 2.200070 0.106210 -0.116390 
#    y 0.106210 2.319720 0.057450 
#    z -0.116390 0.057450 2.183120 
# 
# From -- ./inp_files/237703.got.cif
#   From: 2010.05.17/outbox.cif.g08.bks.cpg/sg2_119_cif.got.tgz:237703.got - 2010.06.03 11:33:40.
