data_PCOD9006743
_publ_section_title
;
Structure prediction by ZEFSAII (Michael W. Deem and Ramdas Pophale) SiO2 
 PCOD9006743
Probable space group: P -1
;
_chemical_formula_sum "Si O2"
_cell_formula_units_Z 16
_cell_length_a 22.542366
_cell_length_b 11.614607
_cell_length_c 11.630557
_cell_angle_alpha 132.764363
_cell_angle_beta 44.592040
_cell_angle_gamma 158.501386
_cell_volume 781.878277
_symmetry_space_group_name_H-M "P -1"
_symmetry_group_IT_number 2
_symmetry_cell_setting 'triclinic'
loop_
_space_group_symop_operation_xyz
x,y,z
-x,-y,-z
loop_
_atom_site_type_symbol
_atom_site_label
_atom_site_fract_x
_atom_site_fract_y
_atom_site_fract_z
Si Si1 0.491637 0.151549 0.174653
Si Si2 0.800896 0.841061 0.185643
Si Si3 0.017682 0.114769 0.865341
Si Si4 0.506758 0.691670 0.159709
Si Si5 0.196585 0.828564 0.483289
Si Si6 0.153203 0.281010 0.393986
Si Si7 0.657905 0.095740 0.436150
Si Si8 0.368061 0.789082 0.755387
O O1 0.620826 0.476215 0.155790
O O2 0.563579 0.214006 0.240607
O O3 0.309830 0.936131 0.299032
O O4 0.500000 0.000000 0.000000
O O5 0.898797 0.875521 0.155644
O O6 0.767741 0.934363 0.376243
O O7 0.905185 0.036623 0.056605
O O8 0.165968 0.447441 0.818699
O O9 0.910266 0.847766 0.737148
O O10 0.315150 0.428483 0.280798
O O11 0.629110 0.926180 0.258600
O O12 0.568826 0.927902 0.143209
O O13 0.500000 0.500000 0.000000
O O14 0.258360 0.844742 0.525894
O O15 0.000000 0.500000 0.500000
O O16 0.217846 0.558748 0.522498
O O17 0.000000 0.000000 0.500000
O O18 0.472731 0.876058 0.566803
#
# Coordination Sequence:
#
# PCOD9006743 Si02
#       8
#     2   2   2   2   2   2   2   2
#     4  10  23  39  65  91 128 172 208 251 320 384
#     4  10  23  39  63  95 133 166 211 260 318 377
#     4  10  21  38  68  95 126 167 216 260 314 383
#     4  11  24  41  63  93 124 165 212 263 316 370
#     4  11  24  40  64  97 129 162 211 265 314 371
#     4  11  22  41  67  91 121 169 216 259 317 380
#     4  10  22  41  65  86 129 167 208 254 318 382
#     4   9  20  41  63  87 126 171 205 254 315 381
#
# _framework density 20.463543000000001
#
# number of rings (size 3 to 8) (size 9 to 14) (size 15 to 20)
#    0.000    1.750    0.000    4.125   12.250    0.000 
#    2.250    3.750    0.000    0.000    0.000    0.000 
#    0.000    0.000    0.000    0.000    0.000    0.000 
#
# Total GULP energy -89172.456609 kJ/mol
# GULP energy per Si atom -5573.278538 kJ/mol
# Density = 2.041697 g / cm^3
# Si number density = 20.463543 Si / 1000 Ang^3
#
#
#
# Elastic Constant Matrix: (Units=GPa)
#
#
# Indices 1 2 3 4 5 6 
#
# 1 43.2160 34.4225 13.7067 -12.2987 -2.9866 5.2823
# 2 34.4225 141.5822 78.1441 -1.7885 -8.8789 7.6572
# 3 13.7067 78.1441 137.3704 6.1277 -16.4243 0.3617
# 4 -12.2987 -1.7885 6.1277 34.4538 -3.6586 -2.3320
# 5 -2.9866 -8.8789 -16.4243 -3.6586 38.3548 5.8052
# 6 5.2823 7.6572 0.3617 -2.3320 5.8052 32.5380
#
#
#
# Elastic Compliance Matrix: (Units=1/GPa)
#
#
# Indices 1 2 3 4 5 6 
#
# 1 0.033082 -0.008231 0.001215 0.011244 0.002737 -0.003130
# 2 -0.008231 0.012605 -0.006325 -0.001300 -0.000313 -0.001597
# 3 0.001215 -0.006325 0.011206 -0.001514 0.003211 0.000485
# 4 0.011244 -0.001300 -0.001514 0.033591 0.003077 0.000356
# 5 0.002737 -0.000313 0.003211 0.003077 0.028684 -0.005303
# 6 -0.003130 -0.001597 0.000485 0.000356 -0.005303 0.032584
#
#
# Mechanical properties :
#
#
# Convention : Reuss Voigt Hill
#
# Bulk Modulus (GPa) = 33.09830 63.85723 48.47776
# Shear Modulus (GPa) = 26.52471 34.12901 30.32686
#
# Velocity S-wave (km/s) = 3.60417 4.08830 3.85384
# Velocity P-wave (km/s) = 5.79047 7.31838 6.59879
#
# Compressibility (1/GPa) = 0.03021303
#
# Stress axis : x y z
#
# Youngs Moduli (GPa) = 30.22801 79.33225 89.23529
#
# Poissons Ratio (x) = 0.65297 -0.10844
# Poissons Ratio (y) = 0.24880 0.56437
# Poissons Ratio (z) = -0.03673 0.50174
#
# Static dielectric constant tensor:
#      x y z
#    x 1.743300 0.002040 -0.012080 
#    y 0.002040 1.749930 -0.010260 
#    z -0.012080 -0.010260 1.791800 
# 
# From -- ./inp_files/307060.got.cif
#   From: 2010.05.17/outbox.cif.g08.bks.cpg/sg2_154_cif.got.tgz:307060.got - 2010.06.03 11:33:40.
