data_PCOD9006601
_publ_section_title
;
Structure prediction by ZEFSAII (Michael W. Deem and Ramdas Pophale) SiO2 
 PCOD9006601
Probable space group: P -1
;
_chemical_formula_sum "Si O2"
_cell_formula_units_Z 16
_cell_length_a 7.992074
_cell_length_b 11.594521
_cell_length_c 22.854242
_cell_angle_alpha 151.987455
_cell_angle_beta 52.914116
_cell_angle_gamma 110.383503
_cell_volume 691.107761
_symmetry_space_group_name_H-M "P -1"
_symmetry_group_IT_number 2
_symmetry_cell_setting 'triclinic'
loop_
_space_group_symop_operation_xyz
x,y,z
-x,-y,-z
loop_
_atom_site_type_symbol
_atom_site_label
_atom_site_fract_x
_atom_site_fract_y
_atom_site_fract_z
Si Si1 0.657554 0.315838 0.550505
Si Si2 0.592855 0.666181 0.138744
Si Si3 0.029449 0.953890 0.861672
Si Si4 0.560376 0.557686 0.230957
Si Si5 0.712984 0.735192 0.870992
Si Si6 0.522007 0.063594 0.172535
Si Si7 0.354617 0.795666 0.629297
Si Si8 0.199861 0.855062 0.215506
O O1 0.503287 0.291860 0.625392
O O2 0.611072 0.636285 0.698651
O O3 0.592616 0.260099 0.474647
O O4 0.936358 0.087167 0.393806
O O5 0.601002 0.649649 0.199796
O O6 0.353131 0.706370 0.174823
O O7 0.602559 0.947709 0.248484
O O8 0.793207 0.384609 0.937153
O O9 0.261608 0.932960 0.835363
O O10 0.084461 0.902110 0.757721
O O11 0.958677 0.728354 0.799919
O O12 0.801590 0.259194 0.056790
O O13 0.325537 0.520851 0.253278
O O14 0.500000 0.000000 0.000000
O O15 0.649351 0.815707 0.987606
O O16 0.336155 0.002776 0.220459
O O17 0.500000 0.500000 0.500000
#
# Coordination Sequence:
#
# PCOD9006601 Si02
#       8
#     2   2   2   2   2   2   2   2
#     4  12  26  42  69 107 147 186 239 296 348 408
#     4  11  25  51  71 100 142 189 243 283 366 430
#     4  11  23  42  72 104 143 188 232 291 345 423
#     4  11  25  45  71 105 144 195 231 285 359 429
#     4  10  21  38  67 105 139 183 236 276 347 422
#     4  12  21  43  70 111 140 183 243 293 347 407
#     4  12  26  46  72 108 137 181 238 301 354 417
#     4  11  25  45  74 103 139 190 240 301 343 423
#
# _framework density 23.151235
#
# number of rings (size 3 to 8) (size 9 to 14) (size 15 to 20)
#    0.000    0.750    6.250    1.500    1.750    5.000 
#    0.000    0.000    0.000    0.000    0.000    0.000 
#    0.000    0.000    0.000    0.000    0.000    0.000 
#
# Total GULP energy -89368.831566 kJ/mol
# GULP energy per Si atom -5585.551973 kJ/mol
# Density = 2.309854 g / cm^3
# Si number density = 23.151235 Si / 1000 Ang^3
#
#
#
# Elastic Constant Matrix: (Units=GPa)
#
#
# Indices 1 2 3 4 5 6 
#
# 1 0.4328 -15.0523 46.6129 -13.8698 -28.6255 0.2031
# 2 -15.0523 62.2810 71.0222 -15.7256 -13.9360 -3.5685
# 3 46.6129 71.0222 130.5038 -17.7553 6.2265 -5.4313
# 4 -13.8698 -15.7256 -17.7553 43.2933 -9.5381 11.8224
# 5 -28.6255 -13.9360 6.2265 -9.5381 11.0745 4.4200
# 6 0.2031 -3.5685 -5.4313 11.8224 4.4200 31.8867
#
#
#
# Elastic Compliance Matrix: (Units=1/GPa)
#
#
# Indices 1 2 3 4 5 6 
#
# 1 0.002210 -0.010698 0.005227 -0.006152 -0.017752 0.004421
# 2 -0.010698 0.014373 -0.003733 -0.003493 -0.012077 0.004010
# 3 0.005227 -0.003733 0.008099 0.007142 0.011746 -0.003348
# 4 -0.006152 -0.003493 0.007142 0.025383 0.001014 -0.008687
# 5 -0.017752 -0.012077 0.011746 0.001014 0.024697 -0.003037
# 6 0.004421 0.004010 -0.003348 -0.008687 -0.003037 0.034853
#
#
# Mechanical properties :
#
#
# Convention : Reuss Voigt Hill
#
# Bulk Modulus (GPa) = 159.41091 44.26479 101.83785
# Shear Modulus (GPa) = 38.42753 23.29322 30.86037
#
# Velocity S-wave (km/s) = 4.07854 3.17540 3.65498
# Velocity P-wave (km/s) = 9.54909 5.71013 7.86736
#
# Compressibility (1/GPa) = 0.00627310
#
# Stress axis : x y z
#
# Youngs Moduli (GPa) = 452.45060 69.57565 123.46814
#
# Poissons Ratio (x) = 0.74434 -0.64532
# Poissons Ratio (y) = 4.84045 0.46090
# Poissons Ratio (z) = -2.36479 0.25972
#
# Static dielectric constant tensor:
#      x y z
#    x 1.922530 -0.026200 0.047240 
#    y -0.026200 1.932670 -0.011430 
#    z 0.047240 -0.011430 1.906570 
# 
# From -- ./inp_files/607646.got.cif
#   From: 2010.05.17/outbox.cif.g08.bks.cpg/sg2_304_cif.got.tgz:607646.got - 2010.06.03 11:33:40.
