data_PCOD9006190
_publ_section_title
;
Structure prediction by ZEFSAII (Michael W. Deem and Ramdas Pophale) SiO2 
 PCOD9006190
Probable space group: P -1
;
_chemical_formula_sum "Si O2"
_cell_formula_units_Z 14
_cell_length_a 11.272930
_cell_length_b 13.441079
_cell_length_c 11.961106
_cell_angle_alpha 50.255371
_cell_angle_beta 128.990695
_cell_angle_gamma 144.275922
_cell_volume 788.790269
_symmetry_space_group_name_H-M "P -1"
_symmetry_group_IT_number 2
_symmetry_cell_setting 'triclinic'
loop_
_space_group_symop_operation_xyz
x,y,z
-x,-y,-z
loop_
_atom_site_type_symbol
_atom_site_label
_atom_site_fract_x
_atom_site_fract_y
_atom_site_fract_z
Si Si1 0.394559 0.014804 0.029947
Si Si2 0.630227 0.764891 0.292391
Si Si3 0.004508 0.616000 0.080498
Si Si4 0.917471 0.470895 0.595853
Si Si5 0.189010 0.455054 0.211449
Si Si6 0.008497 0.796629 0.527993
Si Si7 0.452415 0.098828 0.641660
O O1 0.159857 0.825904 0.034486
O O2 0.511176 0.025983 0.199402
O O3 0.500000 0.000000 0.000000
O O4 0.392235 0.160624 0.885894
O O5 0.422728 0.555871 0.314986
O O6 0.846277 0.815236 0.391093
O O7 0.606854 0.843659 0.329920
O O8 0.949833 0.534546 0.229737
O O9 0.136544 0.570379 0.140672
O O10 0.841026 0.557713 0.929795
O O11 0.944407 0.634448 0.533934
O O12 0.675375 0.281932 0.598313
O O13 0.000000 0.500000 0.500000
O O14 0.030533 0.270541 0.317287
O O15 0.250554 0.976809 0.530324
#
# Coordination Sequence:
#
# PCOD9006190 Si02
#       7
#     2   2   2   2   2   2   2
#     4   9  15  29  46  76 111 138 172 208 258 336
#     4  11  19  31  52  88 121 140 163 222 287 333
#     4   9  17  30  51  79 102 142 182 222 263 314
#     4  10  22  40  58  77 105 145 196 230 254 311
#     4  10  17  28  52  81 113 138 174 216 278 330
#     4  11  22  34  55  85 116 142 172 223 284 325
#     4  10  20  35  55  83 110 144 180 219 272 326
#
# _framework density 17.748697
#
# number of rings (size 3 to 8) (size 9 to 14) (size 15 to 20)
#    0.000    2.000    5.714    2.571    4.000    0.571 
#    0.000    0.000    0.000    4.286    0.000    0.000 
#    0.000    0.000    0.000    0.000    0.000    0.000 
#
# Total GULP energy -77996.557897 kJ/mol
# GULP energy per Si atom -5571.182707 kJ/mol
# Density = 1.770830 g / cm^3
# Si number density = 17.748697 Si / 1000 Ang^3
#
#
#
# Elastic Constant Matrix: (Units=GPa)
#
#
# Indices 1 2 3 4 5 6 
#
# 1 52.1489 25.4725 52.2935 -0.9310 -8.0935 6.8115
# 2 25.4725 80.4294 35.7108 13.6076 4.5772 15.0794
# 3 52.2935 35.7108 91.6820 13.7511 -5.6716 7.8876
# 4 -0.9310 13.6076 13.7511 22.4653 4.7290 4.5503
# 5 -8.0935 4.5772 -5.6716 4.7290 25.0700 3.9281
# 6 6.8115 15.0794 7.8876 4.5503 3.9281 10.9297
#
#
#
# Elastic Compliance Matrix: (Units=1/GPa)
#
#
# Indices 1 2 3 4 5 6 
#
# 1 0.062471 -0.005636 -0.035323 0.029760 0.011043 -0.022025
# 2 -0.005636 0.019936 -0.001972 -0.006890 -0.001609 -0.019123
# 3 -0.035323 -0.001972 0.034451 -0.023238 -0.000383 0.009684
# 4 0.029760 -0.006890 -0.023238 0.068998 -0.004363 -0.019428
# 5 0.011043 -0.001609 -0.000383 -0.004363 0.047564 -0.019663
# 6 -0.022025 -0.019123 0.009684 -0.019428 -0.019663 0.139770
#
#
# Mechanical properties :
#
#
# Convention : Reuss Voigt Hill
#
# Bulk Modulus (GPa) = 32.25999 50.13487 41.19743
# Shear Modulus (GPa) = 10.65226 19.07857 14.86542
#
# Velocity S-wave (km/s) = 2.45250 3.28217 2.89718
# Velocity P-wave (km/s) = 5.12202 6.53237 5.86971
#
# Compressibility (1/GPa) = 0.03099815
#
# Stress axis : x y z
#
# Youngs Moduli (GPa) = 16.00732 50.15992 29.02654
#
# Poissons Ratio (x) = 0.28269 1.02530
# Poissons Ratio (y) = 0.09021 0.05723
# Poissons Ratio (z) = 0.56542 0.09890
#
# Static dielectric constant tensor:
#      x y z
#    x 1.572940 0.004520 0.002910 
#    y 0.004520 1.643070 -0.013480 
#    z 0.002910 -0.013480 1.654030 
# 
# From -- ./inp_files/153944.got.cif
#   From: 2010.05.17/outbox.cif.g08.bks.cpg/sg2_77_cif.got.tgz:153944.got - 2010.06.03 11:33:40.
