data_PCOD9006772
_publ_section_title
;
Structure prediction by ZEFSAII (Michael W. Deem and Ramdas Pophale) SiO2 
 PCOD9006772
Probable space group: P -1
;
_chemical_formula_sum "Si O2"
_cell_formula_units_Z 16
_cell_length_a 8.892829
_cell_length_b 6.562958
_cell_length_c 16.094707
_cell_angle_alpha 96.074607
_cell_angle_beta 131.413961
_cell_angle_gamma 95.862155
_cell_volume 681.584806
_symmetry_space_group_name_H-M "P -1"
_symmetry_group_IT_number 2
_symmetry_cell_setting 'triclinic'
loop_
_space_group_symop_operation_xyz
x,y,z
-x,-y,-z
loop_
_atom_site_type_symbol
_atom_site_label
_atom_site_fract_x
_atom_site_fract_y
_atom_site_fract_z
Si Si1 0.711452 0.165823 0.914831
Si Si2 0.652139 0.006722 0.444398
Si Si3 0.818350 0.502837 0.109208
Si Si4 0.736326 0.837169 0.291987
Si Si5 0.937683 0.431369 0.568911
Si Si6 0.531355 0.802090 0.948470
Si Si7 0.938611 0.854196 0.674467
Si Si8 0.826541 0.131268 0.771099
O O1 0.501736 0.243837 0.821157
O O2 0.833585 0.160074 0.874086
O O3 0.628369 0.925124 0.906580
O O4 0.824468 0.330560 0.032013
O O5 0.722820 0.258100 0.481899
O O6 0.746234 0.935300 0.391402
O O7 0.763514 0.927502 0.558948
O O8 0.410614 0.914202 0.345111
O O9 0.686655 0.366644 0.128809
O O10 0.040035 0.655537 0.211549
O O11 0.688334 0.671280 0.037654
O O12 0.881842 0.676414 0.339756
O O13 0.841916 0.015681 0.273569
O O14 0.917654 0.617771 0.629834
O O15 0.000000 0.500000 0.500000
O O16 0.500000 0.000000 0.000000
O O17 0.911542 0.933640 0.760427
#
# Coordination Sequence:
#
# PCOD9006772 Si02
#       8
#     2   2   2   2   2   2   2   2
#     4  10  23  45  68 100 141 176 223 282 340 407
#     4  10  21  43  62  95 137 177 222 283 331 406
#     4  10  22  45  71  99 132 182 228 277 338 406
#     4  10  21  38  68  99 129 176 229 280 327 397
#     4  11  19  39  68  96 128 179 234 278 330 391
#     4   9  21  42  71  96 131 169 230 285 326 393
#     4  11  22  39  65  93 138 172 229 282 331 397
#     4  11  25  42  65 102 145 177 216 281 354 400
#
# _framework density 23.474701
#
# number of rings (size 3 to 8) (size 9 to 14) (size 15 to 20)
#    0.000    1.750    2.500    1.500    5.250    2.000 
#    2.250    5.000    0.000    0.000    0.000    0.000 
#    0.000    0.000    0.000    0.000    0.000    0.000 
#
# Total GULP energy -89537.418774 kJ/mol
# GULP energy per Si atom -5596.088673 kJ/mol
# Density = 2.342127 g / cm^3
# Si number density = 23.474701 Si / 1000 Ang^3
#
#
#
# Elastic Constant Matrix: (Units=GPa)
#
#
# Indices 1 2 3 4 5 6 
#
# 1 137.0952 64.0174 40.1925 24.8424 -6.9165 -1.1397
# 2 64.0174 149.1481 49.2285 23.5991 -0.7929 10.0139
# 3 40.1925 49.2285 86.9332 27.8941 8.2572 2.0566
# 4 24.8424 23.5991 27.8941 43.2166 6.6732 -10.4295
# 5 -6.9165 -0.7929 8.2572 6.6732 37.8120 15.8186
# 6 -1.1397 10.0139 2.0566 -10.4295 15.8186 37.6936
#
#
#
# Elastic Compliance Matrix: (Units=1/GPa)
#
#
# Indices 1 2 3 4 5 6 
#
# 1 0.010126 -0.002966 -0.002125 -0.003656 0.003416 -0.001235
# 2 -0.002966 0.009915 -0.003431 -0.003044 0.002869 -0.004583
# 3 -0.002125 -0.003431 0.017248 -0.008025 -0.002235 -0.001376
# 4 -0.003656 -0.003044 -0.008025 0.038201 -0.012880 0.017111
# 5 0.003416 0.002869 -0.002235 -0.012880 0.038339 -0.020190
# 6 -0.001235 -0.004583 -0.001376 0.017111 -0.020190 0.040993
#
#
# Mechanical properties :
#
#
# Convention : Reuss Voigt Hill
#
# Bulk Modulus (GPa) = 49.39034 75.56147 62.47590
# Shear Modulus (GPa) = 27.99351 38.39365 33.19358
#
# Velocity S-wave (km/s) = 3.45700 4.04856 3.76442
# Velocity P-wave (km/s) = 6.08440 7.35614 6.75029
#
# Compressibility (1/GPa) = 0.02024687
#
# Stress axis : x y z
#
# Youngs Moduli (GPa) = 98.75140 100.86164 57.97786
#
# Poissons Ratio (x) = 0.29912 0.12318
# Poissons Ratio (y) = 0.29287 0.19891
# Poissons Ratio (z) = 0.20981 0.34603
#
# Static dielectric constant tensor:
#      x y z
#    x 1.894590 0.003950 -0.010270 
#    y 0.003950 1.901160 -0.023350 
#    z -0.010270 -0.023350 1.918610 
# 
# From -- ./inp_files/553672.got.cif
#   From: 2010.05.17/outbox.cif.g08.bks.cpg/sg2_277_cif.got.tgz:553672.got - 2010.06.03 11:33:40.
