data_PCOD9006023
_publ_section_title
;
Structure prediction by ZEFSAII (Michael W. Deem and Ramdas Pophale) SiO2 
 PCOD9006023
Probable space group: P -1
;
_chemical_formula_sum "Si O2"
_cell_formula_units_Z 14
_cell_length_a 5.418318
_cell_length_b 17.674036
_cell_length_c 9.108953
_cell_angle_alpha 120.707894
_cell_angle_beta 122.912827
_cell_angle_gamma 49.739623
_cell_volume 541.230046
_symmetry_space_group_name_H-M "P -1"
_symmetry_group_IT_number 2
_symmetry_cell_setting 'triclinic'
loop_
_space_group_symop_operation_xyz
x,y,z
-x,-y,-z
loop_
_atom_site_type_symbol
_atom_site_label
_atom_site_fract_x
_atom_site_fract_y
_atom_site_fract_z
Si Si1 0.194374 0.936839 0.857021
Si Si2 0.105285 0.254472 0.744032
Si Si3 0.662478 0.880655 0.587553
Si Si4 0.189626 0.087614 0.789915
Si Si5 0.854038 0.438416 0.641792
Si Si6 0.390472 0.347973 0.156167
Si Si7 0.832635 0.699584 0.652997
O O1 0.041559 0.864546 0.706826
O O2 0.064701 0.023527 0.776991
O O3 0.580563 0.895869 0.997268
O O4 0.000000 0.000000 0.000000
O O5 0.338191 0.172533 0.615138
O O6 0.972136 0.194405 0.742105
O O7 0.858661 0.355824 0.672700
O O8 0.314563 0.285785 0.949987
O O9 0.619069 0.816165 0.640318
O O10 0.412118 0.000383 0.653236
O O11 0.500000 0.500000 0.500000
O O12 0.867657 0.529320 0.817716
O O13 0.135510 0.374587 0.545041
O O14 0.776956 0.323432 0.230388
O O15 0.302888 0.322750 0.264529
#
# Coordination Sequence:
#
# PCOD9006023 Si02
#       7
#     2   2   2   2   2   2   2
#     4   9  20  37  63  86 130 174 225 267 329 391
#     4  11  23  40  63 101 133 172 224 278 341 394
#     4  10  22  40  60  94 136 179 217 272 328 406
#     4  10  21  38  64  92 131 175 224 274 326 397
#     4   9  21  46  71  96 131 175 224 284 340 403
#     4  11  23  44  70 101 135 171 228 285 334 395
#     4  10  23  41  73  99 133 179 228 268 338 404
#
# _framework density 25.867007999999998
#
# number of rings (size 3 to 8) (size 9 to 14) (size 15 to 20)
#    0.000    2.000    0.000    2.143    8.000    0.571 
#    2.571    9.286    0.000    0.000    0.000    0.000 
#    0.000    0.000    0.000    0.000    0.000    0.000 
#
# Total GULP energy -78312.385699 kJ/mol
# GULP energy per Si atom -5593.741836 kJ/mol
# Density = 2.580813 g / cm^3
# Si number density = 25.867008 Si / 1000 Ang^3
#
#
#
# Elastic Constant Matrix: (Units=GPa)
#
#
# Indices 1 2 3 4 5 6 
#
# 1 126.2495 45.9639 41.6879 -13.5897 -8.7301 25.0314
# 2 45.9639 192.3041 44.4499 -0.8462 -8.1902 43.4812
# 3 41.6879 44.4499 163.2323 29.0745 -7.0042 5.6043
# 4 -13.5897 -0.8462 29.0745 46.6217 5.8742 -9.5360
# 5 -8.7301 -8.1902 -7.0042 5.8742 33.2666 -13.7067
# 6 25.0314 43.4812 5.6043 -9.5360 -13.7067 36.4528
#
#
#
# Elastic Compliance Matrix: (Units=1/GPa)
#
#
# Indices 1 2 3 4 5 6 
#
# 1 0.010611 -0.000627 -0.003117 0.004049 -0.000948 -0.005356
# 2 -0.000627 0.007824 -0.001612 -0.000722 -0.002478 -0.009775
# 3 -0.003117 -0.001612 0.008487 -0.006117 0.002520 0.002106
# 4 0.004049 -0.000722 -0.006117 0.027881 -0.003224 0.005103
# 5 -0.000948 -0.002478 0.002520 -0.003224 0.037015 0.016294
# 6 -0.005356 -0.009775 0.002106 0.005103 0.016294 0.049908
#
#
# Mechanical properties :
#
#
# Convention : Reuss Voigt Hill
#
# Bulk Modulus (GPa) = 61.69765 82.88771 72.29268
# Shear Modulus (GPa) = 31.67735 46.58049 39.12892
#
# Velocity S-wave (km/s) = 3.50326 4.24815 3.89356
# Velocity P-wave (km/s) = 6.34566 7.49505 6.94418
#
# Compressibility (1/GPa) = 0.01620807
#
# Stress axis : x y z
#
# Youngs Moduli (GPa) = 94.24455 127.80934 117.83015
#
# Poissons Ratio (x) = 0.08016 0.36729
# Poissons Ratio (y) = 0.05911 0.19000
# Poissons Ratio (z) = 0.29377 0.20609
#
# Static dielectric constant tensor:
#      x y z
#    x 2.209470 -0.144090 -0.042830 
#    y -0.144090 2.124230 0.060580 
#    z -0.042830 0.060580 2.107810 
# 
# From -- ./inp_files/49442.got.cif
#   From: 2010.05.17/outbox.cif.g08.bks.cpg/sg2_25_cif.got.tgz:49442.got - 2010.06.03 11:33:40.
