data_PCOD9006460
_publ_section_title
;
Structure prediction by ZEFSAII (Michael W. Deem and Ramdas Pophale) SiO2 
 PCOD9006460
Probable space group: P -1
;
_chemical_formula_sum "Si O2"
_cell_formula_units_Z 14
_cell_length_a 5.032420
_cell_length_b 11.970108
_cell_length_c 19.593022
_cell_angle_alpha 148.368434
_cell_angle_beta 116.540208
_cell_angle_gamma 69.103775
_cell_volume 553.051785
_symmetry_space_group_name_H-M "P -1"
_symmetry_group_IT_number 2
_symmetry_cell_setting 'triclinic'
loop_
_space_group_symop_operation_xyz
x,y,z
-x,-y,-z
loop_
_atom_site_type_symbol
_atom_site_label
_atom_site_fract_x
_atom_site_fract_y
_atom_site_fract_z
Si Si1 0.676421 0.517106 0.937172
Si Si2 0.454519 0.065494 0.834021
Si Si3 0.850012 0.091779 0.718072
Si Si4 0.569513 0.514839 0.244997
Si Si5 0.950079 0.219177 0.645696
Si Si6 0.658807 0.309227 0.290881
Si Si7 0.306272 0.280597 0.418425
O O1 0.600441 0.261441 0.790652
O O2 0.655549 0.587334 0.891736
O O3 0.000000 0.500000 0.000000
O O4 0.451382 0.683173 0.030869
O O5 0.504902 0.919128 0.829379
O O6 0.521812 0.899672 0.695824
O O7 0.102267 0.099500 0.809270
O O8 0.995719 0.171037 0.705915
O O9 0.761519 0.843270 0.582442
O O10 0.387680 0.709259 0.354319
O O11 0.639634 0.368705 0.240892
O O12 0.856286 0.599272 0.278573
O O13 0.000000 0.000000 0.500000
O O14 0.539167 0.494930 0.423820
O O15 0.002478 0.311190 0.357324
#
# Coordination Sequence:
#
# PCOD9006460 Si02
#       7
#     2   2   2   2   2   2   2
#     4   9  21  45  64  98 133 173 228 280 337 402
#     4  10  21  38  66  90 124 179 219 276 327 397
#     4   9  21  38  60  95 126 162 223 270 340 392
#     4  11  25  43  67  99 137 180 220 285 336 402
#     4  11  24  41  67 101 137 176 220 279 348 405
#     4  10  23  40  61  95 134 168 230 271 339 397
#     4  10  21  39  64  94 127 176 219 282 331 401
#
# _framework density 25.314084000000001
#
# number of rings (size 3 to 8) (size 9 to 14) (size 15 to 20)
#    0.000    2.000    0.000    1.714    8.000    1.143 
#   15.429    0.714    0.000    0.000    0.000    0.000 
#    0.000    0.000    0.000    0.000    0.000    0.000 
#
# Total GULP energy -77996.316651 kJ/mol
# GULP energy per Si atom -5571.165475 kJ/mol
# Density = 2.525647 g / cm^3
# Si number density = 25.314084 Si / 1000 Ang^3
#
#
#
# Elastic Constant Matrix: (Units=GPa)
#
#
# Indices 1 2 3 4 5 6 
#
# 1 84.6335 42.7056 32.3896 8.6247 -15.0789 15.2133
# 2 42.7056 198.5415 51.3061 -4.7996 -6.0650 26.0995
# 3 32.3896 51.3061 94.3733 11.6057 -31.5594 -6.4762
# 4 8.6247 -4.7996 11.6057 51.2138 -6.3098 -5.9323
# 5 -15.0789 -6.0650 -31.5594 -6.3098 35.0169 4.5067
# 6 15.2133 26.0995 -6.4762 -5.9323 4.5067 30.1960
#
#
#
# Elastic Compliance Matrix: (Units=1/GPa)
#
#
# Indices 1 2 3 4 5 6 
#
# 1 0.016630 -0.001276 -0.003961 -0.002589 0.004094 -0.009245
# 2 -0.001276 0.007374 -0.005079 0.000985 -0.002874 -0.006198
# 3 -0.003961 -0.005079 0.020282 -0.001682 0.014327 0.008267
# 4 -0.002589 0.000985 -0.001682 0.021009 0.000797 0.004101
# 5 0.004094 -0.002874 0.014327 0.000797 0.043239 -0.002802
# 6 -0.009245 -0.006198 0.008267 0.004101 -0.002802 0.046129
#
#
# Mechanical properties :
#
#
# Convention : Reuss Voigt Hill
#
# Bulk Modulus (GPa) = 42.27384 70.03899 56.15641
# Shear Modulus (GPa) = 27.29545 40.02848 33.66196
#
# Velocity S-wave (km/s) = 3.28727 3.98084 3.65056
# Velocity P-wave (km/s) = 5.58069 6.98981 6.32462
#
# Compressibility (1/GPa) = 0.02365529
#
# Stress axis : x y z
#
# Youngs Moduli (GPa) = 60.13080 135.60499 49.30437
#
# Poissons Ratio (x) = 0.17299 0.19531
# Poissons Ratio (y) = 0.07671 0.25041
# Poissons Ratio (z) = 0.23819 0.68872
#
# Static dielectric constant tensor:
#      x y z
#    x 2.080970 0.057270 0.056400 
#    y 0.057270 2.002100 0.014500 
#    z 0.056400 0.014500 2.340610 
# 
# From -- ./inp_files/583395.got.cif
#   From: 2010.05.17/outbox.cif.g08.bks.cpg/sg2_292_cif.got.tgz:583395.got - 2010.06.03 11:33:40.
