data_PCOD9006506
_publ_section_title
;
Structure prediction by ZEFSAII (Michael W. Deem and Ramdas Pophale) SiO2 
 PCOD9006506
Probable space group: P -1
;
_chemical_formula_sum "Si O2"
_cell_formula_units_Z 16
_cell_length_a 6.355202
_cell_length_b 18.528639
_cell_length_c 25.387235
_cell_angle_alpha 161.121588
_cell_angle_beta 61.645272
_cell_angle_gamma 119.072593
_cell_volume 844.177944
_symmetry_space_group_name_H-M "P -1"
_symmetry_group_IT_number 2
_symmetry_cell_setting 'triclinic'
loop_
_space_group_symop_operation_xyz
x,y,z
-x,-y,-z
loop_
_atom_site_type_symbol
_atom_site_label
_atom_site_fract_x
_atom_site_fract_y
_atom_site_fract_z
Si Si1 0.610691 0.780624 0.485080
Si Si2 0.209661 0.790617 0.624682
Si Si3 0.253984 0.694314 0.840168
Si Si4 0.369643 0.963441 0.916127
Si Si5 0.092348 0.005168 0.552565
Si Si6 0.776198 0.825698 0.026891
Si Si7 0.527143 0.333054 0.699243
Si Si8 0.302178 0.373152 0.398605
O O1 0.379705 0.819508 0.573721
O O2 0.718980 0.564534 0.346024
O O3 0.531079 0.718583 0.391344
O O4 0.840131 0.974978 0.593115
O O5 0.252730 0.564265 0.494898
O O6 0.921853 0.737472 0.616214
O O7 0.259698 0.011207 0.807810
O O8 0.205297 0.805099 0.866370
O O9 0.039900 0.744118 0.938351
O O10 0.508927 0.816876 0.915939
O O11 0.588990 0.824204 0.780597
O O12 0.250144 0.026091 0.919854
O O13 0.248222 0.800051 0.403792
O O14 0.708688 0.776278 0.315918
O O15 0.000000 0.000000 0.500000
O O16 0.593202 0.596759 0.884702
O O17 0.500000 0.500000 0.500000
#
# Coordination Sequence:
#
# PCOD9006506 Si02
#       8
#     2   2   2   2   2   2   2   2
#     4  11  21  39  62  92 121 157 200 251 297 362
#     4  11  25  37  57  88 126 163 203 243 302 356
#     4  11  22  36  57  86 122 161 209 253 289 343
#     4  11  22  36  55  85 121 166 211 249 287 341
#     4   9  20  40  66  91 118 147 197 256 305 358
#     4  12  22  38  60  91 121 161 204 252 299 352
#     4  10  21  38  66  94 113 153 204 246 305 365
#     4  11  22  39  55  77 124 174 204 239 292 348
#
# _framework density 18.95335
#
# number of rings (size 3 to 8) (size 9 to 14) (size 15 to 20)
#    0.000    1.250    6.250    0.375    0.000    2.000 
#    0.000    0.625    0.000    6.750    0.000    0.000 
#    0.000    0.000    0.000    0.000    0.000    0.000 
#
# Total GULP energy -89240.825489 kJ/mol
# GULP energy per Si atom -5577.551593 kJ/mol
# Density = 1.891021 g / cm^3
# Si number density = 18.953350 Si / 1000 Ang^3
#
#
#
# Elastic Constant Matrix: (Units=GPa)
#
#
# Indices 1 2 3 4 5 6 
#
# 1 64.2554 34.1013 28.0576 1.3111 9.4640 19.2804
# 2 34.1013 107.0393 49.1106 -1.6698 7.2108 31.9644
# 3 28.0576 49.1106 77.4921 -3.7500 2.5315 13.5301
# 4 1.3111 -1.6698 -3.7500 20.3847 1.8083 -9.4799
# 5 9.4640 7.2108 2.5315 1.8083 26.0437 -1.1600
# 6 19.2804 31.9644 13.5301 -9.4799 -1.1600 36.8107
#
#
#
# Elastic Compliance Matrix: (Units=1/GPa)
#
#
# Indices 1 2 3 4 5 6 
#
# 1 0.023343 -0.000882 -0.006010 -0.007288 -0.007655 -0.011369
# 2 -0.000882 0.017866 -0.008810 -0.006023 -0.003952 -0.013489
# 3 -0.006010 -0.008810 0.019984 0.005408 0.002525 0.004926
# 4 -0.007288 -0.006023 0.005408 0.060513 0.000598 0.022662
# 5 -0.007655 -0.003952 0.002525 0.000598 0.042342 0.008001
# 6 -0.011369 -0.013489 0.004926 0.022662 0.008001 0.049112
#
#
# Mechanical properties :
#
#
# Convention : Reuss Voigt Hill
#
# Bulk Modulus (GPa) = 33.57167 52.36954 42.97060
# Shear Modulus (GPa) = 19.64676 25.81564 22.73120
#
# Velocity S-wave (km/s) = 3.22310 3.69462 3.46688
# Velocity P-wave (km/s) = 5.62160 6.77429 6.22468
#
# Compressibility (1/GPa) = 0.02978702
#
# Stress axis : x y z
#
# Youngs Moduli (GPa) = 42.83927 55.97145 50.04118
#
# Poissons Ratio (x) = 0.04937 0.30077
# Poissons Ratio (y) = 0.03779 0.44089
# Poissons Ratio (z) = 0.25748 0.49314
#
# Static dielectric constant tensor:
#      x y z
#    x 1.693660 0.026060 -0.058270 
#    y 0.026060 1.684500 0.032030 
#    z -0.058270 0.032030 1.454270 
# 
# From -- ./inp_files/323581.got.cif
#   From: 2010.05.17/outbox.cif.g08.bks.cpg/sg2_162_cif.got.tgz:323581.got - 2010.06.03 11:33:40.
