data_PCOD9006778
_publ_section_title
;
Structure prediction by ZEFSAII (Michael W. Deem and Ramdas Pophale) SiO2 
 PCOD9006778
Probable space group: P -1
;
_chemical_formula_sum "Si O2"
_cell_formula_units_Z 15
_cell_length_a 11.895008
_cell_length_b 18.611411
_cell_length_c 8.926776
_cell_angle_alpha 56.402113
_cell_angle_beta 45.785836
_cell_angle_gamma 27.070645
_cell_volume 630.618411
_symmetry_space_group_name_H-M "P -1"
_symmetry_group_IT_number 2
_symmetry_cell_setting 'triclinic'
loop_
_space_group_symop_operation_xyz
x,y,z
-x,-y,-z
loop_
_atom_site_type_symbol
_atom_site_label
_atom_site_fract_x
_atom_site_fract_y
_atom_site_fract_z
Si Si1 0.953485 0.674421 0.631659
Si Si2 0.755112 0.406967 0.257088
Si Si3 0.500000 0.000000 0.500000
Si Si4 0.522691 0.905039 0.284225
Si Si5 0.872780 0.117857 0.114015
Si Si6 0.635324 0.388247 0.863195
Si Si7 0.227179 0.386148 0.554316
Si Si8 0.136806 0.086288 0.160733
O O1 0.986909 0.678252 0.774788
O O2 0.168942 0.637946 0.382766
O O3 0.097149 0.514300 0.647711
O O4 0.649613 0.845403 0.638834
O O5 0.500000 0.500000 0.500000
O O6 0.610894 0.531490 0.116150
O O7 0.842099 0.276622 0.247788
O O8 0.421257 0.972240 0.467825
O O9 0.754039 0.720250 0.282454
O O10 0.270047 0.997101 0.297785
O O11 0.667735 0.927024 0.071937
O O12 0.552528 0.250491 0.335179
O O13 0.089363 0.031896 0.151776
O O14 0.845124 0.221633 0.935021
O O15 0.000000 0.000000 0.000000
O O16 0.500000 0.500000 0.000000
O O17 0.000000 0.500000 0.500000
#
# Coordination Sequence:
#
# PCOD9006778 Si02
#       8
#     2   2   1   2   2   2   2   2
#     4  11  23  42  69 101 136 185 234 286 358 428
#     4  10  21  38  69 100 127 175 239 288 343 421
#     4  12  22  40  70 100 134 192 236 274 354 442
#     4  11  27  44  76 102 147 192 236 305 357 435
#     4  12  28  44  73 108 144 190 246 301 358 431
#     4  11  21  41  71  95 131 179 233 284 349 422
#     4  12  27  45  68 111 149 185 235 308 368 413
#     4  11  24  49  72 104 142 192 247 289 365 431
#
# _framework density 23.786173999999999
#
# number of rings (size 3 to 8) (size 9 to 14) (size 15 to 20)
#    0.000    0.800    5.333    1.600    5.600    1.600 
#    0.000    0.667    0.000    0.000    0.000    0.000 
#    0.000    0.000    0.000    0.000    0.000    0.000 
#
# Total GULP energy -83547.426380 kJ/mol
# GULP energy per Si atom -5569.828425 kJ/mol
# Density = 2.373204 g / cm^3
# Si number density = 23.786174 Si / 1000 Ang^3
#
#
#
# Elastic Constant Matrix: (Units=GPa)
#
#
# Indices 1 2 3 4 5 6 
#
# 1 174.0067 51.7143 34.2570 -2.4240 52.9958 -7.3987
# 2 51.7143 99.9910 -3.1514 2.8957 25.6609 13.0176
# 3 34.2570 -3.1514 48.6798 13.7885 21.5853 -8.6665
# 4 -2.4240 2.8957 13.7885 33.9541 -4.6439 12.6713
# 5 52.9958 25.6609 21.5853 -4.6439 40.7648 -3.1844
# 6 -7.3987 13.0176 -8.6665 12.6713 -3.1844 57.0807
#
#
#
# Elastic Compliance Matrix: (Units=1/GPa)
#
#
# Indices 1 2 3 4 5 6 
#
# 1 0.010247 -0.003090 -0.003230 0.000684 -0.009521 0.000859
# 2 -0.003090 0.015342 0.010001 -0.006620 -0.011814 -0.001570
# 3 -0.003230 0.010001 0.044930 -0.026322 -0.028231 0.008390
# 4 0.000684 -0.006620 -0.026322 0.048164 0.021775 -0.011875
# 5 -0.009521 -0.011814 -0.028231 0.021775 0.061444 -0.004232
# 6 0.000859 -0.001570 0.008390 -0.011875 -0.004232 0.021662
#
#
# Mechanical properties :
#
#
# Convention : Reuss Voigt Hill
#
# Bulk Modulus (GPa) = 12.83979 54.25746 33.54862
# Shear Modulus (GPa) = 22.68747 42.35042 32.51894
#
# Velocity S-wave (km/s) = 3.09173 4.22413 3.70149
# Velocity P-wave (km/s) = 4.26084 6.83016 5.69236
#
# Compressibility (1/GPa) = 0.07788291
#
# Stress axis : x y z
#
# Youngs Moduli (GPa) = 97.59115 65.18109 22.25685
#
# Poissons Ratio (x) = 0.20138 0.07188
# Poissons Ratio (y) = 0.30151 -0.22260
# Poissons Ratio (z) = 0.31518 -0.65190
#
# Static dielectric constant tensor:
#      x y z
#    x 1.693370 0.125780 -0.040300 
#    y 0.125780 1.917820 0.028830 
#    z -0.040300 0.028830 1.982570 
# 
# From -- ./inp_files/279194.got.cif
#   From: 2010.05.17/outbox.cif.g08.bks.cpg/sg2_140_cif.got.tgz:279194.got - 2010.06.03 11:33:40.
