data_PCOD9006428
_publ_section_title
;
Structure prediction by ZEFSAII (Michael W. Deem and Ramdas Pophale) SiO2 
 PCOD9006428
Probable space group: P -1
;
_chemical_formula_sum "Si O2"
_cell_formula_units_Z 14
_cell_length_a 12.765538
_cell_length_b 13.741461
_cell_length_c 8.424689
_cell_angle_alpha 32.708249
_cell_angle_beta 64.287258
_cell_angle_gamma 51.696691
_cell_volume 613.123317
_symmetry_space_group_name_H-M "P -1"
_symmetry_group_IT_number 2
_symmetry_cell_setting 'triclinic'
loop_
_space_group_symop_operation_xyz
x,y,z
-x,-y,-z
loop_
_atom_site_type_symbol
_atom_site_label
_atom_site_fract_x
_atom_site_fract_y
_atom_site_fract_z
Si Si1 0.073843 0.317530 0.828304
Si Si2 0.562344 0.765401 0.851247
Si Si3 0.183900 0.645087 0.900740
Si Si4 0.469685 0.824232 0.325206
Si Si5 0.377471 0.726827 0.826131
Si Si6 0.776935 0.157819 0.703106
Si Si7 0.716697 0.557773 0.362843
O O1 0.179704 0.361761 0.788345
O O2 0.000000 0.500000 0.500000
O O3 0.955791 0.337275 0.991129
O O4 0.144282 0.094346 0.995887
O O5 0.428656 0.750181 0.930184
O O6 0.500000 0.000000 0.500000
O O7 0.691171 0.593524 0.894718
O O8 0.622321 0.687980 0.093723
O O9 0.236746 0.739959 0.871174
O O10 0.166776 0.781997 0.569808
O O11 0.395248 0.869182 0.482784
O O12 0.375258 0.781810 0.329644
O O13 0.621324 0.621715 0.492659
O O14 0.500000 0.000000 0.000000
O O15 0.500000 0.500000 0.000000
O O16 0.779211 0.311237 0.623051
#
# Coordination Sequence:
#
# PCOD9006428 Si02
#       7
#     2   2   2   2   2   2   2
#     4  12  27  45  68  95 137 186 226 274 337 407
#     4  10  21  38  66 106 131 164 224 278 334 395
#     4   9  22  44  66  93 137 179 222 266 337 409
#     4  11  20  39  71  98 136 173 214 281 339 392
#     4   9  20  37  64  93 128 171 212 265 331 390
#     4  10  23  44  68  98 132 180 228 276 337 396
#     4  11  25  43  68 104 137 174 227 280 343 396
#
# _framework density 22.833907
#
# number of rings (size 3 to 8) (size 9 to 14) (size 15 to 20)
#    0.000    1.714    1.429    2.571    6.000    4.000 
#    2.571    0.000    0.000    0.000    0.000    0.000 
#    0.000    0.000    0.000    0.000    0.000    0.000 
#
# Total GULP energy -78121.526230 kJ/mol
# GULP energy per Si atom -5580.109016 kJ/mol
# Density = 2.278194 g / cm^3
# Si number density = 22.833907 Si / 1000 Ang^3
#
#
#
# Elastic Constant Matrix: (Units=GPa)
#
#
# Indices 1 2 3 4 5 6 
#
# 1 140.0108 58.5795 42.8368 13.4889 -19.8181 -8.4797
# 2 58.5795 79.1490 32.5378 -7.1749 -14.8578 -5.8730
# 3 42.8368 32.5378 127.6097 -17.3133 -15.0000 3.7032
# 4 13.4889 -7.1749 -17.3133 45.1373 -0.5201 -13.7312
# 5 -19.8181 -14.8578 -15.0000 -0.5201 41.5594 9.4731
# 6 -8.4797 -5.8730 3.7032 -13.7312 9.4731 38.3881
#
#
#
# Elastic Compliance Matrix: (Units=1/GPa)
#
#
# Indices 1 2 3 4 5 6 
#
# 1 0.012205 -0.008226 -0.002566 -0.006240 0.002119 -0.001070
# 2 -0.008226 0.020536 -0.001468 0.006129 0.002259 0.003101
# 3 -0.002566 -0.001468 0.009894 0.004115 0.002052 -0.000780
# 4 -0.006240 0.006129 0.004115 0.029618 -0.001221 0.010058
# 5 0.002119 0.002259 0.002052 -0.001221 0.028148 -0.006767
# 6 -0.001070 0.003101 -0.000780 0.010058 -0.006767 0.031631
#
#
# Mechanical properties :
#
#
# Convention : Reuss Voigt Hill
#
# Bulk Modulus (GPa) = 55.20109 68.29751 61.74930
# Shear Modulus (GPa) = 30.75220 39.20466 34.97843
#
# Velocity S-wave (km/s) = 3.67383 4.14810 3.91815
# Velocity P-wave (km/s) = 6.49797 7.27447 6.89715
#
# Compressibility (1/GPa) = 0.01811559
#
# Stress axis : x y z
#
# Youngs Moduli (GPa) = 81.93068 48.69590 101.06850
#
# Poissons Ratio (x) = 0.40056 0.25938
# Poissons Ratio (y) = 0.67394 0.14835
# Poissons Ratio (z) = 0.21026 0.07148
#
# Static dielectric constant tensor:
#      x y z
#    x 1.975320 0.001070 -0.011920 
#    y 0.001070 1.966850 -0.008980 
#    z -0.011920 -0.008980 1.960490 
# 
# From -- ./inp_files/271313.got.cif
#   From: 2010.05.17/outbox.cif.g08.bks.cpg/sg2_136_cif.got.tgz:271313.got - 2010.06.03 11:33:40.
