data_PCOD9006197
_publ_section_title
;
Structure prediction by ZEFSAII (Michael W. Deem and Ramdas Pophale) SiO2 
 PCOD9006197
Probable space group: P -1
;
_chemical_formula_sum "Si O2"
_cell_formula_units_Z 14
_cell_length_a 9.384892
_cell_length_b 25.598816
_cell_length_c 7.080191
_cell_angle_alpha 41.735411
_cell_angle_beta 129.042097
_cell_angle_gamma 148.346551
_cell_volume 594.147470
_symmetry_space_group_name_H-M "P -1"
_symmetry_group_IT_number 2
_symmetry_cell_setting 'triclinic'
loop_
_space_group_symop_operation_xyz
x,y,z
-x,-y,-z
loop_
_atom_site_type_symbol
_atom_site_label
_atom_site_fract_x
_atom_site_fract_y
_atom_site_fract_z
Si Si1 0.675212 0.940465 0.824594
Si Si2 0.959842 0.759413 0.304209
Si Si3 0.015457 0.951607 0.827354
Si Si4 0.907750 0.358220 0.154915
Si Si5 0.648463 0.437502 0.751994
Si Si6 0.210736 0.414468 0.882560
Si Si7 0.073016 0.819077 0.662851
O O1 0.746540 0.887444 0.901942
O O2 0.370521 0.874670 0.738365
O O3 0.865187 0.070559 0.547746
O O4 0.756724 0.958376 0.064927
O O5 0.149913 0.742544 0.515591
O O6 0.667515 0.643961 0.294595
O O7 0.923793 0.767134 0.476738
O O8 0.054450 0.873789 0.003253
O O9 0.000000 0.000000 0.500000
O O10 0.182247 0.478039 0.157866
O O11 0.990745 0.371116 0.972784
O O12 0.689390 0.357052 0.998024
O O13 0.772007 0.518302 0.452438
O O14 0.500000 0.500000 0.000000
O O15 0.104029 0.294798 0.050224
#
# Coordination Sequence:
#
# PCOD9006197 Si02
#       7
#     2   2   2   2   2   2   2
#     4   9  20  42  63  90 127 159 205 256 310 364
#     4  10  21  38  65  86 125 165 194 261 313 356
#     4  10  22  41  63  94 120 158 209 257 312 369
#     4  10  23  40  59  89 123 166 206 251 303 369
#     4  11  22  41  61  89 127 163 208 252 308 368
#     4  11  21  38  64  94 127 165 207 248 307 368
#     4   9  19  39  65  90 123 167 202 253 310 361
#
# _framework density 23.563175000000001
#
# number of rings (size 3 to 8) (size 9 to 14) (size 15 to 20)
#    0.000    2.000    2.857    0.857    4.000    1.143 
#    5.143    6.429    0.000    0.000    0.000    0.000 
#    0.000    0.000    0.000    0.000    0.000    0.000 
#
# Total GULP energy -78196.862532 kJ/mol
# GULP energy per Si atom -5585.490181 kJ/mol
# Density = 2.350954 g / cm^3
# Si number density = 23.563175 Si / 1000 Ang^3
#
#
#
# Elastic Constant Matrix: (Units=GPa)
#
#
# Indices 1 2 3 4 5 6 
#
# 1 55.2725 6.4423 40.0912 3.1686 6.0649 -11.1368
# 2 6.4423 79.9482 25.9913 -8.5391 -5.7606 -11.0911
# 3 40.0912 25.9913 185.6511 -8.6212 15.2075 -11.0293
# 4 3.1686 -8.5391 -8.6212 35.7741 -9.1219 5.9508
# 5 6.0649 -5.7606 15.2075 -9.1219 42.1272 5.3073
# 6 -11.1368 -11.0911 -11.0293 5.9508 5.3073 22.5209
#
#
#
# Elastic Compliance Matrix: (Units=1/GPa)
#
#
# Indices 1 2 3 4 5 6 
#
# 1 0.024954 0.000210 -0.004534 -0.006734 -0.005047 0.013192
# 2 0.000210 0.014246 -0.001831 0.002783 0.002566 0.004883
# 3 -0.004534 -0.001831 0.006848 0.001073 -0.001884 0.000371
# 4 -0.006734 0.002783 0.001073 0.034145 0.009969 -0.012806
# 5 -0.005047 0.002566 -0.001884 0.009969 0.029122 -0.011652
# 6 0.013192 0.004883 0.000371 -0.012806 -0.011652 0.059643
#
#
# Mechanical properties :
#
#
# Convention : Reuss Voigt Hill
#
# Bulk Modulus (GPa) = 29.63886 51.76905 40.70395
# Shear Modulus (GPa) = 25.97240 36.64092 31.30666
#
# Velocity S-wave (km/s) = 3.32361 3.94764 3.64899
# Velocity P-wave (km/s) = 5.22822 6.54190 5.92160
#
# Compressibility (1/GPa) = 0.03373949
#
# Stress axis : x y z
#
# Youngs Moduli (GPa) = 40.07358 70.19588 146.02818
#
# Poissons Ratio (x) = -0.01476 0.66206
# Poissons Ratio (y) = -0.00843 0.26733
# Poissons Ratio (z) = 0.18169 0.12851
#
# Static dielectric constant tensor:
#      x y z
#    x 1.866540 -0.040860 0.036420 
#    y -0.040860 1.909370 -0.042960 
#    z 0.036420 -0.042960 1.961160 
# 
# From -- ./inp_files/253835.got.cif
#   From: 2010.05.17/outbox.cif.g08.bks.cpg/sg2_127_cif.got.tgz:253835.got - 2010.06.03 11:33:40.
