data_PCOD9006051
_publ_section_title
;
Structure prediction by ZEFSAII (Michael W. Deem and Ramdas Pophale) SiO2 
 PCOD9006051
Probable space group: P -1
;
_chemical_formula_sum "Si O2"
_cell_formula_units_Z 14
_cell_length_a 20.600443
_cell_length_b 8.563000
_cell_length_c 7.298207
_cell_angle_alpha 58.394778
_cell_angle_beta 40.717024
_cell_angle_gamma 49.282166
_cell_volume 635.375128
_symmetry_space_group_name_H-M "P -1"
_symmetry_group_IT_number 2
_symmetry_cell_setting 'triclinic'
loop_
_space_group_symop_operation_xyz
x,y,z
-x,-y,-z
loop_
_atom_site_type_symbol
_atom_site_label
_atom_site_fract_x
_atom_site_fract_y
_atom_site_fract_z
Si Si1 0.957014 0.066391 0.348132
Si Si2 0.522772 0.694826 0.126022
Si Si3 0.903578 0.487071 0.094924
Si Si4 0.680918 0.867392 0.771120
Si Si5 0.483277 0.715975 0.635319
Si Si6 0.913096 0.838043 0.285834
Si Si7 0.675694 0.817195 0.240045
O O1 0.879477 0.311648 0.349341
O O2 0.059125 0.035228 0.010215
O O3 0.000000 0.000000 0.500000
O O4 0.899307 0.945153 0.445599
O O5 0.512356 0.690447 0.372432
O O6 0.536439 0.478986 0.152800
O O7 0.408580 0.890404 0.186440
O O8 0.623721 0.753535 0.847336
O O9 0.792267 0.688173 0.169429
O O10 0.000000 0.500000 0.000000
O O11 0.973312 0.377400 0.828791
O O12 0.802511 0.825816 0.472781
O O13 0.696002 0.794904 0.992843
O O14 0.584119 0.732477 0.517282
O O15 0.379599 0.941662 0.741170
#
# Coordination Sequence:
#
# PCOD9006051 Si02
#       7
#     2   2   2   2   2   2   2
#     4   9  21  44  67  93 130 176 227 270 333 402
#     4   9  20  39  65  95 122 170 228 267 338 392
#     4  10  23  41  62  97 135 175 217 277 328 407
#     4  10  21  38  64  93 133 170 214 277 337 401
#     4   9  20  40  66  89 128 173 221 282 322 394
#     4   9  22  41  66  95 136 174 213 285 323 407
#     4  10  22  39  61  96 134 173 218 273 336 393
#
# _framework density 22.034227999999999
#
# number of rings (size 3 to 8) (size 9 to 14) (size 15 to 20)
#    0.857    1.714    0.000    0.000    6.000    1.143 
#    0.000    2.857    0.000    0.000    0.000    0.000 
#    0.000    0.000    0.000    0.000    0.000    0.000 
#
# Total GULP energy -78144.058656 kJ/mol
# GULP energy per Si atom -5581.718475 kJ/mol
# Density = 2.198408 g / cm^3
# Si number density = 22.034228 Si / 1000 Ang^3
#
#
#
# Elastic Constant Matrix: (Units=GPa)
#
#
# Indices 1 2 3 4 5 6 
#
# 1 131.8496 86.6420 43.0188 4.6092 -3.0054 -11.7696
# 2 86.6420 150.1275 43.2285 -3.8582 -31.8429 -9.2422
# 3 43.0188 43.2285 67.5703 0.1041 -20.9021 -8.5150
# 4 4.6092 -3.8582 0.1041 20.8286 -2.8306 -5.7486
# 5 -3.0054 -31.8429 -20.9021 -2.8306 35.9222 10.9304
# 6 -11.7696 -9.2422 -8.5150 -5.7486 10.9304 29.2515
#
#
#
# Elastic Compliance Matrix: (Units=1/GPa)
#
#
# Indices 1 2 3 4 5 6 
#
# 1 0.017978 -0.011038 -0.008426 -0.006482 -0.015457 0.005796
# 2 -0.011038 0.015924 0.001165 0.006503 0.015470 -0.003574
# 3 -0.008426 0.001165 0.023875 0.003732 0.014776 -0.000860
# 4 -0.006482 0.006503 0.003732 0.054013 0.009317 0.007666
# 5 -0.015457 0.015470 0.014776 0.009317 0.054303 -0.015491
# 6 0.005796 -0.003574 -0.000860 0.007666 -0.015491 0.042434
#
#
# Mechanical properties :
#
#
# Convention : Reuss Voigt Hill
#
# Bulk Modulus (GPa) = 47.21414 77.25845 62.23630
# Shear Modulus (GPa) = 19.82665 28.97763 24.40214
#
# Velocity S-wave (km/s) = 3.00294 3.63039 3.33147
# Velocity P-wave (km/s) = 5.78772 7.26031 6.56543
#
# Compressibility (1/GPa) = 0.02118010
#
# Stress axis : x y z
#
# Youngs Moduli (GPa) = 55.62203 62.79700 41.88501
#
# Poissons Ratio (x) = 0.69316 0.35291
# Poissons Ratio (y) = 0.61396 -0.04879
# Poissons Ratio (z) = 0.46865 -0.07315
#
# Static dielectric constant tensor:
#      x y z
#    x 1.825300 0.053450 0.019170 
#    y 0.053450 1.810550 -0.015540 
#    z 0.019170 -0.015540 1.874010 
# 
# From -- ./inp_files/351326.got.cif
#   From: 2010.05.17/outbox.cif.g08.bks.cpg/sg2_176_cif.got.tgz:351326.got - 2010.06.03 11:33:40.
