data_PCOD9006338
_publ_section_title
;
Structure prediction by ZEFSAII (Michael W. Deem and Ramdas Pophale) SiO2 
 PCOD9006338
Probable space group: P -1
;
_chemical_formula_sum "Si O2"
_cell_formula_units_Z 16
_cell_length_a 8.434522
_cell_length_b 9.120117
_cell_length_c 10.847426
_cell_angle_alpha 85.029739
_cell_angle_beta 119.345113
_cell_angle_gamma 104.659907
_cell_volume 702.984197
_symmetry_space_group_name_H-M "P -1"
_symmetry_group_IT_number 2
_symmetry_cell_setting 'triclinic'
loop_
_space_group_symop_operation_xyz
x,y,z
-x,-y,-z
loop_
_atom_site_type_symbol
_atom_site_label
_atom_site_fract_x
_atom_site_fract_y
_atom_site_fract_z
Si Si1 0.453347 0.831597 0.329975
Si Si2 0.988998 0.278084 0.227295
Si Si3 0.814053 0.054197 0.954974
Si Si4 0.218689 0.202039 0.878173
Si Si5 0.492688 0.558215 0.190838
Si Si6 0.442641 0.348579 0.403698
Si Si7 0.837715 0.017395 0.350061
Si Si8 0.897350 0.547110 0.075547
O O1 0.293552 0.904676 0.207427
O O2 0.437098 0.677570 0.255724
O O3 0.475407 0.778510 0.483395
O O4 0.643758 0.945982 0.347750
O O5 0.213701 0.289631 0.310416
O O6 0.961522 0.446988 0.210344
O O7 0.882672 0.188112 0.308592
O O8 0.878818 0.189836 0.071158
O O9 0.689460 0.900083 0.986507
O O10 0.000000 0.000000 0.000000
O O11 0.344358 0.339183 0.836414
O O12 0.136501 0.078047 0.754177
O O13 0.074965 0.280249 0.888046
O O14 0.517664 0.415948 0.293157
O O15 0.319273 0.500321 0.039305
O O16 0.500000 0.500000 0.500000
O O17 0.000000 0.000000 0.500000
O O18 0.000000 0.500000 0.000000
#
# Coordination Sequence:
#
# PCOD9006338 Si02
#       8
#     2   2   2   2   2   2   2   2
#     4  10  21  40  69  97 127 188 227 274 351 403
#     4  11  22  39  68  97 125 184 225 275 345 401
#     4  11  24  42  68  97 134 169 234 290 333 405
#     4  10  25  39  66 102 134 171 230 284 335 402
#     4  10  21  39  64  97 135 174 222 286 335 407
#     4  10  21  38  65  95 132 175 228 270 336 414
#     4  10  21  42  70  94 143 181 227 281 343 408
#     4  12  22  39  67  98 135 176 227 275 349 399
#
# _framework density 22.760113
#
# number of rings (size 3 to 8) (size 9 to 14) (size 15 to 20)
#    0.000    1.500    3.750    1.125    1.750    1.500 
#    0.000    1.250    8.250    0.000    0.000    0.000 
#    0.000    0.000    0.000    0.000    0.000    0.000 
#
# Total GULP energy -89238.863488 kJ/mol
# GULP energy per Si atom -5577.428968 kJ/mol
# Density = 2.270831 g / cm^3
# Si number density = 22.760113 Si / 1000 Ang^3
#
#
#
# Elastic Constant Matrix: (Units=GPa)
#
#
# Indices 1 2 3 4 5 6 
#
# 1 35.4173 41.0308 32.7402 -11.4697 6.1806 6.7041
# 2 41.0308 113.3522 49.1892 -46.4974 2.6160 25.3854
# 3 32.7402 49.1892 133.2511 -48.2654 23.2034 19.8596
# 4 -11.4697 -46.4974 -48.2654 46.5143 7.1165 -0.4813
# 5 6.1806 2.6160 23.2034 7.1165 24.9482 -2.5008
# 6 6.7041 25.3854 19.8596 -0.4813 -2.5008 30.5333
#
#
#
# Elastic Compliance Matrix: (Units=1/GPa)
#
#
# Indices 1 2 3 4 5 6 
#
# 1 -0.012149 0.051458 0.060310 0.125894 -0.102990 -0.085793
# 2 0.051458 -0.054078 -0.070727 -0.129837 0.104376 0.086167
# 3 0.060310 -0.070727 -0.054516 -0.124884 0.087443 0.086212
# 4 0.125894 -0.129837 -0.124884 -0.232943 0.182344 0.172795
# 5 -0.102990 0.104376 0.087443 0.182344 -0.091283 -0.125643
# 6 -0.085793 0.086167 0.086212 0.172795 -0.125643 -0.083693
#
#
# Mechanical properties :
#
#
# Convention : Reuss Voigt Hill
#
# Bulk Modulus (GPa) = -25.86707 58.66012 16.39652
# Shear Modulus (GPa) = -8.01758 31.00318 11.49280
#
# Velocity S-wave (km/s) = -1.87891 3.69476 2.24955
# Velocity P-wave (km/s) = 4.01208 6.63558 3.73725
#
# Compressibility (1/GPa) = -0.03865920
#
# Stress axis : x y z
#
# Youngs Moduli (GPa) = -82.31438 -18.49180 -18.34335
#
# Poissons Ratio (x) = 0.95155 1.10629
# Poissons Ratio (y) = 4.23575 -1.29737
# Poissons Ratio (z) = 4.96441 -1.30787
#
# Static dielectric constant tensor:
#      x y z
#    x 1.773030 -0.131220 -0.111460 
#    y -0.131220 1.703720 -0.100050 
#    z -0.111460 -0.100050 1.856950 
# 
# From -- ./inp_files/382130.got.cif
#   From: 2010.05.17/outbox.cif.g08.bks.cpg/sg2_192_cif.got.tgz:382130.got - 2010.06.03 11:33:40.
