data_PCOD9006497
_publ_section_title
;
Structure prediction by ZEFSAII (Michael W. Deem and Ramdas Pophale) SiO2 
 PCOD9006497
Probable space group: P -1
;
_chemical_formula_sum "Si O2"
_cell_formula_units_Z 14
_cell_length_a 7.962995
_cell_length_b 17.218865
_cell_length_c 15.348665
_cell_angle_alpha 28.977076
_cell_angle_beta 147.110773
_cell_angle_gamma 131.839215
_cell_volume 535.066259
_symmetry_space_group_name_H-M "P -1"
_symmetry_group_IT_number 2
_symmetry_cell_setting 'triclinic'
loop_
_space_group_symop_operation_xyz
x,y,z
-x,-y,-z
loop_
_atom_site_type_symbol
_atom_site_label
_atom_site_fract_x
_atom_site_fract_y
_atom_site_fract_z
Si Si1 0.600716 0.943384 0.979746
Si Si2 0.221957 0.241937 0.424148
Si Si3 0.744607 0.747969 0.066472
Si Si4 0.631711 0.651595 0.374188
Si Si5 0.675493 0.070620 0.634766
Si Si6 0.254931 0.679605 0.722535
Si Si7 0.375800 0.530101 0.625025
O O1 0.543499 0.866784 0.935956
O O2 0.458650 0.846587 0.088459
O O3 0.978950 0.917590 0.187075
O O4 0.430504 0.131625 0.700078
O O5 0.378007 0.163101 0.477826
O O6 0.293533 0.421843 0.279317
O O7 0.870838 0.260982 0.292575
O O8 0.663493 0.569746 0.207289
O O9 0.104759 0.692485 0.318474
O O10 0.719078 0.871149 0.853029
O O11 0.500000 0.500000 0.500000
O O12 0.674249 0.593972 0.349393
O O13 0.950440 0.649155 0.566896
O O14 0.643242 0.174457 0.429679
O O15 0.500000 0.500000 0.000000
#
# Coordination Sequence:
#
# PCOD9006497 Si02
#       7
#     2   2   2   2   2   2   2
#     4   9  17  30  54  93 120 142 191 246 294 354
#     4  11  19  36  63  87 118 153 191 244 301 342
#     4   9  16  28  51  88 127 139 180 243 301 344
#     4  10  20  34  55  89 120 147 192 247 294 343
#     4  10  19  36  59  86 120 152 197 239 291 352
#     4  11  26  41  57  85 120 161 204 238 279 352
#     4  10  17  28  56  95 118 148 177 243 310 339
#
# _framework density 26.164981999999998
#
# number of rings (size 3 to 8) (size 9 to 14) (size 15 to 20)
#    0.000    2.000    4.286    0.857    2.000    4.000 
#    0.000    0.000    0.000    4.286    0.000    0.000 
#    0.000    0.000    0.000    0.000    0.000    0.000 
#
# Total GULP energy -77975.894776 kJ/mol
# GULP energy per Si atom -5569.706770 kJ/mol
# Density = 2.610543 g / cm^3
# Si number density = 26.164982 Si / 1000 Ang^3
#
#
#
# Elastic Constant Matrix: (Units=GPa)
#
#
# Indices 1 2 3 4 5 6 
#
# 1 128.4908 35.0929 60.7252 -11.1997 -6.4399 36.9525
# 2 35.0929 68.7254 46.0340 -25.1111 -32.1135 26.8554
# 3 60.7252 46.0340 143.1694 -25.8249 -29.5669 35.4862
# 4 -11.1997 -25.1111 -25.8249 39.3309 9.8052 -21.5841
# 5 -6.4399 -32.1135 -29.5669 9.8052 42.2860 -17.4084
# 6 36.9525 26.8554 35.4862 -21.5841 -17.4084 46.3841
#
#
#
# Elastic Compliance Matrix: (Units=1/GPa)
#
#
# Indices 1 2 3 4 5 6 
#
# 1 0.013272 -0.006407 -0.003957 -0.006257 -0.008206 -0.009829
# 2 -0.006407 0.032820 -0.001477 0.013801 0.020229 0.001247
# 3 -0.003957 -0.001477 0.010987 0.003391 0.004743 -0.001040
# 4 -0.006257 0.013801 0.003391 0.041904 0.009349 0.017408
# 5 -0.008206 0.020229 0.004743 0.009349 0.043853 0.012005
# 6 -0.009829 0.001247 -0.001040 0.017408 0.012005 0.042069
#
#
# Mechanical properties :
#
#
# Convention : Reuss Voigt Hill
#
# Bulk Modulus (GPa) = 29.94274 69.34329 49.64301
# Shear Modulus (GPa) = 22.75636 38.83577 30.79606
#
# Velocity S-wave (km/s) = 2.95231 3.85680 3.43446
# Velocity P-wave (km/s) = 4.80522 6.81124 5.89420
#
# Compressibility (1/GPa) = 0.03339708
#
# Stress axis : x y z
#
# Youngs Moduli (GPa) = 75.34451 30.46969 91.01725
#
# Poissons Ratio (x) = 0.19523 0.36012
# Poissons Ratio (y) = 0.48275 0.13443
# Poissons Ratio (z) = 0.29811 0.04500
#
# Static dielectric constant tensor:
#      x y z
#    x 2.270200 0.054410 0.021520 
#    y 0.054410 2.063270 -0.068170 
#    z 0.021520 -0.068170 2.155340 
# 
# From -- ./inp_files/197551.got.cif
#   From: 2010.05.17/outbox.cif.g08.bks.cpg/sg2_99_cif.got.tgz:197551.got - 2010.06.03 11:33:40.
