data_PCOD9006955
_publ_section_title
;
Structure prediction by ZEFSAII (Michael W. Deem and Ramdas Pophale) SiO2 
 PCOD9006955
Probable space group: P -1
;
_chemical_formula_sum "Si O2"
_cell_formula_units_Z 16
_cell_length_a 21.285044
_cell_length_b 12.261832
_cell_length_c 5.152297
_cell_angle_alpha 75.896992
_cell_angle_beta 114.270420
_cell_angle_gamma 146.529401
_cell_volume 662.780899
_symmetry_space_group_name_H-M "P -1"
_symmetry_group_IT_number 2
_symmetry_cell_setting 'triclinic'
loop_
_space_group_symop_operation_xyz
x,y,z
-x,-y,-z
loop_
_atom_site_type_symbol
_atom_site_label
_atom_site_fract_x
_atom_site_fract_y
_atom_site_fract_z
Si Si1 0.662262 0.906413 0.112395
Si Si2 0.107965 0.356862 0.606053
Si Si3 0.329189 0.897264 0.375554
Si Si4 0.864051 0.351114 0.432954
Si Si5 0.676136 0.357343 0.562533
Si Si6 0.853055 0.805058 0.905421
Si Si7 0.820834 0.902784 0.302083
Si Si8 0.467937 0.764224 0.129500
O O1 0.540814 0.749686 0.176782
O O2 0.771612 0.136414 0.271434
O O3 0.721421 0.866183 0.192451
O O4 0.628205 0.930569 0.784276
O O5 0.140177 0.520605 0.691880
O O6 0.181689 0.444607 0.408223
O O7 0.960895 0.140960 0.442652
O O8 0.160411 0.331671 0.893761
O O9 0.186034 0.720074 0.314151
O O10 0.345237 0.802765 0.308234
O O11 0.416282 0.002149 0.715360
O O12 0.000000 0.500000 0.500000
O O13 0.619743 0.354813 0.699219
O O14 0.601483 0.284627 0.213424
O O15 0.801555 0.779851 0.558027
O O16 0.816572 0.845696 0.040842
O O17 0.000000 0.000000 0.000000
#
# Coordination Sequence:
#
# PCOD9006955 Si02
#       8
#     2   2   2   2   2   2   2   2
#     4  11  24  40  66  95 134 178 208 259 322 394
#     4  10  22  43  64  99 131 166 214 270 325 380
#     4  10  23  37  59  92 127 179 214 254 314 386
#     4  10  21  39  57  99 141 171 199 255 333 392
#     4  11  24  37  63  92 129 167 213 272 311 374
#     4  10  23  43  68  95 124 173 219 267 313 376
#     4  11  24  43  70  95 130 168 218 265 319 389
#     4  11  23  40  61  90 129 172 222 253 311 382
#
# _framework density 24.140709000000001
#
# number of rings (size 3 to 8) (size 9 to 14) (size 15 to 20)
#    0.000    1.500    2.500    2.250    8.750    3.500 
#    6.750    0.000    0.000    4.500    0.000    0.000 
#    0.000    0.000    0.000    0.000    0.000    0.000 
#
# Total GULP energy -89341.092805 kJ/mol
# GULP energy per Si atom -5583.818300 kJ/mol
# Density = 2.408576 g / cm^3
# Si number density = 24.140709 Si / 1000 Ang^3
#
#
#
# Elastic Constant Matrix: (Units=GPa)
#
#
# Indices 1 2 3 4 5 6 
#
# 1 211.6312 36.0435 51.7175 -18.6578 4.1543 18.8684
# 2 36.0435 35.1748 7.2370 -20.6034 3.2599 10.8455
# 3 51.7175 7.2370 90.0428 -14.4048 -11.8572 11.1275
# 4 -18.6578 -20.6034 -14.4048 36.5392 1.3137 2.8594
# 5 4.1543 3.2599 -11.8572 1.3137 33.9457 -7.4413
# 6 18.8684 10.8455 11.1275 2.8594 -7.4413 46.7748
#
#
#
# Elastic Compliance Matrix: (Units=1/GPa)
#
#
# Indices 1 2 3 4 5 6 
#
# 1 0.006725 -0.007020 -0.003762 -0.001931 -0.001455 -0.000304
# 2 -0.007020 0.059854 0.005561 0.033860 -0.007690 -0.015662
# 3 -0.003762 0.005561 0.014900 0.007181 0.004175 -0.003092
# 4 -0.001931 0.033860 0.007181 0.049480 -0.005191 -0.012631
# 5 -0.001455 -0.007690 0.004175 -0.005191 0.033577 0.007036
# 6 -0.000304 -0.015662 -0.003092 -0.012631 0.007036 0.027760
#
#
# Mechanical properties :
#
#
# Convention : Reuss Voigt Hill
#
# Bulk Modulus (GPa) = 14.07696 58.53829 36.30763
# Shear Modulus (GPa) = 22.08315 39.57534 30.82924
#
# Velocity S-wave (km/s) = 3.02779 4.05329 3.57748
# Velocity P-wave (km/s) = 4.25056 6.79758 5.66896
#
# Compressibility (1/GPa) = 0.07103805
#
# Stress axis : x y z
#
# Youngs Moduli (GPa) = 148.68828 16.70736 67.11383
#
# Poissons Ratio (x) = 0.11729 0.25246
# Poissons Ratio (y) = 1.04386 -0.37325
# Poissons Ratio (z) = 0.55931 -0.09292
#
# Static dielectric constant tensor:
#      x y z
#    x 1.949560 -0.029470 -0.074230 
#    y -0.029470 2.084380 0.054740 
#    z -0.074230 0.054740 2.051270 
# 
# From -- ./inp_files/118619.got.cif
#   From: 2010.05.17/outbox.cif.g08.bks.cpg/sg2_60_cif.got.tgz:118619.got - 2010.06.03 11:33:40.
