data_PCOD9006622
_publ_section_title
;
Structure prediction by ZEFSAII (Michael W. Deem and Ramdas Pophale) SiO2 
 PCOD9006622
Probable space group: P -1
;
_chemical_formula_sum "Si O2"
_cell_formula_units_Z 16
_cell_length_a 6.837056
_cell_length_b 11.806214
_cell_length_c 11.453569
_cell_angle_alpha 92.651924
_cell_angle_beta 132.852794
_cell_angle_gamma 80.379154
_cell_volume 665.331358
_symmetry_space_group_name_H-M "P -1"
_symmetry_group_IT_number 2
_symmetry_cell_setting 'triclinic'
loop_
_space_group_symop_operation_xyz
x,y,z
-x,-y,-z
loop_
_atom_site_type_symbol
_atom_site_label
_atom_site_fract_x
_atom_site_fract_y
_atom_site_fract_z
Si Si1 0.527674 0.414813 0.897247
Si Si2 0.866454 0.040418 0.570588
Si Si3 0.077775 0.592206 0.403394
Si Si4 0.782255 0.659269 0.494832
Si Si5 0.720606 0.839523 0.651655
Si Si6 0.276700 0.854130 0.978079
Si Si7 0.779795 0.900998 0.054876
Si Si8 0.794925 0.319494 0.794781
O O1 0.221713 0.438521 0.728285
O O2 0.736031 0.419338 0.874509
O O3 0.500000 0.500000 0.000000
O O4 0.599889 0.277716 0.946395
O O5 0.595550 0.137103 0.444129
O O6 0.063351 0.076308 0.755669
O O7 0.755371 0.929298 0.567756
O O8 0.000000 0.000000 0.500000
O O9 0.021395 0.669656 0.501043
O O10 0.259524 0.470934 0.503423
O O11 0.139863 0.641770 0.307124
O O12 0.822823 0.712264 0.637906
O O13 0.491135 0.725045 0.334554
O O14 0.958099 0.858408 0.833729
O O15 0.272522 0.981719 0.037369
O O16 0.484578 0.870829 0.957870
O O17 0.974213 0.787307 0.081604
#
# Coordination Sequence:
#
# PCOD9006622 Si02
#       8
#     2   2   2   2   2   2   2   2
#     4  11  24  42  64  92 132 174 216 266 326 389
#     4  10  22  39  62  94 126 165 211 266 321 373
#     4  10  22  40  61  96 125 165 216 268 324 379
#     4  10  21  38  67  92 126 163 213 272 322 387
#     4  10  21  39  61  92 126 164 210 260 323 379
#     4  10  22  43  63  95 135 170 216 262 325 389
#     4  10  21  43  66  92 134 170 218 266 321 394
#     4  11  22  40  67  95 122 175 218 264 328 383
#
# _framework density 24.048168
#
# number of rings (size 3 to 8) (size 9 to 14) (size 15 to 20)
#    0.000    1.750    2.500    1.125    1.750    1.000 
#    6.750    2.500    0.000    0.000    0.000    0.000 
#    0.000    0.000    0.000    0.000    0.000    0.000 
#
# Total GULP energy -89081.075433 kJ/mol
# GULP energy per Si atom -5567.567215 kJ/mol
# Density = 2.399343 g / cm^3
# Si number density = 24.048168 Si / 1000 Ang^3
#
#
#
# Elastic Constant Matrix: (Units=GPa)
#
#
# Indices 1 2 3 4 5 6 
#
# 1 139.8430 57.4181 32.9958 1.4325 -20.2186 -28.5235
# 2 57.4181 84.8848 30.4653 -14.0966 -20.4811 -19.6046
# 3 32.9958 30.4653 52.4797 -6.5658 2.9686 -3.0550
# 4 1.4325 -14.0966 -6.5658 34.2269 -6.2800 -3.7886
# 5 -20.2186 -20.4811 2.9686 -6.2800 38.4334 -4.0284
# 6 -28.5235 -19.6046 -3.0550 -3.7886 -4.0284 41.5762
#
#
#
# Elastic Compliance Matrix: (Units=1/GPa)
#
#
# Indices 1 2 3 4 5 6 
#
# 1 0.012066 -0.003556 -0.005608 -0.001333 0.005358 0.006587
# 2 -0.003556 0.028496 -0.012788 0.014183 0.017992 0.013093
# 3 -0.005608 -0.012788 0.029880 -0.002800 -0.013499 -0.009245
# 4 -0.001333 0.014183 -0.002800 0.038385 0.014442 0.010464
# 5 0.005358 0.017992 -0.013499 0.014442 0.043579 0.016707
# 6 0.006587 0.013093 -0.009245 0.010464 0.016707 0.036638
#
#
# Mechanical properties :
#
#
# Convention : Reuss Voigt Hill
#
# Bulk Modulus (GPa) = 37.68286 57.66289 47.67288
# Shear Modulus (GPa) = 20.67869 33.26916 26.97393
#
# Velocity S-wave (km/s) = 2.93556 3.72350 3.35276
# Velocity P-wave (km/s) = 5.21477 6.52043 5.90381
#
# Compressibility (1/GPa) = 0.02653726
#
# Stress axis : x y z
#
# Youngs Moduli (GPa) = 82.87598 35.09241 33.46750
#
# Poissons Ratio (x) = 0.12480 0.18770
# Poissons Ratio (y) = 0.29474 0.42797
# Poissons Ratio (z) = 0.46480 0.44875
#
# Static dielectric constant tensor:
#      x y z
#    x 2.013400 -0.065580 -0.103670 
#    y -0.065580 1.997650 0.020900 
#    z -0.103670 0.020900 2.028250 
# 
# From -- ./inp_files/364637.got.cif
#   From: 2010.05.17/outbox.cif.g08.bks.cpg/sg2_183_cif.got.tgz:364637.got - 2010.06.03 11:33:40.
