data_PCOD9006844
_publ_section_title
;
Structure prediction by ZEFSAII (Michael W. Deem and Ramdas Pophale) SiO2 
 PCOD9006844
Probable space group: P -1
;
_chemical_formula_sum "Si O2"
_cell_formula_units_Z 12
_cell_length_a 15.387332
_cell_length_b 7.106831
_cell_length_c 4.878484
_cell_angle_alpha 99.489167
_cell_angle_beta 78.102238
_cell_angle_gamma 58.897701
_cell_volume 422.890767
_symmetry_space_group_name_H-M "P -1"
_symmetry_group_IT_number 2
_symmetry_cell_setting 'triclinic'
loop_
_space_group_symop_operation_xyz
x,y,z
-x,-y,-z
loop_
_atom_site_type_symbol
_atom_site_label
_atom_site_fract_x
_atom_site_fract_y
_atom_site_fract_z
Si Si1 0.892160 0.413522 0.584487
Si Si2 0.223480 0.106037 0.491693
Si Si3 0.290814 0.534992 0.986476
Si Si4 0.575076 0.540566 0.644090
Si Si5 0.901312 0.808561 0.903958
Si Si6 0.407083 0.012160 0.734888
O O1 0.817448 0.624611 0.466695
O O2 0.830321 0.335289 0.790081
O O3 0.926518 0.549643 0.791658
O O4 0.995130 0.218112 0.298583
O O5 0.204287 0.042013 0.188725
O O6 0.333379 0.983769 0.562245
O O7 0.138741 0.104642 0.746667
O O8 0.363320 0.578434 0.146651
O O9 0.328807 0.520406 0.647325
O O10 0.331298 0.268075 0.964890
O O11 0.500000 0.500000 0.500000
O O12 0.480550 0.807909 0.850205
O O13 0.500000 0.000000 0.500000
#
# Coordination Sequence:
#
# PCOD9006844 Si02
#       6
#     2   2   2   2   2   2
#     4   9  18  29  49  78 112 136 166 216 274 308
#     4  10  17  29  43  76 109 138 165 210 267 313
#     4  11  21  36  59  81 107 138 184 224 263 317
#     4  11  25  40  54  78 110 146 180 221 271 321
#     4   9  19  26  47  74 122 131 162 213 281 309
#     4  10  20  34  56  81 106 139 181 227 262 313
#
# _framework density 28.376121000000001
#
# number of rings (size 3 to 8) (size 9 to 14) (size 15 to 20)
#    1.000    1.000    1.667    3.500    0.000    4.000 
#    0.000    0.000    0.000    0.000    0.000    7.000 
#    0.000    0.000    0.000    0.000    0.000    0.000 
#
# Total GULP energy -67091.115590 kJ/mol
# GULP energy per Si atom -5590.926299 kJ/mol
# Density = 2.831154 g / cm^3
# Si number density = 28.376121 Si / 1000 Ang^3
#
#
#
# Elastic Constant Matrix: (Units=GPa)
#
#
# Indices 1 2 3 4 5 6 
#
# 1 99.8905 15.0521 31.8193 0.6576 -22.7695 -6.1873
# 2 15.0521 93.3969 10.4930 -3.0338 -2.0926 -27.6249
# 3 31.8193 10.4930 165.1062 -18.6804 -24.4632 -4.4666
# 4 0.6576 -3.0338 -18.6804 21.9224 -3.6701 11.3317
# 5 -22.7695 -2.0926 -24.4632 -3.6701 61.7214 1.2013
# 6 -6.1873 -27.6249 -4.4666 11.3317 1.2013 40.4903
#
#
#
# Elastic Compliance Matrix: (Units=1/GPa)
#
#
# Indices 1 2 3 4 5 6 
#
# 1 0.011662 -0.001311 -0.001882 -0.002189 0.003358 0.001193
# 2 -0.001311 0.013967 -0.000981 -0.004428 -0.000866 0.010485
# 3 -0.001882 -0.000981 0.007788 0.008346 0.002905 -0.002519
# 4 -0.002189 -0.004428 0.008346 0.063875 0.006547 -0.020506
# 5 0.003358 -0.000866 0.002905 0.006547 0.018994 -0.002153
# 6 0.001193 0.010485 -0.002519 -0.020506 -0.002153 0.037558
#
#
# Mechanical properties :
#
#
# Convention : Reuss Voigt Hill
#
# Bulk Modulus (GPa) = 39.88954 52.56914 46.22934
# Shear Modulus (GPa) = 29.31732 44.89544 37.10638
#
# Velocity S-wave (km/s) = 3.21778 3.98195 3.62008
# Velocity P-wave (km/s) = 5.28142 6.30137 5.81381
#
# Compressibility (1/GPa) = 0.02506923
#
# Stress axis : x y z
#
# Youngs Moduli (GPa) = 85.74980 71.59954 128.39962
#
# Poissons Ratio (x) = 0.09387 0.24165
# Poissons Ratio (y) = 0.11242 0.12592
# Poissons Ratio (z) = 0.16138 0.07022
#
# Static dielectric constant tensor:
#      x y z
#    x 2.263220 0.081890 0.010490 
#    y 0.081890 2.436280 0.104600 
#    z 0.010490 0.104600 2.125900 
# 
# From -- ./inp_files/86583.got.cif
#   From: 2010.05.17/outbox.cif.g08.bks.cpg/sg2_44_cif.got.tgz:86583.got - 2010.06.03 11:33:40.
