data_PCOD9006933
_publ_section_title
;
Structure prediction by ZEFSAII (Michael W. Deem and Ramdas Pophale) SiO2 
 PCOD9006933
Probable space group: P -1
;
_chemical_formula_sum "Si O2"
_cell_formula_units_Z 16
_cell_length_a 12.185331
_cell_length_b 14.622167
_cell_length_c 6.833524
_cell_angle_alpha 65.024282
_cell_angle_beta 50.856549
_cell_angle_gamma 57.146893
_cell_volume 787.309219
_symmetry_space_group_name_H-M "P -1"
_symmetry_group_IT_number 2
_symmetry_cell_setting 'triclinic'
loop_
_space_group_symop_operation_xyz
x,y,z
-x,-y,-z
loop_
_atom_site_type_symbol
_atom_site_label
_atom_site_fract_x
_atom_site_fract_y
_atom_site_fract_z
Si Si1 0.677537 0.052664 0.688105
Si Si2 0.211786 0.810932 0.817725
Si Si3 0.906300 0.459994 0.990501
Si Si4 0.088055 0.237827 0.760842
Si Si5 0.327077 0.148016 0.909008
Si Si6 0.599642 0.226692 0.966091
Si Si7 0.647211 0.387565 0.465907
Si Si8 0.256474 0.306397 0.191254
O O1 0.791678 0.084225 0.395613
O O2 0.649503 0.126295 0.848344
O O3 0.721665 0.930397 0.823534
O O4 0.511711 0.090576 0.731971
O O5 0.312746 0.702762 0.672482
O O6 0.302108 0.804302 0.921673
O O7 0.044730 0.809411 0.044450
O O8 0.813687 0.562877 0.863765
O O9 0.012963 0.357045 0.838373
O O10 0.791592 0.421321 0.276303
O O11 0.000000 0.500000 0.000000
O O12 0.145303 0.259067 0.466990
O O13 0.231907 0.168143 0.799154
O O14 0.291745 0.258383 0.974580
O O15 0.625839 0.325476 0.737093
O O16 0.417156 0.264531 0.164479
O O17 0.500000 0.500000 0.500000
#
# Coordination Sequence:
#
# PCOD9006933 Si02
#       8
#     2   2   2   2   2   2   2   2
#     4   9  21  41  65  86 111 150 197 246 287 337
#     4  10  23  38  58  88 120 152 190 239 290 343
#     4  11  22  38  59  84 120 156 190 236 288 341
#     4  11  24  38  57  89 122 152 190 236 290 350
#     4  10  21  41  64  86 113 150 197 244 289 339
#     4  10  21  39  62  85 117 152 195 241 284 339
#     4  10  21  39  57  85 115 154 199 234 281 337
#     4  11  22  38  60  86 116 158 194 234 287 343
#
# _framework density 20.322386000000002
#
# number of rings (size 3 to 8) (size 9 to 14) (size 15 to 20)
#    0.000    1.750    2.500    1.125    1.750    4.000 
#    0.000    5.000    0.000    0.000    0.000    0.000 
#    0.000    0.000    0.000    0.000    0.000    0.000 
#
# Total GULP energy -89400.549306 kJ/mol
# GULP energy per Si atom -5587.534332 kJ/mol
# Density = 2.027613 g / cm^3
# Si number density = 20.322386 Si / 1000 Ang^3
#
#
#
# Elastic Constant Matrix: (Units=GPa)
#
#
# Indices 1 2 3 4 5 6 
#
# 1 87.9688 -0.6998 12.3368 -0.9951 0.6117 11.1024
# 2 -0.6998 41.8494 3.4905 -19.5939 -3.9491 1.8742
# 3 12.3368 3.4905 77.2939 -10.2258 -25.8766 4.3561
# 4 -0.9951 -19.5939 -10.2258 23.4931 1.6811 -5.4140
# 5 0.6117 -3.9491 -25.8766 1.6811 24.3739 -7.6049
# 6 11.1024 1.8742 4.3561 -5.4140 -7.6049 16.2741
#
#
#
# Elastic Compliance Matrix: (Units=1/GPa)
#
#
# Indices 1 2 3 4 5 6 
#
# 1 0.014184 -0.003171 -0.006182 -0.007501 -0.011804 -0.015668
# 2 -0.003171 0.045215 0.010522 0.045033 0.021442 0.019142
# 3 -0.006182 0.010522 0.027074 0.022302 0.035186 0.019620
# 4 -0.007501 0.045033 0.022302 0.096936 0.038227 0.044073
# 5 -0.011804 0.021442 0.035186 0.038227 0.096334 0.053899
# 6 -0.015668 0.019142 0.019620 0.044073 0.053899 0.104529
#
#
# Mechanical properties :
#
#
# Convention : Reuss Voigt Hill
#
# Bulk Modulus (GPa) = 11.25995 26.37412 18.81704
# Shear Modulus (GPa) = 12.14957 25.62719 18.88838
#
# Velocity S-wave (km/s) = 2.44773 3.55495 3.05197
# Velocity P-wave (km/s) = 3.67984 5.46409 4.65819
#
# Compressibility (1/GPa) = 0.08881033
#
# Stress axis : x y z
#
# Youngs Moduli (GPa) = 70.50186 22.11639 36.93649
#
# Poissons Ratio (x) = 0.07014 0.22833
# Poissons Ratio (y) = 0.22359 -0.38864
# Poissons Ratio (z) = 0.43582 -0.23271
#
# Static dielectric constant tensor:
#      x y z
#    x 1.698950 -0.003560 -0.021330 
#    y -0.003560 1.733130 -0.006910 
#    z -0.021330 -0.006910 1.744230 
# 
# From -- ./inp_files/77087.got.cif
#   From: 2010.05.17/outbox.cif.g08.bks.cpg/sg2_39_cif.got.tgz:77087.got - 2010.06.03 11:33:40.
