data_PCOD9006505
_publ_section_title
;
Structure prediction by ZEFSAII (Michael W. Deem and Ramdas Pophale) SiO2 
 PCOD9006505
Probable space group: P -1
;
_chemical_formula_sum "Si O2"
_cell_formula_units_Z 16
_cell_length_a 7.715564
_cell_length_b 15.057327
_cell_length_c 8.624023
_cell_angle_alpha 98.693351
_cell_angle_beta 127.746433
_cell_angle_gamma 54.790315
_cell_volume 614.900573
_symmetry_space_group_name_H-M "P -1"
_symmetry_group_IT_number 2
_symmetry_cell_setting 'triclinic'
loop_
_space_group_symop_operation_xyz
x,y,z
-x,-y,-z
loop_
_atom_site_type_symbol
_atom_site_label
_atom_site_fract_x
_atom_site_fract_y
_atom_site_fract_z
Si Si1 0.109094 0.943255 0.375566
Si Si2 0.697937 0.364575 0.576163
Si Si3 0.122094 0.544074 0.769426
Si Si4 0.585012 0.926655 0.770060
Si Si5 0.830968 0.149662 0.052351
Si Si6 0.220299 0.153582 0.808529
Si Si7 0.577216 0.674708 0.341787
Si Si8 0.541719 0.370837 0.161697
O O1 0.419090 0.905555 0.553454
O O2 0.017573 0.863046 0.298184
O O3 0.000000 0.000000 0.500000
O O4 0.940766 0.034404 0.169749
O O5 0.500000 0.500000 0.500000
O O6 0.640372 0.339483 0.706851
O O7 0.589845 0.340071 0.359014
O O8 0.030289 0.288629 0.708440
O O9 0.242461 0.428471 0.708262
O O10 0.269037 0.594881 0.792093
O O11 0.797010 0.640608 0.587575
O O12 0.234141 0.487296 0.984232
O O13 0.888777 0.872448 0.857420
O O14 0.408202 0.062187 0.752413
O O15 0.618678 0.876727 0.949019
O O16 0.660420 0.254541 0.106740
O O17 0.608157 0.200595 0.803560
#
# Coordination Sequence:
#
# PCOD9006505 Si02
#       8
#     2   2   2   2   2   2   2   2
#     4  10  22  42  63  95 136 171 222 279 328 394
#     4  12  23  42  67  97 133 175 217 279 335 393
#     4   9  20  40  60  91 132 175 217 271 321 398
#     4  10  21  43  68  97 136 178 222 272 335 398
#     4  11  22  42  67  98 135 174 221 275 333 403
#     4  10  23  43  66  99 137 172 223 278 335 399
#     4  10  21  41  61  94 135 168 218 273 328 390
#     4  10  21  38  66  93 132 175 222 268 336 393
#
# _framework density 26.020465999999999
#
# number of rings (size 3 to 8) (size 9 to 14) (size 15 to 20)
#    0.000    1.750    2.500    1.875    0.000    2.000 
#    9.000    1.250    0.000    0.000    0.000    0.000 
#    0.000    0.000    0.000    0.000    0.000    0.000 
#
# Total GULP energy -89448.014175 kJ/mol
# GULP energy per Si atom -5590.500886 kJ/mol
# Density = 2.596124 g / cm^3
# Si number density = 26.020466 Si / 1000 Ang^3
#
#
#
# Elastic Constant Matrix: (Units=GPa)
#
#
# Indices 1 2 3 4 5 6 
#
# 1 71.4644 18.2075 31.4387 -2.8280 7.7536 0.1501
# 2 18.2075 111.0341 41.9361 -28.6730 6.2928 -12.2838
# 3 31.4387 41.9361 156.5261 -29.6709 3.6820 -4.4823
# 4 -2.8280 -28.6730 -29.6709 37.5251 -3.2008 2.3413
# 5 7.7536 6.2928 3.6820 -3.2008 36.7763 -4.4786
# 6 0.1501 -12.2838 -4.4823 2.3413 -4.4786 33.1465
#
#
#
# Elastic Compliance Matrix: (Units=1/GPa)
#
#
# Indices 1 2 3 4 5 6 
#
# 1 0.016212 -0.002266 -0.003233 -0.003240 -0.003178 -0.001551
# 2 -0.002266 0.012354 -0.001213 0.008042 -0.000351 0.003809
# 3 -0.003233 -0.001213 0.008403 0.005498 0.000574 0.000391
# 4 -0.003240 0.008042 0.005498 0.036992 0.002149 0.001416
# 5 -0.003178 -0.000351 0.000574 0.002149 0.028497 0.003661
# 6 -0.001551 0.003809 0.000391 0.001416 0.003661 0.032035
#
#
# Mechanical properties :
#
#
# Convention : Reuss Voigt Hill
#
# Bulk Modulus (GPa) = 42.47019 58.02101 50.24560
# Shear Modulus (GPa) = 32.09959 37.98574 35.04266
#
# Velocity S-wave (km/s) = 3.51612 3.82493 3.67377
# Velocity P-wave (km/s) = 5.73074 6.46942 6.11125
#
# Compressibility (1/GPa) = 0.02354593
#
# Stress axis : x y z
#
# Youngs Moduli (GPa) = 61.68150 80.94575 119.00492
#
# Poissons Ratio (x) = 0.18339 0.38476
# Poissons Ratio (y) = 0.13974 0.14435
# Poissons Ratio (z) = 0.19942 0.09819
#
# Static dielectric constant tensor:
#      x y z
#    x 2.102020 0.023330 0.004060 
#    y 0.023330 2.084610 0.005740 
#    z 0.004060 0.005740 2.156100 
# 
# From -- ./inp_files/217709.got.cif
#   From: 2010.05.17/outbox.cif.g08.bks.cpg/sg2_109_cif.got.tgz:217709.got - 2010.06.03 11:33:40.
