data_PCOD9006883
_publ_section_title
;
Structure prediction by ZEFSAII (Michael W. Deem and Ramdas Pophale) SiO2 
 PCOD9006883
Probable space group: P -1
;
_chemical_formula_sum "Si O2"
_cell_formula_units_Z 14
_cell_length_a 9.404297
_cell_length_b 11.720465
_cell_length_c 8.687437
_cell_angle_alpha 62.860092
_cell_angle_beta 86.688787
_cell_angle_gamma 53.474416
_cell_volume 653.455229
_symmetry_space_group_name_H-M "P -1"
_symmetry_group_IT_number 2
_symmetry_cell_setting 'triclinic'
loop_
_space_group_symop_operation_xyz
x,y,z
-x,-y,-z
loop_
_atom_site_type_symbol
_atom_site_label
_atom_site_fract_x
_atom_site_fract_y
_atom_site_fract_z
Si Si1 0.283390 0.527881 0.342288
Si Si2 0.088943 0.520770 0.837620
Si Si3 0.916177 0.723950 0.424160
Si Si4 0.279911 0.623750 0.950256
Si Si5 0.038804 0.999941 0.812397
Si Si6 0.611567 0.811476 0.160173
Si Si7 0.640594 0.242914 0.639703
O O1 0.483740 0.345480 0.456043
O O2 0.321797 0.642079 0.353128
O O3 0.107062 0.573346 0.415870
O O4 0.229107 0.580887 0.138466
O O5 0.194504 0.589439 0.840394
O O6 0.238406 0.335647 0.873118
O O7 0.944164 0.652828 0.636721
O O8 0.000000 0.500000 0.000000
O O9 0.731525 0.779235 0.322050
O O10 0.914602 0.879614 0.304881
O O11 0.194493 0.813565 0.858567
O O12 0.500000 0.500000 0.000000
O O13 0.845237 0.076635 0.691837
O O14 0.000000 0.000000 0.000000
O O15 0.458503 0.791882 0.211887
O O16 0.500000 0.000000 0.000000
#
# Coordination Sequence:
#
# PCOD9006883 Si02
#       7
#     2   2   2   2   2   2   2
#     4  10  21  43  72  99 132 185 235 285 337 424
#     4  12  29  47  67 104 150 182 228 296 364 402
#     4  11  24  46  76  99 138 193 240 277 343 429
#     4  12  27  44  72 106 147 177 225 301 363 399
#     4  11  23  44  76 102 135 180 242 283 340 423
#     4  12  26  43  75 100 137 189 243 278 339 436
#     4  10  21  38  73  99 128 170 253 272 331 399
#
# _framework density 21.424574
#
# number of rings (size 3 to 8) (size 9 to 14) (size 15 to 20)
#    0.000    0.857    4.286    3.000   10.000    0.571 
#    0.000    0.714    0.000    0.000    0.000    0.000 
#    0.000    0.000    0.000    0.000    0.000    0.000 
#
# Total GULP energy -78266.768929 kJ/mol
# GULP energy per Si atom -5590.483495 kJ/mol
# Density = 2.137581 g / cm^3
# Si number density = 21.424574 Si / 1000 Ang^3
#
#
#
# Elastic Constant Matrix: (Units=GPa)
#
#
# Indices 1 2 3 4 5 6 
#
# 1 104.5881 30.3583 21.8873 -6.4181 8.8519 -8.1168
# 2 30.3583 123.0255 44.5582 -33.1250 6.9659 -2.9602
# 3 21.8873 44.5582 114.6348 -18.7443 4.3925 5.4561
# 4 -6.4181 -33.1250 -18.7443 36.1501 -4.3768 3.9130
# 5 8.8519 6.9659 4.3925 -4.3768 43.9004 0.6183
# 6 -8.1168 -2.9602 5.4561 3.9130 0.6183 28.8702
#
#
#
# Elastic Compliance Matrix: (Units=1/GPa)
#
#
# Indices 1 2 3 4 5 6 
#
# 1 0.010891 -0.002395 -0.001503 -0.001632 -0.001875 0.003362
# 2 -0.002395 0.012247 -0.002756 0.009355 -0.000250 -0.000159
# 3 -0.001503 -0.002756 0.010742 0.003122 0.000021 -0.003159
# 4 -0.001632 0.009355 0.003122 0.038438 0.002440 -0.005352
# 5 -0.001875 -0.000250 0.000021 0.002440 0.023457 -0.001390
# 6 0.003362 -0.000159 -0.003159 -0.005352 -0.001390 0.036919
#
#
# Mechanical properties :
#
#
# Convention : Reuss Voigt Hill
#
# Bulk Modulus (GPa) = 48.61521 59.53956 54.07739
# Shear Modulus (GPa) = 32.70991 38.14711 35.42851
#
# Velocity S-wave (km/s) = 3.91160 4.22421 4.07091
# Velocity P-wave (km/s) = 6.56821 7.18628 6.88418
#
# Compressibility (1/GPa) = 0.02056969
#
# Stress axis : x y z
#
# Youngs Moduli (GPa) = 91.82180 81.65432 93.09518
#
# Poissons Ratio (x) = 0.19558 0.13995
# Poissons Ratio (y) = 0.21993 0.25659
# Poissons Ratio (z) = 0.13803 0.22506
#
# Static dielectric constant tensor:
#      x y z
#    x 1.769570 0.004040 -0.004330 
#    y 0.004040 1.789010 -0.035420 
#    z -0.004330 -0.035420 1.848480 
# 
# From -- ./inp_files/185007.got.cif
#   From: 2010.05.17/outbox.cif.g08.bks.cpg/sg2_93_cif.got.tgz:185007.got - 2010.06.03 11:33:40.
