data_PCOD9006784
_publ_section_title
;
Structure prediction by ZEFSAII (Michael W. Deem and Ramdas Pophale) SiO2 
 PCOD9006784
Probable space group: P -1
;
_chemical_formula_sum "Si O2"
_cell_formula_units_Z 14
_cell_length_a 9.831202
_cell_length_b 9.190711
_cell_length_c 13.751958
_cell_angle_alpha 125.672104
_cell_angle_beta 140.971160
_cell_angle_gamma 77.695371
_cell_volume 561.416783
_symmetry_space_group_name_H-M "P -1"
_symmetry_group_IT_number 2
_symmetry_cell_setting 'triclinic'
loop_
_space_group_symop_operation_xyz
x,y,z
-x,-y,-z
loop_
_atom_site_type_symbol
_atom_site_label
_atom_site_fract_x
_atom_site_fract_y
_atom_site_fract_z
Si Si1 0.342676 0.593188 0.653091
Si Si2 0.582431 0.593839 0.190407
Si Si3 0.438208 0.011004 0.857426
Si Si4 0.733571 0.670162 0.747866
Si Si5 0.985878 0.159623 0.200004
Si Si6 0.954573 0.533903 0.098979
Si Si7 0.019596 0.965540 0.344372
O O1 0.348252 0.545023 0.752002
O O2 0.285577 0.771790 0.657333
O O3 0.614790 0.673264 0.787363
O O4 0.137667 0.385915 0.414498
O O5 0.500000 0.500000 0.000000
O O6 0.332845 0.572359 0.087323
O O7 0.939462 0.231974 0.715911
O O8 0.244546 0.094308 0.777828
O O9 0.500000 0.000000 0.000000
O O10 0.707622 0.108490 0.998373
O O11 0.500000 0.500000 0.500000
O O12 0.851538 0.847501 0.802596
O O13 0.924779 0.584474 0.825782
O O14 0.996789 0.025948 0.243879
O O15 0.782718 0.829006 0.412809
O O16 0.000000 0.500000 0.000000
#
# Coordination Sequence:
#
# PCOD9006784 Si02
#       7
#     2   2   2   2   2   2   2
#     4  10  21  43  66 101 149 184 234 307 359 420
#     4  11  25  45  73 106 145 197 247 293 369 439
#     4  10  21  38  69 102 141 180 232 295 364 420
#     4  10  23  45  71 103 140 193 239 298 360 435
#     4   9  21  42  72 108 137 191 242 289 364 440
#     4  12  26  48  74 102 157 196 235 304 373 429
#     4  10  25  46  73 108 148 191 242 303 366 432
#
# _framework density 24.936910000000001
#
# number of rings (size 3 to 8) (size 9 to 14) (size 15 to 20)
#    0.000    1.714    1.429    1.714    0.000   13.714 
#    0.000    4.286    0.000    0.000    0.000    0.000 
#    0.000    0.000    0.000    0.000    0.000    0.000 
#
# Total GULP energy -78197.922885 kJ/mol
# GULP energy per Si atom -5585.565920 kJ/mol
# Density = 2.488015 g / cm^3
# Si number density = 24.936910 Si / 1000 Ang^3
#
#
#
# Elastic Constant Matrix: (Units=GPa)
#
#
# Indices 1 2 3 4 5 6 
#
# 1 117.5427 24.4147 31.7080 -1.5072 7.9349 17.8928
# 2 24.4147 76.5929 23.1539 5.1865 -19.1081 6.3224
# 3 31.7080 23.1539 152.9393 26.4814 -10.6069 20.4402
# 4 -1.5072 5.1865 26.4814 44.9346 4.1385 -6.3171
# 5 7.9349 -19.1081 -10.6069 4.1385 34.4429 0.5970
# 6 17.8928 6.3224 20.4402 -6.3171 0.5970 42.4380
#
#
#
# Elastic Compliance Matrix: (Units=1/GPa)
#
#
# Indices 1 2 3 4 5 6 
#
# 1 0.010703 -0.004139 -0.002024 0.002192 -0.005605 -0.002516
# 2 -0.004139 0.017537 -0.000302 -0.003188 0.010996 -0.001352
# 3 -0.002024 -0.000302 0.008950 -0.006285 0.003887 -0.004402
# 4 0.002192 -0.003188 -0.006285 0.028074 -0.007701 0.006865
# 5 -0.005605 0.010996 0.003887 -0.007701 0.038597 -0.002836
# 6 -0.002516 -0.001352 -0.004402 0.006865 -0.002836 0.028008
#
#
# Mechanical properties :
#
#
# Convention : Reuss Voigt Hill
#
# Bulk Modulus (GPa) = 41.21960 56.18089 48.70024
# Shear Modulus (GPa) = 32.70424 42.21633 37.46029
#
# Velocity S-wave (km/s) = 3.62536 4.11898 3.88003
# Velocity P-wave (km/s) = 5.83865 6.72305 6.29640
#
# Compressibility (1/GPa) = 0.02426031
#
# Stress axis : x y z
#
# Youngs Moduli (GPa) = 93.43401 57.02148 111.73141
#
# Poissons Ratio (x) = 0.23600 0.22620
# Poissons Ratio (y) = 0.38670 0.03370
# Poissons Ratio (z) = 0.18916 0.01720
#
# Static dielectric constant tensor:
#      x y z
#    x 3.359990 -0.411320 0.005820 
#    y -0.411320 2.202460 0.009730 
#    z 0.005820 0.009730 2.000240 
# 
# From -- ./inp_files/394625.got.cif
#   From: 2010.05.17/outbox.cif.g08.bks.cpg/sg2_198_cif.got.tgz:394625.got - 2010.06.03 11:33:40.
