data_PCOD9006074
_publ_section_title
;
Structure prediction by ZEFSAII (Michael W. Deem and Ramdas Pophale) SiO2 
 PCOD9006074
Probable space group: P -1
;
_chemical_formula_sum "Si O2"
_cell_formula_units_Z 12
_cell_length_a 9.349656
_cell_length_b 5.048230
_cell_length_c 11.684692
_cell_angle_alpha 89.832600
_cell_angle_beta 96.338941
_cell_angle_gamma 121.248766
_cell_volume 467.654703
_symmetry_space_group_name_H-M "P -1"
_symmetry_group_IT_number 2
_symmetry_cell_setting 'triclinic'
loop_
_space_group_symop_operation_xyz
x,y,z
-x,-y,-z
loop_
_atom_site_type_symbol
_atom_site_label
_atom_site_fract_x
_atom_site_fract_y
_atom_site_fract_z
Si Si1 0.581816 0.041978 0.883801
Si Si2 0.223571 0.441064 0.559291
Si Si3 0.819694 0.096793 0.569490
Si Si4 0.412933 0.376975 0.793507
Si Si5 0.905084 0.462225 0.802863
Si Si6 0.918364 0.871764 0.116091
O O1 0.559180 0.720978 0.840735
O O2 0.483742 0.151030 0.791597
O O3 0.724378 0.753828 0.116109
O O4 0.500000 0.000000 0.000000
O O5 0.262976 0.779301 0.528494
O O6 0.021790 0.175710 0.206501
O O7 0.021634 0.261798 0.565347
O O8 0.253054 0.263861 0.457667
O O9 0.809410 0.239259 0.687990
O O10 0.318461 0.407478 0.675582
O O11 0.054848 0.403051 0.842994
O O12 0.774763 0.317535 0.895801
O O13 0.000000 0.000000 0.000000
#
# Coordination Sequence:
#
# PCOD9006074 Si02
#       6
#     2   2   2   2   2   2
#     4  12  26  45  65  92 137 178 208 261 335 390
#     4  10  21  38  64  96 126 164 211 270 322 375
#     4  10  21  38  64  95 128 164 210 267 327 375
#     4  12  24  43  67  97 127 172 220 264 322 384
#     4  12  24  43  65  97 129 173 215 263 330 381
#     4  12  24  41  67  97 126 163 227 279 309 374
#
# _framework density 25.659960000000002
#
# number of rings (size 3 to 8) (size 9 to 14) (size 15 to 20)
#    0.000    0.667    1.667    7.000    4.667    0.000 
#    0.000    5.000    0.000    0.000    0.000    0.000 
#    0.000    0.000    0.000    0.000    0.000    0.000 
#
# Total GULP energy -67248.188830 kJ/mol
# GULP energy per Si atom -5604.015736 kJ/mol
# Density = 2.560156 g / cm^3
# Si number density = 25.659960 Si / 1000 Ang^3
#
#
#
# Elastic Constant Matrix: (Units=GPa)
#
#
# Indices 1 2 3 4 5 6 
#
# 1 69.7939 20.0010 -0.6267 -7.2851 1.8671 -11.6538
# 2 20.0010 100.4365 23.2785 -1.4075 0.4907 -4.4380
# 3 -0.6267 23.2785 84.6527 8.5161 20.1269 -19.5048
# 4 -7.2851 -1.4075 8.5161 26.5857 -3.5035 0.4478
# 5 1.8671 0.4907 20.1269 -3.5035 33.0921 -6.2881
# 6 -11.6538 -4.4380 -19.5048 0.4478 -6.2881 34.7886
#
#
#
# Elastic Compliance Matrix: (Units=1/GPa)
#
#
# Indices 1 2 3 4 5 6 
#
# 1 0.016812 -0.003575 0.002412 0.003434 -0.000794 0.006340
# 2 -0.003575 0.011607 -0.004347 0.001385 0.002493 -0.001721
# 3 0.002412 -0.004347 0.018135 -0.006866 -0.010181 0.008669
# 4 0.003434 0.001385 -0.006866 0.041922 0.008096 -0.001599
# 5 -0.000794 0.002493 -0.010181 0.008096 0.037468 0.001012
# 6 0.006340 -0.001721 0.008669 -0.001599 0.001012 0.035713
#
#
# Mechanical properties :
#
#
# Convention : Reuss Voigt Hill
#
# Bulk Modulus (GPa) = 28.14167 37.79874 32.97020
# Shear Modulus (GPa) = 27.09694 33.04197 30.06946
#
# Velocity S-wave (km/s) = 3.25314 3.59233 3.42693
# Velocity P-wave (km/s) = 5.01014 5.65412 5.34184
#
# Compressibility (1/GPa) = 0.03553449
#
# Stress axis : x y z
#
# Youngs Moduli (GPa) = 59.48007 86.15410 55.14192
#
# Poissons Ratio (x) = 0.30799 -0.13299
# Poissons Ratio (y) = 0.21263 0.23970
# Poissons Ratio (z) = -0.14345 0.37450
#
# Static dielectric constant tensor:
#      x y z
#    x 1.984470 0.000210 -0.022910 
#    y 0.000210 1.940190 0.031420 
#    z -0.022910 0.031420 2.090640 
# 
# From -- ./inp_files/97439.got.cif
#   From: 2010.05.17/outbox.cif.g08.bks.cpg/sg2_49_cif.got.tgz:97439.got - 2010.06.03 11:33:40.
