data_PCOD9006587
_publ_section_title
;
Structure prediction by ZEFSAII (Michael W. Deem and Ramdas Pophale) SiO2 
 PCOD9006587
Probable space group: P -1
;
_chemical_formula_sum "Si O2"
_cell_formula_units_Z 14
_cell_length_a 19.325480
_cell_length_b 12.376080
_cell_length_c 8.143660
_cell_angle_alpha 64.698561
_cell_angle_beta 66.252951
_cell_angle_gamma 20.363904
_cell_volume 612.749653
_symmetry_space_group_name_H-M "P -1"
_symmetry_group_IT_number 2
_symmetry_cell_setting 'triclinic'
loop_
_space_group_symop_operation_xyz
x,y,z
-x,-y,-z
loop_
_atom_site_type_symbol
_atom_site_label
_atom_site_fract_x
_atom_site_fract_y
_atom_site_fract_z
Si Si1 0.974109 0.935766 0.931336
Si Si2 0.705245 0.687900 0.605152
Si Si3 0.802373 0.328038 0.567221
Si Si4 0.125468 0.182997 0.905894
Si Si5 0.764287 0.901673 0.798200
Si Si6 0.602342 0.728862 0.021948
Si Si7 0.658240 0.025307 0.470502
O O1 0.807898 0.228409 0.779741
O O2 0.922698 0.878031 0.075085
O O3 0.195109 0.595985 0.864511
O O4 0.000000 0.000000 0.000000
O O5 0.838554 0.411279 0.540614
O O6 0.664549 0.667863 0.816692
O O7 0.500000 0.000000 0.500000
O O8 0.757518 0.746989 0.562575
O O9 0.580116 0.642729 0.503419
O O10 0.000000 0.000000 0.500000
O O11 0.936925 0.548169 0.855693
O O12 0.281418 0.010856 0.740255
O O13 0.188488 0.081959 0.103558
O O14 0.735110 0.984866 0.583235
O O15 0.558841 0.137785 0.891543
O O16 0.500000 0.000000 0.000000
#
# Coordination Sequence:
#
# PCOD9006587 Si02
#       7
#     2   2   2   2   2   2   2
#     4  12  26  47  70 101 146 188 235 291 357 435
#     4  10  21  38  67 101 133 177 235 292 341 410
#     4  11  25  43  68 106 143 188 236 290 356 426
#     4  11  26  44  71 108 143 185 239 296 365 419
#     4  11  23  43  74 108 138 182 243 303 349 418
#     4  12  21  42  75 103 133 186 244 288 347 418
#     4  11  23  46  72 102 144 186 238 299 358 416
#
# _framework density 22.847830999999999
#
# number of rings (size 3 to 8) (size 9 to 14) (size 15 to 20)
#    0.000    0.857    4.286    3.000    2.000    2.857 
#    2.571    0.714    0.000    0.000    0.000    0.000 
#    0.000    0.000    0.000    0.000    0.000    0.000 
#
# Total GULP energy -78190.726136 kJ/mol
# GULP energy per Si atom -5585.051867 kJ/mol
# Density = 2.279583 g / cm^3
# Si number density = 22.847831 Si / 1000 Ang^3
#
#
#
# Elastic Constant Matrix: (Units=GPa)
#
#
# Indices 1 2 3 4 5 6 
#
# 1 86.0956 43.1813 30.7034 15.1882 17.0058 15.6098
# 2 43.1813 115.2726 31.4819 3.2588 3.4279 17.8074
# 3 30.7034 31.4819 86.4868 6.6986 22.3860 4.6225
# 4 15.1882 3.2588 6.6986 38.2562 -7.1265 4.2093
# 5 17.0058 3.4279 22.3860 -7.1265 35.3887 0.7732
# 6 15.6098 17.8074 4.6225 4.2093 0.7732 37.0104
#
#
#
# Elastic Compliance Matrix: (Units=1/GPa)
#
#
# Indices 1 2 3 4 5 6 
#
# 1 0.018866 -0.005546 -0.001484 -0.008016 -0.009117 -0.004001
# 2 -0.005546 0.012058 -0.003629 0.003023 0.004477 -0.003446
# 3 -0.001484 -0.003629 0.016258 -0.003927 -0.010032 0.000998
# 4 -0.008016 0.003023 -0.003927 0.032261 0.012573 -0.001515
# 5 -0.009117 0.004477 -0.010032 0.012573 0.041068 0.000656
# 6 -0.004001 -0.003446 0.000998 -0.001515 0.000656 0.030399
#
#
# Mechanical properties :
#
#
# Convention : Reuss Voigt Hill
#
# Bulk Modulus (GPa) = 38.66546 55.39869 47.03208
# Shear Modulus (GPa) = 27.64722 34.29696 30.97209
#
# Velocity S-wave (km/s) = 3.48236 3.87861 3.68582
# Velocity P-wave (km/s) = 5.75577 6.66015 6.22441
#
# Compressibility (1/GPa) = 0.02586288
#
# Stress axis : x y z
#
# Youngs Moduli (GPa) = 53.00452 82.93556 61.50874
#
# Poissons Ratio (x) = 0.45997 0.09130
# Poissons Ratio (y) = 0.29397 0.22321
# Poissons Ratio (z) = 0.07868 0.30096
#
# Static dielectric constant tensor:
#      x y z
#    x 1.865670 -0.011570 0.061610 
#    y -0.011570 1.869490 -0.027870 
#    z 0.061610 -0.027870 1.985220 
# 
# From -- ./inp_files/333112.got.cif
#   From: 2010.05.17/outbox.cif.g08.bks.cpg/sg2_167_cif.got.tgz:333112.got - 2010.06.03 11:33:40.
