data_PCOD9006621
_publ_section_title
;
Structure prediction by ZEFSAII (Michael W. Deem and Ramdas Pophale) SiO2 
 PCOD9006621
Probable space group: P -1
;
_chemical_formula_sum "Si O2"
_cell_formula_units_Z 14
_cell_length_a 10.139427
_cell_length_b 11.250472
_cell_length_c 8.699788
_cell_angle_alpha 129.796026
_cell_angle_beta 108.442232
_cell_angle_gamma 73.684000
_cell_volume 719.137194
_symmetry_space_group_name_H-M "P -1"
_symmetry_group_IT_number 2
_symmetry_cell_setting 'triclinic'
loop_
_space_group_symop_operation_xyz
x,y,z
-x,-y,-z
loop_
_atom_site_type_symbol
_atom_site_label
_atom_site_fract_x
_atom_site_fract_y
_atom_site_fract_z
Si Si1 0.852379 0.129182 0.237430
Si Si2 0.586825 0.411974 0.096986
Si Si3 0.526546 0.177884 0.111731
Si Si4 0.683953 0.593922 0.571925
Si Si5 0.880233 0.425225 0.060314
Si Si6 0.899082 0.363127 0.662904
Si Si7 0.922059 0.787798 0.846354
O O1 0.689141 0.181217 0.210188
O O2 0.896927 0.183668 0.466631
O O3 0.953471 0.212213 0.229813
O O4 0.873475 0.954679 0.038160
O O5 0.521974 0.255778 0.002523
O O6 0.602737 0.519923 0.342611
O O7 0.744864 0.386539 0.070001
O O8 0.500000 0.500000 0.000000
O O9 0.424630 0.299370 0.273693
O O10 0.500000 0.000000 0.000000
O O11 0.784782 0.463177 0.594625
O O12 0.795577 0.710649 0.658836
O O13 0.943657 0.586911 0.253927
O O14 0.012728 0.309000 0.065630
O O15 0.855365 0.405090 0.854906
#
# Coordination Sequence:
#
# PCOD9006621 Si02
#       7
#     2   2   2   2   2   2   2
#     4  11  21  38  64  90 123 171 208 255 321 382
#     4  12  25  41  67  95 128 167 216 262 314 377
#     4  12  24  42  64  95 131 169 208 258 319 386
#     4  11  22  40  66  93 122 168 214 260 316 376
#     4  10  21  39  60  97 125 159 212 271 307 364
#     4  10  21  38  67  92 126 162 214 263 315 373
#     4  10  21  39  65  89 121 164 213 262 313 374
#
# _framework density 19.467773000000001
#
# number of rings (size 3 to 8) (size 9 to 14) (size 15 to 20)
#    0.000    1.143    4.286    2.143    2.000    2.857 
#    0.000    0.714    6.286    0.000    0.000    0.000 
#    0.000    0.000    0.000    0.000    0.000    0.000 
#
# Total GULP energy -77976.197041 kJ/mol
# GULP energy per Si atom -5569.728360 kJ/mol
# Density = 1.942346 g / cm^3
# Si number density = 19.467773 Si / 1000 Ang^3
#
#
#
# Elastic Constant Matrix: (Units=GPa)
#
#
# Indices 1 2 3 4 5 6 
#
# 1 111.2858 29.1352 24.2159 13.4471 -3.5739 9.7732
# 2 29.1352 75.7139 39.0954 -4.0662 10.9224 17.8948
# 3 24.2159 39.0954 96.6053 1.3762 3.6633 2.6843
# 4 13.4471 -4.0662 1.3762 20.2899 -0.1114 7.4126
# 5 -3.5739 10.9224 3.6633 -0.1114 22.7009 -1.3783
# 6 9.7732 17.8948 2.6843 7.4126 -1.3783 26.3802
#
#
#
# Elastic Compliance Matrix: (Units=1/GPa)
#
#
# Indices 1 2 3 4 5 6 
#
# 1 0.011882 -0.006284 -0.000569 -0.010180 0.005121 0.003047
# 2 -0.006284 0.028674 -0.009125 0.018549 -0.014568 -0.022168
# 3 -0.000569 -0.009125 0.013984 -0.004738 0.002412 0.006435
# 4 -0.010180 0.018549 -0.004738 0.070503 -0.011161 -0.028722
# 5 0.005121 -0.014568 0.002412 -0.011161 0.052249 0.013605
# 6 0.003047 -0.022168 0.006435 -0.028722 0.013605 0.059943
#
#
# Mechanical properties :
#
#
# Convention : Reuss Voigt Hill
#
# Bulk Modulus (GPa) = 44.27849 52.05532 48.16691
# Shear Modulus (GPa) = 18.06887 26.61811 22.34349
#
# Velocity S-wave (km/s) = 3.04985 3.70170 3.39147
# Velocity P-wave (km/s) = 5.93262 6.71323 6.33496
#
# Compressibility (1/GPa) = 0.02258433
#
# Stress axis : x y z
#
# Youngs Moduli (GPa) = 84.16155 34.87423 71.50963
#
# Poissons Ratio (x) = 0.21915 0.04070
# Poissons Ratio (y) = 0.52886 0.65253
# Poissons Ratio (z) = 0.04791 0.31823
#
# Static dielectric constant tensor:
#      x y z
#    x 1.700910 0.051680 0.023580 
#    y 0.051680 1.760800 0.030000 
#    z 0.023580 0.030000 1.693550 
# 
# From -- ./inp_files/154011.got.cif
#   From: 2010.05.17/outbox.cif.g08.bks.cpg/sg2_78_cif.got.tgz:154011.got - 2010.06.03 11:33:40.
