data_PCOD9006240
_publ_section_title
;
Structure prediction by ZEFSAII (Michael W. Deem and Ramdas Pophale) SiO2 
 PCOD9006240
Probable space group: P -1
;
_chemical_formula_sum "Si O2"
_cell_formula_units_Z 16
_cell_length_a 9.662021
_cell_length_b 20.635266
_cell_length_c 7.825984
_cell_angle_alpha 117.701953
_cell_angle_beta 65.710663
_cell_angle_gamma 148.085255
_cell_volume 729.863020
_symmetry_space_group_name_H-M "P -1"
_symmetry_group_IT_number 2
_symmetry_cell_setting 'triclinic'
loop_
_space_group_symop_operation_xyz
x,y,z
-x,-y,-z
loop_
_atom_site_type_symbol
_atom_site_label
_atom_site_fract_x
_atom_site_fract_y
_atom_site_fract_z
Si Si1 0.989272 0.498121 0.209782
Si Si2 0.414393 0.910783 0.077742
Si Si3 0.444138 0.353451 0.318920
Si Si4 0.864413 0.288318 0.500742
Si Si5 0.944348 0.059964 0.164811
Si Si6 0.051764 0.362629 0.128759
Si Si7 0.267139 0.402821 0.721682
Si Si8 0.346796 0.998653 0.458240
O O1 0.685071 0.393622 0.278389
O O2 0.088153 0.462413 0.197653
O O3 0.146508 0.629326 0.362763
O O4 0.000000 0.500000 0.000000
O O5 0.683222 0.987646 0.117405
O O6 0.230936 0.895121 0.258667
O O7 0.242937 0.775162 0.944704
O O8 0.500000 0.000000 0.000000
O O9 0.377785 0.371810 0.547834
O O10 0.553994 0.458161 0.260440
O O11 0.192781 0.211072 0.202931
O O12 0.046315 0.343851 0.310847
O O13 0.580982 0.140878 0.442266
O O14 0.002429 0.312543 0.632596
O O15 0.859758 0.034527 0.375138
O O16 0.000000 0.000000 0.000000
O O17 0.224370 0.389964 0.930308
O O18 0.500000 0.000000 0.500000
#
# Coordination Sequence:
#
# PCOD9006240 Si02
#       8
#     2   2   2   2   2   2   2   2
#     4  11  23  41  66  90 126 172 211 264 321 385
#     4  11  22  40  64  95 125 168 215 267 315 384
#     4  10  21  39  63  88 129 165 209 259 326 375
#     4  11  22  39  68  96 126 162 224 261 316 384
#     4  11  23  37  65  94 127 172 215 258 330 388
#     4  12  22  40  70  93 126 165 222 263 317 382
#     4  10  21  40  65  92 124 167 207 271 316 376
#     4  10  21  38  65  91 125 168 216 259 315 385
#
# _framework density 21.921921000000001
#
# number of rings (size 3 to 8) (size 9 to 14) (size 15 to 20)
#    0.000    1.250    3.750    4.875    1.750    0.000 
#    0.000    6.250    8.250    0.000    0.000    0.000 
#    0.000    0.000    0.000    0.000    0.000    0.000 
#
# Total GULP energy -89305.853674 kJ/mol
# GULP energy per Si atom -5581.615855 kJ/mol
# Density = 2.187203 g / cm^3
# Si number density = 21.921921 Si / 1000 Ang^3
#
#
#
# Elastic Constant Matrix: (Units=GPa)
#
#
# Indices 1 2 3 4 5 6 
#
# 1 36.2359 14.5325 22.4299 5.2827 -13.5928 4.3947
# 2 14.5325 115.7478 36.7631 20.2525 -3.3602 -4.3376
# 3 22.4299 36.7631 139.4490 -4.2156 -24.8684 -18.8135
# 4 5.2827 20.2525 -4.2156 41.3079 -3.6669 8.0625
# 5 -13.5928 -3.3602 -24.8684 -3.6669 33.6548 -5.1979
# 6 4.3947 -4.3376 -18.8135 8.0625 -5.1979 24.9773
#
#
#
# Elastic Compliance Matrix: (Units=1/GPa)
#
#
# Indices 1 2 3 4 5 6 
#
# 1 0.036298 -0.002944 -0.004407 -0.001263 0.009771 -0.007776
# 2 -0.002944 0.010905 -0.002812 -0.005803 -0.002559 0.001634
# 3 -0.004407 -0.002812 0.011493 0.001883 0.008187 0.010040
# 4 -0.001263 -0.005803 0.001883 0.029231 0.002198 -0.008346
# 5 0.009771 -0.002559 0.008187 0.002198 0.041538 0.011938
# 6 -0.007776 0.001634 0.010040 -0.008346 0.011938 0.054429
#
#
# Mechanical properties :
#
#
# Convention : Reuss Voigt Hill
#
# Bulk Modulus (GPa) = 26.06313 48.76483 37.41398
# Shear Modulus (GPa) = 23.04029 34.50180 28.77105
#
# Velocity S-wave (km/s) = 3.24545 3.97148 3.62668
# Velocity P-wave (km/s) = 5.09498 6.58204 5.88567
#
# Compressibility (1/GPa) = 0.03836838
#
# Stress axis : x y z
#
# Youngs Moduli (GPa) = 27.54939 91.70331 87.01031
#
# Poissons Ratio (x) = 0.27001 0.38345
# Poissons Ratio (y) = 0.08112 0.24471
# Poissons Ratio (z) = 0.12141 0.25791
#
# Static dielectric constant tensor:
#      x y z
#    x 1.793210 0.015220 0.047360 
#    y 0.015220 1.818930 -0.046460 
#    z 0.047360 -0.046460 1.933340 
# 
# From -- ./inp_files/284361.got.cif
#   From: 2010.05.17/outbox.cif.g08.bks.cpg/sg2_143_cif.got.tgz:284361.got - 2010.06.03 11:33:40.
