data_PCOD9006183
_publ_section_title
;
Structure prediction by ZEFSAII (Michael W. Deem and Ramdas Pophale) SiO2 
 PCOD9006183
Probable space group: P -1
;
_chemical_formula_sum "Si O2"
_cell_formula_units_Z 12
_cell_length_a 14.028725
_cell_length_b 11.140897
_cell_length_c 9.043938
_cell_angle_alpha 111.177257
_cell_angle_beta 67.772960
_cell_angle_gamma 159.454679
_cell_volume 459.096103
_symmetry_space_group_name_H-M "P -1"
_symmetry_group_IT_number 2
_symmetry_cell_setting 'triclinic'
loop_
_space_group_symop_operation_xyz
x,y,z
-x,-y,-z
loop_
_atom_site_type_symbol
_atom_site_label
_atom_site_fract_x
_atom_site_fract_y
_atom_site_fract_z
Si Si1 0.319498 0.404985 0.636318
Si Si2 0.369672 0.880348 0.258827
Si Si3 0.577344 0.873826 0.446917
Si Si4 0.823839 0.597977 0.023613
Si Si5 0.003146 0.623185 0.159977
Si Si6 0.936171 0.768373 0.717120
O O1 0.500000 0.500000 0.500000
O O2 0.373453 0.575979 0.558369
O O3 0.368667 0.530186 0.823978
O O4 0.035157 0.002614 0.662755
O O5 0.218031 0.826932 0.245958
O O6 0.314862 0.860806 0.451266
O O7 0.294449 0.669015 0.107579
O O8 0.695139 0.262892 0.237658
O O9 0.373153 0.632233 0.319790
O O10 0.839682 0.085153 0.369832
O O11 0.025079 0.775046 0.111945
O O12 0.946643 0.808870 0.903101
O O13 0.000000 0.500000 0.000000
#
# Coordination Sequence:
#
# PCOD9006183 Si02
#       6
#     2   2   2   2   2   2
#     4  10  23  47  72  99 134 188 235 280 329 414
#     4  11  23  42  70 106 131 183 226 277 343 409
#     4  11  24  45  70  95 145 177 232 273 336 419
#     4  11  23  43  73 102 143 173 228 293 342 401
#     4  10  21  38  65 104 133 169 229 272 335 409
#     4  11  26  45  65 106 138 184 222 282 345 398
#
# _framework density 26.138317000000001
#
# number of rings (size 3 to 8) (size 9 to 14) (size 15 to 20)
#    0.000    1.333    1.667    4.000    0.000    5.333 
#    0.000    4.167    0.000    0.000    0.000    0.000 
#    0.000    0.000    0.000    0.000    0.000    0.000 
#
# Total GULP energy -66835.435335 kJ/mol
# GULP energy per Si atom -5569.619611 kJ/mol
# Density = 2.607882 g / cm^3
# Si number density = 26.138317 Si / 1000 Ang^3
#
#
#
# Elastic Constant Matrix: (Units=GPa)
#
#
# Indices 1 2 3 4 5 6 
#
# 1 74.2165 33.2699 62.4073 13.4389 -35.1346 -2.7741
# 2 33.2699 100.5394 25.2687 15.2652 -15.1392 9.2726
# 3 62.4073 25.2687 149.5585 -5.5907 -22.7289 -10.4254
# 4 13.4389 15.2652 -5.5907 40.5838 -9.3767 2.4226
# 5 -35.1346 -15.1392 -22.7289 -9.3767 50.6421 -0.5905
# 6 -2.7741 9.2726 -10.4254 2.4226 -0.5905 31.7778
#
#
#
# Elastic Compliance Matrix: (Units=1/GPa)
#
#
# Indices 1 2 3 4 5 6 
#
# 1 0.033844 -0.005116 -0.011032 -0.007282 0.015671 0.001674
# 2 -0.005116 0.012483 -0.000460 -0.002968 -0.000620 -0.004025
# 3 -0.011032 -0.000460 0.011464 0.004858 -0.001717 0.002530
# 4 -0.007282 -0.002968 0.004858 0.029241 0.001651 -0.000374
# 5 0.015671 -0.000620 -0.001717 0.001651 0.029985 0.001417
# 6 0.001674 -0.004025 0.002530 -0.000374 0.001417 0.033674
#
#
# Mechanical properties :
#
#
# Convention : Reuss Voigt Hill
#
# Bulk Modulus (GPa) = 40.69044 62.91179 51.80111
# Shear Modulus (GPa) = 26.02823 38.15864 32.09343
#
# Velocity S-wave (km/s) = 3.15903 3.82497 3.50784
# Velocity P-wave (km/s) = 5.37654 6.60517 6.02227
#
# Compressibility (1/GPa) = 0.02457580
#
# Stress axis : x y z
#
# Youngs Moduli (GPa) = 29.54759 80.10649 87.22614
#
# Poissons Ratio (x) = 0.40981 0.96226
# Poissons Ratio (y) = 0.15116 0.04015
# Poissons Ratio (z) = 0.32596 0.03687
#
# Static dielectric constant tensor:
#      x y z
#    x -12.430490 -0.534050 3.827200 
#    y -0.534050 2.121940 0.155520 
#    z 3.827200 0.155520 1.143560 
# 
# From -- ./inp_files/307999.got.cif
#   From: 2010.05.17/outbox.cif.g08.bks.cpg/sg2_154_cif.got.tgz:307999.got - 2010.06.03 11:33:40.
