data_PCOD9006990
_publ_section_title
;
Structure prediction by ZEFSAII (Michael W. Deem and Ramdas Pophale) SiO2 
 PCOD9006990
Probable space group: P -1
;
_chemical_formula_sum "Si O2"
_cell_formula_units_Z 16
_cell_length_a 8.628296
_cell_length_b 16.520897
_cell_length_c 7.478279
_cell_angle_alpha 77.198077
_cell_angle_beta 125.485691
_cell_angle_gamma 69.975997
_cell_volume 681.400630
_symmetry_space_group_name_H-M "P -1"
_symmetry_group_IT_number 2
_symmetry_cell_setting 'triclinic'
loop_
_space_group_symop_operation_xyz
x,y,z
-x,-y,-z
loop_
_atom_site_type_symbol
_atom_site_label
_atom_site_fract_x
_atom_site_fract_y
_atom_site_fract_z
Si Si1 0.617711 0.207487 0.379563
Si Si2 0.144309 0.094859 0.858663
Si Si3 0.275063 0.614351 0.348414
Si Si4 0.665328 0.877066 0.702224
Si Si5 0.505002 0.403762 0.114459
Si Si6 0.512886 0.700112 0.349661
Si Si7 0.602522 0.858147 0.274375
Si Si8 0.984875 0.480105 0.793350
O O1 0.481398 0.157307 0.278871
O O2 0.603014 0.286219 0.187695
O O3 0.503947 0.269102 0.463786
O O4 0.893486 0.119145 0.639813
O O5 0.220982 0.144638 0.743669
O O6 0.135439 0.142427 0.021108
O O7 0.359221 0.973796 0.061443
O O8 0.500000 0.500000 0.500000
O O9 0.339619 0.624524 0.586433
O O10 0.305273 0.685424 0.202909
O O11 0.055186 0.608692 0.201495
O O12 0.722811 0.831397 0.564388
O O13 0.500000 0.000000 0.500000
O O14 0.500000 0.500000 0.000000
O O15 0.227562 0.452240 0.896310
O O16 0.526498 0.783995 0.220233
O O17 0.752872 0.588388 0.518413
O O18 0.000000 0.500000 0.000000
#
# Coordination Sequence:
#
# PCOD9006990 Si02
#       8
#     2   2   2   2   2   2   2   2
#     4  10  21  39  58  89 121 150 204 250 292 368
#     4  10  21  40  63  86 127 157 190 259 302 346
#     4   9  18  37  59  84 112 151 204 236 286 363
#     4   9  20  40  63  89 118 159 202 241 308 364
#     4  11  24  39  57  89 121 155 198 249 300 347
#     4   9  19  36  59  86 113 153 203 239 296 362
#     4   9  20  40  62  89 121 159 200 244 304 365
#     4  11  19  38  62  79 119 158 191 252 294 344
#
# _framework density 23.481047
#
# number of rings (size 3 to 8) (size 9 to 14) (size 15 to 20)
#    0.000    2.250    3.750    0.000    1.750    7.000 
#    4.500    8.125    0.000    0.000    0.000    0.000 
#    0.000    0.000    0.000    0.000    0.000    0.000 
#
# Total GULP energy -89175.270138 kJ/mol
# GULP energy per Si atom -5573.454384 kJ/mol
# Density = 2.342760 g / cm^3
# Si number density = 23.481047 Si / 1000 Ang^3
#
#
#
# Elastic Constant Matrix: (Units=GPa)
#
#
# Indices 1 2 3 4 5 6 
#
# 1 59.1874 29.0498 45.0233 -2.9154 13.8960 31.4830
# 2 29.0498 90.1397 17.3223 5.7540 1.6210 40.3631
# 3 45.0233 17.3223 63.7617 -3.4496 13.5181 7.9743
# 4 -2.9154 5.7540 -3.4496 23.2869 1.9895 0.9556
# 5 13.8960 1.6210 13.5181 1.9895 44.9421 -3.0070
# 6 31.4830 40.3631 7.9743 0.9556 -3.0070 54.8324
#
#
#
# Elastic Compliance Matrix: (Units=1/GPa)
#
#
# Indices 1 2 3 4 5 6 
#
# 1 0.072512 0.001701 -0.044247 0.004643 -0.011866 -0.037183
# 2 0.001701 0.017611 -0.004445 -0.004208 -0.000524 -0.013249
# 3 -0.044247 -0.004445 0.045057 0.001175 0.001722 0.022199
# 4 0.004643 -0.004208 0.001175 0.045082 -0.003682 -0.000726
# 5 -0.011866 -0.000524 0.001722 -0.003682 0.026149 0.008447
# 6 -0.037183 -0.013249 0.022199 -0.000726 0.008447 0.046587
#
#
# Mechanical properties :
#
#
# Convention : Reuss Voigt Hill
#
# Bulk Modulus (GPa) = 24.27310 43.98661 34.12986
# Shear Modulus (GPa) = 13.86148 32.72518 23.29333
#
# Velocity S-wave (km/s) = 2.43230 3.73726 3.15303
# Velocity P-wave (km/s) = 4.27175 6.11525 5.27466
#
# Compressibility (1/GPa) = 0.04119786
#
# Stress axis : x y z
#
# Youngs Moduli (GPa) = 13.79086 56.78347 22.19423
#
# Poissons Ratio (x) = -0.09660 0.98202
# Poissons Ratio (y) = -0.02346 0.09866
# Poissons Ratio (z) = 0.61020 0.25241
#
# Static dielectric constant tensor:
#      x y z
#    x 1.921140 -0.025910 -0.046500 
#    y -0.025910 1.993170 -0.035520 
#    z -0.046500 -0.035520 1.917210 
# 
# From -- ./inp_files/217358.got.cif
#   From: 2010.05.17/outbox.cif.g08.bks.cpg/sg2_109_cif.got.tgz:217358.got - 2010.06.03 11:33:40.
