data_PCOD9006887
_publ_section_title
;
Structure prediction by ZEFSAII (Michael W. Deem and Ramdas Pophale) SiO2 
 PCOD9006887
Probable space group: P -1
;
_chemical_formula_sum "Si O2"
_cell_formula_units_Z 14
_cell_length_a 12.631462
_cell_length_b 9.124254
_cell_length_c 8.108085
_cell_angle_alpha 130.666902
_cell_angle_beta 128.112436
_cell_angle_gamma 53.435813
_cell_volume 527.561934
_symmetry_space_group_name_H-M "P -1"
_symmetry_group_IT_number 2
_symmetry_cell_setting 'triclinic'
loop_
_space_group_symop_operation_xyz
x,y,z
-x,-y,-z
loop_
_atom_site_type_symbol
_atom_site_label
_atom_site_fract_x
_atom_site_fract_y
_atom_site_fract_z
Si Si1 0.075470 0.722601 0.684881
Si Si2 0.883584 0.328863 0.680729
Si Si3 0.340036 0.010843 0.382674
Si Si4 0.643729 0.445079 0.997299
Si Si5 0.084834 0.184206 0.068045
Si Si6 0.310386 0.951776 0.665043
Si Si7 0.368969 0.300642 0.161201
O O1 0.044846 0.684369 0.438808
O O2 0.231140 0.567780 0.764206
O O3 0.986473 0.711973 0.753392
O O4 0.072516 0.958161 0.864583
O O5 0.003593 0.695239 0.081881
O O6 0.810266 0.150214 0.492821
O O7 0.748569 0.531477 0.724400
O O8 0.286602 0.078833 0.565181
O O9 0.500000 0.000000 0.500000
O O10 0.248605 0.135774 0.237121
O O11 0.323607 0.786770 0.201695
O O12 0.500000 0.500000 0.000000
O O13 0.629660 0.588206 0.931813
O O14 0.468179 0.781187 0.678275
O O15 0.323018 0.102610 0.931956
#
# Coordination Sequence:
#
# PCOD9006887 Si02
#       7
#     2   2   2   2   2   2   2
#     4  10  21  38  75 107 139 199 237 290 374 430
#     4  12  22  44  78 104 147 201 238 298 373 433
#     4  11  24  44  74 104 143 192 241 308 372 428
#     4  11  21  39  69 107 144 191 249 293 360 438
#     4  10  22  45  71 110 144 190 250 295 365 451
#     4  11  24  43  70 109 151 191 246 305 364 425
#     4  11  24  42  67 112 151 188 250 309 347 440
#
# _framework density 26.537168999999999
#
# number of rings (size 3 to 8) (size 9 to 14) (size 15 to 20)
#    0.000    1.143    2.857    4.286    2.000    3.429 
#    0.000    0.714    6.286    5.143    0.000    0.000 
#    0.000    0.000    0.000    0.000    0.000    0.000 
#
# Total GULP energy -78558.525968 kJ/mol
# GULP energy per Si atom -5611.323283 kJ/mol
# Density = 2.647677 g / cm^3
# Si number density = 26.537169 Si / 1000 Ang^3
#
#
#
# Elastic Constant Matrix: (Units=GPa)
#
#
# Indices 1 2 3 4 5 6 
#
# 1 129.6087 65.1011 74.4615 -21.8894 -22.7582 3.9681
# 2 65.1011 170.1181 65.9766 -36.1646 0.9509 11.7413
# 3 74.4615 65.9766 143.0205 -37.9799 -16.7197 5.8436
# 4 -21.8894 -36.1646 -37.9799 56.7913 7.2455 1.4197
# 5 -22.7582 0.9509 -16.7197 7.2455 60.9784 -1.6091
# 6 3.9681 11.7413 5.8436 1.4197 -1.6091 50.1503
#
#
#
# Elastic Compliance Matrix: (Units=1/GPa)
#
#
# Indices 1 2 3 4 5 6 
#
# 1 0.012589 -0.003142 -0.004958 -0.000924 0.003510 0.000456
# 2 -0.003142 0.008570 -0.001568 0.003522 -0.002201 -0.001745
# 3 -0.004958 -0.001568 0.011702 0.004833 0.000789 -0.000715
# 4 -0.000924 0.003522 0.004833 0.023016 -0.001863 -0.002026
# 5 0.003510 -0.002201 0.000789 -0.001863 0.018202 0.000782
# 6 0.000456 -0.001745 -0.000715 -0.002026 0.000782 0.020478
#
#
# Mechanical properties :
#
#
# Convention : Reuss Voigt Hill
#
# Bulk Modulus (GPa) = 73.94491 94.86953 84.40722
# Shear Modulus (GPa) = 42.22893 49.39788 45.81341
#
# Velocity S-wave (km/s) = 3.99345 4.31914 4.15949
# Velocity P-wave (km/s) = 7.01347 7.79106 7.41247
#
# Compressibility (1/GPa) = 0.01352358
#
# Stress axis : x y z
#
# Youngs Moduli (GPa) = 79.43725 116.68005 85.45529
#
# Poissons Ratio (x) = 0.36660 0.42372
# Poissons Ratio (y) = 0.24958 0.13404
# Poissons Ratio (z) = 0.39388 0.18301
#
# Static dielectric constant tensor:
#      x y z
#    x 1.983020 0.039400 0.179360 
#    y 0.039400 2.056630 0.014170 
#    z 0.179360 0.014170 1.873930 
# 
# From -- ./inp_files/195433.got.cif
#   From: 2010.05.17/outbox.cif.g08.bks.cpg/sg2_98_cif.got.tgz:195433.got - 2010.06.03 11:33:40.
