data_PCOD9006733
_publ_section_title
;
Structure prediction by ZEFSAII (Michael W. Deem and Ramdas Pophale) SiO2 
 PCOD9006733
Probable space group: P -1
;
_chemical_formula_sum "Si O2"
_cell_formula_units_Z 16
_cell_length_a 15.164063
_cell_length_b 12.989249
_cell_length_c 8.873797
_cell_angle_alpha 28.540843
_cell_angle_beta 51.860638
_cell_angle_gamma 46.182232
_cell_volume 602.345604
_symmetry_space_group_name_H-M "P -1"
_symmetry_group_IT_number 2
_symmetry_cell_setting 'triclinic'
loop_
_space_group_symop_operation_xyz
x,y,z
-x,-y,-z
loop_
_atom_site_type_symbol
_atom_site_label
_atom_site_fract_x
_atom_site_fract_y
_atom_site_fract_z
Si Si1 0.306420 0.324358 0.144966
Si Si2 0.046470 0.584256 0.196036
Si Si3 0.877746 0.002505 0.320109
Si Si4 0.482196 0.541907 0.645514
Si Si5 0.146066 0.754764 0.392226
Si Si6 0.683692 0.081895 0.171838
Si Si7 0.349738 0.227913 0.874440
Si Si8 0.832976 0.947925 0.774589
O O1 0.161074 0.403563 0.215267
O O2 0.352322 0.137327 0.475140
O O3 0.351980 0.538132 0.830695
O O4 0.352960 0.216457 0.068673
O O5 0.000000 0.500000 0.500000
O O6 0.097398 0.767309 0.972527
O O7 0.932827 0.719496 0.037326
O O8 0.755837 0.086159 0.242630
O O9 0.854208 0.917682 0.614690
O O10 0.016248 0.817446 0.368473
O O11 0.500000 0.500000 0.500000
O O12 0.530216 0.749019 0.351796
O O13 0.572663 0.314390 0.935698
O O14 0.241984 0.488933 0.621036
O O15 0.137215 0.836287 0.470937
O O16 0.208527 0.929238 0.042138
O O17 0.302913 0.048454 0.071869
#
# Coordination Sequence:
#
# PCOD9006733 Si02
#       8
#     2   2   2   2   2   2   2   2
#     4  11  20  40  64  91 124 166 211 263 322 367
#     4  11  25  38  63  95 133 168 206 264 316 382
#     4  11  22  39  59  93 133 161 210 262 313 379
#     4   9  22  41  65  88 123 166 214 265 312 380
#     4  10  22  38  60  91 135 172 200 262 318 379
#     4  11  22  38  64  92 121 164 213 264 318 378
#     4  10  21  38  68  93 124 171 220 253 312 382
#     4  11  22  40  62  95 133 168 213 256 318 381
#
# _framework density 26.562823999999999
#
# number of rings (size 3 to 8) (size 9 to 14) (size 15 to 20)
#    0.000    1.500    1.250    5.250    5.250    1.000 
#    0.000    0.625    5.500    7.500    0.000    0.000 
#    0.000    0.000    0.000    0.000    0.000    0.000 
#
# Total GULP energy -89485.630427 kJ/mol
# GULP energy per Si atom -5592.851902 kJ/mol
# Density = 2.650237 g / cm^3
# Si number density = 26.562824 Si / 1000 Ang^3
#
#
#
# Elastic Constant Matrix: (Units=GPa)
#
#
# Indices 1 2 3 4 5 6 
#
# 1 136.7265 33.4811 41.0925 8.5892 5.8258 -29.1523
# 2 33.4811 81.0201 14.3800 6.7307 8.9884 -21.2732
# 3 41.0925 14.3800 150.3267 23.9420 0.4524 -17.5392
# 4 8.5892 6.7307 23.9420 30.6333 -10.0499 -6.6012
# 5 5.8258 8.9884 0.4524 -10.0499 66.5417 0.1429
# 6 -29.1523 -21.2732 -17.5392 -6.6012 0.1429 44.4530
#
#
#
# Elastic Compliance Matrix: (Units=1/GPa)
#
#
# Indices 1 2 3 4 5 6 
#
# 1 0.009383 -0.002374 -0.001851 0.000107 -0.000481 0.004304
# 2 -0.002374 0.015156 0.000221 -0.002392 -0.002214 0.005435
# 3 -0.001851 0.000221 0.008237 -0.005968 -0.000828 0.001258
# 4 0.000107 -0.002392 -0.005968 0.040476 0.006462 0.002561
# 5 -0.000481 -0.002214 -0.000828 0.006462 0.016353 -0.000795
# 6 0.004304 0.005435 0.001258 0.002561 -0.000795 0.028799
#
#
# Mechanical properties :
#
#
# Convention : Reuss Voigt Hill
#
# Bulk Modulus (GPa) = 40.37670 60.66451 50.52060
# Shear Modulus (GPa) = 37.12850 46.93359 42.03105
#
# Velocity S-wave (km/s) = 3.74272 4.20800 3.98216
# Velocity P-wave (km/s) = 5.82329 6.81890 6.34067
#
# Compressibility (1/GPa) = 0.02476676
#
# Stress axis : x y z
#
# Youngs Moduli (GPa) = 106.57359 65.98077 121.40640
#
# Poissons Ratio (x) = 0.15666 0.22475
# Poissons Ratio (y) = 0.25304 -0.02683
# Poissons Ratio (z) = 0.19729 -0.01458
#
# Static dielectric constant tensor:
#      x y z
#    x 2.100440 0.027030 -0.026260 
#    y 0.027030 2.185670 0.004620 
#    z -0.026260 0.004620 2.143120 
# 
# From -- ./inp_files/179897.got.cif
#   From: 2010.05.17/outbox.cif.g08.bks.cpg/sg2_90_cif.got.tgz:179897.got - 2010.06.03 11:33:40.
