data_PCOD9006810
_publ_section_title
;
Structure prediction by ZEFSAII (Michael W. Deem and Ramdas Pophale) SiO2 
 PCOD9006810
Probable space group: P -1
;
_chemical_formula_sum "Si O2"
_cell_formula_units_Z 14
_cell_length_a 8.916113
_cell_length_b 9.608390
_cell_length_c 11.446492
_cell_angle_alpha 59.899846
_cell_angle_beta 132.546120
_cell_angle_gamma 107.606190
_cell_volume 623.995566
_symmetry_space_group_name_H-M "P -1"
_symmetry_group_IT_number 2
_symmetry_cell_setting 'triclinic'
loop_
_space_group_symop_operation_xyz
x,y,z
-x,-y,-z
loop_
_atom_site_type_symbol
_atom_site_label
_atom_site_fract_x
_atom_site_fract_y
_atom_site_fract_z
Si Si1 0.373128 0.234321 0.197618
Si Si2 0.746494 0.351492 0.476121
Si Si3 0.081990 0.967326 0.187081
Si Si4 0.104614 0.541366 0.917255
Si Si5 0.100056 0.334963 0.472735
Si Si6 0.710163 0.895974 0.167973
Si Si7 0.493851 0.672622 0.992868
O O1 0.519851 0.318411 0.329138
O O2 0.510696 0.199159 0.169537
O O3 0.261224 0.086753 0.252362
O O4 0.196695 0.363043 0.004300
O O5 0.827035 0.211902 0.664822
O O6 0.766039 0.519863 0.477946
O O7 0.896532 0.344708 0.444087
O O8 0.891798 0.987055 0.166323
O O9 0.000000 0.000000 0.000000
O O10 0.296366 0.654722 0.976239
O O11 0.963365 0.627644 0.708675
O O12 0.000000 0.500000 0.000000
O O13 0.220195 0.168048 0.641381
O O14 0.675237 0.731869 0.143418
O O15 0.500000 0.000000 0.000000
O O16 0.500000 0.500000 0.000000
#
# Coordination Sequence:
#
# PCOD9006810 Si02
#       7
#     2   2   2   2   2   2   2
#     4  11  21  40  64  96 132 172 226 274 331 396
#     4  10  21  38  69  98 127 171 235 279 318 396
#     4  11  22  39  64  97 133 174 221 276 328 394
#     4  11  24  40  65  98 134 172 221 280 334 401
#     4  10  21  41  68  97 127 176 229 274 330 399
#     4  11  25  44  67  97 138 179 216 276 346 400
#     4  10  21  41  69  92 127 179 224 268 328 398
#
# _framework density 22.436057000000002
#
# number of rings (size 3 to 8) (size 9 to 14) (size 15 to 20)
#    0.000    1.429    2.857    3.000   10.000    0.000 
#    2.571    2.143    0.000    0.000    0.000    0.000 
#    0.000    0.000    0.000    0.000    0.000    0.000 
#
# Total GULP energy -78150.681182 kJ/mol
# GULP energy per Si atom -5582.191513 kJ/mol
# Density = 2.238499 g / cm^3
# Si number density = 22.436057 Si / 1000 Ang^3
#
#
#
# Elastic Constant Matrix: (Units=GPa)
#
#
# Indices 1 2 3 4 5 6 
#
# 1 90.0888 46.0725 44.7057 -12.8911 -14.9752 40.2522
# 2 46.0725 102.2195 31.7035 5.8936 -0.3496 43.7366
# 3 44.7057 31.7035 159.8236 -18.7661 -19.1031 17.2575
# 4 -12.8911 5.8936 -18.7661 46.2755 4.0731 5.1767
# 5 -14.9752 -0.3496 -19.1031 4.0731 34.0417 -6.1130
# 6 40.2522 43.7366 17.2575 5.1767 -6.1130 43.1143
#
#
#
# Elastic Compliance Matrix: (Units=1/GPa)
#
#
# Indices 1 2 3 4 5 6 
#
# 1 0.024161 -0.002056 -0.002782 0.007654 0.004607 -0.019624
# 2 -0.002056 0.018458 -0.002039 -0.001500 -0.004636 -0.016466
# 3 -0.002782 -0.002039 0.007903 0.002216 0.003229 0.001694
# 4 0.007654 -0.001500 0.002216 0.025933 -0.000242 -0.009659
# 5 0.004607 -0.004636 0.003229 -0.000242 0.033904 0.003946
# 6 -0.019624 -0.016466 0.001694 -0.009659 0.003946 0.059260
#
#
# Mechanical properties :
#
#
# Convention : Reuss Voigt Hill
#
# Bulk Modulus (GPa) = 27.19784 66.34391 46.77088
# Shear Modulus (GPa) = 25.55856 39.99631 32.77743
#
# Velocity S-wave (km/s) = 3.37883 4.22676 3.82635
# Velocity P-wave (km/s) = 5.23170 7.31130 6.35711
#
# Compressibility (1/GPa) = 0.03676763
#
# Stress axis : x y z
#
# Youngs Moduli (GPa) = 41.38826 54.17788 126.53900
#
# Poissons Ratio (x) = 0.11141 0.35206
# Poissons Ratio (y) = 0.08511 0.25796
# Poissons Ratio (z) = 0.11515 0.11045
#
# Static dielectric constant tensor:
#      x y z
#    x 1.978710 -0.039900 0.013800 
#    y -0.039900 1.854580 -0.015000 
#    z 0.013800 -0.015000 1.869650 
# 
# From -- ./inp_files/392247.got.cif
#   From: 2010.05.17/outbox.cif.g08.bks.cpg/sg2_197_cif.got.tgz:392247.got - 2010.06.03 11:33:40.
