data_PCOD9006910
_publ_section_title
;
Structure prediction by ZEFSAII (Michael W. Deem and Ramdas Pophale) SiO2 
 PCOD9006910
Probable space group: P -1
;
_chemical_formula_sum "Si O2"
_cell_formula_units_Z 16
_cell_length_a 9.841456
_cell_length_b 17.423771
_cell_length_c 6.868059
_cell_angle_alpha 111.718100
_cell_angle_beta 47.461804
_cell_angle_gamma 121.698891
_cell_volume 738.105415
_symmetry_space_group_name_H-M "P -1"
_symmetry_group_IT_number 2
_symmetry_cell_setting 'triclinic'
loop_
_space_group_symop_operation_xyz
x,y,z
-x,-y,-z
loop_
_atom_site_type_symbol
_atom_site_label
_atom_site_fract_x
_atom_site_fract_y
_atom_site_fract_z
Si Si1 0.641604 0.459367 0.929843
Si Si2 0.493114 0.849889 0.491646
Si Si3 0.635787 0.664581 0.598328
Si Si4 0.039708 0.817488 0.924661
Si Si5 0.857815 0.913984 0.934352
Si Si6 0.197846 0.127789 0.471912
Si Si7 0.338574 0.640542 0.543692
Si Si8 0.933781 0.626969 0.045025
O O1 0.735795 0.422622 0.630337
O O2 0.500000 0.500000 0.000000
O O3 0.493935 0.378025 0.128732
O O4 0.799795 0.534275 0.983142
O O5 0.630350 0.886943 0.203690
O O6 0.641384 0.892957 0.572048
O O7 0.439158 0.743172 0.465990
O O8 0.280673 0.858262 0.707586
O O9 0.690044 0.770423 0.627630
O O10 0.501837 0.621488 0.494865
O O11 0.830981 0.642525 0.355364
O O12 0.931348 0.836238 0.858683
O O13 0.966853 0.862431 0.214990
O O14 0.961053 0.712128 0.957849
O O15 0.880258 0.930371 0.699388
O O16 0.000000 0.000000 0.000000
O O17 0.157113 0.631766 0.854140
#
# Coordination Sequence:
#
# PCOD9006910 Si02
#       8
#     2   2   2   2   2   2   2   2
#     4  12  23  34  56  83 118 153 191 235 288 327
#     4   9  20  40  61  83 117 153 193 238 282 339
#     4  10  21  39  56  80 109 151 192 238 280 333
#     4   9  21  40  60  84 116 153 194 238 283 339
#     4  11  23  38  61  92 119 147 185 233 290 352
#     4   9  20  38  62  81 113 152 193 232 288 342
#     4  10  21  40  57  80 113 152 195 237 281 328
#     4  10  21  39  57  81 113 151 195 240 280 330
#
# _framework density 21.677122000000001
#
# number of rings (size 3 to 8) (size 9 to 14) (size 15 to 20)
#    0.000    2.000    1.250    2.250    1.750    4.000 
#    2.250    3.750    0.000    0.000    0.000    0.000 
#    0.000    0.000    0.000    0.000    0.000    0.000 
#
# Total GULP energy -89420.973809 kJ/mol
# GULP energy per Si atom -5588.810863 kJ/mol
# Density = 2.162778 g / cm^3
# Si number density = 21.677122 Si / 1000 Ang^3
#
#
#
# Elastic Constant Matrix: (Units=GPa)
#
#
# Indices 1 2 3 4 5 6 
#
# 1 49.6934 3.7417 37.7701 -11.6135 -0.1424 -1.5380
# 2 3.7417 38.5059 8.4056 -0.0022 -4.0623 1.7188
# 3 37.7701 8.4056 101.0479 -26.9802 -7.7477 -3.7705
# 4 -11.6135 -0.0022 -26.9802 23.8554 14.3301 5.0800
# 5 -0.1424 -4.0623 -7.7477 14.3301 36.7238 -2.5812
# 6 -1.5380 1.7188 -3.7705 5.0800 -2.5812 19.8599
#
#
#
# Elastic Compliance Matrix: (Units=1/GPa)
#
#
# Indices 1 2 3 4 5 6 
#
# 1 0.028777 -0.001187 -0.009294 0.006711 -0.004723 -0.001764
# 2 -0.001187 0.027410 -0.003458 -0.007484 0.005181 -0.000533
# 3 -0.009294 -0.003458 0.018416 0.019388 -0.004270 -0.002438
# 4 0.006711 -0.007484 0.019388 0.092882 -0.034601 -0.023407
# 5 -0.004723 0.005181 -0.004270 -0.034601 0.041271 0.012590
# 6 -0.001764 -0.000533 -0.002438 -0.023407 0.012590 0.057423
#
#
# Mechanical properties :
#
#
# Convention : Reuss Voigt Hill
#
# Bulk Modulus (GPa) = 21.40096 32.12025 26.76060
# Shear Modulus (GPa) = 16.14828 25.37645 20.76237
#
# Velocity S-wave (km/s) = 2.73233 3.42520 3.09819
# Velocity P-wave (km/s) = 4.45513 5.52199 5.01700
#
# Compressibility (1/GPa) = 0.04672689
#
# Stress axis : x y z
#
# Youngs Moduli (GPa) = 34.75022 36.48299 54.30061
#
# Poissons Ratio (x) = 0.04329 0.50465
# Poissons Ratio (y) = 0.04124 0.18775
# Poissons Ratio (z) = 0.32296 0.12614
#
# Static dielectric constant tensor:
#      x y z
#    x 1.768890 -0.003590 -0.000480 
#    y -0.003590 1.835300 -0.002250 
#    z -0.000480 -0.002250 1.766150 
# 
# From -- ./inp_files/52375.got.cif
#   From: 2010.05.17/outbox.cif.g08.bks.cpg/sg2_27_cif.got.tgz:52375.got - 2010.06.03 11:33:40.
