data_PCOD9006222
_publ_section_title
;
Structure prediction by ZEFSAII (Michael W. Deem and Ramdas Pophale) SiO2 
 PCOD9006222
Probable space group: P -1
;
_chemical_formula_sum "Si O2"
_cell_formula_units_Z 16
_cell_length_a 17.443464
_cell_length_b 6.267017
_cell_length_c 13.708262
_cell_angle_alpha 100.162546
_cell_angle_beta 42.356423
_cell_angle_gamma 123.192376
_cell_volume 772.670077
_symmetry_space_group_name_H-M "P -1"
_symmetry_group_IT_number 2
_symmetry_cell_setting 'triclinic'
loop_
_space_group_symop_operation_xyz
x,y,z
-x,-y,-z
loop_
_atom_site_type_symbol
_atom_site_label
_atom_site_fract_x
_atom_site_fract_y
_atom_site_fract_z
Si Si1 0.420606 0.356062 0.341159
Si Si2 0.285952 0.514362 0.640855
Si Si3 0.725915 0.631200 0.150181
Si Si4 0.240802 0.778648 0.551014
Si Si5 0.078228 0.482978 0.153363
Si Si6 0.958247 0.245201 0.951926
Si Si7 0.059314 0.355721 0.379073
Si Si8 0.802909 0.692690 0.575716
O O1 0.359749 0.426267 0.494717
O O2 0.593517 0.548468 0.200469
O O3 0.350196 0.379165 0.313772
O O4 0.352143 0.038412 0.399169
O O5 0.337382 0.544968 0.705062
O O6 0.310995 0.774251 0.584430
O O7 0.108108 0.293537 0.796970
O O8 0.829578 0.582166 0.996782
O O9 0.832860 0.958746 0.097995
O O10 0.183604 0.497332 0.524475
O O11 0.098273 0.752008 0.704289
O O12 0.100197 0.734844 0.095182
O O13 0.115542 0.501311 0.233109
O O14 0.000000 0.500000 0.000000
O O15 0.174110 0.373313 0.343243
O O16 0.000000 0.500000 0.500000
O O17 0.927880 0.022632 0.464274
#
# Coordination Sequence:
#
# PCOD9006222 Si02
#       8
#     2   2   2   2   2   2   2   2
#     4  11  23  41  60  87 131 164 198 249 301 368
#     4  10  23  39  62  87 122 167 211 249 288 360
#     4  12  26  39  58  91 128 166 203 245 308 360
#     4  10  21  38  65  90 120 158 207 253 303 345
#     4  11  23  38  62  93 120 155 202 259 304 356
#     4  11  24  40  63  89 125 161 209 257 297 346
#     4  11  21  38  67  98 116 150 204 257 306 357
#     4  10  21  38  66  95 120 150 204 254 301 362
#
# _framework density 20.707414
#
# number of rings (size 3 to 8) (size 9 to 14) (size 15 to 20)
#    0.000    1.250    3.750    1.500    7.000    2.500 
#    0.000    0.625    0.000    3.750    0.000    0.000 
#    0.000    0.000    0.000    0.000    0.000    0.000 
#
# Total GULP energy -89369.361620 kJ/mol
# GULP energy per Si atom -5585.585101 kJ/mol
# Density = 2.066028 g / cm^3
# Si number density = 20.707414 Si / 1000 Ang^3
#
#
#
# Elastic Constant Matrix: (Units=GPa)
#
#
# Indices 1 2 3 4 5 6 
#
# 1 163.8479 14.4305 13.9924 -4.2939 8.1871 -20.4775
# 2 14.4305 72.3023 31.2766 10.7292 -11.0230 -8.6843
# 3 13.9924 31.2766 30.1150 -2.5337 -7.4759 -3.9307
# 4 -4.2939 10.7292 -2.5337 17.2039 2.9078 2.4068
# 5 8.1871 -11.0230 -7.4759 2.9078 48.7478 -2.1015
# 6 -20.4775 -8.6843 -3.9307 2.4068 -2.1015 19.1236
#
#
#
# Elastic Compliance Matrix: (Units=1/GPa)
#
#
# Indices 1 2 3 4 5 6 
#
# 1 0.007318 0.000744 -0.003537 0.000039 -0.001291 0.007300
# 2 0.000744 0.038009 -0.039394 -0.032198 0.004977 0.014559
# 3 -0.003537 -0.039394 0.077746 0.036389 0.001000 -0.010167
# 4 0.000039 -0.032198 0.036389 0.087539 -0.007746 -0.018970
# 5 -0.001291 0.004977 0.001000 -0.007746 0.022667 0.004549
# 6 0.007300 0.014559 -0.010167 -0.018970 0.004549 0.067517
#
#
# Mechanical properties :
#
#
# Convention : Reuss Voigt Hill
#
# Bulk Modulus (GPa) = 25.84096 42.85157 34.34627
# Shear Modulus (GPa) = 12.56062 30.78610 21.67336
#
# Velocity S-wave (km/s) = 2.46555 3.85998 3.23870
# Velocity P-wave (km/s) = 4.53998 6.37218 5.53246
#
# Compressibility (1/GPa) = 0.03869825
#
# Stress axis : x y z
#
# Youngs Moduli (GPa) = 136.65712 26.30961 12.86243
#
# Poissons Ratio (x) = -0.01957 0.04549
# Poissons Ratio (y) = -0.10164 0.50670
# Poissons Ratio (z) = 0.48334 1.03644
#
# Static dielectric constant tensor:
#      x y z
#    x 1.792960 -0.011510 0.015590 
#    y -0.011510 1.767530 0.000680 
#    z 0.015590 0.000680 1.699240 
# 
# From -- ./inp_files/369071.got.cif
#   From: 2010.05.17/outbox.cif.g08.bks.cpg/sg2_185_cif.got.tgz:369071.got - 2010.06.03 11:33:40.
