data_PCOD9006347
_publ_section_title
;
Structure prediction by ZEFSAII (Michael W. Deem and Ramdas Pophale) SiO2 
 PCOD9006347
Probable space group: P -1
;
_chemical_formula_sum "Si O2"
_cell_formula_units_Z 14
_cell_length_a 12.930471
_cell_length_b 8.465038
_cell_length_c 17.491455
_cell_angle_alpha 147.407276
_cell_angle_beta 134.441743
_cell_angle_gamma 59.883290
_cell_volume 716.707828
_symmetry_space_group_name_H-M "P -1"
_symmetry_group_IT_number 2
_symmetry_cell_setting 'triclinic'
loop_
_space_group_symop_operation_xyz
x,y,z
-x,-y,-z
loop_
_atom_site_type_symbol
_atom_site_label
_atom_site_fract_x
_atom_site_fract_y
_atom_site_fract_z
Si Si1 0.328920 0.981023 0.382347
Si Si2 0.035989 0.959136 0.306631
Si Si3 0.669154 0.437470 0.483973
Si Si4 0.972922 0.274090 0.547504
Si Si5 0.923803 0.037368 0.110345
Si Si6 0.333808 0.154579 0.206353
Si Si7 0.162401 0.687053 0.036741
O O1 0.325779 0.287745 0.460028
O O2 0.500000 0.000000 0.500000
O O3 0.258236 0.720755 0.178518
O O4 0.207208 0.948080 0.373644
O O5 0.963793 0.005844 0.206571
O O6 0.937606 0.645138 0.159681
O O7 0.023248 0.214774 0.464081
O O8 0.507648 0.219811 0.307239
O O9 0.687712 0.586883 0.639254
O O10 0.800254 0.279830 0.466647
O O11 0.055266 0.609715 0.752226
O O12 0.000000 0.000000 0.500000
O O13 0.046121 0.901544 0.073693
O O14 0.764862 0.856053 0.924485
O O15 0.273406 0.838964 0.090020
#
# Coordination Sequence:
#
# PCOD9006347 Si02
#       7
#     2   2   2   2   2   2   2
#     4  10  21  38  65  96 128 159 211 264 321 357
#     4  11  24  40  66  94 133 158 215 261 311 384
#     4  10  23  40  61  96 128 165 209 266 309 380
#     4  12  25  42  63  93 129 174 208 252 321 380
#     4  11  21  40  65  93 123 167 214 261 311 367
#     4  10  21  39  67  88 128 160 212 262 318 352
#     4  10  21  39  61  99 122 161 217 259 301 380
#
# _framework density 19.533760999999998
#
# number of rings (size 3 to 8) (size 9 to 14) (size 15 to 20)
#    0.000    1.429    4.286    3.429    6.000    2.286 
#    0.000    5.000    0.000    0.000    0.000    0.000 
#    0.000    0.000    0.000    0.000    0.000    0.000 
#
# Total GULP energy -78206.093188 kJ/mol
# GULP energy per Si atom -5586.149513 kJ/mol
# Density = 1.948930 g / cm^3
# Si number density = 19.533761 Si / 1000 Ang^3
#
#
#
# Elastic Constant Matrix: (Units=GPa)
#
#
# Indices 1 2 3 4 5 6 
#
# 1 74.9206 14.9982 30.8244 -15.7599 26.1982 -13.6973
# 2 14.9982 93.0667 35.5790 -6.6807 8.0743 -10.1156
# 3 30.8244 35.5790 108.3842 -14.9907 26.8584 -17.4167
# 4 -15.7599 -6.6807 -14.9907 39.8885 2.8433 12.7583
# 5 26.1982 8.0743 26.8584 2.8433 22.0135 -1.0581
# 6 -13.6973 -10.1156 -17.4167 12.7583 -1.0581 30.0762
#
#
#
# Elastic Compliance Matrix: (Units=1/GPa)
#
#
# Indices 1 2 3 4 5 6 
#
# 1 0.032971 -0.001532 0.007009 0.015610 -0.048754 0.010222
# 2 -0.001532 0.012467 -0.004121 -0.000720 0.002443 0.001501
# 3 0.007009 -0.004121 0.018515 0.008701 -0.030170 0.007776
# 4 0.015610 -0.000720 0.008701 0.038644 -0.034194 -0.005690
# 5 -0.048754 0.002443 -0.030170 -0.034194 0.142851 -0.019322
# 6 0.010222 0.001501 0.007776 -0.005690 -0.019322 0.044646
#
#
# Mechanical properties :
#
#
# Convention : Reuss Voigt Hill
#
# Bulk Modulus (GPa) = 14.99998 48.79717 31.89857
# Shear Modulus (GPa) = 16.14974 31.39361 23.77168
#
# Velocity S-wave (km/s) = 2.87846 4.01327 3.49227
# Velocity P-wave (km/s) = 4.32933 6.81985 5.71198
#
# Compressibility (1/GPa) = 0.06666676
#
# Stress axis : x y z
#
# Youngs Moduli (GPa) = 30.32950 80.21448 54.01018
#
# Poissons Ratio (x) = 0.12286 -0.37856
# Poissons Ratio (y) = 0.04645 0.22255
# Poissons Ratio (z) = -0.21258 0.33053
#
# Static dielectric constant tensor:
#      x y z
#    x 1.693780 0.043340 -0.002070 
#    y 0.043340 1.696600 -0.011660 
#    z -0.002070 -0.011660 1.692430 
# 
# From -- ./inp_files/159572.got.cif
#   From: 2010.05.17/outbox.cif.g08.bks.cpg/sg2_80_cif.got.tgz:159572.got - 2010.06.03 11:33:40.
