data_PCOD9006268
_publ_section_title
;
Structure prediction by ZEFSAII (Michael W. Deem and Ramdas Pophale) SiO2 
 PCOD9006268
Probable space group: P -1
;
_chemical_formula_sum "Si O2"
_cell_formula_units_Z 16
_cell_length_a 10.813386
_cell_length_b 13.178262
_cell_length_c 8.693063
_cell_angle_alpha 109.839809
_cell_angle_beta 50.438077
_cell_angle_gamma 75.587596
_cell_volume 689.276256
_symmetry_space_group_name_H-M "P -1"
_symmetry_group_IT_number 2
_symmetry_cell_setting 'triclinic'
loop_
_space_group_symop_operation_xyz
x,y,z
-x,-y,-z
loop_
_atom_site_type_symbol
_atom_site_label
_atom_site_fract_x
_atom_site_fract_y
_atom_site_fract_z
Si Si1 0.752337 0.102775 0.037662
Si Si2 0.331558 0.912248 0.241513
Si Si3 0.076023 0.367256 0.980973
Si Si4 0.268470 0.637613 0.792420
Si Si5 0.678927 0.836887 0.581750
Si Si6 0.882604 0.333166 0.719548
Si Si7 0.159311 0.844135 0.572946
Si Si8 0.611562 0.645392 0.056008
O O1 0.758227 0.224074 0.144395
O O2 0.520342 0.154086 0.261786
O O3 0.780111 0.075553 0.818017
O O4 0.938952 0.952215 0.889062
O O5 0.191444 0.947494 0.519955
O O6 0.525266 0.748586 0.032422
O O7 0.388920 0.012127 0.249983
O O8 0.217050 0.224418 0.697704
O O9 0.219143 0.356786 0.991207
O O10 0.000000 0.500000 0.000000
O O11 0.881529 0.378674 0.191276
O O12 0.500000 0.500000 0.500000
O O13 0.206464 0.646617 0.026587
O O14 0.877465 0.730322 0.482825
O O15 0.875827 0.229519 0.569779
O O16 0.727875 0.485505 0.843893
O O17 0.401145 0.718012 0.364907
#
# Coordination Sequence:
#
# PCOD9006268 Si02
#       8
#     2   2   2   2   2   2   2   2
#     4  12  22  40  64  97 126 164 212 259 308 366
#     4  10  22  39  63  92 122 161 209 258 309 367
#     4  11  21  42  65  86 125 169 209 246 310 382
#     4  11  23  37  67  93 119 162 213 256 299 373
#     4  11  23  37  69  89 125 170 211 251 307 381
#     4  11  20  41  67  93 122 167 207 255 317 368
#     4  10  21  38  65  92 127 156 212 254 314 363
#     4  10  23  38  66  92 124 166 208 255 318 366
#
# _framework density 23.212752999999999
#
# number of rings (size 3 to 8) (size 9 to 14) (size 15 to 20)
#    0.750    0.500    5.000    3.375    0.000    0.500 
#    0.000    2.500    2.750    0.000    0.000    0.000 
#    0.000    0.000    0.000    0.000    0.000    0.000 
#
# Total GULP energy -89281.297468 kJ/mol
# GULP energy per Si atom -5580.081092 kJ/mol
# Density = 2.315992 g / cm^3
# Si number density = 23.212753 Si / 1000 Ang^3
#
#
#
# Elastic Constant Matrix: (Units=GPa)
#
#
# Indices 1 2 3 4 5 6 
#
# 1 106.2262 36.6765 35.7017 12.7276 -29.5258 27.0934
# 2 36.6765 85.9027 56.2113 35.1748 -15.8878 19.7009
# 3 35.7017 56.2113 140.7072 21.0193 -43.6688 17.8695
# 4 12.7276 35.1748 21.0193 37.0052 5.9765 -5.6189
# 5 -29.5258 -15.8878 -43.6688 5.9765 48.6495 -5.7907
# 6 27.0934 19.7009 17.8695 -5.6189 -5.7907 37.4414
#
#
#
# Elastic Compliance Matrix: (Units=1/GPa)
#
#
# Indices 1 2 3 4 5 6 
#
# 1 0.016999 0.003120 0.003048 -0.015172 0.014091 -0.015495
# 2 0.003120 0.036319 -0.001665 -0.040681 0.014346 -0.024460
# 3 0.003048 -0.001665 0.014017 -0.010872 0.014339 -0.007433
# 4 -0.015172 -0.040681 -0.010872 0.090079 -0.037935 0.045224
# 5 0.014091 0.014346 0.014339 -0.037935 0.048614 -0.022763
# 6 -0.015495 -0.024460 -0.007433 0.045224 -0.022763 0.057605
#
#
# Mechanical properties :
#
#
# Convention : Reuss Voigt Hill
#
# Bulk Modulus (GPa) = 13.09921 65.55720 39.32821
# Shear Modulus (GPa) = 17.85247 38.23566 28.04406
#
# Velocity S-wave (km/s) = 2.77624 4.06295 3.47959
# Velocity P-wave (km/s) = 3.99149 7.09319 5.75523
#
# Compressibility (1/GPa) = 0.07634049
#
# Stress axis : x y z
#
# Youngs Moduli (GPa) = 58.82829 27.53359 71.34260
#
# Poissons Ratio (x) = -0.08591 -0.21744
# Poissons Ratio (y) = -0.18355 0.11879
# Poissons Ratio (z) = -0.17930 0.04585
#
# Static dielectric constant tensor:
#      x y z
#    x 1.875930 -0.061170 -0.018570 
#    y -0.061170 1.937880 -0.020470 
#    z -0.018570 -0.020470 1.961960 
# 
# From -- ./inp_files/434189.got.cif
#   From: 2010.05.17/outbox.cif.g08.bks.cpg/sg2_218_cif.got.tgz:434189.got - 2010.06.03 11:33:40.
