data_PCOD9006003
_publ_section_title
;
Structure prediction by ZEFSAII (Michael W. Deem and Ramdas Pophale) SiO2 
 PCOD9006003
Probable space group: P -1
;
_chemical_formula_sum "Si O2"
_cell_formula_units_Z 16
_cell_length_a 9.864630
_cell_length_b 12.303297
_cell_length_c 11.384133
_cell_angle_alpha 60.797957
_cell_angle_beta 63.123621
_cell_angle_gamma 36.297579
_cell_volume 709.317433
_symmetry_space_group_name_H-M "P -1"
_symmetry_group_IT_number 2
_symmetry_cell_setting 'triclinic'
loop_
_space_group_symop_operation_xyz
x,y,z
-x,-y,-z
loop_
_atom_site_type_symbol
_atom_site_label
_atom_site_fract_x
_atom_site_fract_y
_atom_site_fract_z
Si Si1 0.250634 0.231145 0.344798
Si Si2 0.880788 0.106171 0.865751
Si Si3 0.588304 0.466147 0.113847
Si Si4 0.536568 0.695389 0.637426
Si Si5 0.545751 0.838975 0.330179
Si Si6 0.556911 0.111090 0.917086
Si Si7 0.177251 0.438771 0.056089
Si Si8 0.955690 0.732846 0.351943
O O1 0.456096 0.182632 0.353063
O O2 0.130246 0.405734 0.216154
O O3 0.105124 0.268200 0.490340
O O4 0.341549 0.063877 0.316310
O O5 0.628843 0.329646 0.850104
O O6 0.808036 0.020860 0.877170
O O7 0.030879 0.126235 0.741875
O O8 0.000000 0.000000 0.000000
O O9 0.626062 0.312005 0.244462
O O10 0.500000 0.500000 0.000000
O O11 0.801850 0.426623 0.034328
O O12 0.505522 0.754082 0.484597
O O13 0.794422 0.480064 0.660513
O O14 0.544209 0.791171 0.223122
O O15 0.771233 0.777828 0.315836
O O16 0.423557 0.238139 0.019199
O O17 0.500000 0.000000 0.000000
O O18 0.000000 0.500000 0.000000
#
# Coordination Sequence:
#
# PCOD9006003 Si02
#       8
#     2   2   2   2   2   2   2   2
#     4  11  21  39  61  90 122 155 206 242 300 358
#     4  10  23  40  62  88 120 161 200 249 298 358
#     4  10  21  40  62  88 118 152 206 248 291 360
#     4  10  21  38  64  92 117 159 204 246 301 356
#     4  11  22  38  63  89 124 160 194 254 300 356
#     4  11  23  42  60  90 123 156 204 246 305 356
#     4  11  25  39  61  90 122 159 199 251 304 353
#     4  10  22  38  63  92 117 160 204 245 300 359
#
# _framework density 22.556895999999998
#
# number of rings (size 3 to 8) (size 9 to 14) (size 15 to 20)
#    0.000    1.500    2.500    3.750    5.250    2.000 
#    2.250    2.500    0.000    0.000    0.000    0.000 
#    0.000    0.000    0.000    0.000    0.000    0.000 
#
# Total GULP energy -89308.062950 kJ/mol
# GULP energy per Si atom -5581.753934 kJ/mol
# Density = 2.250556 g / cm^3
# Si number density = 22.556896 Si / 1000 Ang^3
#
#
#
# Elastic Constant Matrix: (Units=GPa)
#
#
# Indices 1 2 3 4 5 6 
#
# 1 140.0262 -2.6756 94.3867 -1.8307 -27.1893 4.3514
# 2 -2.6756 52.5695 -2.9037 -2.3433 -12.3072 8.2341
# 3 94.3867 -2.9037 199.2330 -21.2791 -22.1182 4.9458
# 4 -1.8307 -2.3433 -21.2791 20.4360 11.0461 -3.8665
# 5 -27.1893 -12.3072 -22.1182 11.0461 48.8539 -3.4653
# 6 4.3514 8.2341 4.9458 -3.8665 -3.4653 24.4176
#
#
#
# Elastic Compliance Matrix: (Units=1/GPa)
#
#
# Indices 1 2 3 4 5 6 
#
# 1 0.012470 0.001750 -0.006059 -0.008898 0.006503 -0.002071
# 2 0.001750 0.021646 0.000163 -0.002015 0.006456 -0.007047
# 3 -0.006059 0.000163 0.008725 0.009465 -0.001482 0.000546
# 4 -0.008898 -0.002015 0.009465 0.068050 -0.015932 0.008863
# 5 0.006503 0.006456 -0.001482 -0.015932 0.028539 -0.001509
# 6 -0.002071 -0.007047 0.000546 0.008863 -0.001509 0.044778
#
#
# Mechanical properties :
#
#
# Convention : Reuss Voigt Hill
#
# Bulk Modulus (GPa) = 28.94467 63.27151 46.10809
# Shear Modulus (GPa) = 24.50784 38.94291 31.72537
#
# Velocity S-wave (km/s) = 3.29977 4.15954 3.75435
# Velocity P-wave (km/s) = 5.23237 7.15400 6.26727
#
# Compressibility (1/GPa) = 0.03454868
#
# Stress axis : x y z
#
# Youngs Moduli (GPa) = 80.19302 46.19782 114.61346
#
# Poissons Ratio (x) = -0.08085 0.69446
# Poissons Ratio (y) = -0.14035 -0.01867
# Poissons Ratio (z) = 0.48590 -0.00752
#
# Static dielectric constant tensor:
#      x y z
#    x 1.844360 0.004390 -0.065090 
#    y 0.004390 1.948730 0.020310 
#    z -0.065090 0.020310 1.847120 
# 
# From -- ./inp_files/244169.got.cif
#   From: 2010.05.17/outbox.cif.g08.bks.cpg/sg2_123_cif.got.tgz:244169.got - 2010.06.03 11:33:40.
