data_PCOD9006745
_publ_section_title
;
Structure prediction by ZEFSAII (Michael W. Deem and Ramdas Pophale) SiO2 
 PCOD9006745
Probable space group: P -1
;
_chemical_formula_sum "Si O2"
_cell_formula_units_Z 10
_cell_length_a 11.703119
_cell_length_b 7.922584
_cell_length_c 4.945184
_cell_angle_alpha 89.444052
_cell_angle_beta 68.412979
_cell_angle_gamma 67.239480
_cell_volume 388.419964
_symmetry_space_group_name_H-M "P -1"
_symmetry_group_IT_number 2
_symmetry_cell_setting 'triclinic'
loop_
_space_group_symop_operation_xyz
x,y,z
-x,-y,-z
loop_
_atom_site_type_symbol
_atom_site_label
_atom_site_fract_x
_atom_site_fract_y
_atom_site_fract_z
Si Si1 0.627572 0.542661 0.447130
Si Si2 0.283748 0.981121 0.859600
Si Si3 0.662023 0.857715 0.683722
Si Si4 0.777741 0.346507 0.835981
Si Si5 0.055716 0.306665 0.796723
O O1 0.500000 0.500000 0.500000
O O2 0.588524 0.737385 0.628404
O O3 0.703699 0.522878 0.096791
O O4 0.272513 0.605423 0.425595
O O5 0.356802 0.066137 0.002231
O O6 0.269806 0.805604 0.999938
O O7 0.348605 0.975620 0.509987
O O8 0.131254 0.137310 0.939344
O O9 0.820783 0.714783 0.508639
O O10 0.935565 0.285281 0.742139
O O11 0.000000 0.500000 0.000000
#
# Coordination Sequence:
#
# PCOD9006745 Si02
#       5
#     2   2   2   2   2
#     4  12  26  45  65  89 123 172 222 255 299 371
#     4  10  23  39  63 102 130 156 201 257 327 373
#     4  10  22  41  64  90 131 162 209 246 317 372
#     4  12  24  41  67  96 127 162 207 265 315 360
#     4  10  21  38  68  95 131 159 205 248 320 384
#
# _framework density 25.745329999999999
#
# number of rings (size 3 to 8) (size 9 to 14) (size 15 to 20)
#    1.200    0.000    2.000    4.800    2.800    2.400 
#    0.000    6.000    0.000    0.000    0.000    0.000 
#    0.000    0.000    0.000    0.000    0.000    0.000 
#
# Total GULP energy -56034.990943 kJ/mol
# GULP energy per Si atom -5603.499094 kJ/mol
# Density = 2.568673 g / cm^3
# Si number density = 25.745330 Si / 1000 Ang^3
#
#
#
# Elastic Constant Matrix: (Units=GPa)
#
#
# Indices 1 2 3 4 5 6 
#
# 1 199.0708 24.7497 22.0200 -8.3655 11.5137 4.5828
# 2 24.7497 87.3967 -3.5285 -2.0223 1.2067 15.4536
# 3 22.0200 -3.5285 90.8296 8.9147 16.1636 0.1204
# 4 -8.3655 -2.0223 8.9147 42.4003 -1.5292 -3.0342
# 5 11.5137 1.2067 16.1636 -1.5292 44.0964 -3.0273
# 6 4.5828 15.4536 0.1204 -3.0342 -3.0273 44.5028
#
#
#
# Elastic Compliance Matrix: (Units=1/GPa)
#
#
# Indices 1 2 3 4 5 6 
#
# 1 0.005470 -0.001565 -0.001361 0.001261 -0.000842 0.000013
# 2 -0.001565 0.012691 0.001012 -0.000247 -0.000614 -0.004307
# 3 -0.001361 0.001012 0.012462 -0.003053 -0.004398 -0.000752
# 4 0.001261 -0.000247 -0.003053 0.024654 0.001773 0.001766
# 5 -0.000842 -0.000614 -0.004398 0.001773 0.024733 0.002115
# 6 0.000013 -0.004307 -0.000752 0.001766 0.002115 0.024231
#
#
# Mechanical properties :
#
#
# Convention : Reuss Voigt Hill
#
# Bulk Modulus (GPa) = 37.32292 51.53106 44.42699
# Shear Modulus (GPa) = 42.73477 48.47029 45.60253
#
# Velocity S-wave (km/s) = 4.07861 4.34370 4.21324
# Velocity P-wave (km/s) = 6.05876 6.72429 6.40018
#
# Compressibility (1/GPa) = 0.02679318
#
# Stress axis : x y z
#
# Youngs Moduli (GPa) = 182.81905 78.79893 80.24341
#
# Poissons Ratio (x) = 0.12335 0.10920
# Poissons Ratio (y) = 0.28618 -0.08117
# Poissons Ratio (z) = 0.24879 -0.07971
#
# Static dielectric constant tensor:
#      x y z
#    x 1.998890 -0.034100 -0.029960 
#    y -0.034100 2.087000 0.039190 
#    z -0.029960 0.039190 1.960480 
# 
# From -- ./inp_files/17658.got.cif
#   From: 2010.05.17/outbox.cif.g08.bks.cpg/sg2_9_cif.got.tgz:17658.got - 2010.06.03 11:33:40.
