data_PCOD9006089
_publ_section_title
;
Structure prediction by ZEFSAII (Michael W. Deem and Ramdas Pophale) SiO2 
 PCOD9006089
Probable space group: P -1
;
_chemical_formula_sum "Si O2"
_cell_formula_units_Z 14
_cell_length_a 8.219001
_cell_length_b 10.369661
_cell_length_c 19.678368
_cell_angle_alpha 35.652439
_cell_angle_beta 130.687421
_cell_angle_gamma 113.755008
_cell_volume 710.042232
_symmetry_space_group_name_H-M "P -1"
_symmetry_group_IT_number 2
_symmetry_cell_setting 'triclinic'
loop_
_space_group_symop_operation_xyz
x,y,z
-x,-y,-z
loop_
_atom_site_type_symbol
_atom_site_label
_atom_site_fract_x
_atom_site_fract_y
_atom_site_fract_z
Si Si1 0.650673 0.640476 0.182619
Si Si2 0.168245 0.881866 0.535188
Si Si3 0.509845 0.841934 0.324745
Si Si4 0.068446 0.739317 0.427455
Si Si5 0.448938 0.191048 0.500394
Si Si6 0.373705 0.035059 0.843586
Si Si7 0.829110 0.412623 0.664431
O O1 0.668770 0.372403 0.295256
O O2 0.580693 0.757249 0.187550
O O3 0.907976 0.642959 0.243604
O O4 0.497085 0.803143 0.015602
O O5 0.028041 0.828338 0.456181
O O6 0.320142 0.044601 0.485221
O O7 0.000000 0.000000 0.500000
O O8 0.690432 0.585417 0.493365
O O9 0.522103 0.939415 0.361789
O O10 0.552174 0.955662 0.218078
O O11 0.266682 0.802972 0.269933
O O12 0.320751 0.753037 0.478466
O O13 0.000000 0.500000 0.500000
O O14 0.893761 0.914629 0.256028
O O15 0.266757 0.435813 0.360387
#
# Coordination Sequence:
#
# PCOD9006089 Si02
#       7
#     2   2   2   2   2   2   2
#     4  11  23  38  59  89 132 162 209 261 314 379
#     4  12  23  41  67  97 127 164 207 267 320 366
#     4   9  19  35  62  92 119 159 217 256 306 368
#     4  12  23  41  70  92 123 170 219 256 304 382
#     4  10  21  38  64  96 123 156 215 263 317 358
#     4  11  23  38  59  93 123 171 209 257 317 362
#     4   9  18  35  61  89 117 161 210 264 300 371
#
# _framework density 19.717137000000001
#
# number of rings (size 3 to 8) (size 9 to 14) (size 15 to 20)
#    0.857    0.571    2.857    3.857    0.000    0.571 
#    0.000    3.571    0.000    0.000    0.000    0.000 
#    0.000    0.000    0.000    0.000    0.000    0.000 
#
# Total GULP energy -77954.156989 kJ/mol
# GULP energy per Si atom -5568.154071 kJ/mol
# Density = 1.967226 g / cm^3
# Si number density = 19.717137 Si / 1000 Ang^3
#
#
#
# Elastic Constant Matrix: (Units=GPa)
#
#
# Indices 1 2 3 4 5 6 
#
# 1 81.8405 27.1551 5.2948 6.5275 -1.8492 0.6459
# 2 27.1551 116.6304 21.4331 -1.4590 0.2300 0.9342
# 3 5.2948 21.4331 91.4366 16.8423 4.7880 -8.3502
# 4 6.5275 -1.4590 16.8423 26.5980 -3.3035 3.5794
# 5 -1.8492 0.2300 4.7880 -3.3035 19.2826 4.8137
# 6 0.6459 0.9342 -8.3502 3.5794 4.8137 40.0455
#
#
#
# Elastic Compliance Matrix: (Units=1/GPa)
#
#
# Indices 1 2 3 4 5 6 
#
# 1 0.013610 -0.003358 0.000742 -0.003988 0.000397 0.000322
# 2 -0.003358 0.009956 -0.002979 0.003579 0.001228 -0.001267
# 3 0.000742 -0.002979 0.014385 -0.010915 -0.006538 0.004818
# 4 -0.003988 0.003579 -0.010915 0.048342 0.012597 -0.008130
# 5 0.000397 0.001228 -0.006538 0.012597 0.058037 -0.009501
# 6 0.000322 -0.001267 0.004818 -0.008130 -0.009501 0.027869
#
#
# Mechanical properties :
#
#
# Convention : Reuss Voigt Hill
#
# Bulk Modulus (GPa) = 37.36770 44.18594 40.77682
# Shear Modulus (GPa) = 26.00001 32.92019 29.46010
#
# Velocity S-wave (km/s) = 3.63526 4.09054 3.86960
# Velocity P-wave (km/s) = 6.05088 6.69093 6.37894
#
# Compressibility (1/GPa) = 0.02676108
#
# Stress axis : x y z
#
# Youngs Moduli (GPa) = 73.47676 100.44287 69.51914
#
# Poissons Ratio (x) = 0.33733 -0.05161
# Poissons Ratio (y) = 0.24677 0.20707
# Poissons Ratio (z) = -0.05455 0.29917
#
# Static dielectric constant tensor:
#      x y z
#    x 1.812310 -0.057490 -0.000440 
#    y -0.057490 1.736140 -0.009840 
#    z -0.000440 -0.009840 1.679150 
# 
# From -- ./inp_files/607201.got.cif
#   From: 2010.05.17/outbox.cif.g08.bks.cpg/sg2_304_cif.got.tgz:607201.got - 2010.06.03 11:33:40.
