data_PCOD9006345
_publ_section_title
;
Structure prediction by ZEFSAII (Michael W. Deem and Ramdas Pophale) SiO2 
 PCOD9006345
Probable space group: P -1
;
_chemical_formula_sum "Si O2"
_cell_formula_units_Z 16
_cell_length_a 8.920958
_cell_length_b 8.964522
_cell_length_c 17.781585
_cell_angle_alpha 82.021799
_cell_angle_beta 80.364311
_cell_angle_gamma 32.209096
_cell_volume 747.253562
_symmetry_space_group_name_H-M "P -1"
_symmetry_group_IT_number 2
_symmetry_cell_setting 'triclinic'
loop_
_space_group_symop_operation_xyz
x,y,z
-x,-y,-z
loop_
_atom_site_type_symbol
_atom_site_label
_atom_site_fract_x
_atom_site_fract_y
_atom_site_fract_z
Si Si1 0.311736 0.276610 0.454391
Si Si2 0.389721 0.753790 0.022318
Si Si3 0.842753 0.651143 0.708693
Si Si4 0.689943 0.848110 0.196106
Si Si5 0.279568 0.778332 0.545852
Si Si6 0.015451 0.853607 0.709946
Si Si7 0.516956 0.647498 0.193672
Si Si8 0.975930 0.361911 0.966167
O O1 0.264776 0.296134 0.368306
O O2 0.517050 0.249032 0.451632
O O3 0.000000 0.500000 0.500000
O O4 0.500000 0.000000 0.500000
O O5 0.421644 0.707780 0.112383
O O6 0.500000 0.500000 0.000000
O O7 0.639119 0.640748 0.971497
O O8 0.109724 0.093695 0.009119
O O9 0.112883 0.331513 0.734572
O O10 0.929210 0.755911 0.698579
O O11 0.595409 0.832121 0.777712
O O12 0.602252 0.751575 0.187377
O O13 0.869479 0.758836 0.118168
O O14 0.500000 0.500000 0.500000
O O15 0.173700 0.800532 0.632294
O O16 0.000000 0.000000 0.500000
O O17 0.215614 0.669749 0.778734
O O18 0.733788 0.171161 0.738840
O O19 0.000000 0.500000 0.000000
#
# Coordination Sequence:
#
# PCOD9006345 Si02
#       8
#     2   2   2   2   2   2   2   2
#     4  12  25  44  70 101 138 177 221 285 350 406
#     4  12  26  44  64  99 139 182 228 292 360 409
#     4  10  21  39  62  95 134 168 218 278 351 400
#     4  10  21  38  65  96 126 170 227 284 332 409
#     4  12  25  44  70 101 136 177 232 275 336 423
#     4  10  21  39  64  94 127 176 221 275 337 415
#     4  10  21  39  65  91 131 173 224 276 343 413
#     4  12  24  42  72  97 131 181 243 288 339 414
#
# _framework density 21.411740999999999
#
# number of rings (size 3 to 8) (size 9 to 14) (size 15 to 20)
#    0.000    1.000    1.250    6.000    3.500    2.000 
#    6.750    0.000    0.000    0.000    0.000    0.000 
#    0.000    0.000    0.000    0.000    0.000    0.000 
#
# Total GULP energy -89129.178345 kJ/mol
# GULP energy per Si atom -5570.573647 kJ/mol
# Density = 2.136301 g / cm^3
# Si number density = 21.411741 Si / 1000 Ang^3
#
#
#
# Elastic Constant Matrix: (Units=GPa)
#
#
# Indices 1 2 3 4 5 6 
#
# 1 79.6763 30.3569 49.0131 3.8398 -4.7956 -18.5440
# 2 30.3569 109.0452 16.2495 -5.0901 12.2850 -21.4963
# 3 49.0131 16.2495 134.1844 -0.8143 1.5614 -4.7881
# 4 3.8398 -5.0901 -0.8143 33.3558 -16.6643 -7.8991
# 5 -4.7956 12.2850 1.5614 -16.6643 31.4146 8.5615
# 6 -18.5440 -21.4963 -4.7881 -7.8991 8.5615 33.5110
#
#
#
# Elastic Compliance Matrix: (Units=1/GPa)
#
#
# Indices 1 2 3 4 5 6 
#
# 1 0.019702 -0.003421 -0.006561 0.000131 0.002811 0.007083
# 2 -0.003421 0.012585 0.000108 0.000574 -0.007384 0.008217
# 3 -0.006561 0.000108 0.009780 0.000075 -0.000973 -0.001898
# 4 0.000131 0.000574 0.000075 0.041435 0.020408 0.005005
# 5 0.002811 -0.007384 -0.000973 0.020408 0.049031 -0.011036
# 6 0.007083 0.008217 -0.001898 0.005005 -0.011036 0.042760
#
#
# Mechanical properties :
#
#
# Convention : Reuss Voigt Hill
#
# Bulk Modulus (GPa) = 44.80563 57.12721 50.96642
# Shear Modulus (GPa) = 24.69368 34.80869 29.75119
#
# Velocity S-wave (km/s) = 3.39968 4.03635 3.73162
# Velocity P-wave (km/s) = 6.03171 6.96140 6.51316
#
# Compressibility (1/GPa) = 0.02231862
#
# Stress axis : x y z
#
# Youngs Moduli (GPa) = 50.75647 79.45707 102.24924
#
# Poissons Ratio (x) = 0.27184 0.67089
# Poissons Ratio (y) = 0.17365 -0.01107
# Poissons Ratio (z) = 0.33303 -0.00860
#
# Static dielectric constant tensor:
#      x y z
#    x 1.746810 0.021370 -0.008030 
#    y 0.021370 1.748200 -0.008490 
#    z -0.008030 -0.008490 1.746350 
# 
# From -- ./inp_files/226226.got.cif
#   From: 2010.05.17/outbox.cif.g08.bks.cpg/sg2_114_cif.got.tgz:226226.got - 2010.06.03 11:33:40.
