data_PCOD9006628
_publ_section_title
;
Structure prediction by ZEFSAII (Michael W. Deem and Ramdas Pophale) SiO2 
 PCOD9006628
Probable space group: P -1
;
_chemical_formula_sum "Si O2"
_cell_formula_units_Z 12
_cell_length_a 16.055167
_cell_length_b 9.483459
_cell_length_c 9.847071
_cell_angle_alpha 40.029689
_cell_angle_beta 32.776863
_cell_angle_gamma 47.649640
_cell_volume 520.132749
_symmetry_space_group_name_H-M "P -1"
_symmetry_group_IT_number 2
_symmetry_cell_setting 'triclinic'
loop_
_space_group_symop_operation_xyz
x,y,z
-x,-y,-z
loop_
_atom_site_type_symbol
_atom_site_label
_atom_site_fract_x
_atom_site_fract_y
_atom_site_fract_z
Si Si1 0.258982 0.129124 0.324635
Si Si2 0.471436 0.753024 0.315790
Si Si3 0.789112 0.614377 0.296950
Si Si4 0.036130 0.245137 0.308116
Si Si5 0.473672 0.812553 0.565177
Si Si6 0.832360 0.967919 0.196745
O O1 0.117440 0.227829 0.355866
O O2 0.237715 0.168407 0.483578
O O3 0.297952 0.862495 0.446404
O O4 0.413280 0.210454 0.990017
O O5 0.500000 0.500000 0.500000
O O6 0.514819 0.871952 0.309539
O O7 0.603667 0.615825 0.561955
O O8 0.835930 0.826681 0.160280
O O9 0.880735 0.404009 0.392493
O O10 0.848380 0.653865 0.033762
O O11 0.000000 0.000000 0.500000
O O12 0.500000 0.000000 0.500000
O O13 0.287449 0.813363 0.817283
O O14 0.000000 0.000000 0.000000
#
# Coordination Sequence:
#
# PCOD9006628 Si02
#       6
#     2   2   2   2   2   2
#     4  10  22  39  61  94 127 157 214 270 302 384
#     4  10  21  38  67  93 123 167 213 262 327 380
#     4  10  22  41  62  89 131 173 207 261 332 374
#     4  11  23  37  63  91 128 167 216 261 313 389
#     4   9  19  39  64  90 125 167 207 260 324 380
#     4  10  21  40  67  94 129 170 213 268 326 383
#
# _framework density 23.071034999999998
#
# number of rings (size 3 to 8) (size 9 to 14) (size 15 to 20)
#    0.000    2.000    1.667    1.000    2.333    3.333 
#    0.000    5.000    0.000   14.000    0.000    0.000 
#    0.000    0.000    0.000    0.000    0.000    0.000 
#
# Total GULP energy -66929.366846 kJ/mol
# GULP energy per Si atom -5577.447237 kJ/mol
# Density = 2.301852 g / cm^3
# Si number density = 23.071035 Si / 1000 Ang^3
#
#
#
# Elastic Constant Matrix: (Units=GPa)
#
#
# Indices 1 2 3 4 5 6 
#
# 1 109.4396 40.5390 11.7702 17.5307 -1.4255 -30.8195
# 2 40.5390 120.0627 25.3944 12.6132 -8.6120 -57.9112
# 3 11.7702 25.3944 42.7917 9.3262 7.4987 -1.1866
# 4 17.5307 12.6132 9.3262 30.0585 -8.6423 -3.5093
# 5 -1.4255 -8.6120 7.4987 -8.6423 44.9451 17.6436
# 6 -30.8195 -57.9112 -1.1866 -3.5093 17.6436 60.8240
#
#
#
# Elastic Compliance Matrix: (Units=1/GPa)
#
#
# Indices 1 2 3 4 5 6 
#
# 1 0.012243 -0.000369 -0.000862 -0.006944 -0.003394 0.006419
# 2 -0.000369 0.020073 -0.009990 -0.003654 -0.002789 0.019328
# 3 -0.000862 -0.009990 0.031981 -0.007782 -0.005571 -0.008157
# 4 -0.006944 -0.003654 -0.007782 0.043763 0.011971 -0.008097
# 5 -0.003394 -0.002789 -0.005571 0.011971 0.029711 -0.012411
# 6 0.006419 0.019328 -0.008157 -0.008097 -0.012411 0.041069
#
#
# Mechanical properties :
#
#
# Convention : Reuss Voigt Hill
#
# Bulk Modulus (GPa) = 23.89259 47.52234 35.70747
# Shear Modulus (GPa) = 23.23066 40.13824 31.68445
#
# Velocity S-wave (km/s) = 3.17664 4.17558 3.70988
# Velocity P-wave (km/s) = 4.88194 6.62497 5.81909
#
# Compressibility (1/GPa) = 0.04185398
#
# Stress axis : x y z
#
# Youngs Moduli (GPa) = 81.68140 49.81819 31.26895
#
# Poissons Ratio (x) = 0.01840 0.02696
# Poissons Ratio (y) = 0.03016 0.31237
# Poissons Ratio (z) = 0.07043 0.49767
#
# Static dielectric constant tensor:
#      x y z
#    x 1.909090 -0.038790 -0.034750 
#    y -0.038790 1.941160 -0.014140 
#    z -0.034750 -0.014140 1.893100 
# 
# From -- ./inp_files/67508.got.cif
#   From: 2010.05.17/outbox.cif.g08.bks.cpg/sg2_34_cif.got.tgz:67508.got - 2010.06.03 11:33:40.
