data_PCOD9006162
_publ_section_title
;
Structure prediction by ZEFSAII (Michael W. Deem and Ramdas Pophale) SiO2 
 PCOD9006162
Probable space group: P -1
;
_chemical_formula_sum "Si O2"
_cell_formula_units_Z 14
_cell_length_a 8.493697
_cell_length_b 14.036255
_cell_length_c 14.015284
_cell_angle_alpha 19.637917
_cell_angle_beta 98.210783
_cell_angle_gamma 94.478233
_cell_volume 547.734910
_symmetry_space_group_name_H-M "P -1"
_symmetry_group_IT_number 2
_symmetry_cell_setting 'triclinic'
loop_
_space_group_symop_operation_xyz
x,y,z
-x,-y,-z
loop_
_atom_site_type_symbol
_atom_site_label
_atom_site_fract_x
_atom_site_fract_y
_atom_site_fract_z
Si Si1 0.608742 0.205219 0.687935
Si Si2 0.895309 0.233454 0.559823
Si Si3 0.029212 0.755211 0.151675
Si Si4 0.301251 0.332185 0.108411
Si Si5 0.682836 0.736349 0.292796
Si Si6 0.648354 0.119749 0.300663
Si Si7 0.992395 0.055881 0.333624
O O1 0.725804 0.155941 0.654669
O O2 0.597797 0.538609 0.400381
O O3 0.424691 0.161946 0.719491
O O4 0.687658 0.011891 0.967134
O O5 0.901983 0.546940 0.307949
O O6 0.935595 0.212488 0.473001
O O7 0.029911 0.970825 0.860011
O O8 0.832983 0.504591 0.558473
O O9 0.000000 0.000000 0.000000
O O10 0.458381 0.203962 0.178761
O O11 0.124636 0.265035 0.129793
O O12 0.331832 0.183691 0.356479
O O13 0.320103 0.657766 0.822983
O O14 0.797583 0.133193 0.229098
O O15 0.000000 0.000000 0.500000
#
# Coordination Sequence:
#
# PCOD9006162 Si02
#       7
#     2   2   2   2   2   2   2
#     4  10  21  38  65 100 132 172 231 266 344 429
#     4  12  26  40  66 103 134 179 241 280 337 433
#     4  12  25  43  68  99 138 179 224 285 356 414
#     4   9  18  35  63  91 121 167 220 280 342 390
#     4  10  21  40  66  95 133 182 209 282 352 409
#     4   9  18  35  63  93 120 165 225 275 336 408
#     4  10  23  44  68  97 139 187 233 290 349 396
#
# _framework density 25.559809999999999
#
# number of rings (size 3 to 8) (size 9 to 14) (size 15 to 20)
#    0.000    1.714    1.429    2.571    0.000    4.571 
#    2.571    0.000    6.286    0.000    0.000    0.000 
#    0.000    0.000    0.000    0.000    0.000    0.000 
#
# Total GULP energy -77951.300132 kJ/mol
# GULP energy per Si atom -5567.950009 kJ/mol
# Density = 2.550163 g / cm^3
# Si number density = 25.559810 Si / 1000 Ang^3
#
#
#
# Elastic Constant Matrix: (Units=GPa)
#
#
# Indices 1 2 3 4 5 6 
#
# 1 192.1022 66.4588 41.2662 -12.0340 -20.4030 -45.6995
# 2 66.4588 92.1395 30.8573 -1.6267 -2.3458 -33.9431
# 3 41.2662 30.8573 152.9409 -9.4761 0.8435 -0.9471
# 4 -12.0340 -1.6267 -9.4761 17.8446 3.1213 -0.6216
# 5 -20.4030 -2.3458 0.8435 3.1213 33.6303 -7.1044
# 6 -45.6995 -33.9431 -0.9471 -0.6216 -7.1044 41.7897
#
#
#
# Elastic Compliance Matrix: (Units=1/GPa)
#
#
# Indices 1 2 3 4 5 6 
#
# 1 0.010029 -0.002561 -0.001887 0.004539 0.007691 0.010220
# 2 -0.002561 0.018342 -0.003052 -0.001695 0.002588 0.012443
# 3 -0.001887 -0.003052 0.007831 0.002938 -0.002842 -0.004805
# 4 0.004539 -0.001695 0.002938 0.061040 -0.002220 0.004183
# 5 0.007691 0.002588 -0.002842 -0.002220 0.038440 0.016950
# 6 0.010220 0.012443 -0.004805 0.004183 0.016950 0.048047
#
#
# Mechanical properties :
#
#
# Convention : Reuss Voigt Hill
#
# Bulk Modulus (GPa) = 47.16488 79.37190 63.26839
# Shear Modulus (GPa) = 24.29573 38.55961 31.42767
#
# Velocity S-wave (km/s) = 3.08643 3.88829 3.51033
# Velocity P-wave (km/s) = 5.58518 7.16095 6.42158
#
# Compressibility (1/GPa) = 0.02120222
#
# Stress axis : x y z
#
# Youngs Moduli (GPa) = 99.70711 54.51831 127.69132
#
# Poissons Ratio (x) = 0.13964 0.24099
# Poissons Ratio (y) = 0.25538 0.38971
# Poissons Ratio (z) = 0.18817 0.16639
#
# Static dielectric constant tensor:
#      x y z
#    x 2.325660 0.005410 0.013040 
#    y 0.005410 2.054180 0.039920 
#    z 0.013040 0.039920 1.982440 
# 
# From -- ./inp_files/34469.got.cif
#   From: 2010.05.17/outbox.cif.g08.bks.cpg/sg2_18_cif.got.tgz:34469.got - 2010.06.03 11:33:40.
