data_PCOD9006259
_publ_section_title
;
Structure prediction by ZEFSAII (Michael W. Deem and Ramdas Pophale) SiO2 
 PCOD9006259
Probable space group: P -1
;
_chemical_formula_sum "Si O2"
_cell_formula_units_Z 10
_cell_length_a 15.957613
_cell_length_b 5.136352
_cell_length_c 4.936671
_cell_angle_alpha 87.205475
_cell_angle_beta 107.128605
_cell_angle_gamma 92.618161
_cell_volume 386.014200
_symmetry_space_group_name_H-M "P -1"
_symmetry_group_IT_number 2
_symmetry_cell_setting 'triclinic'
loop_
_space_group_symop_operation_xyz
x,y,z
-x,-y,-z
loop_
_atom_site_type_symbol
_atom_site_label
_atom_site_fract_x
_atom_site_fract_y
_atom_site_fract_z
Si Si1 0.629504 0.413326 0.096401
Si Si2 0.422828 0.079520 0.228793
Si Si3 0.903431 0.671487 0.582833
Si Si4 0.001635 0.782140 0.163200
Si Si5 0.717523 0.626048 0.688950
O O1 0.566912 0.632054 0.901292
O O2 0.714771 0.471615 0.978766
O O3 0.593241 0.128353 0.010960
O O4 0.654624 0.474574 0.422250
O O5 0.331708 0.108586 0.304802
O O6 0.500000 0.000000 0.500000
O O7 0.923780 0.362913 0.572577
O O8 0.809766 0.671517 0.634087
O O9 0.918879 0.783665 0.291141
O O10 0.957429 0.905064 0.808023
O O11 0.000000 0.500000 0.000000
#
# Coordination Sequence:
#
# PCOD9006259 Si02
#       5
#     2   2   2   2   2
#     4  10  24  41  67  95 132 176 221 271 330 393
#     4  10  24  44  67  98 132 176 222 272 328 395
#     4  10  21  41  59  92 133 164 222 271 325 399
#     4  10  21  38  65  92 123 173 217 266 332 396
#     4  10  24  41  64  96 134 174 218 274 333 388
#
# _framework density 25.905781999999999
#
# number of rings (size 3 to 8) (size 9 to 14) (size 15 to 20)
#    1.200    0.800    0.000    2.400    2.800    3.200 
#    0.000    0.000    0.000    0.000    0.000    0.000 
#    0.000    0.000    0.000    0.000    0.000    0.000 
#
# Total GULP energy -55808.766707 kJ/mol
# GULP energy per Si atom -5580.876671 kJ/mol
# Density = 2.584682 g / cm^3
# Si number density = 25.905782 Si / 1000 Ang^3
#
#
#
# Elastic Constant Matrix: (Units=GPa)
#
#
# Indices 1 2 3 4 5 6 
#
# 1 100.4309 37.3099 -0.1623 -8.1146 -34.6550 3.1095
# 2 37.3099 197.0140 48.3024 -4.4249 -5.3907 -4.6573
# 3 -0.1623 48.3024 137.8963 15.9750 -23.8784 -2.0793
# 4 -8.1146 -4.4249 15.9750 56.4041 8.5288 -4.8141
# 5 -34.6550 -5.3907 -23.8784 8.5288 43.8304 2.1141
# 6 3.1095 -4.6573 -2.0793 -4.8141 2.1141 22.0079
#
#
#
# Elastic Compliance Matrix: (Units=1/GPa)
#
#
# Indices 1 2 3 4 5 6 
#
# 1 0.016887 -0.003974 0.004296 -0.001894 0.015801 -0.004753
# 2 -0.003974 0.006606 -0.003281 0.001780 -0.004583 0.002479
# 3 0.004296 -0.003281 0.010544 -0.004273 0.009673 -0.002169
# 4 -0.001894 0.001780 -0.004273 0.020461 -0.007852 0.005470
# 5 0.015801 -0.004583 0.009673 -0.007852 0.041930 -0.008034
# 6 -0.004753 0.002479 -0.002169 0.005470 -0.008034 0.048398
#
#
# Mechanical properties :
#
#
# Convention : Reuss Voigt Hill
#
# Bulk Modulus (GPa) = 35.56452 67.36012 51.46232
# Shear Modulus (GPa) = 31.22748 47.77457 39.50103
#
# Velocity S-wave (km/s) = 3.47569 4.29903 3.90910
# Velocity P-wave (km/s) = 5.46493 7.12044 6.34689
#
# Compressibility (1/GPa) = 0.02811791
#
# Stress axis : x y z
#
# Youngs Moduli (GPa) = 59.21825 151.37936 94.84503
#
# Poissons Ratio (x) = 0.60153 -0.40742
# Poissons Ratio (y) = 0.23531 0.31119
# Poissons Ratio (z) = -0.25438 0.49668
#
# Static dielectric constant tensor:
#      x y z
#    x 2.042070 0.139250 -0.144730 
#    y 0.139250 1.885820 0.165210 
#    z -0.144730 0.165210 1.693450 
# 
# From -- ./inp_files/102014.got.cif
#   From: 2010.05.17/outbox.cif.g08.bks.cpg/sg2_52_cif.got.tgz:102014.got - 2010.06.03 11:33:40.
