data_PCOD9006534
_publ_section_title
;
Structure prediction by ZEFSAII (Michael W. Deem and Ramdas Pophale) SiO2 
 PCOD9006534
Probable space group: P -1
;
_chemical_formula_sum "Si O2"
_cell_formula_units_Z 14
_cell_length_a 11.468551
_cell_length_b 8.899903
_cell_length_c 19.756458
_cell_angle_alpha 110.897929
_cell_angle_beta 159.194084
_cell_angle_gamma 68.679898
_cell_volume 666.392122
_symmetry_space_group_name_H-M "P -1"
_symmetry_group_IT_number 2
_symmetry_cell_setting 'triclinic'
loop_
_space_group_symop_operation_xyz
x,y,z
-x,-y,-z
loop_
_atom_site_type_symbol
_atom_site_label
_atom_site_fract_x
_atom_site_fract_y
_atom_site_fract_z
Si Si1 0.314518 0.198855 0.470984
Si Si2 0.608234 0.315432 0.512215
Si Si3 0.653600 0.658086 0.139635
Si Si4 0.745080 0.027379 0.077542
Si Si5 0.057077 0.744730 0.117765
Si Si6 0.737271 0.620541 0.796684
Si Si7 0.040857 0.523036 0.446412
O O1 0.506241 0.229303 0.510541
O O2 0.599483 0.174357 0.677386
O O3 0.096987 0.357160 0.406688
O O4 0.076595 0.066659 0.301670
O O5 0.500000 0.500000 0.500000
O O6 0.364757 0.287165 0.312880
O O7 0.993882 0.307250 0.698714
O O8 0.747100 0.623937 0.263376
O O9 0.500000 0.500000 0.000000
O O10 0.397317 0.813386 0.014598
O O11 0.797604 0.869050 0.034517
O O12 0.500000 0.000000 0.000000
O O13 0.106663 0.567568 0.153064
O O14 0.959208 0.709427 0.982799
O O15 0.382239 0.603333 0.635452
O O16 0.000000 0.500000 0.500000
#
# Coordination Sequence:
#
# PCOD9006534 Si02
#       7
#     2   2   2   2   2   2   2
#     4  11  22  42  63  98 125 178 224 267 331 389
#     4  11  18  39  70  91 128 167 228 275 307 400
#     4  11  22  42  66 102 129 174 221 266 334 387
#     4  12  26  40  66 101 139 172 218 281 333 392
#     4  10  21  41  63  92 131 166 222 258 328 391
#     4   9  21  39  67  95 120 176 222 265 329 392
#     4  10  21  38  66  96 133 167 222 273 327 391
#
# _framework density 21.008652999999999
#
# number of rings (size 3 to 8) (size 9 to 14) (size 15 to 20)
#    0.000    1.429    5.714    1.286    2.000    1.143 
#   10.286    3.571    3.143    0.000    0.000    0.000 
#    0.000    0.000    0.000    0.000    0.000    0.000 
#
# Total GULP energy -78160.079971 kJ/mol
# GULP energy per Si atom -5582.862855 kJ/mol
# Density = 2.096084 g / cm^3
# Si number density = 21.008653 Si / 1000 Ang^3
#
#
#
# Elastic Constant Matrix: (Units=GPa)
#
#
# Indices 1 2 3 4 5 6 
#
# 1 109.8790 44.2435 58.6587 5.9112 -23.9423 -1.1129
# 2 44.2435 89.0135 69.7001 -14.7522 -10.1156 -14.6947
# 3 58.6587 69.7001 115.3238 4.0226 -32.0970 -7.9306
# 4 5.9112 -14.7522 4.0226 34.4928 0.3542 3.7065
# 5 -23.9423 -10.1156 -32.0970 0.3542 34.4510 0.0443
# 6 -1.1129 -14.6947 -7.9306 3.7065 0.0443 24.2492
#
#
#
# Elastic Compliance Matrix: (Units=1/GPa)
#
#
# Indices 1 2 3 4 5 6 
#
# 1 0.014138 -0.006283 -0.001621 -0.004667 0.006522 -0.002987
# 2 -0.006283 0.033824 -0.021066 0.016991 -0.014251 0.010747
# 3 -0.001621 -0.021066 0.027686 -0.011937 0.018607 -0.001995
# 4 -0.004667 0.016991 -0.011937 0.038518 -0.009773 0.000308
# 5 0.006522 -0.014251 0.018607 -0.009773 0.046812 -0.000843
# 6 -0.002987 0.010747 -0.001995 0.000308 -0.000843 0.046916
#
#
# Mechanical properties :
#
#
# Convention : Reuss Voigt Hill
#
# Bulk Modulus (GPa) = 56.47761 73.26899 64.87330
# Shear Modulus (GPa) = 18.40008 28.07956 23.23982
#
# Velocity S-wave (km/s) = 2.96266 3.65988 3.32957
# Velocity P-wave (km/s) = 6.21647 7.26712 6.76223
#
# Compressibility (1/GPa) = 0.01770613
#
# Stress axis : x y z
#
# Youngs Moduli (GPa) = 70.72912 29.56524 36.11937
#
# Poissons Ratio (x) = 0.18577 0.05856
# Poissons Ratio (y) = 0.44442 0.76090
# Poissons Ratio (z) = 0.11466 0.62283
#
# Static dielectric constant tensor:
#      x y z
#    x 1.781490 0.017780 -0.003840 
#    y 0.017780 1.793580 -0.034850 
#    z -0.003840 -0.034850 1.807980 
# 
# From -- ./inp_files/308438.got.cif
#   From: 2010.05.17/outbox.cif.g08.bks.cpg/sg2_155_cif.got.tgz:308438.got - 2010.06.03 11:33:40.
