data_PCOD9006945
_publ_section_title
;
Structure prediction by ZEFSAII (Michael W. Deem and Ramdas Pophale) SiO2 
 PCOD9006945
Probable space group: P -1
;
_chemical_formula_sum "Si O2"
_cell_formula_units_Z 16
_cell_length_a 13.688575
_cell_length_b 18.109534
_cell_length_c 8.775330
_cell_angle_alpha 78.804042
_cell_angle_beta 94.193719
_cell_angle_gamma 158.711703
_cell_volume 738.420381
_symmetry_space_group_name_H-M "P -1"
_symmetry_group_IT_number 2
_symmetry_cell_setting 'triclinic'
loop_
_space_group_symop_operation_xyz
x,y,z
-x,-y,-z
loop_
_atom_site_type_symbol
_atom_site_label
_atom_site_fract_x
_atom_site_fract_y
_atom_site_fract_z
Si Si1 0.195764 0.317560 0.701456
Si Si2 0.146120 0.188424 0.435619
Si Si3 0.253654 0.711448 0.843992
Si Si4 0.620416 0.872753 0.350273
Si Si5 0.271192 0.019617 0.997835
Si Si6 0.813957 0.203761 0.013380
Si Si7 0.653760 0.183534 0.513089
Si Si8 0.866536 0.552824 0.350786
O O1 0.154008 0.234493 0.583648
O O2 0.526248 0.569678 0.675334
O O3 0.085247 0.323559 0.659717
O O4 0.999345 0.142136 0.882954
O O5 0.000000 0.000000 0.500000
O O6 0.942914 0.089816 0.342825
O O7 0.254403 0.701663 0.669304
O O8 0.199377 0.761694 0.844955
O O9 0.000000 0.500000 0.000000
O O10 0.520521 0.864353 0.895489
O O11 0.521071 0.884957 0.376876
O O12 0.434279 0.685959 0.516709
O O13 0.578213 0.826498 0.183044
O O14 0.161404 0.867263 0.955397
O O15 0.051420 0.398833 0.837859
O O16 0.500000 0.000000 0.000000
O O17 0.912083 0.337645 0.575663
O O18 0.500000 0.000000 0.500000
#
# Coordination Sequence:
#
# PCOD9006945 Si02
#       8
#     2   2   2   2   2   2   2   2
#     4  10  23  44  71  91 126 166 208 265 317 377
#     4  11  23  45  71  95 120 162 218 262 319 377
#     4  11  20  33  52  84 126 166 206 250 304 369
#     4  12  23  38  63  92 125 165 215 261 312 380
#     4  10  21  39  57  87 125 163 207 256 316 371
#     4   9  18  34  53  75 117 166 199 243 303 365
#     4  12  22  34  57  90 126 166 210 253 307 380
#     4  11  21  38  61  91 124 166 212 253 314 378
#
# _framework density 21.667874000000001
#
# number of rings (size 3 to 8) (size 9 to 14) (size 15 to 20)
#    0.000    1.250    1.250    7.875    0.000    0.500 
#    0.000    0.625    0.000    0.000    0.000    0.000 
#    0.000    0.000    0.000    0.000    0.000    0.000 
#
# Total GULP energy -89240.187283 kJ/mol
# GULP energy per Si atom -5577.511705 kJ/mol
# Density = 2.161856 g / cm^3
# Si number density = 21.667874 Si / 1000 Ang^3
#
#
#
# Elastic Constant Matrix: (Units=GPa)
#
#
# Indices 1 2 3 4 5 6 
#
# 1 62.0100 34.9896 18.4909 -5.4419 -11.2811 9.1130
# 2 34.9896 82.6336 29.3567 -6.5806 -4.1293 19.2002
# 3 18.4909 29.3567 163.1074 -13.7021 -14.5058 11.4468
# 4 -5.4419 -6.5806 -13.7021 31.6872 -1.8951 2.3602
# 5 -11.2811 -4.1293 -14.5058 -1.8951 29.0406 -2.5353
# 6 9.1130 19.2002 11.4468 2.3602 -2.5353 39.8838
#
#
#
# Elastic Compliance Matrix: (Units=1/GPa)
#
#
# Indices 1 2 3 4 5 6 
#
# 1 0.022910 -0.008964 -0.000042 0.002559 0.007721 -0.000568
# 2 -0.008964 0.018056 -0.001842 0.001752 -0.002276 -0.006364
# 3 -0.000042 -0.001842 0.007092 0.002960 0.003361 -0.001100
# 4 0.002559 0.001752 0.002960 0.034216 0.004604 -0.004009
# 5 0.007721 -0.002276 0.003361 0.004604 0.039140 0.000583
# 6 -0.000568 -0.006364 -0.001100 -0.004009 0.000583 0.028856
#
#
# Mechanical properties :
#
#
# Convention : Reuss Voigt Hill
#
# Bulk Modulus (GPa) = 37.93555 52.60282 45.26918
# Shear Modulus (GPa) = 27.66182 35.11658 31.38920
#
# Velocity S-wave (km/s) = 3.57687 4.03013 3.81024
# Velocity P-wave (km/s) = 5.88255 6.78126 6.34783
#
# Compressibility (1/GPa) = 0.02636050
#
# Stress axis : x y z
#
# Youngs Moduli (GPa) = 43.64949 55.38277 141.00179
#
# Poissons Ratio (x) = 0.49646 0.00597
# Poissons Ratio (y) = 0.39128 0.25976
# Poissons Ratio (z) = 0.00185 0.10203
#
# Static dielectric constant tensor:
#      x y z
#    x 2.309670 -0.217760 0.215810 
#    y -0.217760 1.942790 -0.129070 
#    z 0.215810 -0.129070 1.905070 
# 
# From -- ./inp_files/319348.got.cif
#   From: 2010.05.17/outbox.cif.g08.bks.cpg/sg2_160_cif.got.tgz:319348.got - 2010.06.03 11:33:40.
