data_PCOD9006288
_publ_section_title
;
Structure prediction by ZEFSAII (Michael W. Deem and Ramdas Pophale) SiO2 
 PCOD9006288
Probable space group: P -1
;
_chemical_formula_sum "Si O2"
_cell_formula_units_Z 16
_cell_length_a 8.670164
_cell_length_b 15.531923
_cell_length_c 14.013020
_cell_angle_alpha 52.987232
_cell_angle_beta 135.065671
_cell_angle_gamma 91.653637
_cell_volume 755.343408
_symmetry_space_group_name_H-M "P -1"
_symmetry_group_IT_number 2
_symmetry_cell_setting 'triclinic'
loop_
_space_group_symop_operation_xyz
x,y,z
-x,-y,-z
loop_
_atom_site_type_symbol
_atom_site_label
_atom_site_fract_x
_atom_site_fract_y
_atom_site_fract_z
Si Si1 0.800049 0.906721 0.129842
Si Si2 0.379136 0.048710 0.677921
Si Si3 0.835476 0.320566 0.392094
Si Si4 0.336793 0.841209 0.368915
Si Si5 0.288419 0.366582 0.151669
Si Si6 0.224399 0.242935 0.024271
Si Si7 0.627366 0.333799 0.675108
Si Si8 0.022661 0.489797 0.402435
O O1 0.045217 0.752284 0.399955
O O2 0.968727 0.962315 0.146575
O O3 0.500000 0.000000 0.000000
O O4 0.653128 0.923676 0.955263
O O5 0.496477 0.115785 0.633851
O O6 0.066754 0.182513 0.509468
O O7 0.430025 0.927751 0.713475
O O8 0.491620 0.395935 0.182870
O O9 0.869653 0.436320 0.326672
O O10 0.491560 0.771062 0.585698
O O11 0.376588 0.728405 0.385819
O O12 0.192735 0.327254 0.047763
O O13 0.000000 0.500000 0.000000
O O14 0.971406 0.234980 0.928402
O O15 0.131279 0.354359 0.821450
O O16 0.500000 0.500000 0.500000
O O17 0.383451 0.360909 0.618562
O O18 0.000000 0.500000 0.500000
#
# Coordination Sequence:
#
# PCOD9006288 Si02
#       8
#     2   2   2   2   2   2   2   2
#     4   9  19  34  60  95 126 162 205 260 317 376
#     4  11  21  40  66  96 129 165 220 269 328 386
#     4  10  23  41  67  92 131 173 216 265 327 391
#     4  11  21  40  67  93 126 177 212 263 323 388
#     4  11  26  45  66  90 133 179 218 263 326 393
#     4  11  25  41  64  97 134 170 212 268 329 386
#     4  10  21  38  65  93 128 166 216 271 321 368
#     4  11  23  39  65 101 128 164 222 279 321 372
#
# _framework density 21.182416
#
# number of rings (size 3 to 8) (size 9 to 14) (size 15 to 20)
#    0.000    1.500    2.500    2.625    7.000    1.500 
#    0.000    0.000    0.000    0.000    0.000    0.000 
#    0.000    0.000    0.000    0.000    0.000    0.000 
#
# Total GULP energy -89190.484407 kJ/mol
# GULP energy per Si atom -5574.405275 kJ/mol
# Density = 2.113420 g / cm^3
# Si number density = 21.182416 Si / 1000 Ang^3
#
#
#
# Elastic Constant Matrix: (Units=GPa)
#
#
# Indices 1 2 3 4 5 6 
#
# 1 151.9836 58.0044 28.2506 -2.5494 29.6805 -3.7609
# 2 58.0044 93.6348 26.0839 -6.7541 7.7730 -3.6980
# 3 28.2506 26.0839 39.5048 -0.8924 16.3837 -3.6649
# 4 -2.5494 -6.7541 -0.8924 26.0758 -5.1239 -1.2057
# 5 29.6805 7.7730 16.3837 -5.1239 42.4217 2.4063
# 6 -3.7609 -3.6980 -3.6649 -1.2057 2.4063 32.4940
#
#
#
# Elastic Compliance Matrix: (Units=1/GPa)
#
#
# Indices 1 2 3 4 5 6 
#
# 1 0.010007 -0.005500 -0.001077 -0.001589 -0.005814 0.000782
# 2 -0.005500 0.016462 -0.008805 0.004362 0.004756 0.000053
# 3 -0.001077 -0.008805 0.037466 -0.003426 -0.012739 0.003915
# 4 -0.001589 0.004362 -0.003426 0.040523 0.006477 0.000950
# 5 -0.005814 0.004756 -0.012739 0.006477 0.032684 -0.003749
# 6 0.000782 0.000053 0.003915 0.000950 -0.003749 0.031626
#
#
# Mechanical properties :
#
#
# Convention : Reuss Voigt Hill
#
# Bulk Modulus (GPa) = 30.14667 56.64455 43.39561
# Shear Modulus (GPa) = 23.74289 31.71725 27.73007
#
# Velocity S-wave (km/s) = 3.35158 3.87374 3.62208
# Velocity P-wave (km/s) = 5.40743 6.84158 6.16634
#
# Compressibility (1/GPa) = 0.03317116
#
# Stress axis : x y z
#
# Youngs Moduli (GPa) = 99.92883 60.74663 26.69089
#
# Poissons Ratio (x) = 0.33413 0.02873
# Poissons Ratio (y) = 0.54964 0.23501
# Poissons Ratio (z) = 0.10758 0.53487
#
# Static dielectric constant tensor:
#      x y z
#    x 1.840800 -0.053340 0.016360 
#    y -0.053340 1.925540 -0.018540 
#    z 0.016360 -0.018540 1.851290 
# 
# From -- ./inp_files/353674.got.cif
#   From: 2010.05.17/outbox.cif.g08.bks.cpg/sg2_177_cif.got.tgz:353674.got - 2010.06.03 11:33:40.
