data_PCOD9006861
_publ_section_title
;
Structure prediction by ZEFSAII (Michael W. Deem and Ramdas Pophale) SiO2 
 PCOD9006861
Probable space group: P -1
;
_chemical_formula_sum "Si O2"
_cell_formula_units_Z 16
_cell_length_a 19.738243
_cell_length_b 9.686647
_cell_length_c 16.507633
_cell_angle_alpha 67.527198
_cell_angle_beta 19.251257
_cell_angle_gamma 78.192776
_cell_volume 825.527412
_symmetry_space_group_name_H-M "P -1"
_symmetry_group_IT_number 2
_symmetry_cell_setting 'triclinic'
loop_
_space_group_symop_operation_xyz
x,y,z
-x,-y,-z
loop_
_atom_site_type_symbol
_atom_site_label
_atom_site_fract_x
_atom_site_fract_y
_atom_site_fract_z
Si Si1 0.397226 0.526282 0.243813
Si Si2 0.288014 0.928465 0.690892
Si Si3 0.992994 0.581259 0.685048
Si Si4 0.986231 0.626854 0.420571
Si Si5 0.042996 0.179306 0.450634
Si Si6 0.241786 0.234899 0.615144
Si Si7 0.590534 0.519842 0.275293
Si Si8 0.725740 0.384401 0.309976
O O1 0.274237 0.458561 0.309585
O O2 0.351394 0.363428 0.386519
O O3 0.226274 0.593228 0.458567
O O4 0.671679 0.677657 0.900454
O O5 0.313565 0.795641 0.635558
O O6 0.500000 0.000000 0.500000
O O7 0.278870 0.072333 0.613688
O O8 0.037819 0.832074 0.044168
O O9 0.068232 0.738937 0.502765
O O10 0.877568 0.398705 0.804504
O O11 0.805764 0.585074 0.955134
O O12 0.044293 0.800630 0.364874
O O13 0.000000 0.500000 0.500000
O O14 0.000000 0.000000 0.500000
O O15 0.374319 0.343455 0.521593
O O16 0.684304 0.481031 0.260083
O O17 0.471977 0.636111 0.397666
O O18 0.000000 0.500000 0.000000
#
# Coordination Sequence:
#
# PCOD9006861 Si02
#       8
#     2   2   2   2   2   2   2   2
#     4  10  21  38  71  87 123 172 212 255 309 392
#     4  11  23  40  62  91 128 163 210 270 304 369
#     4   9  21  38  64  86 124 166 211 249 307 383
#     4   8  19  39  62  91 121 165 210 247 316 381
#     4  11  21  39  66  97 126 159 207 264 322 376
#     4  11  22  37  67  92 120 169 220 251 319 370
#     4  11  21  38  64  91 122 166 214 253 312 382
#     4  11  23  38  63  90 127 169 207 256 324 376
#
# _framework density 19.381547999999999
#
# number of rings (size 3 to 8) (size 9 to 14) (size 15 to 20)
#    0.750    1.000    3.750    1.125    0.000    0.500 
#    0.000    3.750    0.000    0.000    0.000    0.000 
#    0.000    0.000    0.000    0.000    0.000    0.000 
#
# Total GULP energy -89070.386888 kJ/mol
# GULP energy per Si atom -5566.899181 kJ/mol
# Density = 1.933743 g / cm^3
# Si number density = 19.381548 Si / 1000 Ang^3
#
#
#
# Elastic Constant Matrix: (Units=GPa)
#
#
# Indices 1 2 3 4 5 6 
#
# 1 75.8037 25.0170 28.9385 2.4280 -14.5823 -0.6256
# 2 25.0170 160.5961 26.4061 14.6659 4.2234 16.5948
# 3 28.9385 26.4061 62.1647 12.2811 -8.7741 -4.1126
# 4 2.4280 14.6659 12.2811 32.9183 4.1450 -1.2562
# 5 -14.5823 4.2234 -8.7741 4.1450 28.8240 5.7099
# 6 -0.6256 16.5948 -4.1126 -1.2562 5.7099 29.4794
#
#
#
# Elastic Compliance Matrix: (Units=1/GPa)
#
#
# Indices 1 2 3 4 5 6 
#
# 1 0.017710 -0.001854 -0.006711 0.001083 0.007204 -0.000866
# 2 -0.001854 0.007632 -0.002438 -0.002326 -0.001579 -0.004469
# 3 -0.006711 -0.002438 0.022477 -0.007209 0.004198 0.003245
# 4 0.001083 -0.002326 -0.007209 0.035023 -0.006970 0.003169
# 5 0.007204 -0.001579 0.004198 -0.006970 0.042205 -0.006845
# 6 -0.000866 -0.004469 0.003245 0.003169 -0.006845 0.038333
#
#
# Mechanical properties :
#
#
# Convention : Reuss Voigt Hill
#
# Bulk Modulus (GPa) = 38.73971 51.03196 44.88584
# Shear Modulus (GPa) = 25.77436 32.79120 29.28278
#
# Velocity S-wave (km/s) = 3.65065 4.11771 3.89119
# Velocity P-wave (km/s) = 6.14825 6.99962 6.58770
#
# Compressibility (1/GPa) = 0.02581330
#
# Stress axis : x y z
#
# Youngs Moduli (GPa) = 56.46561 131.02362 44.48911
#
# Poissons Ratio (x) = 0.24295 0.29857
# Poissons Ratio (y) = 0.10470 0.10846
# Poissons Ratio (z) = 0.37894 0.31941
#
# Static dielectric constant tensor:
#      x y z
#    x 1.696260 0.050160 0.021420 
#    y 0.050160 1.668920 0.050060 
#    z 0.021420 0.050060 1.703860 
# 
# From -- ./inp_files/577064.got.cif
#   From: 2010.05.17/outbox.cif.g08.bks.cpg/sg2_289_cif.got.tgz:577064.got - 2010.06.03 11:33:40.
