data_PCOD9006680
_publ_section_title
;
Structure prediction by ZEFSAII (Michael W. Deem and Ramdas Pophale) SiO2 
 PCOD9006680
Probable space group: P -1
;
_chemical_formula_sum "Si O2"
_cell_formula_units_Z 14
_cell_length_a 8.883443
_cell_length_b 12.385458
_cell_length_c 7.260930
_cell_angle_alpha 120.735314
_cell_angle_beta 115.237794
_cell_angle_gamma 53.721882
_cell_volume 544.633292
_symmetry_space_group_name_H-M "P -1"
_symmetry_group_IT_number 2
_symmetry_cell_setting 'triclinic'
loop_
_space_group_symop_operation_xyz
x,y,z
-x,-y,-z
loop_
_atom_site_type_symbol
_atom_site_label
_atom_site_fract_x
_atom_site_fract_y
_atom_site_fract_z
Si Si1 0.215262 0.888565 0.459137
Si Si2 0.787764 0.598877 0.540586
Si Si3 0.855272 0.360225 0.843430
Si Si4 0.570039 0.904400 0.637725
Si Si5 0.324740 0.604744 0.859907
Si Si6 0.751650 0.681916 0.011599
Si Si7 0.660207 0.119964 0.908256
O O1 0.236722 0.731444 0.368855
O O2 0.383946 0.914139 0.652279
O O3 0.253019 0.893863 0.264101
O O4 0.000000 0.000000 0.500000
O O5 0.682412 0.739974 0.485973
O O6 0.689011 0.500055 0.386400
O O7 0.763874 0.669018 0.787234
O O8 0.000000 0.500000 0.500000
O O9 0.760278 0.531362 0.932806
O O10 0.852190 0.336706 0.040138
O O11 0.061860 0.310601 0.823228
O O12 0.500000 0.000000 0.500000
O O13 0.709453 0.958291 0.849139
O O14 0.500000 0.500000 0.000000
O O15 0.312372 0.747295 0.888395
O O16 0.562917 0.809308 0.099094
#
# Coordination Sequence:
#
# PCOD9006680 Si02
#       7
#     2   2   2   2   2   2   2
#     4  10  21  39  68 101 131 179 244 283 333 421
#     4  12  26  44  71 108 143 178 237 299 343 414
#     4  10  21  38  67  98 138 189 226 280 348 425
#     4  10  23  43  73  99 136 185 237 285 352 420
#     4  11  20  42  70  99 136 186 232 281 344 419
#     4  11  23  38  66 100 141 179 234 283 355 407
#     4  10  22  39  65  93 132 180 224 283 342 409
#
# _framework density 25.705372000000001
#
# number of rings (size 3 to 8) (size 9 to 14) (size 15 to 20)
#    0.000    1.429    2.857    3.429    0.000    3.429 
#    0.000    0.714    0.000    0.000    0.000    0.000 
#    0.000    0.000    0.000    0.000    0.000    0.000 
#
# Total GULP energy -78056.318663 kJ/mol
# GULP energy per Si atom -5575.451333 kJ/mol
# Density = 2.564687 g / cm^3
# Si number density = 25.705372 Si / 1000 Ang^3
#
#
#
# Elastic Constant Matrix: (Units=GPa)
#
#
# Indices 1 2 3 4 5 6 
#
# 1 147.1693 52.0767 41.9237 24.9649 -7.2193 6.4228
# 2 52.0767 70.1637 24.8389 41.3339 19.7523 17.5260
# 3 41.9237 24.8389 92.7106 24.4126 7.9995 14.9267
# 4 24.9649 41.3339 24.4126 41.3937 12.3980 8.7521
# 5 -7.2193 19.7523 7.9995 12.3980 54.1524 32.4996
# 6 6.4228 17.5260 14.9267 8.7521 32.4996 49.1760
#
#
#
# Elastic Compliance Matrix: (Units=1/GPa)
#
#
# Indices 1 2 3 4 5 6 
#
# 1 0.011428 -0.011858 -0.003847 0.005713 0.005599 -0.000816
# 2 -0.011858 0.049153 0.004498 -0.041214 -0.007851 -0.004810
# 3 -0.003847 0.004498 0.014574 -0.010038 0.000390 -0.003995
# 4 0.005713 -0.041214 -0.010038 0.067009 -0.001828 0.006271
# 5 0.005599 -0.007851 0.000390 -0.001828 0.034925 -0.020807
# 6 -0.000816 -0.004810 -0.003995 0.006271 -0.020807 0.036004
#
#
# Mechanical properties :
#
#
# Convention : Reuss Voigt Hill
#
# Bulk Modulus (GPa) = 18.96104 60.85802 39.90953
# Shear Modulus (GPa) = 19.75613 41.69137 30.72375
#
# Velocity S-wave (km/s) = 2.77530 4.03164 3.46096
# Velocity P-wave (km/s) = 4.20262 6.73786 5.61520
#
# Compressibility (1/GPa) = 0.05273973
#
# Stress axis : x y z
#
# Youngs Moduli (GPa) = 87.50524 20.34480 68.61709
#
# Poissons Ratio (x) = 0.24125 0.26396
# Poissons Ratio (y) = 1.03765 -0.30862
# Poissons Ratio (z) = 0.33662 -0.09151
#
# Static dielectric constant tensor:
#      x y z
#    x 2.092120 0.067450 0.092940 
#    y 0.067450 2.255300 -0.060050 
#    z 0.092940 -0.060050 2.204200 
# 
# From -- ./inp_files/190142.got.cif
#   From: 2010.05.17/outbox.cif.g08.bks.cpg/sg2_96_cif.got.tgz:190142.got - 2010.06.03 11:33:40.
