data_PCOD9006929
_publ_section_title
;
Structure prediction by ZEFSAII (Michael W. Deem and Ramdas Pophale) SiO2 
 PCOD9006929
Probable space group: P -1
;
_chemical_formula_sum "Si O2"
_cell_formula_units_Z 14
_cell_length_a 17.318855
_cell_length_b 8.615175
_cell_length_c 9.246179
_cell_angle_alpha 148.519364
_cell_angle_beta 60.349418
_cell_angle_gamma 125.457979
_cell_volume 586.818937
_symmetry_space_group_name_H-M "P -1"
_symmetry_group_IT_number 2
_symmetry_cell_setting 'triclinic'
loop_
_space_group_symop_operation_xyz
x,y,z
-x,-y,-z
loop_
_atom_site_type_symbol
_atom_site_label
_atom_site_fract_x
_atom_site_fract_y
_atom_site_fract_z
Si Si1 0.085642 0.494796 0.318297
Si Si2 0.152980 0.203805 0.266538
Si Si3 0.718783 0.922904 0.369399
Si Si4 0.952016 0.466794 0.171641
Si Si5 0.621552 0.366563 0.217257
Si Si6 0.340887 0.523466 0.208545
Si Si7 0.432756 0.318757 0.207810
O O1 0.115259 0.230304 0.160611
O O2 0.000000 0.500000 0.500000
O O3 0.037100 0.424571 0.154150
O O4 0.176399 0.815881 0.500981
O O5 0.086595 0.286093 0.513041
O O6 0.259277 0.446480 0.349003
O O7 0.141535 0.842735 0.002285
O O8 0.701286 0.668903 0.313261
O O9 0.650330 0.135181 0.594114
O O10 0.697918 0.727388 0.084105
O O11 0.000000 0.500000 0.000000
O O12 0.536798 0.305319 0.129597
O O13 0.585340 0.462293 0.476820
O O14 0.637307 0.039226 0.976121
O O15 0.422646 0.454748 0.168221
#
# Coordination Sequence:
#
# PCOD9006929 Si02
#       7
#     2   2   2   2   2   2   2
#     4   9  20  39  59  80 116 159 194 242 303 356
#     4  10  21  39  57  81 117 156 198 242 304 365
#     4  11  23  38  62  92 120 155 212 257 297 360
#     4  11  22  37  59  86 115 152 202 252 297 355
#     4  10  22  41  62  92 123 162 203 247 307 373
#     4  11  22  39  61  90 120 160 203 253 302 358
#     4  10  22  41  64  87 127 165 196 245 316 372
#
# _framework density 23.857445999999999
#
# number of rings (size 3 to 8) (size 9 to 14) (size 15 to 20)
#    0.000    1.714    0.000    5.143    0.000    5.714 
#    0.000    5.714    0.000    0.000    0.000    0.000 
#    0.000    0.000    0.000    0.000    0.000    0.000 
#
# Total GULP energy -78145.119222 kJ/mol
# GULP energy per Si atom -5581.794230 kJ/mol
# Density = 2.380314 g / cm^3
# Si number density = 23.857446 Si / 1000 Ang^3
#
#
#
# Elastic Constant Matrix: (Units=GPa)
#
#
# Indices 1 2 3 4 5 6 
#
# 1 50.2676 6.5716 2.6857 -9.1506 1.6422 -4.8790
# 2 6.5716 84.6982 23.1243 -3.3353 17.2055 -0.8609
# 3 2.6857 23.1243 105.5217 0.3487 -7.3837 -8.1457
# 4 -9.1506 -3.3353 0.3487 45.8414 -7.3877 6.1359
# 5 1.6422 17.2055 -7.3837 -7.3877 19.7694 4.0681
# 6 -4.8790 -0.8609 -8.1457 6.1359 4.0681 20.2326
#
#
#
# Elastic Compliance Matrix: (Units=1/GPa)
#
#
# Indices 1 2 3 4 5 6 
#
# 1 0.021120 -0.001508 0.000095 0.003597 0.000124 0.003951
# 2 -0.001508 0.016683 -0.004629 -0.002232 -0.017509 0.002680
# 3 0.000095 -0.004629 0.011239 0.000516 0.007874 0.002611
# 4 0.003597 -0.002232 0.000516 0.025812 0.013448 -0.009552
# 5 0.000124 -0.017509 0.007874 0.013448 0.077310 -0.017168
# 6 0.003951 0.002680 0.002611 -0.009552 -0.017168 0.057892
#
#
# Mechanical properties :
#
#
# Convention : Reuss Voigt Hill
#
# Bulk Modulus (GPa) = 27.05696 33.91674 30.48685
# Shear Modulus (GPa) = 21.32566 31.04241 26.18404
#
# Velocity S-wave (km/s) = 2.99302 3.61108 3.31648
# Velocity P-wave (km/s) = 4.82804 5.62439 5.24136
#
# Compressibility (1/GPa) = 0.03695907
#
# Stress axis : x y z
#
# Youngs Moduli (GPa) = 47.34897 59.93982 88.97233
#
# Poissons Ratio (x) = 0.09039 -0.00843
# Poissons Ratio (y) = 0.07140 0.41181
# Poissons Ratio (z) = -0.00449 0.27743
#
# Static dielectric constant tensor:
#      x y z
#    x 2.065330 0.003800 -0.003660 
#    y 0.003800 2.005600 0.025560 
#    z -0.003660 0.025560 1.875360 
# 
# From -- ./inp_files/313367.got.cif
#   From: 2010.05.17/outbox.cif.g08.bks.cpg/sg2_157_cif.got.tgz:313367.got - 2010.06.03 11:33:40.
