data_PCOD9006244
_publ_section_title
;
Structure prediction by ZEFSAII (Michael W. Deem and Ramdas Pophale) SiO2 
 PCOD9006244
Probable space group: P -1
;
_chemical_formula_sum "Si O2"
_cell_formula_units_Z 12
_cell_length_a 11.108929
_cell_length_b 9.280324
_cell_length_c 9.598745
_cell_angle_alpha 149.200509
_cell_angle_beta 94.642113
_cell_angle_gamma 82.018641
_cell_volume 500.354148
_symmetry_space_group_name_H-M "P -1"
_symmetry_group_IT_number 2
_symmetry_cell_setting 'triclinic'
loop_
_space_group_symop_operation_xyz
x,y,z
-x,-y,-z
loop_
_atom_site_type_symbol
_atom_site_label
_atom_site_fract_x
_atom_site_fract_y
_atom_site_fract_z
Si Si1 0.577304 0.601627 0.889576
Si Si2 0.120106 0.287323 0.372129
Si Si3 0.179580 0.192841 0.997952
Si Si4 0.041841 0.819750 0.489712
Si Si5 0.366459 0.866884 0.275623
Si Si6 0.673731 0.502666 0.275073
O O1 0.681681 0.750324 0.954213
O O2 0.637062 0.319680 0.742460
O O3 0.464807 0.534414 0.726662
O O4 0.502896 0.793902 0.162631
O O5 0.152626 0.117084 0.092120
O O6 0.232120 0.456164 0.561630
O O7 0.000000 0.500000 0.500000
O O8 0.073074 0.148381 0.390035
O O9 0.092319 0.487701 0.196422
O O10 0.146890 0.956366 0.693568
O O11 0.000000 0.000000 0.500000
O O12 0.334954 0.199917 0.562037
O O13 0.291479 0.743068 0.039454
#
# Coordination Sequence:
#
# PCOD9006244 Si02
#       6
#     2   2   2   2   2   2
#     4   9  22  37  65  95 135 155 220 258 345 358
#     4  10  25  47  65  93 139 174 219 263 329 383
#     4  11  25  42  67  95 135 169 208 282 320 387
#     4  11  26  43  69  95 124 176 225 266 316 384
#     4   9  21  35  61  98 128 163 206 274 315 389
#     4  10  21  38  65  91 126 174 210 260 325 382
#
# _framework density 23.983011999999999
#
# number of rings (size 3 to 8) (size 9 to 14) (size 15 to 20)
#    1.000    1.000    0.000    1.500    7.000    6.000 
#    0.000    0.833    0.000    0.000    0.000    0.000 
#    0.000    0.000    0.000    0.000    0.000    0.000 
#
# Total GULP energy -67073.252941 kJ/mol
# GULP energy per Si atom -5589.437745 kJ/mol
# Density = 2.392843 g / cm^3
# Si number density = 23.983012 Si / 1000 Ang^3
#
#
#
# Elastic Constant Matrix: (Units=GPa)
#
#
# Indices 1 2 3 4 5 6 
#
# 1 89.6058 9.1407 0.6122 -16.0639 9.7907 10.2601
# 2 9.1407 69.1873 10.4905 -22.2604 -9.8944 12.9889
# 3 0.6122 10.4905 65.1012 -0.6657 12.5837 -2.1655
# 4 -16.0639 -22.2604 -0.6657 39.9588 -11.1610 3.0955
# 5 9.7907 -9.8944 12.5837 -11.1610 38.8234 -10.0399
# 6 10.2601 12.9889 -2.1655 3.0955 -10.0399 41.6585
#
#
#
# Elastic Compliance Matrix: (Units=1/GPa)
#
#
# Indices 1 2 3 4 5 6 
#
# 1 0.012811 0.000128 0.000358 0.004702 -0.003065 -0.004265
# 2 0.000128 0.023400 -0.005936 0.016543 0.011004 -0.006213
# 3 0.000358 -0.005936 0.017977 -0.005376 -0.008718 0.000996
# 4 0.004702 0.016543 -0.005376 0.040673 0.014908 -0.006025
# 5 -0.003065 0.011004 -0.008718 0.014908 0.037701 0.004849
# 6 -0.004265 -0.006213 0.000996 -0.006025 0.004849 0.028660
#
#
# Mechanical properties :
#
#
# Convention : Reuss Voigt Hill
#
# Bulk Modulus (GPa) = 23.10204 29.37567 26.23886
# Shear Modulus (GPa) = 26.80229 37.66485 32.23357
#
# Velocity S-wave (km/s) = 3.34661 3.96723 3.67006
# Velocity P-wave (km/s) = 4.95849 5.76718 5.37806
#
# Compressibility (1/GPa) = 0.04328621
#
# Stress axis : x y z
#
# Youngs Moduli (GPa) = 78.06069 42.73590 55.62585
#
# Poissons Ratio (x) = -0.00549 -0.01989
# Poissons Ratio (y) = -0.01002 0.33022
# Poissons Ratio (z) = -0.02791 0.25370
#
# Static dielectric constant tensor:
#      x y z
#    x 1.954830 -0.028730 0.014560 
#    y -0.028730 1.927750 0.006280 
#    z 0.014560 0.006280 1.899240 
# 
# From -- ./inp_files/246269.got.cif
#   From: 2010.05.17/outbox.cif.g08.bks.cpg/sg2_124_cif.got.tgz:246269.got - 2010.06.03 11:33:40.
