data_PCOD9006426
_publ_section_title
;
Structure prediction by ZEFSAII (Michael W. Deem and Ramdas Pophale) SiO2 
 PCOD9006426
Probable space group: P -1
;
_chemical_formula_sum "Si O2"
_cell_formula_units_Z 14
_cell_length_a 17.856724
_cell_length_b 9.243357
_cell_length_c 5.386783
_cell_angle_alpha 92.623582
_cell_angle_beta 88.861679
_cell_angle_gamma 140.001409
_cell_volume 570.740364
_symmetry_space_group_name_H-M "P -1"
_symmetry_group_IT_number 2
_symmetry_cell_setting 'triclinic'
loop_
_space_group_symop_operation_xyz
x,y,z
-x,-y,-z
loop_
_atom_site_type_symbol
_atom_site_label
_atom_site_fract_x
_atom_site_fract_y
_atom_site_fract_z
Si Si1 0.839360 0.473436 0.551919
Si Si2 0.076407 0.753341 0.814277
Si Si3 0.344260 0.614952 0.453375
Si Si4 0.218898 0.142074 0.472388
Si Si5 0.749131 0.095239 0.849712
Si Si6 0.572055 0.007084 0.179783
Si Si7 0.989788 0.859769 0.198042
O O1 0.761082 0.474633 0.718021
O O2 0.769899 0.222952 0.612194
O O3 0.876209 0.636384 0.335504
O O4 0.969561 0.601643 0.617169
O O5 0.183729 0.997390 0.701323
O O6 0.139896 0.718652 0.955560
O O7 0.025446 0.772457 0.037234
O O8 0.308459 0.403889 0.529420
O O9 0.352037 0.763544 0.653159
O O10 0.472570 0.792583 0.343986
O O11 0.258018 0.080718 0.260295
O O12 0.096680 0.037285 0.395684
O O13 0.643178 0.998649 0.010972
O O14 0.500000 0.000000 0.000000
O O15 0.000000 0.000000 0.000000
#
# Coordination Sequence:
#
# PCOD9006426 Si02
#       7
#     2   2   2   2   2   2   2
#     4  11  23  40  72 104 140 189 233 276 344 421
#     4  10  23  40  67 104 147 181 225 278 350 417
#     4  11  25  45  74 100 131 187 235 290 341 411
#     4  10  24  44  67 105 144 176 231 287 348 412
#     4  11  25  44  70 103 146 183 227 290 344 412
#     4  11  26  48  71  99 134 179 245 288 346 410
#     4  10  21  38  66 104 146 185 227 278 345 419
#
# _framework density 24.529544000000001
#
# number of rings (size 3 to 8) (size 9 to 14) (size 15 to 20)
#    0.000    1.429    1.429    2.143    4.000   11.429 
#    0.000    1.429    0.000    0.000    0.000    0.000 
#    0.000    0.000    0.000    0.000    0.000    0.000 
#
# Total GULP energy -77989.348585 kJ/mol
# GULP energy per Si atom -5570.667756 kJ/mol
# Density = 2.447371 g / cm^3
# Si number density = 24.529544 Si / 1000 Ang^3
#
#
#
# Elastic Constant Matrix: (Units=GPa)
#
#
# Indices 1 2 3 4 5 6 
#
# 1 142.2465 56.5112 28.8045 -11.1989 -21.0205 0.3980
# 2 56.5112 172.3894 46.9756 -36.9554 -27.4112 -10.6511
# 3 28.8045 46.9756 88.1742 -24.4739 -5.9998 -5.6342
# 4 -11.1989 -36.9554 -24.4739 28.6753 4.4922 -1.7400
# 5 -21.0205 -27.4112 -5.9998 4.4922 49.7671 -11.6965
# 6 0.3980 -10.6511 -5.6342 -1.7400 -11.6965 31.1608
#
#
#
# Elastic Compliance Matrix: (Units=1/GPa)
#
#
# Indices 1 2 3 4 5 6 
#
# 1 0.008522 -0.002332 -0.001893 -0.001656 0.002107 -0.000550
# 2 -0.002332 0.010396 -0.000930 0.011269 0.005004 0.005922
# 3 -0.001893 -0.000930 0.015986 0.011858 0.000341 0.003387
# 4 -0.001656 0.011269 0.011858 0.058875 0.004178 0.010873
# 5 0.002107 0.005004 0.000341 0.004178 0.026178 0.011805
# 6 -0.000550 0.005922 0.003387 0.010873 0.011805 0.039773
#
#
# Mechanical properties :
#
#
# Convention : Reuss Voigt Hill
#
# Bulk Modulus (GPa) = 40.65959 74.15475 57.40717
# Shear Modulus (GPa) = 28.05227 39.95522 34.00374
#
# Velocity S-wave (km/s) = 3.38540 4.04029 3.72726
# Velocity P-wave (km/s) = 5.64739 7.21538 6.47899
#
# Compressibility (1/GPa) = 0.02459444
#
# Stress axis : x y z
#
# Youngs Moduli (GPa) = 117.33883 96.19213 62.55449
#
# Poissons Ratio (x) = 0.22429 0.11843
# Poissons Ratio (y) = 0.27359 0.05818
# Poissons Ratio (z) = 0.22214 0.08947
#
# Static dielectric constant tensor:
#      x y z
#    x 2.001760 0.059690 0.122300 
#    y 0.059690 2.021070 0.086920 
#    z 0.122300 0.086920 2.191450 
# 
# From -- ./inp_files/106956.got.cif
#   From: 2010.05.17/outbox.cif.g08.bks.cpg/sg2_54_cif.got.tgz:106956.got - 2010.06.03 11:33:40.
