data_PCOD9006175
_publ_section_title
;
Structure prediction by ZEFSAII (Michael W. Deem and Ramdas Pophale) SiO2 
 PCOD9006175
Probable space group: P -1
;
_chemical_formula_sum "Si O2"
_cell_formula_units_Z 16
_cell_length_a 5.766204
_cell_length_b 28.340741
_cell_length_c 10.727635
_cell_angle_alpha 38.229025
_cell_angle_beta 36.860084
_cell_angle_gamma 43.163347
_cell_volume 626.249163
_symmetry_space_group_name_H-M "P -1"
_symmetry_group_IT_number 2
_symmetry_cell_setting 'triclinic'
loop_
_space_group_symop_operation_xyz
x,y,z
-x,-y,-z
loop_
_atom_site_type_symbol
_atom_site_label
_atom_site_fract_x
_atom_site_fract_y
_atom_site_fract_z
Si Si1 0.161879 0.961326 0.879449
Si Si2 0.488546 0.788699 0.522478
Si Si3 0.282336 0.331857 0.972651
Si Si4 0.294049 0.218115 0.980942
Si Si5 0.935976 0.499941 0.376798
Si Si6 0.139452 0.189380 0.452211
Si Si7 0.163140 0.329227 0.584997
Si Si8 0.212635 0.946510 0.632774
O O1 0.942755 0.952832 0.859458
O O2 0.389018 0.023427 0.602676
O O3 0.482730 0.875028 0.932451
O O4 0.000000 0.000000 0.000000
O O5 0.769783 0.828798 0.401892
O O6 0.751367 0.709195 0.508634
O O7 0.202569 0.832147 0.441699
O O8 0.158880 0.775439 0.789708
O O9 0.409065 0.272129 0.925724
O O10 0.010187 0.416732 0.868984
O O11 0.708798 0.343358 0.803792
O O12 0.087367 0.282917 0.254448
O O13 0.375378 0.260804 0.732211
O O14 0.500000 0.500000 0.500000
O O15 0.000000 0.500000 0.500000
O O16 0.228200 0.415906 0.383160
O O17 0.574549 0.144728 0.297365
O O18 0.000000 0.000000 0.500000
#
# Coordination Sequence:
#
# PCOD9006175 Si02
#       8
#     2   2   2   2   2   2   2   2
#     4  11  26  42  67 100 129 177 229 279 339 410
#     4  11  25  42  68 102 132 174 230 274 330 405
#     4  10  21  41  69  93 136 179 219 271 334 398
#     4  11  22  43  66  94 137 175 220 279 339 392
#     4  10  21  38  65 101 134 173 218 275 332 388
#     4  11  24  45  67  96 135 180 219 279 341 391
#     4  11  24  39  72  98 133 180 225 272 335 405
#     4  11  25  43  66  92 140 173 220 290 343 395
#
# _framework density 25.548936999999999
#
# number of rings (size 3 to 8) (size 9 to 14) (size 15 to 20)
#    0.000    1.250    5.000    0.750    5.250    0.500 
#    0.000    3.125    0.000    0.000    0.000    0.000 
#    0.000    0.000    0.000    0.000    0.000    0.000 
#
# Total GULP energy -89087.495569 kJ/mol
# GULP energy per Si atom -5567.968473 kJ/mol
# Density = 2.549079 g / cm^3
# Si number density = 25.548937 Si / 1000 Ang^3
#
#
#
# Elastic Constant Matrix: (Units=GPa)
#
#
# Indices 1 2 3 4 5 6 
#
# 1 152.0793 38.0082 20.4200 8.4531 27.4703 11.5283
# 2 38.0082 150.0514 50.1128 -12.1564 28.8019 15.6211
# 3 20.4200 50.1128 99.5722 -1.9046 26.4012 0.5373
# 4 8.4531 -12.1564 -1.9046 48.6405 1.5065 17.1080
# 5 27.4703 28.8019 26.4012 1.5065 45.3914 6.3893
# 6 11.5283 15.6211 0.5373 17.1080 6.3893 43.5908
#
#
#
# Elastic Compliance Matrix: (Units=1/GPa)
#
#
# Indices 1 2 3 4 5 6 
#
# 1 0.007683 -0.001307 0.000049 -0.001377 -0.003736 -0.000476
# 2 -0.001307 0.009504 -0.003722 0.004018 -0.002616 -0.004208
# 3 0.000049 -0.003722 0.013402 -0.001090 -0.005769 0.002429
# 4 -0.001377 0.004018 -0.001090 0.025669 -0.000374 -0.011082
# 5 -0.003736 -0.002616 -0.005769 -0.000374 0.029628 -0.002199
# 6 -0.000476 -0.004208 0.002429 -0.011082 -0.002199 0.029216
#
#
# Mechanical properties :
#
#
# Convention : Reuss Voigt Hill
#
# Bulk Modulus (GPa) = 48.47690 68.75389 58.61540
# Shear Modulus (GPa) = 37.89619 47.06868 42.48243
#
# Velocity S-wave (km/s) = 3.85551 4.29685 4.08215
# Velocity P-wave (km/s) = 6.23180 7.18236 6.72390
#
# Compressibility (1/GPa) = 0.02062838
#
# Stress axis : x y z
#
# Youngs Moduli (GPa) = 130.15518 105.21630 74.61726
#
# Poissons Ratio (x) = 0.13757 -0.00367
# Poissons Ratio (y) = 0.17017 0.27773
# Poissons Ratio (z) = -0.00641 0.39163
#
# Static dielectric constant tensor:
#      x y z
#    x 1.942280 -0.190820 -0.011950 
#    y -0.190820 1.934230 0.062900 
#    z -0.011950 0.062900 2.029490 
# 
# From -- ./inp_files/371434.got.cif
#   From: 2010.05.17/outbox.cif.g08.bks.cpg/sg2_186_cif.got.tgz:371434.got - 2010.06.03 11:33:40.
