data_PCOD9006954
_publ_section_title
;
Structure prediction by ZEFSAII (Michael W. Deem and Ramdas Pophale) SiO2 
 PCOD9006954
Probable space group: P -1
;
_chemical_formula_sum "Si O2"
_cell_formula_units_Z 16
_cell_length_a 14.451589
_cell_length_b 10.838171
_cell_length_c 8.714424
_cell_angle_alpha 137.849032
_cell_angle_beta 50.848992
_cell_angle_gamma 125.428107
_cell_volume 693.808278
_symmetry_space_group_name_H-M "P -1"
_symmetry_group_IT_number 2
_symmetry_cell_setting 'triclinic'
loop_
_space_group_symop_operation_xyz
x,y,z
-x,-y,-z
loop_
_atom_site_type_symbol
_atom_site_label
_atom_site_fract_x
_atom_site_fract_y
_atom_site_fract_z
Si Si1 0.015399 0.981744 0.714626
Si Si2 0.323093 0.609148 0.257388
Si Si3 0.587979 0.757834 0.631151
Si Si4 0.485717 0.488992 0.244272
Si Si5 0.181394 0.211039 0.004273
Si Si6 0.666438 0.129300 0.026060
Si Si7 0.067995 0.716537 0.145441
Si Si8 0.635620 0.017130 0.310056
O O1 0.966073 0.139800 0.813767
O O2 0.045602 0.820724 0.423012
O O3 0.126444 0.102384 0.808936
O O4 0.912663 0.875180 0.842144
O O5 0.397290 0.559797 0.283350
O O6 0.212448 0.437259 0.174132
O O7 0.285271 0.801767 0.517507
O O8 0.428142 0.631771 0.038688
O O9 0.580452 0.657999 0.384412
O O10 0.597208 0.619027 0.632675
O O11 0.452546 0.798659 0.830386
O O12 0.678720 0.954168 0.744008
O O13 0.309604 0.160320 0.869911
O O14 0.643990 0.054278 0.154205
O O15 0.789417 0.281055 0.022720
O O16 0.000000 0.500000 0.000000
O O17 0.500000 0.000000 0.500000
#
# Coordination Sequence:
#
# PCOD9006954 Si02
#       8
#     2   2   2   2   2   2   2   2
#     4  10  26  48  69 102 127 181 232 284 336 389
#     4  11  23  39  66  95 134 179 222 269 337 403
#     4  10  22  38  65  93 141 171 220 274 344 404
#     4  10  21  39  57  99 132 178 218 263 329 411
#     4  11  25  44  72  97 138 174 231 282 332 404
#     4  11  23  41  64 100 133 177 224 280 338 407
#     4  11  26  48  73  97 136 178 234 284 342 395
#     4  12  24  42  68 100 140 179 220 276 347 406
#
# _framework density 23.061126000000002
#
# number of rings (size 3 to 8) (size 9 to 14) (size 15 to 20)
#    0.000    1.250    2.500    3.000    3.500    4.000 
#    4.500    2.500    0.000    0.000    0.000    0.000 
#    0.000    0.000    0.000    0.000    0.000    0.000 
#
# Total GULP energy -89548.954373 kJ/mol
# GULP energy per Si atom -5596.809648 kJ/mol
# Density = 2.300864 g / cm^3
# Si number density = 23.061126 Si / 1000 Ang^3
#
#
#
# Elastic Constant Matrix: (Units=GPa)
#
#
# Indices 1 2 3 4 5 6 
#
# 1 48.3074 19.2772 18.1127 -9.2002 17.7573 11.3206
# 2 19.2772 98.6713 26.0799 16.5873 13.6442 27.4678
# 3 18.1127 26.0799 98.6229 16.1253 26.9245 0.3798
# 4 -9.2002 16.5873 16.1253 42.7232 5.1847 6.2326
# 5 17.7573 13.6442 26.9245 5.1847 33.2159 2.6504
# 6 11.3206 27.4678 0.3798 6.2326 2.6504 32.6586
#
#
#
# Elastic Compliance Matrix: (Units=1/GPa)
#
#
# Indices 1 2 3 4 5 6 
#
# 1 0.033638 -0.002845 -0.003330 0.012990 -0.015307 -0.010465
# 2 -0.002845 0.015212 -0.002495 -0.003830 -0.001234 -0.010948
# 3 -0.003330 -0.002495 0.014536 -0.004880 -0.008592 0.004712
# 4 0.012990 -0.003830 -0.004880 0.031210 -0.005751 -0.006714
# 5 -0.015307 -0.001234 -0.008592 -0.005751 0.046357 0.003779
# 6 -0.010465 -0.010948 0.004712 -0.006714 0.003779 0.044375
#
#
# Mechanical properties :
#
#
# Convention : Reuss Voigt Hill
#
# Bulk Modulus (GPa) = 21.71739 41.39347 31.55543
# Shear Modulus (GPa) = 22.93393 33.86165 28.39779
#
# Velocity S-wave (km/s) = 3.15697 3.83605 3.51296
# Velocity P-wave (km/s) = 4.76722 6.13260 5.49250
#
# Compressibility (1/GPa) = 0.04604604
#
# Stress axis : x y z
#
# Youngs Moduli (GPa) = 29.72847 65.73701 68.79285
#
# Poissons Ratio (x) = 0.18705 0.22907
# Poissons Ratio (y) = 0.08459 0.17163
# Poissons Ratio (z) = 0.09899 0.16400
#
# Static dielectric constant tensor:
#      x y z
#    x 1.844540 0.006520 0.038600 
#    y 0.006520 1.878060 0.034650 
#    z 0.038600 0.034650 1.877630 
# 
# From -- ./inp_files/277691.got.cif
#   From: 2010.05.17/outbox.cif.g08.bks.cpg/sg2_139_cif.got.tgz:277691.got - 2010.06.03 11:33:40.
