data_PCOD9006888
_publ_section_title
;
Structure prediction by ZEFSAII (Michael W. Deem and Ramdas Pophale) SiO2 
 PCOD9006888
Probable space group: P -1
;
_chemical_formula_sum "Si O2"
_cell_formula_units_Z 12
_cell_length_a 6.538945
_cell_length_b 21.241805
_cell_length_c 13.213311
_cell_angle_alpha 20.279537
_cell_angle_beta 55.499984
_cell_angle_gamma 65.506195
_cell_volume 478.494751
_symmetry_space_group_name_H-M "P -1"
_symmetry_group_IT_number 2
_symmetry_cell_setting 'triclinic'
loop_
_space_group_symop_operation_xyz
x,y,z
-x,-y,-z
loop_
_atom_site_type_symbol
_atom_site_label
_atom_site_fract_x
_atom_site_fract_y
_atom_site_fract_z
Si Si1 0.554691 0.317404 0.452193
Si Si2 0.076296 0.815139 0.669714
Si Si3 0.075864 0.333170 0.676134
Si Si4 0.309774 0.012619 0.818199
Si Si5 0.812439 0.095734 0.295947
Si Si6 0.893222 0.682125 0.695093
O O1 0.380686 0.391364 0.464108
O O2 0.362827 0.102973 0.780847
O O3 0.823264 0.311797 0.437336
O O4 0.651577 0.463791 0.105839
O O5 0.391590 0.957496 0.347425
O O6 0.104495 0.736399 0.892477
O O7 0.977035 0.717188 0.737275
O O8 0.859534 0.908684 0.605414
O O9 0.000000 0.500000 0.500000
O O10 0.001519 0.174113 0.027839
O O11 0.888747 0.211327 0.818261
O O12 0.203240 0.159313 0.565376
O O13 0.500000 0.000000 0.500000
#
# Coordination Sequence:
#
# PCOD9006888 Si02
#       6
#     2   2   2   2   2   2
#     4  10  25  44  70 105 135 174 237 280 346 402
#     4  10  21  38  75  98 126 181 240 266 342 403
#     4  12  27  43  67 104 144 179 224 287 342 405
#     4  11  22  46  73  96 137 186 227 283 339 404
#     4  11  22  43  67  94 140 187 223 275 339 414
#     4  10  21  45  75  99 131 181 235 285 330 412
#
# _framework density 25.078643
#
# number of rings (size 3 to 8) (size 9 to 14) (size 15 to 20)
#    0.000    1.333    3.333    1.000    4.667    0.667 
#    3.000    1.667    0.000    0.000    0.000    0.000 
#    0.000    0.000    0.000    0.000    0.000    0.000 
#
# Total GULP energy -66899.921401 kJ/mol
# GULP energy per Si atom -5574.993450 kJ/mol
# Density = 2.502156 g / cm^3
# Si number density = 25.078643 Si / 1000 Ang^3
#
#
#
# Elastic Constant Matrix: (Units=GPa)
#
#
# Indices 1 2 3 4 5 6 
#
# 1 130.8110 52.7444 36.3456 -0.7004 -15.2856 -23.3747
# 2 52.7444 138.5585 18.9722 3.5629 -22.7241 -30.7595
# 3 36.3456 18.9722 80.5964 -9.3797 -12.5916 -12.5992
# 4 -0.7004 3.5629 -9.3797 34.6677 1.1981 2.8588
# 5 -15.2856 -22.7241 -12.5916 1.1981 24.5141 -1.2883
# 6 -23.3747 -30.7595 -12.5992 2.8588 -1.2883 43.9953
#
#
#
# Elastic Compliance Matrix: (Units=1/GPa)
#
#
# Indices 1 2 3 4 5 6 
#
# 1 0.010376 -0.002336 -0.003304 -0.000794 0.002808 0.003068
# 2 -0.002336 0.011290 0.000868 -0.001919 0.009934 0.007317
# 3 -0.003304 0.000868 0.015690 0.003581 0.006803 0.003311
# 4 -0.000794 -0.001919 0.003581 0.030295 -0.002061 -0.002767
# 5 0.002808 0.009934 0.006803 -0.002061 0.055986 0.012159
# 6 0.003068 0.007317 0.003311 -0.002767 0.012159 0.030959
#
#
# Mechanical properties :
#
#
# Convention : Reuss Voigt Hill
#
# Bulk Modulus (GPa) = 35.95283 62.89893 49.42588
# Shear Modulus (GPa) = 28.83323 36.76234 32.79779
#
# Velocity S-wave (km/s) = 3.39442 3.83284 3.62027
# Velocity P-wave (km/s) = 5.45252 6.68750 6.10134
#
# Compressibility (1/GPa) = 0.02781422
#
# Stress axis : x y z
#
# Youngs Moduli (GPa) = 96.37330 88.57226 63.73404
#
# Poissons Ratio (x) = 0.20686 0.21055
# Poissons Ratio (y) = 0.22508 -0.05532
# Poissons Ratio (z) = 0.31838 -0.07687
#
# Static dielectric constant tensor:
#      x y z
#    x 1.977580 0.061850 -0.027840 
#    y 0.061850 2.218820 -0.123350 
#    z -0.027840 -0.123350 2.233770 
# 
# From -- ./inp_files/214628.got.cif
#   From: 2010.05.17/outbox.cif.g08.bks.cpg/sg2_108_cif.got.tgz:214628.got - 2010.06.03 11:33:40.
