data_PCOD9006787
_publ_section_title
;
Structure prediction by ZEFSAII (Michael W. Deem and Ramdas Pophale) SiO2 
 PCOD9006787
Probable space group: P -1
;
_chemical_formula_sum "Si O2"
_cell_formula_units_Z 15
_cell_length_a 16.906401
_cell_length_b 5.688116
_cell_length_c 20.217920
_cell_angle_alpha 112.705420
_cell_angle_beta 19.232252
_cell_angle_gamma 112.312880
_cell_volume 590.064498
_symmetry_space_group_name_H-M "P -1"
_symmetry_group_IT_number 2
_symmetry_cell_setting 'triclinic'
loop_
_space_group_symop_operation_xyz
x,y,z
-x,-y,-z
loop_
_atom_site_type_symbol
_atom_site_label
_atom_site_fract_x
_atom_site_fract_y
_atom_site_fract_z
Si Si1 0.823352 0.688809 0.022510
Si Si2 0.418600 0.379671 0.619376
Si Si3 0.160565 0.865065 0.661544
Si Si4 0.805597 0.688234 0.830487
Si Si5 0.000000 0.500000 0.000000
Si Si6 0.526995 0.881376 0.652921
Si Si7 0.533539 0.171323 0.155612
Si Si8 0.605740 0.742012 0.861030
O O1 0.989310 0.639386 0.948337
O O2 0.614199 0.872995 0.227327
O O3 0.704630 0.420489 0.061755
O O4 0.944943 0.826477 0.878604
O O5 0.500000 0.500000 0.500000
O O6 0.618049 0.224216 0.479264
O O7 0.358436 0.625503 0.741611
O O8 0.153044 0.261284 0.818967
O O9 0.250683 0.110602 0.573177
O O10 0.065390 0.672309 0.657068
O O11 0.809455 0.683982 0.747260
O O12 0.610863 0.470900 0.983048
O O13 0.694884 0.950163 0.973916
O O14 0.580505 0.892992 0.689514
O O15 0.345648 0.227075 0.251675
O O16 0.500000 0.000000 0.000000
#
# Coordination Sequence:
#
# PCOD9006787 Si02
#       8
#     2   2   2   2   1   2   2   2
#     4  12  25  46  69  99 138 183 227 291 344 410
#     4  12  28  45  66  98 139 177 232 291 346 409
#     4  12  25  43  68 102 136 177 231 282 346 408
#     4  10  21  38  69 105 138 181 228 279 348 403
#     4  12  24  50  68  96 138 178 232 286 346 406
#     4  12  26  44  68 101 134 184 229 284 349 412
#     4  11  20  42  70  99 138 184 229 278 341 414
#     4   9  19  36  67 106 139 179 226 278 338 413
#
# _framework density 25.420950999999999
#
# number of rings (size 3 to 8) (size 9 to 14) (size 15 to 20)
#    0.000    0.800    6.667    0.000    1.867    2.133 
#    2.400    0.667    0.000   13.600    0.000    0.000 
#    0.000    0.000    0.000    0.000    0.000    0.000 
#
# Total GULP energy -83683.794565 kJ/mol
# GULP energy per Si atom -5578.919638 kJ/mol
# Density = 2.536309 g / cm^3
# Si number density = 25.420951 Si / 1000 Ang^3
#
#
#
# Elastic Constant Matrix: (Units=GPa)
#
#
# Indices 1 2 3 4 5 6 
#
# 1 206.7571 15.8326 16.0254 -28.8475 30.0695 -41.6654
# 2 15.8326 102.9687 -4.7905 -12.3462 6.7177 26.9526
# 3 16.0254 -4.7905 75.1703 -17.2537 21.7641 -10.9113
# 4 -28.8475 -12.3462 -17.2537 28.9531 -7.5162 5.2514
# 5 30.0695 6.7177 21.7641 -7.5162 40.3856 -9.9978
# 6 -41.6654 26.9526 -10.9113 5.2514 -9.9978 49.0497
#
#
#
# Elastic Compliance Matrix: (Units=1/GPa)
#
#
# Indices 1 2 3 4 5 6 
#
# 1 0.007397 -0.001865 0.001452 0.005404 -0.003400 0.006359
# 2 -0.001865 0.013680 0.002238 0.006234 -0.003400 -0.009963
# 3 0.001452 0.002238 0.018409 0.010814 -0.009092 0.001088
# 4 0.005404 0.006234 0.010814 0.048806 -0.002332 -0.002130
# 5 -0.003400 -0.003400 -0.009092 -0.002332 0.033313 0.003998
# 6 0.006359 -0.009963 0.001088 -0.002130 0.003998 0.032549
#
#
# Mechanical properties :
#
#
# Convention : Reuss Voigt Hill
#
# Bulk Modulus (GPa) = 23.18229 48.78123 35.98176
# Shear Modulus (GPa) = 30.32484 47.53291 38.92888
#
# Velocity S-wave (km/s) = 3.45760 4.32885 3.91752
# Velocity P-wave (km/s) = 5.00791 6.64953 5.88623
#
# Compressibility (1/GPa) = 0.04313638
#
# Stress axis : x y z
#
# Youngs Moduli (GPa) = 135.19442 73.10077 54.32252
#
# Poissons Ratio (x) = 0.13630 -0.07888
# Poissons Ratio (y) = 0.25209 -0.12159
# Poissons Ratio (z) = -0.19630 -0.16362
#
# Static dielectric constant tensor:
#      x y z
#    x 1.872350 -0.042100 0.362870 
#    y -0.042100 1.990680 0.127830 
#    z 0.362870 0.127830 1.346430 
# 
# From -- ./inp_files/585884.got.cif
#   From: 2010.05.17/outbox.cif.g08.bks.cpg/sg2_293_cif.got.tgz:585884.got - 2010.06.03 11:33:40.
