data_PCOD9006655
_publ_section_title
;
Structure prediction by ZEFSAII (Michael W. Deem and Ramdas Pophale) SiO2 
 PCOD9006655
Probable space group: P -1
;
_chemical_formula_sum "Si O2"
_cell_formula_units_Z 16
_cell_length_a 9.174904
_cell_length_b 12.028062
_cell_length_c 9.589244
_cell_angle_alpha 111.394823
_cell_angle_beta 52.129698
_cell_angle_gamma 128.770906
_cell_volume 650.971867
_symmetry_space_group_name_H-M "P -1"
_symmetry_group_IT_number 2
_symmetry_cell_setting 'triclinic'
loop_
_space_group_symop_operation_xyz
x,y,z
-x,-y,-z
loop_
_atom_site_type_symbol
_atom_site_label
_atom_site_fract_x
_atom_site_fract_y
_atom_site_fract_z
Si Si1 0.166428 0.217095 0.440123
Si Si2 0.798745 0.617522 0.061211
Si Si3 0.253033 0.591909 0.215507
Si Si4 0.283453 0.876253 0.930091
Si Si5 0.699404 0.966437 0.540735
Si Si6 0.470128 0.703073 0.403810
Si Si7 0.799757 0.517535 0.315686
Si Si8 0.565231 0.826896 0.949984
O O1 0.207468 0.120715 0.477186
O O2 0.228592 0.361404 0.544863
O O3 0.322451 0.240139 0.230129
O O4 0.912269 0.126638 0.494604
O O5 0.644335 0.670122 0.226697
O O6 0.790888 0.525259 0.157595
O O7 0.724467 0.530412 0.921893
O O8 0.050481 0.749149 0.955018
O O9 0.260114 0.612729 0.385212
O O10 0.037213 0.561706 0.250639
O O11 0.463693 0.742468 0.111317
O O12 0.493354 0.947928 0.737061
O O13 0.365812 0.818056 0.977784
O O14 0.262560 0.003960 0.056217
O O15 0.589407 0.873157 0.423673
O O16 0.376312 0.633403 0.579617
#
# Coordination Sequence:
#
# PCOD9006655 Si02
#       8
#     2   2   2   2   2   2   2   2
#     4  10  21  38  67  96 124 163 216 269 306 375
#     4  12  24  42  66  96 126 171 223 261 311 379
#     4  12  26  43  63  95 135 170 209 267 327 379
#     4  10  21  38  67  96 124 163 216 269 306 375
#     4  10  21  39  64  96 129 164 210 263 323 372
#     4  12  26  43  63  95 135 170 209 267 327 379
#     4  12  24  42  66  96 126 171 223 261 311 379
#     4  10  21  39  64  96 129 164 210 263 323 372
#
# _framework density 24.578634000000001
#
# number of rings (size 3 to 8) (size 9 to 14) (size 15 to 20)
#    0.000    1.000    2.500    4.500    7.000    0.000 
#    0.000    6.250    0.000    0.000    0.000    0.000 
#    0.000    0.000    0.000    0.000    0.000    0.000 
#
# Total GULP energy -89588.774360 kJ/mol
# GULP energy per Si atom -5599.298397 kJ/mol
# Density = 2.452269 g / cm^3
# Si number density = 24.578634 Si / 1000 Ang^3
#
#
#
# Elastic Constant Matrix: (Units=GPa)
#
#
# Indices 1 2 3 4 5 6 
#
# 1 77.7094 17.5828 8.6441 -1.2739 1.1925 30.7480
# 2 17.5828 91.1824 11.2523 3.4848 0.0865 32.8304
# 3 8.6441 11.2523 55.6525 15.2756 -5.8388 6.2498
# 4 -1.2739 3.4848 15.2756 37.0425 9.5025 -2.1080
# 5 1.1925 0.0865 -5.8388 9.5025 31.5303 9.0216
# 6 30.7480 32.8304 6.2498 -2.1080 9.0216 34.8823
#
#
#
# Elastic Compliance Matrix: (Units=1/GPa)
#
#
# Indices 1 2 3 4 5 6 
#
# 1 0.022098 0.005565 0.000264 -0.003457 0.007975 -0.027036
# 2 0.005565 0.019344 0.000625 -0.005658 0.008963 -0.025884
# 3 0.000264 0.000625 0.023435 -0.012940 0.010678 -0.008563
# 4 -0.003457 -0.005658 -0.012940 0.038650 -0.019034 0.017950
# 5 0.007975 0.008963 0.010678 -0.019034 0.047954 -0.030932
# 6 -0.027036 -0.025884 -0.008563 0.017950 -0.030932 0.087479
#
#
# Mechanical properties :
#
#
# Convention : Reuss Voigt Hill
#
# Bulk Modulus (GPa) = 12.85589 33.27809 23.06699
# Shear Modulus (GPa) = 19.84274 33.16203 26.50239
#
# Velocity S-wave (km/s) = 2.84441 3.67716 3.28726
# Velocity P-wave (km/s) = 4.00368 5.62117 4.87991
#
# Compressibility (1/GPa) = 0.07778538
#
# Stress axis : x y z
#
# Youngs Moduli (GPa) = 45.25226 51.69552 42.67090
#
# Poissons Ratio (x) = -0.28768 -0.01127
# Poissons Ratio (y) = -0.25183 -0.02666
# Poissons Ratio (z) = -0.01196 -0.03230
#
# Static dielectric constant tensor:
#      x y z
#    x 1.986240 -0.010370 0.018730 
#    y -0.010370 1.945950 0.034250 
#    z 0.018730 0.034250 1.942780 
# 
# From -- ./inp_files/189033.got.cif
#   From: 2010.05.17/outbox.cif.g08.bks.cpg/sg2_95_cif.got.tgz:189033.got - 2010.06.03 11:33:40.
