data_PCOD9006868
_publ_section_title
;
Structure prediction by ZEFSAII (Michael W. Deem and Ramdas Pophale) SiO2 
 PCOD9006868
Probable space group: P -1
;
_chemical_formula_sum "Si O2"
_cell_formula_units_Z 16
_cell_length_a 9.072884
_cell_length_b 11.776197
_cell_length_c 15.039255
_cell_angle_alpha 26.201797
_cell_angle_beta 78.542129
_cell_angle_gamma 75.809805
_cell_volume 686.980602
_symmetry_space_group_name_H-M "P -1"
_symmetry_group_IT_number 2
_symmetry_cell_setting 'triclinic'
loop_
_space_group_symop_operation_xyz
x,y,z
-x,-y,-z
loop_
_atom_site_type_symbol
_atom_site_label
_atom_site_fract_x
_atom_site_fract_y
_atom_site_fract_z
Si Si1 0.628130 0.961368 0.249157
Si Si2 0.799507 0.465688 0.481967
Si Si3 0.917974 0.285787 0.781130
Si Si4 0.799562 0.176453 0.226615
Si Si5 0.641158 0.238257 0.497777
Si Si6 0.433021 0.485065 0.864408
Si Si7 0.083961 0.178061 0.298808
Si Si8 0.246557 0.367513 0.292844
O O1 0.751416 0.102208 0.186481
O O2 0.711857 0.746659 0.324606
O O3 0.529946 0.816271 0.431271
O O4 0.501791 0.182893 0.068420
O O5 0.838231 0.298365 0.684867
O O6 0.699138 0.344720 0.507507
O O7 0.956801 0.519678 0.381082
O O8 0.802666 0.414193 0.780068
O O9 0.000000 0.000000 0.000000
O O10 0.683796 0.415212 0.113814
O O11 0.968470 0.222243 0.199379
O O12 0.770013 0.915701 0.466936
O O13 0.643970 0.431598 0.278907
O O14 0.757675 0.983087 0.638780
O O15 0.580226 0.628608 0.758118
O O16 0.130930 0.401898 0.198864
O O17 0.000000 0.000000 0.500000
#
# Coordination Sequence:
#
# PCOD9006868 Si02
#       8
#     2   2   2   2   2   2   2   2
#     4  12  26  43  66  99 131 178 223 266 325 392
#     4  11  25  43  68  95 136 174 217 271 326 388
#     4  11  24  43  71 100 130 173 218 270 328 391
#     4  11  21  42  68  95 134 170 220 270 332 387
#     4  12  24  44  68  95 137 175 216 271 330 386
#     4  12  24  41  69  97 132 175 219 269 325 393
#     4  10  21  38  71  96 123 176 213 268 336 379
#     4  11  20  42  69  94 131 174 214 267 336 383
#
# _framework density 23.290323999999998
#
# number of rings (size 3 to 8) (size 9 to 14) (size 15 to 20)
#    0.000    0.750    5.000    4.125    1.750    1.500 
#    0.000    1.250    0.000    0.000    0.000    0.000 
#    0.000    0.000    0.000    0.000    0.000    0.000 
#
# Total GULP energy -89603.642415 kJ/mol
# GULP energy per Si atom -5600.227651 kJ/mol
# Density = 2.323731 g / cm^3
# Si number density = 23.290324 Si / 1000 Ang^3
#
#
#
# Elastic Constant Matrix: (Units=GPa)
#
#
# Indices 1 2 3 4 5 6 
#
# 1 77.2310 32.6928 -1.8981 7.1779 16.8785 29.7077
# 2 32.6928 102.3109 27.6096 0.3812 10.9513 20.2196
# 3 -1.8981 27.6096 104.1627 -4.5115 22.0150 20.6444
# 4 7.1779 0.3812 -4.5115 29.5125 -0.1056 9.3798
# 5 16.8785 10.9513 22.0150 -0.1056 28.3456 0.6112
# 6 29.7077 20.2196 20.6444 9.3798 0.6112 50.5975
#
#
#
# Elastic Compliance Matrix: (Units=1/GPa)
#
#
# Indices 1 2 3 4 5 6 
#
# 1 0.026792 -0.005533 0.009888 0.000520 -0.021118 -0.017395
# 2 -0.005533 0.012449 -0.003543 0.000788 0.001249 -0.000442
# 3 0.009888 -0.003543 0.016901 0.003913 -0.017376 -0.011801
# 4 0.000520 0.000788 0.003913 0.037218 -0.003319 -0.009076
# 5 -0.021118 0.001249 -0.017376 -0.003319 0.060447 0.018875
# 6 -0.017395 -0.000442 -0.011801 -0.009076 0.018875 0.036423
#
#
# Mechanical properties :
#
#
# Convention : Reuss Voigt Hill
#
# Bulk Modulus (GPa) = 17.31135 44.50146 30.90640
# Shear Modulus (GPa) = 24.05457 36.71115 30.38286
#
# Velocity S-wave (km/s) = 3.21723 3.97450 3.61574
# Velocity P-wave (km/s) = 4.60974 6.34121 5.54349
#
# Compressibility (1/GPa) = 0.05776558
#
# Stress axis : x y z
#
# Youngs Moduli (GPa) = 37.32504 80.32788 59.16969
#
# Poissons Ratio (x) = 0.44447 -0.58509
# Poissons Ratio (y) = 0.20653 0.20963
# Poissons Ratio (z) = -0.36908 0.28460
#
# Static dielectric constant tensor:
#      x y z
#    x 1.857790 0.010910 0.002560 
#    y 0.010910 1.816310 0.053580 
#    z 0.002560 0.053580 1.971630 
# 
# From -- ./inp_files/499685.got.cif
#   From: 2010.05.17/outbox.cif.g08.bks.cpg/sg2_250_cif.got.tgz:499685.got - 2010.06.03 11:33:40.
