data_PCOD9006012
_publ_section_title
;
Structure prediction by ZEFSAII (Michael W. Deem and Ramdas Pophale) SiO2 
 PCOD9006012
Probable space group: P -1
;
_chemical_formula_sum "Si O2"
_cell_formula_units_Z 15
_cell_length_a 6.058138
_cell_length_b 7.857144
_cell_length_c 14.425119
_cell_angle_alpha 80.007958
_cell_angle_beta 102.589818
_cell_angle_gamma 123.558956
_cell_volume 557.235730
_symmetry_space_group_name_H-M "P -1"
_symmetry_group_IT_number 2
_symmetry_cell_setting 'triclinic'
loop_
_space_group_symop_operation_xyz
x,y,z
-x,-y,-z
loop_
_atom_site_type_symbol
_atom_site_label
_atom_site_fract_x
_atom_site_fract_y
_atom_site_fract_z
Si Si1 0.105270 0.279048 0.668881
Si Si2 0.207070 0.334226 0.185646
Si Si3 0.500000 0.500000 0.000000
Si Si4 0.935250 0.900764 0.133802
Si Si5 0.013259 0.383886 0.345777
Si Si6 0.721895 0.781040 0.490355
Si Si7 0.556165 0.864337 0.951284
Si Si8 0.541033 0.855947 0.642925
O O1 0.067366 0.464976 0.636816
O O2 0.303534 0.274027 0.614068
O O3 0.181870 0.261397 0.781278
O O4 0.808450 0.077751 0.651372
O O5 0.332822 0.446661 0.091010
O O6 0.957192 0.106614 0.153282
O O7 0.388704 0.277815 0.270966
O O8 0.117081 0.432414 0.246031
O O9 0.351758 0.630042 0.932618
O O10 0.240554 0.987812 0.122721
O O11 0.748103 0.804354 0.035071
O O12 0.727671 0.166595 0.342954
O O13 0.209732 0.367059 0.434618
O O14 0.517709 0.794932 0.537847
O O15 0.000000 0.000000 0.500000
O O16 0.500000 0.000000 0.000000
#
# Coordination Sequence:
#
# PCOD9006012 Si02
#       8
#     2   2   1   2   2   2   2   2
#     4  10  21  38  64  92 125 161 212 262 305 375
#     4   9  21  41  57  89 125 157 206 266 306 375
#     4  10  22  40  64  90 124 156 212 268 308 382
#     4   9  21  42  57  86 127 154 204 264 307 374
#     4  11  22  38  64  92 121 168 212 249 320 379
#     4   9  20  41  60  88 131 162 202 265 304 368
#     4  10  22  41  64  88 121 166 205 257 326 376
#     4   9  21  41  61  86 128 163 204 257 315 368
#
# _framework density 26.918590999999999
#
# number of rings (size 3 to 8) (size 9 to 14) (size 15 to 20)
#    0.000    2.400    0.000    1.200    3.733    5.867 
#    0.000   10.667    0.000    0.000    0.000    0.000 
#    0.000    0.000    0.000    0.000    0.000    0.000 
#
# Total GULP energy -83721.713994 kJ/mol
# GULP energy per Si atom -5581.447600 kJ/mol
# Density = 2.685732 g / cm^3
# Si number density = 26.918591 Si / 1000 Ang^3
#
#
#
# Elastic Constant Matrix: (Units=GPa)
#
#
# Indices 1 2 3 4 5 6 
#
# 1 53.3401 20.6191 47.5467 1.2466 -21.8751 3.0280
# 2 20.6191 90.4453 25.8376 -16.8311 -19.6317 -2.2911
# 3 47.5467 25.8376 191.3796 0.1032 -42.3245 1.1115
# 4 1.2466 -16.8311 0.1032 45.5924 3.3933 -8.7563
# 5 -21.8751 -19.6317 -42.3245 3.3933 58.7940 7.3505
# 6 3.0280 -2.2911 1.1115 -8.7563 7.3505 41.2608
#
#
#
# Elastic Compliance Matrix: (Units=1/GPa)
#
#
# Indices 1 2 3 4 5 6 
#
# 1 0.027563 -0.004345 -0.004918 -0.003548 0.005962 -0.003947
# 2 -0.004345 0.013647 -0.000291 0.005345 0.002194 0.001828
# 3 -0.004918 -0.000291 0.007234 -0.000340 0.003365 -0.000522
# 4 -0.003548 0.005345 -0.000340 0.025368 -0.002034 0.006312
# 5 0.005962 0.002194 0.003365 -0.002034 0.023119 -0.004957
# 6 -0.003947 0.001828 -0.000522 0.006312 -0.004957 0.026864
#
#
# Mechanical properties :
#
#
# Convention : Reuss Voigt Hill
#
# Bulk Modulus (GPa) = 34.08775 58.13021 46.10898
# Shear Modulus (GPa) = 32.74780 45.20687 38.97734
#
# Velocity S-wave (km/s) = 3.49169 4.10248 3.80935
# Velocity P-wave (km/s) = 5.38021 6.63944 6.04272
#
# Compressibility (1/GPa) = 0.02933605
#
# Stress axis : x y z
#
# Youngs Moduli (GPa) = 36.28056 73.27448 138.23973
#
# Poissons Ratio (x) = 0.31836 0.67983
# Poissons Ratio (y) = 0.15763 0.04029
# Poissons Ratio (z) = 0.17842 0.02136
#
# Static dielectric constant tensor:
#      x y z
#    x 2.108420 -0.253660 0.079920 
#    y -0.253660 0.475410 -0.145280 
#    z 0.079920 -0.145280 2.080290 
# 
# From -- ./inp_files/48897.got.cif
#   From: 2010.05.17/outbox.cif.g08.bks.cpg/sg2_25_cif.got.tgz:48897.got - 2010.06.03 11:33:40.
