data_PCOD9006371
_publ_section_title
;
Structure prediction by ZEFSAII (Michael W. Deem and Ramdas Pophale) SiO2 
 PCOD9006371
Probable space group: P -1
;
_chemical_formula_sum "Si O2"
_cell_formula_units_Z 16
_cell_length_a 13.080787
_cell_length_b 10.785459
_cell_length_c 7.445763
_cell_angle_alpha 73.762438
_cell_angle_beta 135.330203
_cell_angle_gamma 118.485415
_cell_volume 646.071879
_symmetry_space_group_name_H-M "P -1"
_symmetry_group_IT_number 2
_symmetry_cell_setting 'triclinic'
loop_
_space_group_symop_operation_xyz
x,y,z
-x,-y,-z
loop_
_atom_site_type_symbol
_atom_site_label
_atom_site_fract_x
_atom_site_fract_y
_atom_site_fract_z
Si Si1 0.016640 0.912929 0.883283
Si Si2 0.584226 0.996427 0.328896
Si Si3 0.597768 0.387771 0.276304
Si Si4 0.886362 0.498421 0.025701
Si Si5 0.410035 0.702158 0.101124
Si Si6 0.704625 0.653538 0.539202
Si Si7 0.343400 0.110654 0.157272
Si Si8 0.160692 0.737421 0.361207
O O1 0.845843 0.811176 0.628249
O O2 0.093489 0.807469 0.095899
O O3 0.000000 0.000000 0.000000
O O4 0.159128 0.031203 0.902686
O O5 0.504577 0.871069 0.140536
O O6 0.634272 0.926879 0.593015
O O7 0.450235 0.046089 0.211078
O O8 0.744118 0.136993 0.432396
O O9 0.662062 0.547369 0.358942
O O10 0.420234 0.279242 0.153669
O O11 0.708695 0.315305 0.528417
O O12 0.615939 0.371566 0.094424
O O13 0.760535 0.348194 0.997516
O O14 0.775573 0.578762 0.800135
O O15 0.000000 0.500000 0.000000
O O16 0.010776 0.597220 0.288957
O O17 0.538231 0.658340 0.380212
#
# Coordination Sequence:
#
# PCOD9006371 Si02
#       8
#     2   2   2   2   2   2   2   2
#     4  10  21  38  65  98 122 156 219 265 304 358
#     4   9  19  36  63  89 120 157 214 252 303 357
#     4  11  23  41  61  90 135 166 206 246 321 381
#     4  11  23  41  67  90 119 157 216 265 307 357
#     4  12  26  39  62  95 128 169 206 254 313 382
#     4  11  23  42  65  90 128 166 207 263 307 365
#     4   9  19  36  65  88 120 164 203 261 306 363
#     4   9  20  38  61  93 117 162 203 260 302 365
#
# _framework density 24.765046000000002
#
# number of rings (size 3 to 8) (size 9 to 14) (size 15 to 20)
#    0.000    1.750    1.250    3.750    7.000    4.500 
#    0.000    1.875    0.000    0.000    0.000    0.000 
#    0.000    0.000    0.000    0.000    0.000    0.000 
#
# Total GULP energy -89392.628983 kJ/mol
# GULP energy per Si atom -5587.039311 kJ/mol
# Density = 2.470868 g / cm^3
# Si number density = 24.765046 Si / 1000 Ang^3
#
#
#
# Elastic Constant Matrix: (Units=GPa)
#
#
# Indices 1 2 3 4 5 6 
#
# 1 71.5229 49.0304 49.9006 25.6120 16.0791 3.3933
# 2 49.0304 117.2871 69.8509 50.2977 10.3280 -4.7552
# 3 49.9006 69.8509 100.7609 61.1528 20.8912 17.0031
# 4 25.6120 50.2977 61.1528 63.7873 3.8445 2.3108
# 5 16.0791 10.3280 20.8912 3.8445 43.1659 11.1827
# 6 3.3933 -4.7552 17.0031 2.3108 11.1827 39.6481
#
#
#
# Elastic Compliance Matrix: (Units=1/GPa)
#
#
# Indices 1 2 3 4 5 6 
#
# 1 0.024262 -0.005237 -0.011509 0.005524 -0.003454 0.002883
# 2 -0.005237 0.017612 -0.008274 -0.004108 0.000499 0.006207
# 3 -0.011509 -0.008274 0.043426 -0.029457 -0.008356 -0.014557
# 4 0.005524 -0.004108 -0.029457 0.044237 0.007430 0.006993
# 5 -0.003454 0.000499 -0.008356 0.007430 0.028921 -0.004651
# 6 0.002883 0.006207 -0.014557 0.006993 -0.004651 0.032867
#
#
# Mechanical properties :
#
#
# Convention : Reuss Voigt Hill
#
# Bulk Modulus (GPa) = 28.35881 69.68164 49.02022
# Shear Modulus (GPa) = 19.75378 37.37286 28.56332
#
# Velocity S-wave (km/s) = 2.82733 3.88892 3.39982
# Velocity P-wave (km/s) = 4.70472 6.95436 5.93707
#
# Compressibility (1/GPa) = 0.03526241
#
# Stress axis : x y z
#
# Youngs Moduli (GPa) = 41.21666 56.77977 23.02767
#
# Poissons Ratio (x) = 0.29733 0.26502
# Poissons Ratio (y) = 0.21583 0.19052
# Poissons Ratio (z) = 0.47434 0.46978
#
# Static dielectric constant tensor:
#      x y z
#    x 1.929930 0.012800 -0.003490 
#    y 0.012800 2.084100 0.029410 
#    z -0.003490 0.029410 2.044540 
# 
# From -- ./inp_files/307433.got.cif
#   From: 2010.05.17/outbox.cif.g08.bks.cpg/sg2_154_cif.got.tgz:307433.got - 2010.06.03 11:33:40.
