data_PCOD9006481
_publ_section_title
;
Structure prediction by ZEFSAII (Michael W. Deem and Ramdas Pophale) SiO2 
 PCOD9006481
Probable space group: P -1
;
_chemical_formula_sum "Si O2"
_cell_formula_units_Z 15
_cell_length_a 14.983417
_cell_length_b 9.174565
_cell_length_c 20.530799
_cell_angle_alpha 26.145261
_cell_angle_beta 32.960793
_cell_angle_gamma 38.520234
_cell_volume 671.584409
_symmetry_space_group_name_H-M "P -1"
_symmetry_group_IT_number 2
_symmetry_cell_setting 'triclinic'
loop_
_space_group_symop_operation_xyz
x,y,z
-x,-y,-z
loop_
_atom_site_type_symbol
_atom_site_label
_atom_site_fract_x
_atom_site_fract_y
_atom_site_fract_z
Si Si1 0.840265 0.458918 0.885726
Si Si2 0.778824 0.244143 0.869112
Si Si3 0.806064 0.782569 0.256555
Si Si4 0.542451 0.634675 0.650478
Si Si5 0.129764 0.164233 0.650384
Si Si6 0.460588 0.299230 0.954309
Si Si7 0.500000 0.500000 0.500000
Si Si8 0.292111 0.470403 0.771003
O O1 0.781743 0.455334 0.848389
O O2 0.035018 0.475734 0.759340
O O3 0.715547 0.715440 0.899245
O O4 0.812463 0.105762 0.077541
O O5 0.605217 0.321296 0.908500
O O6 0.937103 0.291246 0.709349
O O7 0.800011 0.854941 0.033298
O O8 0.843775 0.869041 0.274015
O O9 0.635939 0.631397 0.414248
O O10 0.740243 0.587890 0.551264
O O11 0.465721 0.613619 0.777080
O O12 0.447915 0.414352 0.748074
O O13 0.500000 0.000000 0.500000
O O14 0.181964 0.809186 0.725616
O O15 0.500000 0.000000 0.000000
O O16 0.363984 0.493459 0.645915
#
# Coordination Sequence:
#
# PCOD9006481 Si02
#       8
#     2   2   2   2   2   2   1   2
#     4  10  22  41  61  91 129 167 214 259 321 376
#     4  11  23  40  61  94 129 172 213 266 317 385
#     4  10  21  38  66  92 125 166 212 271 310 375
#     4  10  21  40  65  88 124 170 211 268 311 373
#     4  10  22  38  64  92 128 169 217 263 319 372
#     4  12  25  40  67  94 130 175 214 259 327 387
#     4  12  22  34  62 102 124 152 214 266 334 354
#     4  11  21  37  62  95 130 164 212 269 314 382
#
# _framework density 22.335242000000001
#
# number of rings (size 3 to 8) (size 9 to 14) (size 15 to 20)
#    0.000    1.333    4.000    2.400    1.867    1.600 
#    0.000    0.000    2.933    2.400    0.000    0.000 
#    0.000    0.000    0.000    0.000    0.000    0.000 
#
# Total GULP energy -83556.472470 kJ/mol
# GULP energy per Si atom -5570.431498 kJ/mol
# Density = 2.228441 g / cm^3
# Si number density = 22.335242 Si / 1000 Ang^3
#
#
#
# Elastic Constant Matrix: (Units=GPa)
#
#
# Indices 1 2 3 4 5 6 
#
# 1 63.7118 12.1041 -0.8355 -0.6656 3.8333 8.4310
# 2 12.1041 97.9442 17.7370 28.2894 0.9933 14.2510
# 3 -0.8355 17.7370 64.0567 23.7597 -17.7354 2.4464
# 4 -0.6656 28.2894 23.7597 31.3001 3.4768 3.8059
# 5 3.8333 0.9933 -17.7354 3.4768 35.6282 8.6853
# 6 8.4310 14.2510 2.4464 3.8059 8.6853 25.5211
#
#
#
# Elastic Compliance Matrix: (Units=1/GPa)
#
#
# Indices 1 2 3 4 5 6 
#
# 1 0.016828 -0.002409 -0.000766 0.003791 -0.001469 -0.004206
# 2 -0.002409 0.015682 0.003368 -0.016416 0.004932 -0.007514
# 3 -0.000766 0.003368 0.030641 -0.027637 0.019679 -0.007140
# 4 0.003791 -0.016416 -0.027637 0.069379 -0.022388 0.007836
# 5 -0.001469 0.004932 0.019679 -0.022388 0.043911 -0.015760
# 6 -0.004206 -0.007514 -0.007140 0.007836 -0.015760 0.049648
#
#
# Mechanical properties :
#
#
# Convention : Reuss Voigt Hill
#
# Bulk Modulus (GPa) = 15.73894 31.52486 23.63190
# Shear Modulus (GPa) = 20.25253 31.60369 25.92811
#
# Velocity S-wave (km/s) = 3.01450 3.76569 3.41084
# Velocity P-wave (km/s) = 4.37930 5.74911 5.11031
#
# Compressibility (1/GPa) = 0.06353669
#
# Stress axis : x y z
#
# Youngs Moduli (GPa) = 59.42516 63.76539 32.63610
#
# Poissons Ratio (x) = 0.15361 0.02499
# Poissons Ratio (y) = 0.14316 -0.10990
# Poissons Ratio (z) = 0.04551 -0.21473
#
# Static dielectric constant tensor:
#      x y z
#    x 1.818550 -0.042030 0.014920 
#    y -0.042030 1.901300 -0.030470 
#    z 0.014920 -0.030470 1.862610 
# 
# From -- ./inp_files/597085.got.cif
#   From: 2010.05.17/outbox.cif.g08.bks.cpg/sg2_299_cif.got.tgz:597085.got - 2010.06.03 11:33:40.
