data_PCOD9006036
_publ_section_title
;
Structure prediction by ZEFSAII (Michael W. Deem and Ramdas Pophale) SiO2 
 PCOD9006036
Probable space group: P -1
;
_chemical_formula_sum "Si O2"
_cell_formula_units_Z 14
_cell_length_a 10.823786
_cell_length_b 9.831807
_cell_length_c 9.973354
_cell_angle_alpha 130.654612
_cell_angle_beta 115.743044
_cell_angle_gamma 83.212118
_cell_volume 703.871075
_symmetry_space_group_name_H-M "P -1"
_symmetry_group_IT_number 2
_symmetry_cell_setting 'triclinic'
loop_
_space_group_symop_operation_xyz
x,y,z
-x,-y,-z
loop_
_atom_site_type_symbol
_atom_site_label
_atom_site_fract_x
_atom_site_fract_y
_atom_site_fract_z
Si Si1 0.005395 0.861777 0.041063
Si Si2 0.586858 0.713661 0.165161
Si Si3 0.136668 0.076169 0.708381
Si Si4 0.582636 0.006337 0.858591
Si Si5 0.700474 0.197350 0.282741
Si Si6 0.731214 0.871581 0.603983
Si Si7 0.106484 0.419625 0.407449
O O1 0.907322 0.874733 0.131086
O O2 0.161443 0.926686 0.219753
O O3 0.964637 0.668055 0.820480
O O4 0.000000 0.000000 0.000000
O O5 0.738056 0.757764 0.185316
O O6 0.488878 0.835855 0.131288
O O7 0.632901 0.803725 0.388969
O O8 0.500000 0.500000 0.000000
O O9 0.210027 0.905337 0.647553
O O10 0.000000 0.000000 0.500000
O O11 0.462300 0.864726 0.793199
O O12 0.639096 0.887442 0.699692
O O13 0.706062 0.113724 0.083195
O O14 0.761751 0.412522 0.453107
O O15 0.832582 0.731776 0.581124
O O16 0.000000 0.500000 0.500000
#
# Coordination Sequence:
#
# PCOD9006036 Si02
#       7
#     2   2   2   2   2   2   2
#     4  10  21  38  64  93 123 172 210 259 329 385
#     4  11  24  40  66  95 132 175 215 268 326 386
#     4  11  22  43  67  93 136 170 212 271 336 388
#     4  10  22  40  63  89 128 175 218 254 331 395
#     4  10  21  39  62  91 126 167 215 272 317 386
#     4  11  21  39  61  88 129 171 213 264 326 389
#     4  11  22  36  63  94 126 163 223 272 318 387
#
# _framework density 19.890007000000001
#
# number of rings (size 3 to 8) (size 9 to 14) (size 15 to 20)
#    0.000    1.429    1.429    5.571    0.000    1.714 
#    0.000    0.714    0.000    0.000    0.000    0.000 
#    0.000    0.000    0.000    0.000    0.000    0.000 
#
# Total GULP energy -78093.335021 kJ/mol
# GULP energy per Si atom -5578.095359 kJ/mol
# Density = 1.984474 g / cm^3
# Si number density = 19.890007 Si / 1000 Ang^3
#
#
#
# Elastic Constant Matrix: (Units=GPa)
#
#
# Indices 1 2 3 4 5 6 
#
# 1 96.2886 13.2091 42.3273 1.7860 -15.8412 12.7333
# 2 13.2091 49.1023 38.2025 -0.7673 9.7203 3.9434
# 3 42.3273 38.2025 159.5918 0.3872 8.1890 14.3169
# 4 1.7860 -0.7673 0.3872 25.6209 2.5583 6.9396
# 5 -15.8412 9.7203 8.1890 2.5583 44.1446 -5.7772
# 6 12.7333 3.9434 14.3169 6.9396 -5.7772 29.1061
#
#
#
# Elastic Compliance Matrix: (Units=1/GPa)
#
#
# Indices 1 2 3 4 5 6 
#
# 1 0.013296 -0.002067 -0.003062 -0.000740 0.005475 -0.002767
# 2 -0.002067 0.026401 -0.005318 0.002073 -0.005914 -0.001725
# 3 -0.003062 -0.005318 0.008703 0.000883 -0.001963 -0.002821
# 4 -0.000740 0.002073 0.000883 0.042746 -0.004875 -0.011551
# 5 0.005475 -0.005914 -0.001963 -0.004875 0.027347 0.005962
# 6 -0.002767 -0.001725 -0.002821 -0.011551 0.005962 0.041126
#
#
# Mechanical properties :
#
#
# Convention : Reuss Voigt Hill
#
# Bulk Modulus (GPa) = 36.35870 54.71780 45.53825
# Shear Modulus (GPa) = 26.35984 33.85725 30.10855
#
# Velocity S-wave (km/s) = 3.64439 4.13028 3.89492
# Velocity P-wave (km/s) = 6.00236 7.09334 6.57053
#
# Compressibility (1/GPa) = 0.02750373
#
# Stress axis : x y z
#
# Youngs Moduli (GPa) = 75.21282 37.87690 114.90468
#
# Poissons Ratio (x) = 0.07830 0.35188
# Poissons Ratio (y) = 0.15549 0.61111
# Poissons Ratio (z) = 0.23033 0.20144
#
# Static dielectric constant tensor:
#      x y z
#    x 1.752590 0.027220 0.010720 
#    y 0.027220 1.712100 -0.017750 
#    z 0.010720 -0.017750 1.716310 
# 
# From -- ./inp_files/188829.got.cif
#   From: 2010.05.17/outbox.cif.g08.bks.cpg/sg2_95_cif.got.tgz:188829.got - 2010.06.03 11:33:40.
