data_PCOD9006047
_publ_section_title
;
Structure prediction by ZEFSAII (Michael W. Deem and Ramdas Pophale) SiO2 
 PCOD9006047
Probable space group: P -1
;
_chemical_formula_sum "Si O2"
_cell_formula_units_Z 14
_cell_length_a 14.838323
_cell_length_b 14.837371
_cell_length_c 25.909662
_cell_angle_alpha 22.100361
_cell_angle_beta 22.101619
_cell_angle_gamma 20.712408
_cell_volume 677.853617
_symmetry_space_group_name_H-M "P -1"
_symmetry_group_IT_number 2
_symmetry_cell_setting 'triclinic'
loop_
_space_group_symop_operation_xyz
x,y,z
-x,-y,-z
loop_
_atom_site_type_symbol
_atom_site_label
_atom_site_fract_x
_atom_site_fract_y
_atom_site_fract_z
Si Si1 0.573726 0.573665 0.328895
Si Si2 0.610166 0.610135 0.109323
Si Si3 0.136759 0.136807 0.322431
Si Si4 0.304053 0.304118 0.471107
Si Si5 0.645963 0.645883 0.817475
Si Si6 0.748912 0.749021 0.350077
Si Si7 0.212738 0.212721 0.981541
O O1 0.409690 0.409590 0.501046
O O2 0.643775 0.643471 0.199182
O O3 0.878644 0.381771 0.296118
O O4 0.381648 0.878734 0.296102
O O5 0.467937 0.468125 0.290099
O O6 0.745296 0.745322 0.002574
O O7 0.880764 0.371390 0.060964
O O8 0.371640 0.880697 0.060842
O O9 0.254150 0.254122 0.239651
O O10 0.000000 0.000000 0.500000
O O11 0.260804 0.260821 0.577176
O O12 0.000000 0.500000 0.500000
O O13 0.500000 0.000000 0.500000
O O14 0.928151 0.429171 0.748956
O O15 0.429341 0.928002 0.748930
O O16 0.500000 0.500000 0.000000
#
# Coordination Sequence:
#
# PCOD9006047 Si02
#       7
#     2   2   2   2   2   2   2
#     4  12  22  41  69 100 128 169 224 272 333 399
#     4  10  21  40  62  92 128 168 210 271 333 374
#     4  12  23  41  70 100 131 164 224 289 322 396
#     4  12  26  46  68  96 135 180 232 274 318 412
#     4  12  27  48  69  99 141 178 223 282 346 403
#     4  12  24  47  74  93 131 186 227 272 346 403
#     4  10  21  38  64  93 130 163 206 271 336 390
#
# _framework density 20.653427000000001
#
# number of rings (size 3 to 8) (size 9 to 14) (size 15 to 20)
#    0.000    0.571    4.286    4.286    0.000    0.000 
#   15.429    0.000    0.000    0.000    0.000    0.000 
#    0.000    0.000    0.000    0.000    0.000    0.000 
#
# Total GULP energy -78198.215867 kJ/mol
# GULP energy per Si atom -5585.586848 kJ/mol
# Density = 2.060642 g / cm^3
# Si number density = 20.653427 Si / 1000 Ang^3
#
#
#
# Elastic Constant Matrix: (Units=GPa)
#
#
# Indices 1 2 3 4 5 6 
#
# 1 93.9455 67.4567 42.0272 -3.4805 -0.0162 -1.2578
# 2 67.4567 234.1859 66.5070 5.6817 12.4704 -24.4360
# 3 42.0272 66.5070 157.4888 2.1667 12.0250 -4.5173
# 4 -3.4805 5.6817 2.1667 38.8613 -1.4641 8.8295
# 5 -0.0162 12.4704 12.0250 -1.4641 30.7975 -4.1248
# 6 -1.2578 -24.4360 -4.5173 8.8295 -4.1248 20.8080
#
#
#
# Elastic Compliance Matrix: (Units=1/GPa)
#
#
# Indices 1 2 3 4 5 6 
#
# 1 0.015001 -0.004424 -0.002518 0.003557 0.002159 -0.005917
# 2 -0.004424 0.007012 -0.001382 -0.003405 -0.001277 0.008859
# 3 -0.002518 -0.001382 0.007796 -0.000465 -0.002560 -0.000393
# 4 0.003557 -0.003405 -0.000465 0.030381 0.000780 -0.016622
# 5 0.002159 -0.001277 -0.002560 0.000780 0.034643 0.004611
# 6 -0.005917 0.008859 -0.000393 -0.016622 0.004611 0.065986
#
#
# Mechanical properties :
#
#
# Convention : Reuss Voigt Hill
#
# Bulk Modulus (GPa) = 75.99039 93.06688 84.52864
# Shear Modulus (GPa) = 27.49446 38.73532 33.11489
#
# Velocity S-wave (km/s) = 3.65256 4.33539 4.00854
# Velocity P-wave (km/s) = 7.39333 8.37973 7.90193
#
# Compressibility (1/GPa) = 0.01315956
#
# Stress axis : x y z
#
# Youngs Moduli (GPa) = 66.66285 142.61123 128.27266
#
# Poissons Ratio (x) = 0.63098 0.32301
# Poissons Ratio (y) = 0.29495 0.17727
# Poissons Ratio (z) = 0.16787 0.19708
#
# Static dielectric constant tensor:
#      x y z
#    x 1.731550 -0.021790 0.009010 
#    y -0.021790 1.853010 0.001280 
#    z 0.009010 0.001280 1.695540 
# 
# From -- ./inp_files/454744.got.cif
#   From: 2010.05.17/outbox.cif.g08.bks.cpg/sg2_228_cif.got.tgz:454744.got - 2010.06.03 11:33:40.
