data_PCOD9006764
_publ_section_title
;
Structure prediction by ZEFSAII (Michael W. Deem and Ramdas Pophale) SiO2 
 PCOD9006764
Probable space group: P -1
;
_chemical_formula_sum "Si O2"
_cell_formula_units_Z 14
_cell_length_a 9.349989
_cell_length_b 20.974225
_cell_length_c 9.739037
_cell_angle_alpha 47.665963
_cell_angle_beta 132.984079
_cell_angle_gamma 150.943757
_cell_volume 662.240836
_symmetry_space_group_name_H-M "P -1"
_symmetry_group_IT_number 2
_symmetry_cell_setting 'triclinic'
loop_
_space_group_symop_operation_xyz
x,y,z
-x,-y,-z
loop_
_atom_site_type_symbol
_atom_site_label
_atom_site_fract_x
_atom_site_fract_y
_atom_site_fract_z
Si Si1 0.849650 0.026272 0.953945
Si Si2 0.318095 0.666451 0.793042
Si Si3 0.365010 0.529628 0.465791
Si Si4 0.016762 0.170634 0.592611
Si Si5 0.769633 0.242001 0.157554
Si Si6 0.566625 0.493411 0.901475
Si Si7 0.136703 0.051803 0.361831
O O1 0.933272 0.132489 0.753580
O O2 0.493064 0.884686 0.925038
O O3 0.968720 0.062408 0.133524
O O4 0.000000 0.000000 0.000000
O O5 0.338405 0.712222 0.893237
O O6 0.451907 0.615926 0.960495
O O7 0.518958 0.796078 0.638411
O O8 0.964694 0.550551 0.683490
O O9 0.500000 0.500000 0.500000
O O10 0.622345 0.691362 0.394073
O O11 0.365275 0.482446 0.681550
O O12 0.844814 0.195719 0.387556
O O13 0.906100 0.052917 0.596744
O O14 0.083147 0.367059 0.107294
O O15 0.500000 0.500000 0.000000
O O16 0.000000 0.000000 0.500000
#
# Coordination Sequence:
#
# PCOD9006764 Si02
#       7
#     2   2   2   2   2   2   2
#     4  10  21  38  68  98 130 181 229 277 340 407
#     4  12  25  44  75 101 139 185 237 281 349 418
#     4  11  25  43  74 108 137 182 234 293 340 414
#     4  10  22  43  69  98 142 169 239 279 342 406
#     4  11  22  42  72 104 129 185 231 290 337 415
#     4  11  28  45  67 104 145 179 232 289 354 410
#     4  11  27  43  65 100 142 181 228 287 348 414
#
# _framework density 21.140345
#
# number of rings (size 3 to 8) (size 9 to 14) (size 15 to 20)
#    0.000    1.143    5.714    0.857   10.000    1.714 
#    0.000    0.714    0.000    0.000    0.000    0.000 
#    0.000    0.000    0.000    0.000    0.000    0.000 
#
# Total GULP energy -78244.475964 kJ/mol
# GULP energy per Si atom -5588.891140 kJ/mol
# Density = 2.109223 g / cm^3
# Si number density = 21.140345 Si / 1000 Ang^3
#
#
#
# Elastic Constant Matrix: (Units=GPa)
#
#
# Indices 1 2 3 4 5 6 
#
# 1 62.1430 4.7337 45.0710 -14.0304 -16.3615 -5.7052
# 2 4.7337 116.9373 33.0636 -2.4656 12.5947 0.6791
# 3 45.0710 33.0636 104.3462 -8.8800 -24.0795 -12.4103
# 4 -14.0304 -2.4656 -8.8800 37.0821 -0.7213 2.1095
# 5 -16.3615 12.5947 -24.0795 -0.7213 36.4236 -3.1577
# 6 -5.7052 0.6791 -12.4103 2.1095 -3.1577 18.9233
#
#
#
# Elastic Compliance Matrix: (Units=1/GPa)
#
#
# Indices 1 2 3 4 5 6 
#
# 1 0.026307 0.001273 -0.009719 0.007726 0.005237 0.001524
# 2 0.001273 0.011347 -0.006785 -0.000219 -0.008348 -0.005842
# 3 -0.009719 -0.006785 0.020366 0.000268 0.012554 0.012735
# 4 0.007726 -0.000219 0.000268 0.030030 0.004308 -0.000116
# 5 0.005237 -0.008348 0.012554 0.004308 0.042529 0.016728
# 6 0.001524 -0.005842 0.012735 -0.000116 0.016728 0.064670
#
#
# Mechanical properties :
#
#
# Convention : Reuss Voigt Hill
#
# Bulk Modulus (GPa) = 36.28797 49.90702 43.09750
# Shear Modulus (GPa) = 21.28586 31.85632 26.57109
#
# Velocity S-wave (km/s) = 3.17659 3.88609 3.54911
# Velocity P-wave (km/s) = 5.53686 6.61773 6.10127
#
# Compressibility (1/GPa) = 0.02755734
#
# Stress axis : x y z
#
# Youngs Moduli (GPa) = 38.01254 88.12866 49.10159
#
# Poissons Ratio (x) = -0.11220 0.47723
# Poissons Ratio (y) = -0.04840 0.33317
# Poissons Ratio (z) = 0.36945 0.59798
#
# Static dielectric constant tensor:
#      x y z
#    x 1.756810 0.099340 0.053370 
#    y 0.099340 2.519060 0.056190 
#    z 0.053370 0.056190 1.842650 
# 
# From -- ./inp_files/223293.got.cif
#   From: 2010.05.17/outbox.cif.g08.bks.cpg/sg2_112_cif.got.tgz:223293.got - 2010.06.03 11:33:40.
