data_PCOD9006495
_publ_section_title
;
Structure prediction by ZEFSAII (Michael W. Deem and Ramdas Pophale) SiO2 
 PCOD9006495
Probable space group: P -1
;
_chemical_formula_sum "Si O2"
_cell_formula_units_Z 16
_cell_length_a 18.775184
_cell_length_b 13.143250
_cell_length_c 20.728678
_cell_angle_alpha 158.906159
_cell_angle_beta 159.754689
_cell_angle_gamma 28.119121
_cell_volume 636.134297
_symmetry_space_group_name_H-M "P -1"
_symmetry_group_IT_number 2
_symmetry_cell_setting 'triclinic'
loop_
_space_group_symop_operation_xyz
x,y,z
-x,-y,-z
loop_
_atom_site_type_symbol
_atom_site_label
_atom_site_fract_x
_atom_site_fract_y
_atom_site_fract_z
Si Si1 0.105667 0.344476 0.383051
Si Si2 0.336613 0.371329 0.475899
Si Si3 0.724617 0.300274 0.860082
Si Si4 0.594366 0.811258 0.889435
Si Si5 0.720948 0.081117 0.949647
Si Si6 0.744104 0.545561 0.741312
Si Si7 0.059593 0.205012 0.728306
Si Si8 0.533349 0.343090 0.060001
O O1 0.140242 0.448403 0.400330
O O2 0.251375 0.518753 0.656404
O O3 0.189830 0.018208 0.254371
O O4 0.884268 0.309316 0.204812
O O5 0.524739 0.319717 0.655393
O O6 0.409673 0.620452 0.639960
O O7 0.323342 0.098997 0.258130
O O8 0.644749 0.429674 0.936272
O O9 0.886181 0.501571 0.085634
O O10 0.754070 0.611528 0.864496
O O11 0.731485 0.896048 0.116485
O O12 0.521394 0.077977 0.942033
O O13 0.796404 0.833499 0.918400
O O14 0.538600 0.236237 0.928135
O O15 0.500000 0.500000 0.500000
O O16 0.878312 0.283425 0.671479
O O17 0.000000 0.000000 0.500000
#
# Coordination Sequence:
#
# PCOD9006495 Si02
#       8
#     2   2   2   2   2   2   2   2
#     4  11  22  44  63  89 130 173 213 257 318 377
#     4  10  21  38  66  93 126 166 208 260 316 380
#     4  10  23  43  63  90 129 172 210 257 325 375
#     4  10  23  42  65  98 128 170 214 260 329 371
#     4  11  22  39  66  96 122 164 222 257 314 375
#     4  11  22  42  67  92 132 167 205 264 324 389
#     4  11  25  40  66  97 132 163 215 273 310 384
#     4  10  23  40  69  92 129 170 211 265 312 381
#
# _framework density 25.151921999999999
#
# number of rings (size 3 to 8) (size 9 to 14) (size 15 to 20)
#    0.000    1.500    2.500    2.625    3.500    6.500 
#    2.250    2.500    0.000    0.000    0.000    0.000 
#    0.000    0.000    0.000    0.000    0.000    0.000 
#
# Total GULP energy -89649.742498 kJ/mol
# GULP energy per Si atom -5603.108906 kJ/mol
# Density = 2.509468 g / cm^3
# Si number density = 25.151922 Si / 1000 Ang^3
#
#
#
# Elastic Constant Matrix: (Units=GPa)
#
#
# Indices 1 2 3 4 5 6 
#
# 1 141.7131 13.3562 46.2674 4.6808 5.2682 -16.2185
# 2 13.3562 57.0637 8.7549 8.2469 10.9465 -0.4159
# 3 46.2674 8.7549 131.3611 8.0482 15.9119 4.1129
# 4 4.6808 8.2469 8.0482 33.2226 1.9055 1.6094
# 5 5.2682 10.9465 15.9119 1.9055 54.8184 11.6177
# 6 -16.2185 -0.4159 4.1129 1.6094 11.6177 38.3594
#
#
#
# Elastic Compliance Matrix: (Units=1/GPa)
#
#
# Indices 1 2 3 4 5 6 
#
# 1 0.008676 -0.001387 -0.003007 -0.000319 -0.000554 0.004157
# 2 -0.001387 0.019219 -0.000103 -0.004383 -0.003723 0.000944
# 3 -0.003007 -0.000103 0.009057 -0.001557 -0.001928 -0.001594
# 4 -0.000319 -0.004383 -0.001557 0.031651 0.000580 -0.001519
# 5 -0.000554 -0.003723 -0.001928 0.000580 0.020942 -0.006435
# 6 0.004157 0.000944 -0.001594 -0.001519 -0.006435 0.030020
#
#
# Mechanical properties :
#
#
# Convention : Reuss Voigt Hill
#
# Bulk Modulus (GPa) = 35.76553 51.87721 43.82137
# Shear Modulus (GPa) = 36.26430 42.73071 39.49751
#
# Velocity S-wave (km/s) = 3.80124 4.12625 3.96707
# Velocity P-wave (km/s) = 5.78935 6.58571 6.20033
#
# Compressibility (1/GPa) = 0.02795988
#
# Stress axis : x y z
#
# Youngs Moduli (GPa) = 115.26414 52.03199 110.40826
#
# Poissons Ratio (x) = 0.07215 0.33197
# Poissons Ratio (y) = 0.15983 0.01133
# Poissons Ratio (z) = 0.34657 0.00534
#
# Static dielectric constant tensor:
#      x y z
#    x 2.048780 0.004900 0.001740 
#    y 0.004900 2.006310 -0.012190 
#    z 0.001740 -0.012190 1.993690 
# 
# From -- ./inp_files/613818.got.cif
#   From: 2010.05.17/outbox.cif.g08.bks.cpg/sg2_307_cif.got.tgz:613818.got - 2010.06.03 11:33:40.
