data_PCOD9006360
_publ_section_title
;
Structure prediction by ZEFSAII (Michael W. Deem and Ramdas Pophale) SiO2 
 PCOD9006360
Probable space group: P -1
;
_chemical_formula_sum "Si O2"
_cell_formula_units_Z 16
_cell_length_a 9.574746
_cell_length_b 11.351195
_cell_length_c 7.400198
_cell_angle_alpha 95.361239
_cell_angle_beta 120.581328
_cell_angle_gamma 111.928302
_cell_volume 600.511629
_symmetry_space_group_name_H-M "P -1"
_symmetry_group_IT_number 2
_symmetry_cell_setting 'triclinic'
loop_
_space_group_symop_operation_xyz
x,y,z
-x,-y,-z
loop_
_atom_site_type_symbol
_atom_site_label
_atom_site_fract_x
_atom_site_fract_y
_atom_site_fract_z
Si Si1 0.470132 0.333519 0.578063
Si Si2 0.131795 0.760452 0.351101
Si Si3 0.092259 0.263194 0.265242
Si Si4 0.031871 0.036481 0.734907
Si Si5 0.332741 0.296390 0.101948
Si Si6 0.442283 0.876682 0.307319
Si Si7 0.733536 0.505798 0.081551
Si Si8 0.268418 0.752316 0.821399
O O1 0.289065 0.346209 0.509967
O O2 0.481263 0.339579 0.367946
O O3 0.419722 0.182809 0.580541
O O4 0.647763 0.434393 0.821144
O O5 0.079494 0.879814 0.307347
O O6 0.247159 0.764395 0.252701
O O7 0.262680 0.795852 0.619898
O O8 0.953472 0.613712 0.251226
O O9 0.163950 0.294121 0.112493
O O10 0.938497 0.294435 0.243860
O O11 0.022493 0.102698 0.217826
O O12 0.000000 0.000000 0.500000
O O13 0.244384 0.144311 0.948170
O O14 0.353685 0.392195 0.962787
O O15 0.500000 0.000000 0.500000
O O16 0.401151 0.869848 0.066943
O O17 0.693491 0.375028 0.157326
#
# Coordination Sequence:
#
# PCOD9006360 Si02
#       8
#     2   2   2   2   2   2   2   2
#     4   9  22  39  64  93 132 166 214 269 316 379
#     4  11  24  42  69  97 128 177 216 267 326 383
#     4  10  21  38  65  97 123 170 217 259 331 377
#     4  11  20  36  62  91 130 157 214 267 318 386
#     4   9  21  36  65  88 124 171 212 263 321 377
#     4  11  25  43  67  97 132 172 217 266 328 393
#     4  10  21  43  63  96 131 169 220 264 316 391
#     4  11  23  41  69  96 135 170 215 272 317 388
#
# _framework density 26.643947000000001
#
# number of rings (size 3 to 8) (size 9 to 14) (size 15 to 20)
#    0.750    1.000    1.250    3.375    1.750    5.000 
#    0.000    3.125    0.000    0.000    0.000    0.000 
#    0.000    0.000    0.000    0.000    0.000    0.000 
#
# Total GULP energy -89360.749391 kJ/mol
# GULP energy per Si atom -5585.046837 kJ/mol
# Density = 2.658330 g / cm^3
# Si number density = 26.643947 Si / 1000 Ang^3
#
#
#
# Elastic Constant Matrix: (Units=GPa)
#
#
# Indices 1 2 3 4 5 6 
#
# 1 74.7824 -1.9834 11.0701 -11.0666 -2.0706 -13.6230
# 2 -1.9834 133.1004 50.1393 0.1768 3.3169 6.4204
# 3 11.0701 50.1393 162.1026 -7.6060 -15.9122 4.7970
# 4 -11.0666 0.1768 -7.6060 47.8425 6.3891 2.6954
# 5 -2.0706 3.3169 -15.9122 6.3891 29.7527 -12.9090
# 6 -13.6230 6.4204 4.7970 2.6954 -12.9090 43.0882
#
#
#
# Elastic Compliance Matrix: (Units=1/GPa)
#
#
# Indices 1 2 3 4 5 6 
#
# 1 0.014940 0.000250 -0.000907 0.002714 0.002238 0.005288
# 2 0.000250 0.008837 -0.003026 0.000115 -0.003454 -0.001943
# 3 -0.000907 -0.003026 0.007611 0.000367 0.004552 0.000658
# 4 0.002714 0.000115 0.000367 0.022435 -0.005411 -0.002224
# 5 0.002238 -0.003454 0.004552 -0.005411 0.043913 0.014210
# 6 0.005288 -0.001943 0.000658 -0.002224 0.014210 0.029493
#
#
# Mechanical properties :
#
#
# Convention : Reuss Voigt Hill
#
# Bulk Modulus (GPa) = 41.63052 54.27083 47.95067
# Shear Modulus (GPa) = 35.06233 44.85397 39.95815
#
# Velocity S-wave (km/s) = 3.63155 4.10745 3.87681
# Velocity P-wave (km/s) = 5.76566 6.55042 6.17053
#
# Compressibility (1/GPa) = 0.02402084
#
# Stress axis : x y z
#
# Youngs Moduli (GPa) = 66.93469 113.16644 131.38020
#
# Poissons Ratio (x) = -0.02827 0.11916
# Poissons Ratio (y) = -0.01672 0.39761
# Poissons Ratio (z) = 0.06071 0.34249
#
# Static dielectric constant tensor:
#      x y z
#    x 2.164450 0.012220 0.090300 
#    y 0.012220 2.323520 -0.002130 
#    z 0.090300 -0.002130 2.157520 
# 
# From -- ./inp_files/307634.got.cif
#   From: 2010.05.17/outbox.cif.g08.bks.cpg/sg2_154_cif.got.tgz:307634.got - 2010.06.03 11:33:40.
