data_PCOD9006998
_publ_section_title
;
Structure prediction by ZEFSAII (Michael W. Deem and Ramdas Pophale) SiO2 
 PCOD9006998
Probable space group: P -1
;
_chemical_formula_sum "Si O2"
_cell_formula_units_Z 14
_cell_length_a 25.010460
_cell_length_b 31.815857
_cell_length_c 9.221305
_cell_angle_alpha 145.829061
_cell_angle_beta 34.936956
_cell_angle_gamma 170.345852
_cell_volume 690.477828
_symmetry_space_group_name_H-M "P -1"
_symmetry_group_IT_number 2
_symmetry_cell_setting 'triclinic'
loop_
_space_group_symop_operation_xyz
x,y,z
-x,-y,-z
loop_
_atom_site_type_symbol
_atom_site_label
_atom_site_fract_x
_atom_site_fract_y
_atom_site_fract_z
Si Si1 0.281628 0.689763 0.019483
Si Si2 0.147648 0.410947 0.493827
Si Si3 0.656215 0.037097 0.749767
Si Si4 0.236869 0.476373 0.929838
Si Si5 0.048225 0.489462 0.508910
Si Si6 0.265892 0.141584 0.336928
Si Si7 0.994663 0.215531 0.976679
O O1 0.232047 0.700871 0.305968
O O2 0.657040 0.984130 0.997301
O O3 0.204129 0.542097 0.778260
O O4 0.000000 0.500000 0.000000
O O5 0.460314 0.618968 0.475703
O O6 0.803817 0.131827 0.534930
O O7 0.117322 0.360370 0.251843
O O8 0.956410 0.253412 0.800546
O O9 0.371361 0.765683 0.652059
O O10 0.500000 0.000000 0.000000
O O11 0.549781 0.730255 0.860625
O O12 0.119689 0.459586 0.228843
O O13 0.240009 0.412407 0.858781
O O14 0.000000 0.500000 0.500000
O O15 0.000000 0.000000 0.500000
O O16 0.097494 0.936888 0.188878
#
# Coordination Sequence:
#
# PCOD9006998 Si02
#       7
#     2   2   2   2   2   2   2
#     4  11  22  33  52  86 131 170 195 233 287 356
#     4  10  21  39  58  90 125 161 207 249 301 367
#     4  11  19  34  56  83 126 171 205 239 291 353
#     4  11  24  39  61  92 123 162 207 254 303 366
#     4  12  20  32  54  84 123 166 207 235 279 354
#     4  10  24  48  68  86 118 156 206 272 324 369
#     4  11  24  40  62  94 126 158 210 257 306 369
#
# _framework density 20.275814
#
# number of rings (size 3 to 8) (size 9 to 14) (size 15 to 20)
#    0.000    1.143    2.857    5.143    0.000    3.429 
#    0.000    0.714    0.000    0.000    0.000    0.000 
#    0.000    0.000    0.000    0.000    0.000    0.000 
#
# Total GULP energy -78042.900641 kJ/mol
# GULP energy per Si atom -5574.492903 kJ/mol
# Density = 2.022967 g / cm^3
# Si number density = 20.275814 Si / 1000 Ang^3
#
#
#
# Elastic Constant Matrix: (Units=GPa)
#
#
# Indices 1 2 3 4 5 6 
#
# 1 108.7420 40.4391 35.9869 -20.2509 4.2359 -4.5694
# 2 40.4391 66.0713 18.7762 -1.8480 -11.9161 -3.3513
# 3 35.9869 18.7762 56.9741 2.0799 3.3343 -0.8871
# 4 -20.2509 -1.8480 2.0799 18.8910 1.3774 -0.7628
# 5 4.2359 -11.9161 3.3343 1.3774 30.2081 -0.6691
# 6 -4.5694 -3.3513 -0.8871 -0.7628 -0.6691 44.3698
#
#
#
# Elastic Compliance Matrix: (Units=1/GPa)
#
#
# Indices 1 2 3 4 5 6 
#
# 1 0.021297 -0.010631 -0.010369 0.023507 -0.007075 0.001480
# 2 -0.010631 0.023906 -0.001473 -0.009710 0.011541 0.000688
# 3 -0.010369 -0.001473 0.025158 -0.013973 -0.001288 -0.000936
# 4 0.023507 -0.009710 -0.013973 0.079497 -0.009150 0.002637
# 5 -0.007075 0.011541 -0.001288 -0.009150 0.039220 0.000552
# 6 0.001480 0.000688 -0.000936 0.002637 0.000552 0.022777
#
#
# Mechanical properties :
#
#
# Convention : Reuss Voigt Hill
#
# Bulk Modulus (GPa) = 39.35092 46.91018 43.13055
# Shear Modulus (GPa) = 18.84853 27.79947 23.32400
#
# Velocity S-wave (km/s) = 3.05225 3.70681 3.39534
# Velocity P-wave (km/s) = 5.64549 6.44258 6.05716
#
# Compressibility (1/GPa) = 0.02541237
#
# Stress axis : x y z
#
# Youngs Moduli (GPa) = 46.95566 41.83112 39.74908
#
# Poissons Ratio (x) = 0.44472 0.41217
# Poissons Ratio (y) = 0.49920 0.05857
# Poissons Ratio (z) = 0.48689 0.06163
#
# Static dielectric constant tensor:
#      x y z
#    x 1.844440 -0.052370 -0.041550 
#    y -0.052370 1.746790 0.045300 
#    z -0.041550 0.045300 1.730020 
# 
# From -- ./inp_files/119470.got.cif
#   From: 2010.05.17/outbox.cif.g08.bks.cpg/sg2_60_cif.got.tgz:119470.got - 2010.06.03 11:33:40.
