data_PCOD9006100
_publ_section_title
;
Structure prediction by ZEFSAII (Michael W. Deem and Ramdas Pophale) SiO2 
 PCOD9006100
Probable space group: P -1
;
_chemical_formula_sum "Si O2"
_cell_formula_units_Z 16
_cell_length_a 19.773224
_cell_length_b 16.517950
_cell_length_c 8.010684
_cell_angle_alpha 125.757526
_cell_angle_beta 134.040023
_cell_angle_gamma 19.844529
_cell_volume 612.015434
_symmetry_space_group_name_H-M "P -1"
_symmetry_group_IT_number 2
_symmetry_cell_setting 'triclinic'
loop_
_space_group_symop_operation_xyz
x,y,z
-x,-y,-z
loop_
_atom_site_type_symbol
_atom_site_label
_atom_site_fract_x
_atom_site_fract_y
_atom_site_fract_z
Si Si1 0.930803 0.273778 0.955726
Si Si2 0.831785 0.152063 0.054368
Si Si3 0.482040 0.386294 0.578107
Si Si4 0.685790 0.878888 0.061224
Si Si5 0.476698 0.254158 0.969558
Si Si6 0.280521 0.414719 0.486395
Si Si7 0.002915 0.582911 0.933457
Si Si8 0.872238 0.963789 0.456225
O O1 0.760190 0.387496 0.664643
O O2 0.757100 0.457879 0.037067
O O3 0.011110 0.307280 0.077762
O O4 0.120445 0.006483 0.995966
O O5 0.938162 0.131355 0.334956
O O6 0.567048 0.406426 0.834455
O O7 0.000000 0.000000 0.000000
O O8 0.447211 0.334534 0.592026
O O9 0.686156 0.165222 0.526745
O O10 0.780191 0.789451 0.921451
O O11 0.539204 0.124371 0.080514
O O12 0.922197 0.600515 0.219474
O O13 0.500000 0.000000 0.000000
O O14 0.706197 0.102373 0.179134
O O15 0.406285 0.265175 0.693622
O O16 0.217328 0.402220 0.211759
O O17 0.030430 0.711705 0.451061
#
# Coordination Sequence:
#
# PCOD9006100 Si02
#       8
#     2   2   2   2   2   2   2   2
#     4  10  21  41  66  93 129 175 214 257 325 373
#     4  10  21  38  64  96 129 171 221 263 307 372
#     4   9  22  38  61  88 126 173 210 267 305 371
#     4  11  22  43  71  95 124 164 213 259 328 385
#     4  11  22  39  69  93 126 173 210 264 323 378
#     4  11  23  40  63  96 129 165 217 257 318 378
#     4  10  23  42  67  93 132 165 204 271 316 385
#     4  10  22  42  60  90 135 169 210 268 312 369
#
# _framework density 26.143131
#
# number of rings (size 3 to 8) (size 9 to 14) (size 15 to 20)
#    0.000    1.750    2.500    1.500    1.750    6.500 
#    0.000    5.000    0.000    0.000    0.000    0.000 
#    0.000    0.000    0.000    0.000    0.000    0.000 
#
# Total GULP energy -89133.650092 kJ/mol
# GULP energy per Si atom -5570.853131 kJ/mol
# Density = 2.608363 g / cm^3
# Si number density = 26.143131 Si / 1000 Ang^3
#
#
#
# Elastic Constant Matrix: (Units=GPa)
#
#
# Indices 1 2 3 4 5 6 
#
# 1 82.2089 5.0837 30.0616 -14.1417 -2.3973 0.2470
# 2 5.0837 83.1423 11.3241 -6.6164 -4.7724 -0.9556
# 3 30.0616 11.3241 95.9573 -10.1766 0.5120 5.8234
# 4 -14.1417 -6.6164 -10.1766 30.9348 -6.3367 1.5606
# 5 -2.3973 -4.7724 0.5120 -6.3367 26.7807 -2.1267
# 6 0.2470 -0.9556 5.8234 1.5606 -2.1267 48.5989
#
#
#
# Elastic Compliance Matrix: (Units=1/GPa)
#
#
# Indices 1 2 3 4 5 6 
#
# 1 0.014753 0.000303 -0.004052 0.006055 0.002912 0.000350
# 2 0.000303 0.012606 -0.001307 0.003006 0.003045 0.000440
# 3 -0.004052 -0.001307 0.012136 0.001832 -0.000516 -0.001541
# 4 0.006055 0.003006 0.001832 0.038451 0.010062 -0.000986
# 5 0.002912 0.003045 -0.000516 0.010062 0.040658 0.001563
# 6 0.000350 0.000440 -0.001541 -0.000986 0.001563 0.020868
#
#
# Mechanical properties :
#
#
# Convention : Reuss Voigt Hill
#
# Bulk Modulus (GPa) = 34.03383 39.36081 36.69732
# Shear Modulus (GPa) = 31.37210 35.58549 33.47880
#
# Velocity S-wave (km/s) = 3.46788 3.69342 3.58242
# Velocity P-wave (km/s) = 5.39272 5.76862 5.58384
#
# Compressibility (1/GPa) = 0.02938253
#
# Stress axis : x y z
#
# Youngs Moduli (GPa) = 67.78473 79.32672 82.40275
#
# Poissons Ratio (x) = -0.02403 0.33390
# Poissons Ratio (y) = -0.02053 0.10767
# Poissons Ratio (z) = 0.27467 0.10365
#
# Static dielectric constant tensor:
#      x y z
#    x 2.093870 0.052260 0.062520 
#    y 0.052260 2.177220 0.124510 
#    z 0.062520 0.124510 2.232840 
# 
# From -- ./inp_files/348530.got.cif
#   From: 2010.05.17/outbox.cif.g08.bks.cpg/sg2_175_cif.got.tgz:348530.got - 2010.06.03 11:33:40.
