data_PCOD9006243
_publ_section_title
;
Structure prediction by ZEFSAII (Michael W. Deem and Ramdas Pophale) SiO2 
 PCOD9006243
Probable space group: P -1
;
_chemical_formula_sum "Si O2"
_cell_formula_units_Z 16
_cell_length_a 12.034485
_cell_length_b 10.013905
_cell_length_c 8.669193
_cell_angle_alpha 59.391698
_cell_angle_beta 58.334972
_cell_angle_gamma 88.159461
_cell_volume 724.808712
_symmetry_space_group_name_H-M "P -1"
_symmetry_group_IT_number 2
_symmetry_cell_setting 'triclinic'
loop_
_space_group_symop_operation_xyz
x,y,z
-x,-y,-z
loop_
_atom_site_type_symbol
_atom_site_label
_atom_site_fract_x
_atom_site_fract_y
_atom_site_fract_z
Si Si1 0.651249 0.355405 0.053764
Si Si2 0.208440 0.404992 0.447800
Si Si3 0.160365 0.540017 0.898828
Si Si4 0.809641 0.815485 0.856186
Si Si5 0.495206 0.200759 0.972739
Si Si6 0.008798 0.865931 0.396192
Si Si7 0.537594 0.561084 0.610445
Si Si8 0.239428 0.726703 0.423916
O O1 0.792271 0.360796 0.034177
O O2 0.554953 0.360951 0.266133
O O3 0.706301 0.525598 0.814238
O O4 0.562322 0.211859 0.088783
O O5 0.302515 0.340091 0.533946
O O6 0.193257 0.568570 0.437752
O O7 0.066170 0.266709 0.597768
O O8 0.239275 0.653365 0.635469
O O9 0.197086 0.369460 0.985000
O O10 0.000000 0.500000 0.000000
O O11 0.888189 0.856030 0.611615
O O12 0.909968 0.948499 0.819717
O O13 0.666329 0.853344 0.915110
O O14 0.523092 0.392469 0.805593
O O15 0.605482 0.161870 0.800845
O O16 0.123176 0.809566 0.436684
O O17 0.500000 0.500000 0.500000
#
# Coordination Sequence:
#
# PCOD9006243 Si02
#       8
#     2   2   2   2   2   2   2   2
#     4  10  17  32  56  83 118 146 202 244 292 341
#     4  10  19  33  57  86 112 154 196 243 286 353
#     4  12  21  36  59  94 118 154 193 257 297 351
#     4  11  23  36  63  84 124 154 205 230 307 359
#     4  10  21  35  58  90 111 161 195 251 287 356
#     4  11  21  40  57  89 117 167 191 242 289 376
#     4  10  17  28  52  86 116 144 193 253 291 330
#     4  10  22  36  62  89 122 144 204 251 301 332
#
# _framework density 22.07479
#
# number of rings (size 3 to 8) (size 9 to 14) (size 15 to 20)
#    0.000    1.750    3.750    4.125    0.000    1.500 
#    0.000    0.625    0.000    0.750    3.250    0.000 
#    0.000    0.000    0.000    0.000    0.000    0.000 
#
# Total GULP energy -89091.251101 kJ/mol
# GULP energy per Si atom -5568.203194 kJ/mol
# Density = 2.202455 g / cm^3
# Si number density = 22.074790 Si / 1000 Ang^3
#
#
#
# Elastic Constant Matrix: (Units=GPa)
#
#
# Indices 1 2 3 4 5 6 
#
# 1 141.4637 26.8082 49.4051 4.0896 -16.3484 17.7847
# 2 26.8082 33.0777 26.7648 -6.3851 -3.0718 3.2594
# 3 49.4051 26.7648 78.6583 8.4998 -11.9423 16.3746
# 4 4.0896 -6.3851 8.4998 31.3463 7.5437 -6.9707
# 5 -16.3484 -3.0718 -11.9423 7.5437 36.9240 7.2726
# 6 17.7847 3.2594 16.3746 -6.9707 7.2726 35.1186
#
#
#
# Elastic Compliance Matrix: (Units=1/GPa)
#
#
# Indices 1 2 3 4 5 6 
#
# 1 0.010572 -0.007351 -0.001324 -0.005374 0.005992 -0.006362
# 2 -0.007351 0.057543 -0.023930 0.026846 -0.015242 0.018025
# 3 -0.001324 -0.023930 0.029947 -0.020451 0.014874 -0.018211
# 4 -0.005374 0.026846 -0.020451 0.054788 -0.022956 0.025394
# 5 0.005992 -0.015242 0.014874 -0.022956 0.042275 -0.021866
# 6 -0.006362 0.018025 -0.018211 0.025394 -0.021866 0.048084
#
#
# Mechanical properties :
#
#
# Convention : Reuss Voigt Hill
#
# Bulk Modulus (GPa) = 30.44014 51.01731 40.72872
# Shear Modulus (GPa) = 15.65583 30.69255 23.17419
#
# Velocity S-wave (km/s) = 2.66600 3.73284 3.24358
# Velocity P-wave (km/s) = 4.82662 6.46065 5.70247
#
# Compressibility (1/GPa) = 0.03285136
#
# Stress axis : x y z
#
# Youngs Moduli (GPa) = 94.58856 17.37828 33.39258
#
# Poissons Ratio (x) = 0.12775 0.04422
# Poissons Ratio (y) = 0.69531 0.79909
# Poissons Ratio (z) = 0.12525 0.41587
#
# Static dielectric constant tensor:
#      x y z
#    x 1.919700 0.073850 -0.054670 
#    y 0.073850 1.943410 0.028290 
#    z -0.054670 0.028290 1.895860 
# 
# From -- ./inp_files/252388.got.cif
#   From: 2010.05.17/outbox.cif.g08.bks.cpg/sg2_127_cif.got.tgz:252388.got - 2010.06.03 11:33:40.
