data_PCOD9006328
_publ_section_title
;
Structure prediction by ZEFSAII (Michael W. Deem and Ramdas Pophale) SiO2 
 PCOD9006328
Probable space group: P -1
;
_chemical_formula_sum "Si O2"
_cell_formula_units_Z 16
_cell_length_a 27.115743
_cell_length_b 8.693363
_cell_length_c 26.736238
_cell_angle_alpha 138.885551
_cell_angle_beta 169.103921
_cell_angle_gamma 42.451276
_cell_volume 783.287126
_symmetry_space_group_name_H-M "P -1"
_symmetry_group_IT_number 2
_symmetry_cell_setting 'triclinic'
loop_
_space_group_symop_operation_xyz
x,y,z
-x,-y,-z
loop_
_atom_site_type_symbol
_atom_site_label
_atom_site_fract_x
_atom_site_fract_y
_atom_site_fract_z
Si Si1 0.286825 0.948732 0.578046
Si Si2 0.748409 0.530176 0.290583
Si Si3 0.396172 0.582273 0.363441
Si Si4 0.788870 0.729833 0.984182
Si Si5 0.232510 0.574576 0.521228
Si Si6 0.896417 0.881816 0.919034
Si Si7 0.750987 0.166097 0.293717
Si Si8 0.262989 0.652509 0.073306
O O1 0.575268 0.909091 0.834988
O O2 0.251376 0.791189 0.554066
O O3 0.245867 0.215581 0.616208
O O4 0.073603 0.844528 0.301546
O O5 0.749837 0.335058 0.286640
O O6 0.000000 0.500000 0.500000
O O7 0.500000 0.500000 0.000000
O O8 0.500000 0.500000 0.500000
O O9 0.292730 0.365939 0.174288
O O10 0.647644 0.710097 0.619384
O O11 0.145822 0.750384 0.158000
O O12 0.767736 0.506835 0.946170
O O13 0.258217 0.678961 0.627376
O O14 0.458948 0.399477 0.686878
O O15 0.957740 0.444590 0.207585
O O16 0.790475 0.083943 0.899196
O O17 0.000000 0.000000 0.000000
O O18 0.000000 0.000000 0.500000
O O19 0.500000 0.000000 0.000000
#
# Coordination Sequence:
#
# PCOD9006328 Si02
#       8
#     2   2   2   2   2   2   2   2
#     4  10  21  39  64  94 125 175 216 264 321 396
#     4  12  25  44  70 101 134 173 225 264 320 402
#     4  12  26  44  64  99 136 177 221 281 345 388
#     4  10  21  39  65  89 130 173 219 263 329 395
#     4  10  21  39  62  95 133 165 216 269 335 383
#     4  12  24  42  72  96 129 175 237 275 324 398
#     4  12  25  44  70 101 135 174 214 275 332 386
#     4  10  21  38  65  95 124 172 221 274 320 389
#
# _framework density 20.426736999999999
#
# number of rings (size 3 to 8) (size 9 to 14) (size 15 to 20)
#    0.000    1.000    1.250    6.000    3.500    2.000 
#    6.750    0.000    0.000    0.000    0.000    0.000 
#    0.000    0.000    0.000    0.000    0.000    0.000 
#
# Total GULP energy -89559.301119 kJ/mol
# GULP energy per Si atom -5597.456320 kJ/mol
# Density = 2.038025 g / cm^3
# Si number density = 20.426737 Si / 1000 Ang^3
#
#
#
# Elastic Constant Matrix: (Units=GPa)
#
#
# Indices 1 2 3 4 5 6 
#
# 1 108.4795 48.8614 34.5537 0.8911 -25.8109 -1.4384
# 2 48.8614 125.0362 38.4361 -20.5214 -4.8703 -2.4067
# 3 34.5537 38.4361 125.7683 -13.3405 -12.4297 11.9452
# 4 0.8911 -20.5214 -13.3405 36.7521 -4.9482 -1.0256
# 5 -25.8109 -4.8703 -12.4297 -4.9482 36.5809 4.2815
# 6 -1.4384 -2.4067 11.9452 -1.0256 4.2815 18.2193
#
#
#
# Elastic Compliance Matrix: (Units=1/GPa)
#
#
# Indices 1 2 3 4 5 6 
#
# 1 0.014065 -0.005097 -0.001713 -0.002699 0.008363 -0.000557
# 2 -0.005097 0.011515 -0.002087 0.005565 -0.002414 0.003367
# 3 -0.001713 -0.002087 0.010452 0.002905 0.003382 -0.007895
# 4 -0.002699 0.005565 0.002905 0.031988 0.004218 -0.000573
# 5 0.008363 -0.002414 0.003382 0.004218 0.035813 -0.010054
# 6 -0.000557 0.003367 -0.007895 -0.000573 -0.010054 0.062794
#
#
# Mechanical properties :
#
#
# Convention : Reuss Voigt Hill
#
# Bulk Modulus (GPa) = 54.83400 66.99847 60.91623
# Shear Modulus (GPa) = 26.24663 34.13932 30.19297
#
# Velocity S-wave (km/s) = 3.58846 4.09260 3.84879
# Velocity P-wave (km/s) = 6.63867 7.42988 7.04539
#
# Compressibility (1/GPa) = 0.01823686
#
# Stress axis : x y z
#
# Youngs Moduli (GPa) = 71.10025 86.84127 95.67793
#
# Poissons Ratio (x) = 0.44267 0.16391
# Poissons Ratio (y) = 0.36243 0.19967
# Poissons Ratio (z) = 0.12180 0.18122
#
# Static dielectric constant tensor:
#      x y z
#    x 1.701580 0.015330 0.000200 
#    y 0.015330 1.700670 -0.000260 
#    z 0.000200 -0.000260 1.692080 
# 
# From -- ./inp_files/621160.got.cif
#   From: 2010.05.17/outbox.cif.g08.bks.cpg/sg2_311_cif.got.tgz:621160.got - 2010.06.03 11:33:40.
