data_PCOD9006032
_publ_section_title
;
Structure prediction by ZEFSAII (Michael W. Deem and Ramdas Pophale) SiO2 
 PCOD9006032
Probable space group: P -1
;
_chemical_formula_sum "Si O2"
_cell_formula_units_Z 16
_cell_length_a 9.144281
_cell_length_b 10.949456
_cell_length_c 14.726770
_cell_angle_alpha 150.513927
_cell_angle_beta 92.052400
_cell_angle_gamma 76.881088
_cell_volume 665.373026
_symmetry_space_group_name_H-M "P -1"
_symmetry_group_IT_number 2
_symmetry_cell_setting 'triclinic'
loop_
_space_group_symop_operation_xyz
x,y,z
-x,-y,-z
loop_
_atom_site_type_symbol
_atom_site_label
_atom_site_fract_x
_atom_site_fract_y
_atom_site_fract_z
Si Si1 0.405155 0.648280 0.005109
Si Si2 0.163194 0.741445 0.851571
Si Si3 0.034410 0.324313 0.665033
Si Si4 0.655237 0.249476 0.312197
Si Si5 0.088204 0.722786 0.549523
Si Si6 0.684330 0.690690 0.970454
Si Si7 0.174994 0.368998 0.871829
Si Si8 0.213954 0.131129 0.235511
O O1 0.552774 0.562143 0.880265
O O2 0.343935 0.977989 0.216433
O O3 0.500000 0.500000 0.000000
O O4 0.250862 0.567415 0.954980
O O5 0.261040 0.659248 0.708490
O O6 0.112088 0.512061 0.740072
O O7 0.251752 0.870766 0.003984
O O8 0.000000 0.000000 0.000000
O O9 0.998611 0.171621 0.479653
O O10 0.145656 0.205749 0.678982
O O11 0.856650 0.504179 0.813865
O O12 0.500000 0.500000 0.500000
O O13 0.786187 0.162931 0.339522
O O14 0.627240 0.984171 0.112422
O O15 0.189594 0.395833 0.348113
O O16 0.952622 0.793562 0.668263
O O17 0.710962 0.737404 0.107870
O O18 0.000000 0.500000 0.000000
#
# Coordination Sequence:
#
# PCOD9006032 Si02
#       8
#     2   2   2   2   2   2   2   2
#     4  10  21  38  64  93 121 163 216 270 314 371
#     4  12  19  38  67  90 123 170 219 258 311 392
#     4  11  20  38  64  97 122 167 221 261 312 385
#     4  12  25  40  60  97 138 168 205 271 331 375
#     4  11  22  35  60  96 131 162 210 267 320 378
#     4  10  21  40  64  88 131 169 217 258 319 383
#     4   9  20  37  67  93 116 165 221 266 305 382
#     4  11  20  36  64  93 123 168 215 258 318 380
#
# _framework density 24.046661
#
# number of rings (size 3 to 8) (size 9 to 14) (size 15 to 20)
#    0.000    1.250    5.000    1.500    1.750    1.000 
#    0.000    3.125    2.750    2.250    0.000    0.000 
#    0.000    0.000    0.000    0.000    0.000    0.000 
#
# Total GULP energy -89143.152421 kJ/mol
# GULP energy per Si atom -5571.447026 kJ/mol
# Density = 2.399193 g / cm^3
# Si number density = 24.046661 Si / 1000 Ang^3
#
#
#
# Elastic Constant Matrix: (Units=GPa)
#
#
# Indices 1 2 3 4 5 6 
#
# 1 139.5474 32.6812 21.4143 -8.7638 -6.5183 25.1418
# 2 32.6812 69.3189 9.9087 -15.1087 9.3574 4.7016
# 3 21.4143 9.9087 40.2069 -19.6079 -0.2078 5.7935
# 4 -8.7638 -15.1087 -19.6079 37.9883 1.8293 2.3716
# 5 -6.5183 9.3574 -0.2078 1.8293 35.6869 3.0636
# 6 25.1418 4.7016 5.7935 2.3716 3.0636 48.5265
#
#
#
# Elastic Compliance Matrix: (Units=1/GPa)
#
#
# Indices 1 2 3 4 5 6 
#
# 1 0.009676 -0.004482 -0.004219 -0.001627 0.003363 -0.004208
# 2 -0.004482 0.018764 0.001261 0.007352 -0.006141 0.000382
# 3 -0.004219 0.001261 0.036273 0.018519 -0.001576 -0.003073
# 4 -0.001627 0.007352 0.018519 0.038847 -0.003787 -0.003740
# 5 0.003363 -0.006141 -0.001576 -0.003787 0.030663 -0.002710
# 6 -0.004208 0.000382 -0.003073 -0.003740 -0.002710 0.023471
#
#
# Mechanical properties :
#
#
# Convention : Reuss Voigt Hill
#
# Bulk Modulus (GPa) = 20.06630 41.89795 30.98212
# Shear Modulus (GPa) = 26.42907 36.77828 31.60367
#
# Velocity S-wave (km/s) = 3.31883 3.91507 3.62921
# Velocity P-wave (km/s) = 4.80094 6.15617 5.52030
#
# Compressibility (1/GPa) = 0.04983480
#
# Stress axis : x y z
#
# Youngs Moduli (GPa) = 103.34725 53.29245 27.56862
#
# Poissons Ratio (x) = 0.23886 0.11630
# Poissons Ratio (y) = 0.46320 -0.03477
# Poissons Ratio (z) = 0.43599 -0.06722
#
# Static dielectric constant tensor:
#      x y z
#    x 2.053990 -0.214620 0.050880 
#    y -0.214620 2.500080 0.053760 
#    z 0.050880 0.053760 1.997410 
# 
# From -- ./inp_files/501177.got.cif
#   From: 2010.05.17/outbox.cif.g08.bks.cpg/sg2_251_cif.got.tgz:501177.got - 2010.06.03 11:33:40.
