data_PCOD9006378
_publ_section_title
;
Structure prediction by ZEFSAII (Michael W. Deem and Ramdas Pophale) SiO2 
 PCOD9006378
Probable space group: P -1
;
_chemical_formula_sum "Si O2"
_cell_formula_units_Z 16
_cell_length_a 12.292911
_cell_length_b 8.392020
_cell_length_c 14.754832
_cell_angle_alpha 141.535736
_cell_angle_beta 117.741209
_cell_angle_gamma 81.545451
_cell_volume 769.852131
_symmetry_space_group_name_H-M "P -1"
_symmetry_group_IT_number 2
_symmetry_cell_setting 'triclinic'
loop_
_space_group_symop_operation_xyz
x,y,z
-x,-y,-z
loop_
_atom_site_type_symbol
_atom_site_label
_atom_site_fract_x
_atom_site_fract_y
_atom_site_fract_z
Si Si1 0.146606 0.751309 0.268790
Si Si2 0.469396 0.175714 0.822238
Si Si3 0.210792 0.825375 0.683679
Si Si4 0.573928 0.829411 0.407486
Si Si5 0.263852 0.615716 0.922139
Si Si6 0.022104 0.703704 0.388178
Si Si7 0.144137 0.306638 0.927357
Si Si8 0.394940 0.678695 0.811769
O O1 0.116808 0.690514 0.336806
O O2 0.012599 0.771406 0.186936
O O3 0.273671 0.036945 0.441045
O O4 0.177077 0.522148 0.119370
O O5 0.439497 0.128459 0.684915
O O6 0.340000 0.998857 0.750055
O O7 0.500000 0.500000 0.000000
O O8 0.603091 0.125143 0.877538
O O9 0.088815 0.702383 0.510478
O O10 0.268789 0.643143 0.684200
O O11 0.176869 0.035869 0.830017
O O12 0.522950 0.504709 0.265795
O O13 0.500000 0.000000 0.500000
O O14 0.220517 0.444045 0.923930
O O15 0.329688 0.555588 0.829047
O O16 0.117201 0.558623 0.800977
O O17 0.000000 0.000000 0.500000
O O18 0.500000 0.000000 0.000000
#
# Coordination Sequence:
#
# PCOD9006378 Si02
#       8
#     2   2   2   2   2   2   2   2
#     4  10  21  38  65  98 130 155 229 271 312 372
#     4  12  19  37  65  92 120 169 225 261 306 395
#     4  12  22  38  66  92 130 169 215 265 331 372
#     4  12  25  41  68  96 127 172 224 271 321 389
#     4  11  21  37  65  92 127 167 227 258 316 390
#     4  11  19  38  65  98 124 170 220 271 311 385
#     4  10  21  38  68  96 123 174 214 271 319 390
#     4  12  26  41  62 100 136 170 216 274 330 388
#
# _framework density 20.783211999999999
#
# number of rings (size 3 to 8) (size 9 to 14) (size 15 to 20)
#    0.000    0.750    7.500    1.500    1.750    0.500 
#    0.000    0.625    5.500    2.250    0.000    0.000 
#    0.000    0.000    0.000    0.000    0.000    0.000 
#
# Total GULP energy -89114.740911 kJ/mol
# GULP energy per Si atom -5569.671307 kJ/mol
# Density = 2.073591 g / cm^3
# Si number density = 20.783212 Si / 1000 Ang^3
#
#
#
# Elastic Constant Matrix: (Units=GPa)
#
#
# Indices 1 2 3 4 5 6 
#
# 1 101.9829 42.1872 43.5241 6.3447 -9.9138 -4.2161
# 2 42.1872 76.5677 35.0274 -18.9326 -24.8149 -16.4938
# 3 43.5241 35.0274 107.5969 -13.9508 -4.2931 -11.2485
# 4 6.3447 -18.9326 -13.9508 30.4854 -2.2231 -0.2600
# 5 -9.9138 -24.8149 -4.2931 -2.2231 48.0128 -8.5845
# 6 -4.2161 -16.4938 -11.2485 -0.2600 -8.5845 23.6413
#
#
#
# Elastic Compliance Matrix: (Units=1/GPa)
#
#
# Indices 1 2 3 4 5 6 
#
# 1 0.021549 -0.022851 -0.006866 -0.022913 -0.012649 -0.020212
# 2 -0.022851 0.059459 0.002945 0.046247 0.037908 0.053082
# 3 -0.006866 0.002945 0.013388 0.009696 0.003269 0.008494
# 4 -0.022913 0.046247 0.009696 0.073409 0.031489 0.045033
# 5 -0.012649 0.037908 0.003269 0.031489 0.047294 0.043266
# 6 -0.020212 0.053082 0.008494 0.045033 0.043266 0.095975
#
#
# Mechanical properties :
#
#
# Convention : Reuss Voigt Hill
#
# Bulk Modulus (GPa) = 24.47867 58.62500 41.55183
# Shear Modulus (GPa) = 13.21923 31.45517 22.33720
#
# Velocity S-wave (km/s) = 2.52475 3.89458 3.28193
# Velocity P-wave (km/s) = 4.50586 6.96367 5.86496
#
# Compressibility (1/GPa) = 0.04085190
#
# Stress axis : x y z
#
# Youngs Moduli (GPa) = 46.40584 16.81833 74.69239
#
# Poissons Ratio (x) = 0.38431 0.51287
# Poissons Ratio (y) = 1.06042 -0.21998
# Poissons Ratio (z) = 0.31864 -0.04953
#
# Static dielectric constant tensor:
#      x y z
#    x 1.789960 -0.023260 0.015570 
#    y -0.023260 1.777850 -0.006930 
#    z 0.015570 -0.006930 1.788440 
# 
# From -- ./inp_files/516420.got.cif
#   From: 2010.05.17/outbox.cif.g08.bks.cpg/sg2_259_cif.got.tgz:516420.got - 2010.06.03 11:33:40.
