data_PCOD9006335
_publ_section_title
;
Structure prediction by ZEFSAII (Michael W. Deem and Ramdas Pophale) SiO2 
 PCOD9006335
Probable space group: P -1
;
_chemical_formula_sum "Si O2"
_cell_formula_units_Z 16
_cell_length_a 12.657182
_cell_length_b 17.957058
_cell_length_c 6.759585
_cell_angle_alpha 123.920771
_cell_angle_beta 89.160572
_cell_angle_gamma 49.804057
_cell_volume 785.304425
_symmetry_space_group_name_H-M "P -1"
_symmetry_group_IT_number 2
_symmetry_cell_setting 'triclinic'
loop_
_space_group_symop_operation_xyz
x,y,z
-x,-y,-z
loop_
_atom_site_type_symbol
_atom_site_label
_atom_site_fract_x
_atom_site_fract_y
_atom_site_fract_z
Si Si1 0.575112 0.954628 0.212259
Si Si2 0.179744 0.576641 0.489170
Si Si3 0.677073 0.619049 0.429407
Si Si4 0.380434 0.945563 0.956638
Si Si5 0.871914 0.100646 0.467584
Si Si6 0.018530 0.125097 0.178195
Si Si7 0.482103 0.407295 0.932911
Si Si8 0.102915 0.369289 0.456353
O O1 0.500000 0.000000 0.500000
O O2 0.594950 0.041512 0.254160
O O3 0.433224 0.996885 0.153316
O O4 0.752723 0.784186 0.897461
O O5 0.224865 0.502767 0.587391
O O6 0.083627 0.734952 0.739311
O O7 0.043055 0.601596 0.419436
O O8 0.354833 0.480346 0.228297
O O9 0.505588 0.780694 0.759575
O O10 0.608809 0.596193 0.232999
O O11 0.796876 0.627700 0.397563
O O12 0.186524 0.054862 0.163574
O O13 0.671341 0.242582 0.733861
O O14 0.911066 0.161051 0.419549
O O15 0.000000 0.000000 0.500000
O O16 0.912536 0.995597 0.152931
O O17 0.500000 0.500000 0.000000
O O18 0.000000 0.500000 0.500000
#
# Coordination Sequence:
#
# PCOD9006335 Si02
#       8
#     2   2   2   2   2   2   2   2
#     4  10  21  38  65  95 128 172 218 271 316 392
#     4  11  24  42  70  96 137 178 216 277 332 397
#     4  10  24  43  68  94 138 178 216 279 331 392
#     4  10  21  40  63  95 130 168 220 266 331 387
#     4  11  27  45  68  96 131 173 225 281 338 400
#     4  11  23  45  66  94 134 171 218 281 334 393
#     4  12  26  45  65 101 129 171 237 268 331 407
#     4   9  20  43  62  97 135 176 219 258 340 393
#
# _framework density 20.374265999999999
#
# number of rings (size 3 to 8) (size 9 to 14) (size 15 to 20)
#    0.000    1.500    3.750    0.000    3.500    5.000 
#    4.500    0.000    0.000    0.000    0.000    0.000 
#    0.000    0.000    0.000    0.000    0.000    0.000 
#
# Total GULP energy -89179.113857 kJ/mol
# GULP energy per Si atom -5573.694616 kJ/mol
# Density = 2.032789 g / cm^3
# Si number density = 20.374266 Si / 1000 Ang^3
#
#
#
# Elastic Constant Matrix: (Units=GPa)
#
#
# Indices 1 2 3 4 5 6 
#
# 1 91.7008 26.0786 27.0695 9.6021 -14.3601 -9.3766
# 2 26.0786 98.1561 7.0619 24.3770 0.4589 -6.1739
# 3 27.0695 7.0619 27.6146 8.8099 -10.8722 -11.1796
# 4 9.6021 24.3770 8.8099 28.3663 -6.9918 -2.9338
# 5 -14.3601 0.4589 -10.8722 -6.9918 30.3990 4.5176
# 6 -9.3766 -6.1739 -11.1796 -2.9338 4.5176 37.4359
#
#
#
# Elastic Compliance Matrix: (Units=1/GPa)
#
#
# Indices 1 2 3 4 5 6 
#
# 1 0.016790 -0.004329 -0.015699 0.003616 0.003411 -0.001325
# 2 -0.004329 0.014416 0.003827 -0.012937 -0.004155 0.001924
# 3 -0.015699 0.003827 0.064759 -0.014107 0.010410 0.013676
# 4 0.003616 -0.012937 -0.014107 0.051507 0.009076 -0.002499
# 5 0.003411 -0.004155 0.010410 0.009076 0.040514 -0.000900
# 6 -0.001325 0.001924 0.013676 -0.002499 -0.000900 0.030695
#
#
# Mechanical properties :
#
#
# Convention : Reuss Voigt Hill
#
# Bulk Modulus (GPa) = 15.73226 37.54350 26.63788
# Shear Modulus (GPa) = 18.36409 29.72435 24.04422
#
# Velocity S-wave (km/s) = 3.00549 3.82372 3.43902
# Velocity P-wave (km/s) = 4.44773 6.16128 5.37325
#
# Compressibility (1/GPa) = 0.06356368
#
# Stress axis : x y z
#
# Youngs Moduli (GPa) = 59.55808 69.36771 15.44182
#
# Poissons Ratio (x) = 0.30027 0.24242
# Poissons Ratio (y) = 0.25781 -0.05909
# Poissons Ratio (z) = 0.93500 -0.26546
#
# Static dielectric constant tensor:
#      x y z
#    x 1.809200 0.026560 -0.020590 
#    y 0.026560 1.758460 -0.023080 
#    z -0.020590 -0.023080 1.743390 
# 
# From -- ./inp_files/81583.got.cif
#   From: 2010.05.17/outbox.cif.g08.bks.cpg/sg2_41_cif.got.tgz:81583.got - 2010.06.03 11:33:40.
