data_PCOD9006849
_publ_section_title
;
Structure prediction by ZEFSAII (Michael W. Deem and Ramdas Pophale) SiO2 
 PCOD9006849
Probable space group: P -1
;
_chemical_formula_sum "Si O2"
_cell_formula_units_Z 14
_cell_length_a 8.553398
_cell_length_b 20.913557
_cell_length_c 10.497263
_cell_angle_alpha 25.449927
_cell_angle_beta 55.692749
_cell_angle_gamma 62.193237
_cell_volume 661.755035
_symmetry_space_group_name_H-M "P -1"
_symmetry_group_IT_number 2
_symmetry_cell_setting 'triclinic'
loop_
_space_group_symop_operation_xyz
x,y,z
-x,-y,-z
loop_
_atom_site_type_symbol
_atom_site_label
_atom_site_fract_x
_atom_site_fract_y
_atom_site_fract_z
Si Si1 0.959655 0.816104 0.223644
Si Si2 0.760044 0.895796 0.787778
Si Si3 0.921350 0.654123 0.795967
Si Si4 0.850111 0.612988 0.404657
Si Si5 0.605050 0.142051 0.122127
Si Si6 0.491491 0.570376 0.236348
Si Si7 0.084571 0.918243 0.403089
O O1 0.912404 0.762547 0.483573
O O2 0.892078 0.676889 0.411459
O O3 0.186789 0.859193 0.027745
O O4 0.873810 0.960753 0.946568
O O5 0.545625 0.835946 0.959585
O O6 0.882615 0.940858 0.523957
O O7 0.862863 0.762488 0.042747
O O8 0.770982 0.031555 0.639036
O O9 0.054731 0.751492 0.662062
O O10 0.708517 0.614247 0.017250
O O11 0.000000 0.500000 0.000000
O O12 0.638194 0.532577 0.617509
O O13 0.000000 0.500000 0.500000
O O14 0.500000 0.000000 0.500000
O O15 0.610149 0.280849 0.965717
O O16 0.500000 0.500000 0.500000
#
# Coordination Sequence:
#
# PCOD9006849 Si02
#       7
#     2   2   2   2   2   2   2
#     4  11  24  41  66  96 135 173 219 270 340 391
#     4  10  21  38  70  96 130 162 230 272 324 375
#     4  12  26  42  66  95 136 180 216 271 339 391
#     4  11  23  38  68 101 130 171 221 279 325 384
#     4  12  21  39  67 104 123 171 226 270 325 392
#     4  12  23  43  69  93 133 172 224 273 323 399
#     4  10  21  42  65  94 130 174 213 276 324 392
#
# _framework density 21.155864999999999
#
# number of rings (size 3 to 8) (size 9 to 14) (size 15 to 20)
#    0.000    0.857    5.714    1.286    2.000    0.571 
#    0.000    0.714    3.143    0.000    0.000    0.000 
#    0.000    0.000    0.000    0.000    0.000    0.000 
#
# Total GULP energy -78218.230385 kJ/mol
# GULP energy per Si atom -5587.016456 kJ/mol
# Density = 2.110771 g / cm^3
# Si number density = 21.155865 Si / 1000 Ang^3
#
#
#
# Elastic Constant Matrix: (Units=GPa)
#
#
# Indices 1 2 3 4 5 6 
#
# 1 63.4552 15.5888 10.4827 -2.5715 -16.8602 21.6610
# 2 15.5888 80.7412 41.0182 -14.0377 -8.9929 24.3518
# 3 10.4827 41.0182 107.7136 8.0329 -9.2605 7.6345
# 4 -2.5715 -14.0377 8.0329 50.3653 8.6435 -12.4139
# 5 -16.8602 -8.9929 -9.2605 8.6435 33.7985 -8.7929
# 6 21.6610 24.3518 7.6345 -12.4139 -8.7929 35.1312
#
#
#
# Elastic Compliance Matrix: (Units=1/GPa)
#
#
# Indices 1 2 3 4 5 6 
#
# 1 0.022308 0.000062 -0.000292 -0.003428 0.008614 -0.012789
# 2 0.000062 0.020008 -0.007196 0.004101 -0.000535 -0.011028
# 3 -0.000292 -0.007196 0.012479 -0.004074 0.002851 0.001730
# 4 -0.003428 0.004101 -0.004074 0.024294 -0.006069 0.007222
# 5 0.008614 -0.000535 0.002851 -0.006069 0.036444 0.001417
# 6 -0.012789 -0.011028 0.001730 0.007222 0.001417 0.046525
#
#
# Mechanical properties :
#
#
# Convention : Reuss Voigt Hill
#
# Bulk Modulus (GPa) = 25.03513 42.89883 33.96698
# Shear Modulus (GPa) = 26.28491 36.18035 31.23263
#
# Velocity S-wave (km/s) = 3.52865 4.13992 3.84645
# Velocity P-wave (km/s) = 5.33490 6.57065 5.98476
#
# Compressibility (1/GPa) = 0.03994386
#
# Stress axis : x y z
#
# Youngs Moduli (GPa) = 44.82766 49.97900 80.13673
#
# Poissons Ratio (x) = -0.00310 0.02340
# Poissons Ratio (y) = -0.00278 0.57663
# Poissons Ratio (z) = 0.01309 0.35963
#
# Static dielectric constant tensor:
#      x y z
#    x 1.823920 0.021220 0.002170 
#    y 0.021220 1.762420 -0.018720 
#    z 0.002170 -0.018720 1.819760 
# 
# From -- ./inp_files/157175.got.cif
#   From: 2010.05.17/outbox.cif.g08.bks.cpg/sg2_79_cif.got.tgz:157175.got - 2010.06.03 11:33:40.
