data_PCOD9006948
_publ_section_title
;
Structure prediction by ZEFSAII (Michael W. Deem and Ramdas Pophale) SiO2 
 PCOD9006948
Probable space group: P -1
;
_chemical_formula_sum "Si O2"
_cell_formula_units_Z 12
_cell_length_a 15.967161
_cell_length_b 9.691384
_cell_length_c 19.888704
_cell_angle_alpha 30.491027
_cell_angle_beta 17.806464
_cell_angle_gamma 35.865681
_cell_volume 476.545594
_symmetry_space_group_name_H-M "P -1"
_symmetry_group_IT_number 2
_symmetry_cell_setting 'triclinic'
loop_
_space_group_symop_operation_xyz
x,y,z
-x,-y,-z
loop_
_atom_site_type_symbol
_atom_site_label
_atom_site_fract_x
_atom_site_fract_y
_atom_site_fract_z
Si Si1 0.625710 0.041879 0.960053
Si Si2 0.230958 0.955871 0.787216
Si Si3 0.256349 0.704257 0.736164
Si Si4 0.382146 0.602608 0.938568
Si Si5 0.843256 0.274419 0.484024
Si Si6 0.239966 0.924465 0.512663
O O1 0.544349 0.329925 0.928980
O O2 0.949241 0.034753 0.710184
O O3 0.500000 0.000000 0.000000
O O4 0.469687 0.791975 0.224470
O O5 0.125895 0.854881 0.837430
O O6 0.389071 0.723724 0.805581
O O7 0.428157 0.226388 0.509121
O O8 0.000000 0.000000 0.000000
O O9 0.333903 0.781739 0.567174
O O10 0.000000 0.500000 0.000000
O O11 0.534680 0.826890 0.775626
O O12 0.068612 0.508573 0.236249
O O13 0.820053 0.267521 0.424158
O O14 0.000000 0.000000 0.500000
#
# Coordination Sequence:
#
# PCOD9006948 Si02
#       6
#     2   2   2   2   2   2
#     4  11  22  40  62  91 123 163 203 252 316 367
#     4  10  23  44  64  94 128 166 212 260 316 366
#     4  10  23  41  67  94 128 164 214 263 306 377
#     4  10  22  41  63  89 127 161 205 257 304 372
#     4  10  21  39  57  88 126 159 207 251 299 375
#     4  11  22  40  62  92 126 162 209 251 313 371
#
# _framework density 25.181221000000001
#
# number of rings (size 3 to 8) (size 9 to 14) (size 15 to 20)
#    0.000    1.667    3.333    1.500    0.000    7.333 
#    9.000    0.000    0.000    0.000    0.000    0.000 
#    0.000    0.000    0.000    0.000    0.000    0.000 
#
# Total GULP energy -66882.505839 kJ/mol
# GULP energy per Si atom -5573.542153 kJ/mol
# Density = 2.512391 g / cm^3
# Si number density = 25.181221 Si / 1000 Ang^3
#
#
#
# Elastic Constant Matrix: (Units=GPa)
#
#
# Indices 1 2 3 4 5 6 
#
# 1 72.0398 -6.0651 12.1013 2.7263 -9.9402 32.5231
# 2 -6.0651 20.6747 52.9049 -0.3369 -11.3675 22.5730
# 3 12.1013 52.9049 218.9888 -17.0157 -33.7309 23.7214
# 4 2.7263 -0.3369 -17.0157 47.5325 5.7585 0.7866
# 5 -9.9402 -11.3675 -33.7309 5.7585 58.3359 -7.0066
# 6 32.5231 22.5730 23.7214 0.7866 -7.0066 34.9569
#
#
#
# Elastic Compliance Matrix: (Units=1/GPa)
#
#
# Indices 1 2 3 4 5 6 
#
# 1 0.001512 -0.036891 0.006933 0.001968 -0.001019 0.017461
# 2 -0.036891 -0.059180 0.008771 0.004399 -0.005323 0.065419
# 3 0.006933 0.008771 0.004233 0.000990 0.003523 -0.014303
# 4 0.001968 0.004399 0.000990 0.021543 -0.001088 -0.006046
# 5 -0.001019 -0.005323 0.003523 -0.001088 0.018770 0.005782
# 6 0.017461 0.065419 -0.014303 -0.006046 0.005782 -0.018882
#
#
# Mechanical properties :
#
#
# Convention : Reuss Voigt Hill
#
# Bulk Modulus (GPa) = -10.43764 47.73173 18.64705
# Shear Modulus (GPa) = -231.84397 45.01587 -93.41405
#
# Velocity S-wave (km/s) = -9.60573 4.23268 -6.09731
# Velocity P-wave (km/s) = 11.27744 6.54858 6.49218
#
# Compressibility (1/GPa) = -0.09580710
#
# Stress axis : x y z
#
# Youngs Moduli (GPa) = 661.17048 -16.89765 236.22970
#
# Poissons Ratio (x) = -0.62337 -1.63786
# Poissons Ratio (y) = 24.39124 -2.07202
# Poissons Ratio (z) = -4.58413 0.14821
#
# Static dielectric constant tensor:
#      x y z
#    x 1.994570 -0.069890 0.069410 
#    y -0.069890 2.205430 -0.026700 
#    z 0.069410 -0.026700 2.067260 
# 
# From -- ./inp_files/397956.got.cif
#   From: 2010.05.17/outbox.cif.g08.bks.cpg/sg2_199_cif.got.tgz:397956.got - 2010.06.03 11:33:40.
