data_PCOD9006255
_publ_section_title
;
Structure prediction by ZEFSAII (Michael W. Deem and Ramdas Pophale) SiO2 
 PCOD9006255
Probable space group: P -1
;
_chemical_formula_sum "Si O2"
_cell_formula_units_Z 16
_cell_length_a 13.469989
_cell_length_b 7.638109
_cell_length_c 21.074725
_cell_angle_alpha 51.265968
_cell_angle_beta 29.514696
_cell_angle_gamma 65.776904
_cell_volume 780.782681
_symmetry_space_group_name_H-M "P -1"
_symmetry_group_IT_number 2
_symmetry_cell_setting 'triclinic'
loop_
_space_group_symop_operation_xyz
x,y,z
-x,-y,-z
loop_
_atom_site_type_symbol
_atom_site_label
_atom_site_fract_x
_atom_site_fract_y
_atom_site_fract_z
Si Si1 0.280633 0.776388 0.669473
Si Si2 0.729938 0.208067 0.124738
Si Si3 0.702629 0.953165 0.666467
Si Si4 0.027544 0.975122 0.864503
Si Si5 0.381295 0.453651 0.788841
Si Si6 0.008557 0.465372 0.791462
Si Si7 0.841443 0.424701 0.546313
Si Si8 0.099068 0.346022 0.312493
O O1 0.110353 0.860207 0.784997
O O2 0.319678 0.557719 0.734630
O O3 0.201497 0.688400 0.662695
O O4 0.500000 0.000000 0.500000
O O5 0.844306 0.066577 0.135926
O O6 0.683642 0.396635 0.154446
O O7 0.504215 0.052763 0.255315
O O8 0.876054 0.344363 0.954657
O O9 0.737994 0.135914 0.663761
O O10 0.910223 0.082100 0.477451
O O11 0.709204 0.703242 0.745793
O O12 0.073136 0.256118 0.770327
O O13 0.776410 0.820114 0.051795
O O14 0.634711 0.503603 0.641412
O O15 0.871649 0.550001 0.797098
O O16 0.000000 0.500000 0.500000
O O17 0.990529 0.491064 0.385335
#
# Coordination Sequence:
#
# PCOD9006255 Si02
#       8
#     2   2   2   2   2   2   2   2
#     4  11  26  40  60  99 136 169 212 270 323 379
#     4  11  21  41  68  90 130 176 213 265 319 385
#     4   9  21  41  63  90 121 172 214 261 328 378
#     4  11  24  44  63  99 132 175 223 247 329 398
#     4  11  22  42  66  93 132 175 216 261 320 392
#     4  12  24  40  67  94 137 166 211 275 318 378
#     4  10  21  38  65  92 121 167 220 263 317 386
#     4   9  23  41  60  95 124 161 221 260 329 373
#
# _framework density 20.492258
#
# number of rings (size 3 to 8) (size 9 to 14) (size 15 to 20)
#    0.750    0.750    2.500    2.625    7.000    1.000 
#    0.000    0.000    0.000    3.000    0.000    0.000 
#    0.000    0.000    0.000    0.000    0.000    0.000 
#
# Total GULP energy -89238.389269 kJ/mol
# GULP energy per Si atom -5577.399329 kJ/mol
# Density = 2.044562 g / cm^3
# Si number density = 20.492258 Si / 1000 Ang^3
#
#
#
# Elastic Constant Matrix: (Units=GPa)
#
#
# Indices 1 2 3 4 5 6 
#
# 1 100.1839 20.5720 3.1048 0.2956 -4.6017 -1.6007
# 2 20.5720 58.9511 -2.8305 6.7769 7.8582 -4.2183
# 3 3.1048 -2.8305 22.3202 1.6568 -7.1427 4.5474
# 4 0.2956 6.7769 1.6568 27.4857 -0.3148 -7.7527
# 5 -4.6017 7.8582 -7.1427 -0.3148 29.8541 -8.3524
# 6 -1.6007 -4.2183 4.5474 -7.7527 -8.3524 23.9316
#
#
#
# Elastic Compliance Matrix: (Units=1/GPa)
#
#
# Indices 1 2 3 4 5 6 
#
# 1 0.011101 -0.004408 -0.001637 0.001624 0.003016 0.001855
# 2 -0.004408 0.019906 0.001859 -0.005283 -0.005772 -0.000865
# 3 -0.001637 0.001859 0.050184 -0.005622 0.008965 -0.008010
# 4 0.001624 -0.005283 -0.005622 0.042531 0.005173 0.015829
# 5 0.003016 -0.005772 0.008965 0.005173 0.041496 0.013639
# 6 0.001855 -0.000865 -0.008010 0.015829 0.013639 0.053167
#
#
# Mechanical properties :
#
#
# Convention : Reuss Voigt Hill
#
# Bulk Modulus (GPa) = 13.73280 24.79419 19.26349
# Shear Modulus (GPa) = 19.91797 26.96153 23.43975
#
# Velocity S-wave (km/s) = 3.12103 3.63118 3.38573
# Velocity P-wave (km/s) = 4.43890 5.45034 4.97041
#
# Compressibility (1/GPa) = 0.07281837
#
# Stress axis : x y z
#
# Youngs Moduli (GPa) = 90.08210 50.23689 19.92664
#
# Poissons Ratio (x) = 0.22147 0.03261
# Poissons Ratio (y) = 0.39712 -0.03704
# Poissons Ratio (z) = 0.14743 -0.09338
#
# Static dielectric constant tensor:
#      x y z
#    x 1.730140 0.015170 -0.022570 
#    y 0.015170 1.766610 0.007480 
#    z -0.022570 0.007480 1.766330 
# 
# From -- ./inp_files/593448.got.cif
#   From: 2010.05.17/outbox.cif.g08.bks.cpg/sg2_297_cif.got.tgz:593448.got - 2010.06.03 11:33:40.
