data_PCOD9006308
_publ_section_title
;
Structure prediction by ZEFSAII (Michael W. Deem and Ramdas Pophale) SiO2 
 PCOD9006308
Probable space group: P -1
;
_chemical_formula_sum "Si O2"
_cell_formula_units_Z 16
_cell_length_a 9.289948
_cell_length_b 12.030009
_cell_length_c 16.390252
_cell_angle_alpha 29.778177
_cell_angle_beta 116.351103
_cell_angle_gamma 129.087861
_cell_volume 680.241023
_symmetry_space_group_name_H-M "P -1"
_symmetry_group_IT_number 2
_symmetry_cell_setting 'triclinic'
loop_
_space_group_symop_operation_xyz
x,y,z
-x,-y,-z
loop_
_atom_site_type_symbol
_atom_site_label
_atom_site_fract_x
_atom_site_fract_y
_atom_site_fract_z
Si Si1 0.687195 0.836820 0.783073
Si Si2 0.200176 0.693189 0.380747
Si Si3 0.063326 0.292241 0.143092
Si Si4 0.736982 0.430572 0.223856
Si Si5 0.219956 0.418422 0.275655
Si Si6 0.633390 0.523975 0.315878
Si Si7 0.991575 0.291500 0.445341
Si Si8 0.874240 0.129994 0.040745
O O1 0.739052 0.618104 0.913528
O O2 0.470215 0.713617 0.778170
O O3 0.723086 0.999035 0.773383
O O4 0.853951 0.070463 0.617693
O O5 0.340004 0.622906 0.506707
O O6 0.000000 0.500000 0.500000
O O7 0.131007 0.577594 0.345772
O O8 0.098803 0.262030 0.264920
O O9 0.902399 0.081734 0.173457
O O10 0.000000 0.500000 0.000000
O O11 0.705646 0.461853 0.291206
O O12 0.834244 0.262383 0.359534
O O13 0.914689 0.700770 0.056306
O O14 0.421109 0.451429 0.295229
O O15 0.140341 0.284730 0.428251
O O16 0.218510 0.692512 0.101438
O O17 0.757130 0.841953 0.155762
#
# Coordination Sequence:
#
# PCOD9006308 Si02
#       8
#     2   2   2   2   2   2   2   2
#     4  11  21  40  66  92 129 161 203 267 307 366
#     4  10  21  38  65  94 125 162 203 263 315 362
#     4  10  22  42  62  88 128 166 204 255 311 371
#     4  11  22  38  64  96 122 164 212 252 309 370
#     4  10  23  42  62  93 127 165 213 249 311 378
#     4  12  21  41  63  92 128 164 212 257 309 367
#     4  10  22  41  64  96 127 165 207 249 320 373
#     4  10  23  41  63  88 128 168 208 257 311 360
#
# _framework density 23.521073999999999
#
# number of rings (size 3 to 8) (size 9 to 14) (size 15 to 20)
#    0.000    1.500    3.750    2.625    0.000    1.500 
#    0.000    6.250    0.000    0.000    0.000    0.000 
#    0.000    0.000    0.000    0.000    0.000    0.000 
#
# Total GULP energy -89160.514198 kJ/mol
# GULP energy per Si atom -5572.532137 kJ/mol
# Density = 2.346754 g / cm^3
# Si number density = 23.521074 Si / 1000 Ang^3
#
#
#
# Elastic Constant Matrix: (Units=GPa)
#
#
# Indices 1 2 3 4 5 6 
#
# 1 49.2275 45.8220 20.4170 5.0683 25.4991 -42.4180
# 2 45.8220 112.4988 18.4558 1.7269 -3.6378 5.6922
# 3 20.4170 18.4558 63.0359 -3.2503 15.4236 7.0901
# 4 5.0683 1.7269 -3.2503 29.0137 0.6283 7.9970
# 5 25.4991 -3.6378 15.4236 0.6283 23.1230 39.2425
# 6 -42.4180 5.6922 7.0901 7.9970 39.2425 -18.0979
#
#
#
# Elastic Compliance Matrix: (Units=1/GPa)
#
#
# Indices 1 2 3 4 5 6 
#
# 1 0.011115 -0.003182 -0.003346 0.000700 0.007920 -0.010880
# 2 -0.003182 0.010249 -0.002154 -0.001634 -0.001895 0.005007
# 3 -0.003346 -0.002154 0.019862 0.003420 -0.008103 -0.001112
# 4 0.000700 -0.001634 0.003420 0.034647 -0.006165 0.001127
# 5 0.007920 -0.001895 -0.008103 -0.006165 0.017588 0.013080
# 6 -0.010880 0.005007 -0.001112 0.001127 0.013080 0.000245
#
#
# Mechanical properties :
#
#
# Convention : Reuss Voigt Hill
#
# Bulk Modulus (GPa) = 41.90874 43.79463 42.85168
# Shear Modulus (GPa) = 42.00783 16.14559 29.07671
#
# Velocity S-wave (km/s) = 4.23065 2.62282 3.51978
# Velocity P-wave (km/s) = 6.45916 5.27561 5.89715
#
# Compressibility (1/GPa) = 0.02386137
#
# Stress axis : x y z
#
# Youngs Moduli (GPa) = 89.97193 97.57089 50.34624
#
# Poissons Ratio (x) = 0.31050 0.16847
# Poissons Ratio (y) = 0.28632 0.10843
# Poissons Ratio (z) = 0.30107 0.21015
#
# Static dielectric constant tensor:
#      x y z
#    x 1.876460 -0.026560 0.075040 
#    y -0.026560 1.934270 0.047570 
#    z 0.075040 0.047570 2.123940 
# 
# From -- ./inp_files/559564.got.cif
#   From: 2010.05.17/outbox.cif.g08.bks.cpg/sg2_280_cif.got.tgz:559564.got - 2010.06.03 11:33:40.
