data_PCOD9006676
_publ_section_title
;
Structure prediction by ZEFSAII (Michael W. Deem and Ramdas Pophale) SiO2 
 PCOD9006676
Probable space group: P -1
;
_chemical_formula_sum "Si O2"
_cell_formula_units_Z 14
_cell_length_a 8.272286
_cell_length_b 18.303422
_cell_length_c 12.783050
_cell_angle_alpha 30.698046
_cell_angle_beta 48.521202
_cell_angle_gamma 39.926134
_cell_volume 634.134824
_symmetry_space_group_name_H-M "P -1"
_symmetry_group_IT_number 2
_symmetry_cell_setting 'triclinic'
loop_
_space_group_symop_operation_xyz
x,y,z
-x,-y,-z
loop_
_atom_site_type_symbol
_atom_site_label
_atom_site_fract_x
_atom_site_fract_y
_atom_site_fract_z
Si Si1 0.677371 0.459361 0.573284
Si Si2 0.948126 0.623678 0.661681
Si Si3 0.157045 0.882962 0.983590
Si Si4 0.230003 0.058547 0.100022
Si Si5 0.970987 0.727296 0.871183
Si Si6 0.729821 0.279473 0.437800
Si Si7 0.495037 0.027265 0.589993
O O1 0.500000 0.500000 0.500000
O O2 0.931002 0.417661 0.456153
O O3 0.547886 0.601586 0.540441
O O4 0.683762 0.302654 0.815442
O O5 0.084075 0.696594 0.590003
O O6 0.657813 0.770965 0.584260
O O7 0.002636 0.454664 0.905077
O O8 0.318762 0.961249 0.785843
O O9 0.972742 0.885679 0.972661
O O10 0.000000 0.000000 0.000000
O O11 0.233230 0.901941 0.345338
O O12 0.114378 0.201885 0.061409
O O13 0.500000 0.000000 0.000000
O O14 0.214589 0.687372 0.745083
O O15 0.760225 0.892648 0.693451
O O16 0.500000 0.000000 0.500000
#
# Coordination Sequence:
#
# PCOD9006676 Si02
#       7
#     2   2   2   2   2   2   2
#     4  10  21  38  67  98 129 172 231 287 330 396
#     4  11  22  43  70 104 136 179 240 280 342 410
#     4  12  22  44  71 100 134 180 238 285 340 426
#     4  12  26  46  68 102 140 186 227 288 361 408
#     4  12  26  44  70 104 149 177 227 297 355 405
#     4  11  22  45  69  99 138 187 227 284 346 414
#     4  12  23  40  72 105 136 182 239 285 342 419
#
# _framework density 22.077325999999999
#
# number of rings (size 3 to 8) (size 9 to 14) (size 15 to 20)
#    0.000    0.571    4.286    5.143    2.000    0.000 
#    2.571    2.143    0.000    0.000    0.000    0.000 
#    0.000    0.000    0.000    0.000    0.000    0.000 
#
# Total GULP energy -78030.609294 kJ/mol
# GULP energy per Si atom -5573.614950 kJ/mol
# Density = 2.202708 g / cm^3
# Si number density = 22.077326 Si / 1000 Ang^3
#
#
#
# Elastic Constant Matrix: (Units=GPa)
#
#
# Indices 1 2 3 4 5 6 
#
# 1 -69.5112 -19.0299 -58.2201 -14.7453 -15.9554 20.0390
# 2 -19.0299 132.5972 19.9233 11.2927 -4.4058 8.3152
# 3 -58.2201 19.9233 89.2776 -15.4772 -27.8465 13.8650
# 4 -14.7453 11.2927 -15.4772 59.4102 -4.8415 7.0055
# 5 -15.9554 -4.4058 -27.8465 -4.8415 25.5030 2.5498
# 6 20.0390 8.3152 13.8650 7.0055 2.5498 15.7367
#
#
#
# Elastic Compliance Matrix: (Units=1/GPa)
#
#
# Indices 1 2 3 4 5 6 
#
# 1 -0.001598 0.000112 -0.007076 -0.004552 -0.010769 0.011982
# 2 0.000112 0.008118 -0.002322 -0.002082 -0.001334 -0.001243
# 3 -0.007076 -0.002322 0.008360 0.001012 0.004320 0.001722
# 4 -0.004552 -0.002082 0.001012 0.016650 0.001219 -0.001605
# 5 -0.010769 -0.001334 0.004320 0.001219 0.036780 0.004110
# 6 0.011982 -0.001243 0.001722 -0.001605 0.004110 0.047476
#
#
# Mechanical properties :
#
#
# Convention : Reuss Voigt Hill
#
# Bulk Modulus (GPa) = -270.77072 4.19004 -133.29034
# Shear Modulus (GPa) = 37.55779 34.10934 35.83356
#
# Velocity S-wave (km/s) = 4.12903 3.93491 4.03313
# Velocity P-wave (km/s) = 10.00904 4.74833 6.23034
#
# Compressibility (1/GPa) = -0.00369316
#
# Stress axis : x y z
#
# Youngs Moduli (GPa) = -625.66594 123.18809 119.61516
#
# Poissons Ratio (x) = -0.01384 0.84644
# Poissons Ratio (y) = 0.07028 0.27779
# Poissons Ratio (z) = -4.42742 0.28608
#
# Static dielectric constant tensor:
#      x y z
#    x 1.824830 -0.078770 0.020480 
#    y -0.078770 2.102740 -0.103830 
#    z 0.020480 -0.103830 1.762710 
# 
# From -- ./inp_files/240143.got.cif
#   From: 2010.05.17/outbox.cif.g08.bks.cpg/sg2_121_cif.got.tgz:240143.got - 2010.06.03 11:33:40.
