data_PCOD9006127
_publ_section_title
;
Structure prediction by ZEFSAII (Michael W. Deem and Ramdas Pophale) SiO2 
 PCOD9006127
Probable space group: P -1
;
_chemical_formula_sum "Si O2"
_cell_formula_units_Z 14
_cell_length_a 8.714405
_cell_length_b 9.361783
_cell_length_c 21.197965
_cell_angle_alpha 147.744790
_cell_angle_beta 50.453586
_cell_angle_gamma 113.716232
_cell_volume 671.568189
_symmetry_space_group_name_H-M "P -1"
_symmetry_group_IT_number 2
_symmetry_cell_setting 'triclinic'
loop_
_space_group_symop_operation_xyz
x,y,z
-x,-y,-z
loop_
_atom_site_type_symbol
_atom_site_label
_atom_site_fract_x
_atom_site_fract_y
_atom_site_fract_z
Si Si1 0.742088 0.781457 0.852624
Si Si2 0.343475 0.819522 0.162715
Si Si3 0.118129 0.815328 0.957255
Si Si4 0.704202 0.035858 0.429203
Si Si5 0.415103 0.340435 0.276248
Si Si6 0.915498 0.186205 0.654632
Si Si7 0.989377 0.656175 0.127024
O O1 0.751359 0.651648 0.732666
O O2 0.809145 0.515018 0.783583
O O3 0.500000 0.000000 0.000000
O O4 0.878417 0.980018 0.908636
O O5 0.253700 0.883505 0.281275
O O6 0.160481 0.803145 0.155618
O O7 0.438944 0.056583 0.202928
O O8 0.500000 0.500000 0.000000
O O9 0.362017 0.673309 0.818903
O O10 0.999153 0.597623 0.922806
O O11 0.000000 0.000000 0.000000
O O12 0.672873 0.366462 0.554518
O O13 0.500000 0.000000 0.500000
O O14 0.765539 0.884962 0.289452
O O15 0.887109 0.885330 0.375883
O O16 0.000000 0.000000 0.500000
O O17 0.000000 0.500000 0.000000
#
# Coordination Sequence:
#
# PCOD9006127 Si02
#       7
#     2   2   2   2   2   2   2
#     4  10  21  38  64  98 127 172 223 267 322 399
#     4  11  24  43  67  97 134 172 224 276 328 398
#     4  11  21  39  65  94 130 171 224 268 322 393
#     4  11  23  43  68  96 138 175 220 278 338 395
#     4  11  22  41  68  94 131 181 220 271 338 395
#     4  11  23  42  66 100 133 171 219 278 334 395
#     4  11  24  41  64  95 128 171 217 273 332 391
#
# _framework density 20.846729
#
# number of rings (size 3 to 8) (size 9 to 14) (size 15 to 20)
#    0.000    1.143    2.857    5.143    0.000    4.571 
#    2.571    0.000    0.000    2.571    0.000    0.000 
#    0.000    0.000    0.000    0.000    0.000    0.000 
#
# Total GULP energy -78101.530795 kJ/mol
# GULP energy per Si atom -5578.680771 kJ/mol
# Density = 2.079928 g / cm^3
# Si number density = 20.846729 Si / 1000 Ang^3
#
#
#
# Elastic Constant Matrix: (Units=GPa)
#
#
# Indices 1 2 3 4 5 6 
#
# 1 46.6751 4.1440 24.0845 -1.1953 -1.7959 -4.2848
# 2 4.1440 86.6896 36.8215 15.2698 -3.0521 -7.1766
# 3 24.0845 36.8215 141.5234 -2.8755 19.2068 -11.0287
# 4 -1.1953 15.2698 -2.8755 46.6749 -9.1039 0.3037
# 5 -1.7959 -3.0521 19.2068 -9.1039 38.4732 2.2732
# 6 -4.2848 -7.1766 -11.0287 0.3037 2.2732 26.4119
#
#
#
# Elastic Compliance Matrix: (Units=1/GPa)
#
#
# Indices 1 2 3 4 5 6 
#
# 1 0.024084 0.001001 -0.004684 0.000689 0.003592 0.001906
# 2 0.001001 0.014268 -0.004075 -0.004515 0.002014 0.002216
# 3 -0.004684 -0.004075 0.009893 0.000739 -0.005467 0.002726
# 4 0.000689 -0.004515 0.000739 0.023963 0.005065 -0.001518
# 5 0.003592 0.002014 -0.005467 0.005065 0.030474 -0.003834
# 6 0.001906 0.002216 0.002726 -0.001518 -0.003834 0.040259
#
#
# Mechanical properties :
#
#
# Convention : Reuss Voigt Hill
#
# Bulk Modulus (GPa) = 30.55413 44.99868 37.77641
# Shear Modulus (GPa) = 29.52203 36.30120 32.91161
#
# Velocity S-wave (km/s) = 3.76725 4.17746 3.97765
# Velocity P-wave (km/s) = 5.79753 6.70079 6.26546
#
# Compressibility (1/GPa) = 0.03272879
#
# Stress axis : x y z
#
# Youngs Moduli (GPa) = 41.52194 70.08682 101.08494
#
# Poissons Ratio (x) = -0.07017 0.47349
# Poissons Ratio (y) = -0.04157 0.41191
# Poissons Ratio (z) = 0.19449 0.28560
#
# Static dielectric constant tensor:
#      x y z
#    x 1.752620 0.004950 0.005350 
#    y 0.004950 1.771540 -0.024140 
#    z 0.005350 -0.024140 1.818200 
# 
# From -- ./inp_files/204992.got.cif
#   From: 2010.05.17/outbox.cif.g08.bks.cpg/sg2_103_cif.got.tgz:204992.got - 2010.06.03 11:33:40.
