data_PCOD9006831
_publ_section_title
;
Structure prediction by ZEFSAII (Michael W. Deem and Ramdas Pophale) SiO2 
 PCOD9006831
Probable space group: P -1
;
_chemical_formula_sum "Si O2"
_cell_formula_units_Z 14
_cell_length_a 11.617997
_cell_length_b 17.324635
_cell_length_c 16.906146
_cell_angle_alpha 161.548898
_cell_angle_beta 148.948832
_cell_angle_gamma 38.414028
_cell_volume 546.596432
_symmetry_space_group_name_H-M "P -1"
_symmetry_group_IT_number 2
_symmetry_cell_setting 'triclinic'
loop_
_space_group_symop_operation_xyz
x,y,z
-x,-y,-z
loop_
_atom_site_type_symbol
_atom_site_label
_atom_site_fract_x
_atom_site_fract_y
_atom_site_fract_z
Si Si1 0.462155 0.069407 0.318809
Si Si2 0.156586 0.402298 0.665901
Si Si3 0.402190 0.779648 0.286579
Si Si4 0.102816 0.761245 0.355561
Si Si5 0.275366 0.538429 0.631915
Si Si6 0.466581 0.310178 0.224426
Si Si7 0.118965 0.902349 0.673743
O O1 0.611884 0.121360 0.537132
O O2 0.634112 0.144525 0.420530
O O3 0.289009 0.264693 0.405674
O O4 0.345442 0.782499 0.964869
O O5 0.399141 0.388782 0.758369
O O6 0.967223 0.447131 0.535845
O O7 0.071716 0.155394 0.428407
O O8 0.190161 0.616941 0.960381
O O9 0.500000 0.000000 0.500000
O O10 0.067522 0.731870 0.400438
O O11 0.000000 0.000000 0.500000
O O12 0.000000 0.500000 0.000000
O O13 0.464078 0.581303 0.714672
O O14 0.500000 0.500000 0.500000
O O15 0.661813 0.147841 0.197481
O O16 0.212471 0.165078 0.944445
#
# Coordination Sequence:
#
# PCOD9006831 Si02
#       7
#     2   2   2   2   2   2   2
#     4  12  27  49  75 110 150 193 245 318 366 439
#     4  10  26  48  72 107 142 201 249 308 369 445
#     4  11  28  49  76  99 149 195 259 303 378 449
#     4  12  26  42  69 104 147 191 233 286 370 442
#     4  11  26  46  78 113 150 187 252 308 377 427
#     4  10  21  38  70 102 145 186 225 292 358 440
#     4  10  22  40  65 102 139 184 233 288 353 438
#
# _framework density 25.613049
#
# number of rings (size 3 to 8) (size 9 to 14) (size 15 to 20)
#    0.000    1.143    1.429    2.571   14.000    2.286 
#    0.000    0.000    0.000    0.000    0.000    0.000 
#    0.000    0.000    0.000    0.000    0.000    0.000 
#
# Total GULP energy -78336.690903 kJ/mol
# GULP energy per Si atom -5595.477922 kJ/mol
# Density = 2.555475 g / cm^3
# Si number density = 25.613049 Si / 1000 Ang^3
#
#
#
# Elastic Constant Matrix: (Units=GPa)
#
#
# Indices 1 2 3 4 5 6 
#
# 1 62.7976 3.2834 8.7722 1.0799 -14.4298 -2.0461
# 2 3.2834 115.9086 28.4251 11.6753 -12.6714 -4.7049
# 3 8.7722 28.4251 133.7278 2.9224 -33.4942 -13.8290
# 4 1.0799 11.6753 2.9224 39.6093 4.5235 0.4313
# 5 -14.4298 -12.6714 -33.4942 4.5235 42.1445 -5.8878
# 6 -2.0461 -4.7049 -13.8290 0.4313 -5.8878 32.8176
#
#
#
# Elastic Compliance Matrix: (Units=1/GPa)
#
#
# Indices 1 2 3 4 5 6 
#
# 1 0.017612 0.000354 0.000982 -0.001544 0.007492 0.002927
# 2 0.000354 0.009555 -0.001204 -0.003044 0.002557 0.001383
# 3 0.000982 -0.001204 0.010727 -0.001619 0.009531 0.006140
# 4 -0.001544 -0.003044 -0.001619 0.027019 -0.006000 -0.002646
# 5 0.007492 0.002557 0.009531 -0.006000 0.036894 0.011548
# 6 0.002927 0.001383 0.006140 -0.002646 0.011548 0.035546
#
#
# Mechanical properties :
#
#
# Convention : Reuss Voigt Hill
#
# Bulk Modulus (GPa) = 26.20713 43.71058 34.95886
# Shear Modulus (GPa) = 33.37579 41.04451 37.21015
#
# Velocity S-wave (km/s) = 3.61373 4.00745 3.81567
# Velocity P-wave (km/s) = 5.25987 6.20610 5.75247
#
# Compressibility (1/GPa) = 0.03815755
#
# Stress axis : x y z
#
# Youngs Moduli (GPa) = 56.77980 104.65602 93.22333
#
# Poissons Ratio (x) = -0.03700 -0.09159
# Poissons Ratio (y) = -0.02008 0.11226
# Poissons Ratio (z) = -0.05579 0.12603
#
# Static dielectric constant tensor:
#      x y z
#    x 2.037020 -0.016780 0.007240 
#    y -0.016780 2.054410 0.039520 
#    z 0.007240 0.039520 2.025090 
# 
# From -- ./inp_files/570417.got.cif
#   From: 2010.05.17/outbox.cif.g08.bks.cpg/sg2_286_cif.got.tgz:570417.got - 2010.06.03 11:33:40.
