data_PCOD9006273
_publ_section_title
;
Structure prediction by ZEFSAII (Michael W. Deem and Ramdas Pophale) SiO2 
 PCOD9006273
Probable space group: P -1
;
_chemical_formula_sum "Si O2"
_cell_formula_units_Z 16
_cell_length_a 10.381476
_cell_length_b 11.161466
_cell_length_c 13.097524
_cell_angle_alpha 104.931799
_cell_angle_beta 46.990412
_cell_angle_gamma 69.111277
_cell_volume 705.091940
_symmetry_space_group_name_H-M "P -1"
_symmetry_group_IT_number 2
_symmetry_cell_setting 'triclinic'
loop_
_space_group_symop_operation_xyz
x,y,z
-x,-y,-z
loop_
_atom_site_type_symbol
_atom_site_label
_atom_site_fract_x
_atom_site_fract_y
_atom_site_fract_z
Si Si1 0.401158 0.549999 0.754538
Si Si2 0.023039 0.189032 0.287104
Si Si3 0.354737 0.345327 0.869290
Si Si4 0.537143 0.848324 0.580011
Si Si5 0.196232 0.907297 0.276871
Si Si6 0.774162 0.972260 0.417202
Si Si7 0.768425 0.088058 0.065891
Si Si8 0.087700 0.575332 0.766286
O O1 0.709935 0.352914 0.521316
O O2 0.298002 0.508571 0.886435
O O3 0.380003 0.704085 0.830426
O O4 0.228794 0.612058 0.759784
O O5 0.059172 0.297050 0.228175
O O6 0.179246 0.055364 0.272291
O O7 0.106484 0.043440 0.127053
O O8 0.517561 0.274711 0.871272
O O9 0.543085 0.172503 0.647514
O O10 0.102148 0.396291 0.046353
O O11 0.743342 0.849649 0.448455
O O12 0.419245 0.908154 0.770017
O O13 0.679897 0.641849 0.439685
O O14 0.306902 0.984332 0.648288
O O15 0.057459 0.883590 0.270030
O O16 0.000000 0.000000 0.500000
O O17 0.000000 0.000000 0.000000
#
# Coordination Sequence:
#
# PCOD9006273 Si02
#       8
#     2   2   2   2   2   2   2   2
#     4  12  23  42  67  99 138 171 220 275 332 395
#     4  12  23  43  70  96 133 181 218 273 335 393
#     4  11  24  42  67  95 132 183 223 269 326 396
#     4  11  23  38  62 102 139 163 214 283 339 388
#     4  10  21  44  71  89 127 187 226 260 327 395
#     4  10  21  38  65  92 131 175 218 270 333 391
#     4  12  24  37  65 102 134 173 214 270 339 396
#     4  12  23  39  64  98 138 170 215 280 339 383
#
# _framework density 22.692076
#
# number of rings (size 3 to 8) (size 9 to 14) (size 15 to 20)
#    0.000    0.750    6.250    3.000    0.000    2.500 
#    0.000    2.500    0.000    4.500    0.000    0.000 
#    0.000    0.000    0.000    0.000    0.000    0.000 
#
# Total GULP energy -89494.990023 kJ/mol
# GULP energy per Si atom -5593.436876 kJ/mol
# Density = 2.264043 g / cm^3
# Si number density = 22.692076 Si / 1000 Ang^3
#
#
#
# Elastic Constant Matrix: (Units=GPa)
#
#
# Indices 1 2 3 4 5 6 
#
# 1 43.1639 13.5380 6.1297 4.1055 -5.6767 -1.5587
# 2 13.5380 165.3683 20.7799 -17.2758 8.0901 0.6503
# 3 6.1297 20.7799 69.4543 -3.2177 4.1085 2.1676
# 4 4.1055 -17.2758 -3.2177 35.1573 5.8795 1.3179
# 5 -5.6767 8.0901 4.1085 5.8795 20.0901 1.4477
# 6 -1.5587 0.6503 2.1676 1.3179 1.4477 31.8112
#
#
#
# Elastic Compliance Matrix: (Units=1/GPa)
#
#
# Indices 1 2 3 4 5 6 
#
# 1 0.026664 -0.003140 -0.002432 -0.006800 0.011192 0.001309
# 2 -0.003140 0.007193 -0.001371 0.004591 -0.004834 -0.000178
# 3 -0.002432 -0.001371 0.015351 0.001671 -0.003689 -0.001038
# 4 -0.006800 0.004591 0.001671 0.034033 -0.013977 -0.001315
# 5 0.011192 -0.004834 -0.003689 -0.013977 0.059820 -0.001245
# 6 0.001309 -0.000178 -0.001038 -0.001315 -0.001245 0.031685
#
#
# Mechanical properties :
#
#
# Convention : Reuss Voigt Hill
#
# Bulk Modulus (GPa) = 28.31073 39.87575 34.09324
# Shear Modulus (GPa) = 24.94945 33.24766 29.09856
#
# Velocity S-wave (km/s) = 3.31944 3.83190 3.58484
# Velocity P-wave (km/s) = 5.21485 6.09825 5.67377
#
# Compressibility (1/GPa) = 0.03532230
#
# Stress axis : x y z
#
# Youngs Moduli (GPa) = 37.50415 139.01865 65.14361
#
# Poissons Ratio (x) = 0.43657 0.15840
# Poissons Ratio (y) = 0.11778 0.08930
# Poissons Ratio (z) = 0.09119 0.19056
#
# Static dielectric constant tensor:
#      x y z
#    x 1.852890 0.002020 -0.004550 
#    y 0.002020 1.896460 -0.031880 
#    z -0.004550 -0.031880 1.857600 
# 
# From -- ./inp_files/402456.got.cif
#   From: 2010.05.17/outbox.cif.g08.bks.cpg/sg2_202_cif.got.tgz:402456.got - 2010.06.03 11:33:40.
