data_PCOD9006915
_publ_section_title
;
Structure prediction by ZEFSAII (Michael W. Deem and Ramdas Pophale) SiO2 
 PCOD9006915
Probable space group: P -1
;
_chemical_formula_sum "Si O2"
_cell_formula_units_Z 14
_cell_length_a 12.637628
_cell_length_b 6.971654
_cell_length_c 7.946564
_cell_angle_alpha 108.878553
_cell_angle_beta 103.756442
_cell_angle_gamma 89.979799
_cell_volume 641.229844
_symmetry_space_group_name_H-M "P -1"
_symmetry_group_IT_number 2
_symmetry_cell_setting 'triclinic'
loop_
_space_group_symop_operation_xyz
x,y,z
-x,-y,-z
loop_
_atom_site_type_symbol
_atom_site_label
_atom_site_fract_x
_atom_site_fract_y
_atom_site_fract_z
Si Si1 0.832924 0.350882 0.792401
Si Si2 0.004677 0.295740 0.552313
Si Si3 0.284678 0.287354 0.083083
Si Si4 0.667664 0.023166 0.491089
Si Si5 0.201549 0.509593 0.832996
Si Si6 0.182041 0.917414 0.756093
Si Si7 0.458706 0.265570 0.404920
O O1 0.928046 0.308368 0.689784
O O2 0.776291 0.556408 0.778280
O O3 0.739057 0.166197 0.690885
O O4 0.866665 0.397488 0.010984
O O5 0.944038 0.120075 0.364130
O O6 0.000000 0.500000 0.500000
O O7 0.128965 0.323060 0.668167
O O8 0.394608 0.233089 0.196028
O O9 0.297568 0.418886 0.951335
O O10 0.206261 0.087943 0.954181
O O11 0.741959 0.019547 0.354935
O O12 0.560979 0.133414 0.428399
O O13 0.626745 0.812512 0.503983
O O14 0.220205 0.699023 0.770122
O O15 0.500000 0.500000 0.500000
#
# Coordination Sequence:
#
# PCOD9006915 Si02
#       7
#     2   2   2   2   2   2   2
#     4   9  18  37  58  83 113 153 187 227 283 333
#     4   9  18  35  60  82 116 155 187 230 280 330
#     4  10  22  35  58  85 114 147 189 235 280 337
#     4  10  22  38  62  82 113 153 185 236 286 334
#     4   9  19  36  60  80 118 152 188 230 279 334
#     4  10  21  39  56  86 117 147 190 236 284 328
#     4  11  21  40  62  84 111 147 197 230 282 347
#
# _framework density 21.833041999999999
#
# number of rings (size 3 to 8) (size 9 to 14) (size 15 to 20)
#    0.857    1.429    1.429    1.286    0.000    2.286 
#    2.571    4.286    3.143    0.000    0.000    0.000 
#    0.000    0.000    0.000    0.000    0.000    0.000 
#
# Total GULP energy -78054.467747 kJ/mol
# GULP energy per Si atom -5575.319125 kJ/mol
# Density = 2.178335 g / cm^3
# Si number density = 21.833042 Si / 1000 Ang^3
#
#
#
# Elastic Constant Matrix: (Units=GPa)
#
#
# Indices 1 2 3 4 5 6 
#
# 1 47.3505 46.1401 20.0465 -10.4180 10.6009 12.4108
# 2 46.1401 147.4086 51.3872 4.0103 10.9487 18.8108
# 3 20.0465 51.3872 90.8774 -1.5330 24.9913 12.3135
# 4 -10.4180 4.0103 -1.5330 43.2195 -3.5229 7.6261
# 5 10.6009 10.9487 24.9913 -3.5229 25.2883 -1.7380
# 6 12.4108 18.8108 12.3135 7.6261 -1.7380 26.0993
#
#
#
# Elastic Compliance Matrix: (Units=1/GPa)
#
#
# Indices 1 2 3 4 5 6 
#
# 1 0.041890 -0.011428 0.004545 0.013290 -0.016546 -0.018812
# 2 -0.011428 0.012003 -0.005796 -0.003849 0.004853 0.000966
# 3 0.004545 -0.005796 0.019924 0.002414 -0.019394 -0.009381
# 4 0.013290 -0.003849 0.002414 0.028877 -0.003185 -0.013335
# 5 -0.016546 0.004853 -0.019394 -0.003185 0.064390 0.018739
# 6 -0.018812 0.000966 -0.009381 -0.013335 0.018739 0.056134
#
#
# Mechanical properties :
#
#
# Convention : Reuss Voigt Hill
#
# Bulk Modulus (GPa) = 20.63663 57.86492 39.25078
# Shear Modulus (GPa) = 18.88711 30.12558 24.50635
#
# Velocity S-wave (km/s) = 2.94440 3.71862 3.35392
# Velocity P-wave (km/s) = 4.58605 6.70808 5.74588
#
# Compressibility (1/GPa) = 0.04845752
#
# Stress axis : x y z
#
# Youngs Moduli (GPa) = 23.87179 83.31474 50.19076
#
# Poissons Ratio (x) = 0.95216 -0.22812
# Poissons Ratio (y) = 0.27282 0.29092
# Poissons Ratio (z) = -0.10850 0.48292
#
# Static dielectric constant tensor:
#      x y z
#    x 1.802410 -0.030580 0.018560 
#    y -0.030580 1.833420 -0.003470 
#    z 0.018560 -0.003470 1.848780 
# 
# From -- ./inp_files/289083.got.cif
#   From: 2010.05.17/outbox.cif.g08.bks.cpg/sg2_145_cif.got.tgz:289083.got - 2010.06.03 11:33:40.
