data_PCOD9006196
_publ_section_title
;
Structure prediction by ZEFSAII (Michael W. Deem and Ramdas Pophale) SiO2 
 PCOD9006196
Probable space group: P -1
;
_chemical_formula_sum "Si O2"
_cell_formula_units_Z 16
_cell_length_a 20.011064
_cell_length_b 8.046858
_cell_length_c 20.371173
_cell_angle_alpha 139.045420
_cell_angle_beta 160.368117
_cell_angle_gamma 47.779338
_cell_volume 710.761813
_symmetry_space_group_name_H-M "P -1"
_symmetry_group_IT_number 2
_symmetry_cell_setting 'triclinic'
loop_
_space_group_symop_operation_xyz
x,y,z
-x,-y,-z
loop_
_atom_site_type_symbol
_atom_site_label
_atom_site_fract_x
_atom_site_fract_y
_atom_site_fract_z
Si Si1 0.707374 0.403970 0.147999
Si Si2 0.904466 0.130822 0.363104
Si Si3 0.684179 0.365151 0.494429
Si Si4 0.158515 0.730760 0.511993
Si Si5 0.078439 0.762100 0.968728
Si Si6 0.884160 0.245246 0.777504
Si Si7 0.383942 0.741400 0.349003
Si Si8 0.130425 0.798044 0.885456
O O1 0.769728 0.217320 0.206445
O O2 0.709769 0.259402 0.037095
O O3 0.888906 0.652969 0.384874
O O4 0.500000 0.500000 0.000000
O O5 0.798681 0.128947 0.336146
O O6 0.983704 0.859755 0.352829
O O7 0.656420 0.223321 0.355780
O O8 0.779461 0.252978 0.612313
O O9 0.513338 0.516663 0.406589
O O10 0.871047 0.578633 0.706720
O O11 0.054276 0.446462 0.356556
O O12 0.202521 0.640291 0.101053
O O13 0.201506 0.830809 0.036520
O O14 0.000000 0.000000 0.000000
O O15 0.700423 0.166647 0.634511
O O16 0.037438 0.047744 0.856911
O O17 0.000000 0.500000 0.000000
O O18 0.500000 0.000000 0.500000
#
# Coordination Sequence:
#
# PCOD9006196 Si02
#       8
#     2   2   2   2   2   2   2   2
#     4  10  21  39  63  95 123 159 201 257 313 369
#     4   9  19  40  65  85 128 156 199 256 314 370
#     4  11  22  37  59  89 120 153 213 254 304 371
#     4   9  19  39  64  89 116 168 201 252 317 367
#     4  11  19  40  59  82 121 162 203 253 307 365
#     4  12  23  41  62  86 127 169 204 260 318 358
#     4  12  23  38  63  86 117 166 208 255 306 365
#     4  10  21  38  65  86 122 169 206 250 316 371
#
# _framework density 22.511057999999998
#
# number of rings (size 3 to 8) (size 9 to 14) (size 15 to 20)
#    0.000    1.500    3.750    1.875    0.000    1.000 
#    2.250    6.875    0.000    0.000    0.000    0.000 
#    0.000    0.000    0.000    0.000    0.000    0.000 
#
# Total GULP energy -89235.198285 kJ/mol
# GULP energy per Si atom -5577.199893 kJ/mol
# Density = 2.245982 g / cm^3
# Si number density = 22.511058 Si / 1000 Ang^3
#
#
#
# Elastic Constant Matrix: (Units=GPa)
#
#
# Indices 1 2 3 4 5 6 
#
# 1 189.8021 34.3010 19.8147 -23.1796 -9.9461 -25.0283
# 2 34.3010 114.5093 9.3634 -18.2961 -3.6864 -9.2563
# 3 19.8147 9.3634 41.4992 -15.3218 -0.9645 -3.4603
# 4 -23.1796 -18.2961 -15.3218 27.6020 4.7740 -1.2134
# 5 -9.9461 -3.6864 -0.9645 4.7740 24.4066 -6.4021
# 6 -25.0283 -9.2563 -3.4603 -1.2134 -6.4021 38.5903
#
#
#
# Elastic Compliance Matrix: (Units=1/GPa)
#
#
# Indices 1 2 3 4 5 6 
#
# 1 0.006839 -0.000786 -0.001013 0.004345 0.003036 0.004796
# 2 -0.000786 0.010145 0.000666 0.006434 0.000578 0.002282
# 3 -0.001013 0.000666 0.030945 0.017188 -0.001790 0.002521
# 4 0.004345 0.006434 0.017188 0.054942 -0.005566 0.006707
# 5 0.003036 0.000578 -0.001790 -0.005566 0.045772 0.009366
# 6 0.004796 0.002282 0.002521 0.006707 0.009366 0.031562
#
#
# Mechanical properties :
#
#
# Convention : Reuss Voigt Hill
#
# Bulk Modulus (GPa) = 21.90011 52.52987 37.21499
# Shear Modulus (GPa) = 25.29180 36.94188 31.11684
#
# Velocity S-wave (km/s) = 3.35554 4.05539 3.72195
# Velocity P-wave (km/s) = 4.97621 6.73157 5.91932
#
# Compressibility (1/GPa) = 0.04566186
#
# Stress axis : x y z
#
# Youngs Moduli (GPa) = 146.22653 98.57033 32.31530
#
# Poissons Ratio (x) = 0.07747 0.03274
# Poissons Ratio (y) = 0.11492 -0.02151
# Poissons Ratio (z) = 0.14815 -0.06560
#
# Static dielectric constant tensor:
#      x y z
#    x 2.634110 -1.332480 -1.236760 
#    y -1.332480 4.159110 2.212710 
#    z -1.236760 2.212710 3.907500 
# 
# From -- ./inp_files/601234.got.cif
#   From: 2010.05.17/outbox.cif.g08.bks.cpg/sg2_301_cif.got.tgz:601234.got - 2010.06.03 11:33:40.
