data_PCOD9006520
_publ_section_title
;
Structure prediction by ZEFSAII (Michael W. Deem and Ramdas Pophale) SiO2 
 PCOD9006520
Probable space group: P -1
;
_chemical_formula_sum "Si O2"
_cell_formula_units_Z 16
_cell_length_a 5.580202
_cell_length_b 18.418903
_cell_length_c 11.554770
_cell_angle_alpha 51.155260
_cell_angle_beta 46.661453
_cell_angle_gamma 60.391295
_cell_volume 668.486052
_symmetry_space_group_name_H-M "P -1"
_symmetry_group_IT_number 2
_symmetry_cell_setting 'triclinic'
loop_
_space_group_symop_operation_xyz
x,y,z
-x,-y,-z
loop_
_atom_site_type_symbol
_atom_site_label
_atom_site_fract_x
_atom_site_fract_y
_atom_site_fract_z
Si Si1 0.503774 0.467709 0.402394
Si Si2 0.497856 0.000360 0.863178
Si Si3 0.874741 0.139974 0.973440
Si Si4 0.766002 0.625796 0.730653
Si Si5 0.406907 0.893105 0.654403
Si Si6 0.144088 0.854298 0.523227
Si Si7 0.755208 0.711529 0.407744
Si Si8 0.384908 0.455539 0.926708
O O1 0.500000 0.500000 0.500000
O O2 0.252943 0.393222 0.531998
O O3 0.493380 0.555870 0.232575
O O4 0.859188 0.408339 0.328837
O O5 0.783628 0.046824 0.656994
O O6 0.449395 0.898573 0.933221
O O7 0.170486 0.073752 0.876237
O O8 0.500000 0.000000 0.000000
O O9 0.839288 0.120117 0.142073
O O10 0.967310 0.239474 0.801452
O O11 0.783715 0.699914 0.548944
O O12 0.591807 0.538351 0.821797
O O13 0.583886 0.632553 0.909121
O O14 0.254687 0.859620 0.616792
O O15 0.766120 0.840793 0.630046
O O16 0.500000 0.000000 0.500000
O O17 0.400398 0.776060 0.452227
O O18 0.000000 0.500000 0.000000
#
# Coordination Sequence:
#
# PCOD9006520 Si02
#       8
#     2   2   2   2   2   2   2   2
#     4  10  21  39  66  97 125 168 224 278 336 406
#     4  10  21  38  66  95 125 181 230 272 334 416
#     4  10  23  39  61  95 134 175 223 283 340 407
#     4   9  18  37  66  85 125 161 213 270 328 407
#     4  12  24  45  68 102 136 183 238 291 336 402
#     4  11  26  42  70  98 138 183 233 286 346 404
#     4  10  24  42  63  95 134 180 219 282 350 414
#     4   8  16  34  61  94 114 158 213 267 319 404
#
# _framework density 23.93468
#
# number of rings (size 3 to 8) (size 9 to 14) (size 15 to 20)
#    0.000    2.000    1.250    1.125    7.000    3.000 
#    0.000    8.750    0.000    0.000    0.000    0.000 
#    0.000    0.000    0.000    0.000    0.000    0.000 
#
# Total GULP energy -89214.188834 kJ/mol
# GULP energy per Si atom -5575.886802 kJ/mol
# Density = 2.388020 g / cm^3
# Si number density = 23.934680 Si / 1000 Ang^3
#
#
#
# Elastic Constant Matrix: (Units=GPa)
#
#
# Indices 1 2 3 4 5 6 
#
# 1 95.8040 13.4340 56.3529 6.2461 2.8826 16.3895
# 2 13.4340 55.4828 46.0867 6.3280 6.0200 15.9234
# 3 56.3529 46.0867 217.3896 4.0755 28.3474 22.7559
# 4 6.2461 6.3280 4.0755 27.3091 2.5429 4.0536
# 5 2.8826 6.0200 28.3474 2.5429 49.8226 17.4917
# 6 16.3895 15.9234 22.7559 4.0536 17.4917 46.5409
#
#
#
# Elastic Compliance Matrix: (Units=1/GPa)
#
#
# Indices 1 2 3 4 5 6 
#
# 1 0.013110 0.000821 -0.003453 -0.002325 0.002628 -0.003994
# 2 0.000821 0.023970 -0.004826 -0.004255 0.002352 -0.006644
# 3 -0.003453 -0.004826 0.006872 0.001098 -0.003429 0.000700
# 4 -0.002325 -0.004255 0.001098 0.038267 -0.001577 -0.001003
# 5 0.002628 0.002352 -0.003429 -0.001577 0.024926 -0.009284
# 6 -0.003994 -0.006644 0.000700 -0.001003 -0.009284 0.028400
#
#
# Mechanical properties :
#
#
# Convention : Reuss Voigt Hill
#
# Bulk Modulus (GPa) = 34.44167 66.71373 50.57770
# Shear Modulus (GPa) = 31.22246 41.58805 36.40525
#
# Velocity S-wave (km/s) = 3.61569 4.17293 3.90426
# Velocity P-wave (km/s) = 5.64376 7.15203 6.44219
#
# Compressibility (1/GPa) = 0.02903460
#
# Stress axis : x y z
#
# Youngs Moduli (GPa) = 76.27723 41.71810 145.52782
#
# Poissons Ratio (x) = -0.03423 0.50257
# Poissons Ratio (y) = -0.06259 0.70230
# Poissons Ratio (z) = 0.26342 0.20133
#
# Static dielectric constant tensor:
#      x y z
#    x 1.962080 -0.044050 -0.010970 
#    y -0.044050 2.033030 -0.046600 
#    z -0.010970 -0.046600 1.983300 
# 
# From -- ./inp_files/369325.got.cif
#   From: 2010.05.17/outbox.cif.g08.bks.cpg/sg2_185_cif.got.tgz:369325.got - 2010.06.03 11:33:40.
