data_PCOD9006642
_publ_section_title
;
Structure prediction by ZEFSAII (Michael W. Deem and Ramdas Pophale) SiO2 
 PCOD9006642
Probable space group: P -1
;
_chemical_formula_sum "Si O2"
_cell_formula_units_Z 16
_cell_length_a 8.342095
_cell_length_b 9.513044
_cell_length_c 15.899903
_cell_angle_alpha 68.531099
_cell_angle_beta 50.797357
_cell_angle_gamma 103.054664
_cell_volume 703.683022
_symmetry_space_group_name_H-M "P -1"
_symmetry_group_IT_number 2
_symmetry_cell_setting 'triclinic'
loop_
_space_group_symop_operation_xyz
x,y,z
-x,-y,-z
loop_
_atom_site_type_symbol
_atom_site_label
_atom_site_fract_x
_atom_site_fract_y
_atom_site_fract_z
Si Si1 0.782114 0.545714 0.907781
Si Si2 0.631934 0.321450 0.844529
Si Si3 0.733555 0.267456 0.110400
Si Si4 0.228209 0.896842 0.260782
Si Si5 0.020459 0.101555 0.056517
Si Si6 0.059811 0.277525 0.443094
Si Si7 0.376872 0.119252 0.417916
Si Si8 0.157384 0.009272 0.686332
O O1 0.773484 0.416566 0.865708
O O2 0.996088 0.778301 0.777012
O O3 0.500000 0.500000 0.000000
O O4 0.796839 0.458958 0.008025
O O5 0.682726 0.178702 0.823040
O O6 0.314249 0.208798 0.974307
O O7 0.767707 0.509829 0.699188
O O8 0.631932 0.225199 0.249794
O O9 0.476612 0.091802 0.180756
O O10 0.954955 0.243462 0.025522
O O11 0.076844 0.740077 0.420336
O O12 0.033422 0.938411 0.284603
O O13 0.803919 0.961380 0.232359
O O14 0.000000 0.000000 0.000000
O O15 0.243071 0.216674 0.415424
O O16 0.830803 0.106701 0.494120
O O17 0.391607 0.120954 0.514184
#
# Coordination Sequence:
#
# PCOD9006642 Si02
#       8
#     2   2   2   2   2   2   2   2
#     4  12  22  39  66 100 121 155 220 275 313 357
#     4  12  22  38  67  95 132 163 215 264 313 378
#     4  11  23  40  63  93 132 170 209 253 323 384
#     4  10  21  38  67  94 125 168 213 262 317 374
#     4  12  27  41  59  90 139 176 206 247 322 390
#     4   9  18  35  64  99 124 155 212 272 320 358
#     4   9  19  39  67  91 125 162 210 268 318 367
#     4  11  23  43  67  96 124 164 214 274 311 371
#
# _framework density 22.737511000000001
#
# number of rings (size 3 to 8) (size 9 to 14) (size 15 to 20)
#    0.000    1.250    5.000    1.875    1.750    2.000 
#    0.000    0.000    0.000    3.000    0.000    0.000 
#    0.000    0.000    0.000    0.000    0.000    0.000 
#
# Total GULP energy -89498.792711 kJ/mol
# GULP energy per Si atom -5593.674544 kJ/mol
# Density = 2.268576 g / cm^3
# Si number density = 22.737511 Si / 1000 Ang^3
#
#
#
# Elastic Constant Matrix: (Units=GPa)
#
#
# Indices 1 2 3 4 5 6 
#
# 1 65.9278 24.4002 23.0604 12.9885 15.8984 -21.9565
# 2 24.4002 79.1090 49.4444 22.2847 12.4269 -6.9781
# 3 23.0604 49.4444 135.6213 8.3872 30.3890 -6.0944
# 4 12.9885 22.2847 8.3872 39.4752 0.3139 3.2445
# 5 15.8984 12.4269 30.3890 0.3139 38.2371 8.9919
# 6 -21.9565 -6.9781 -6.0944 3.2445 8.9919 38.3601
#
#
#
# Elastic Compliance Matrix: (Units=1/GPa)
#
#
# Indices 1 2 3 4 5 6 
#
# 1 0.028665 -0.002340 0.001381 -0.009999 -0.017127 0.021062
# 2 -0.002340 0.020226 -0.005961 -0.009578 -0.001378 0.002526
# 3 0.001381 -0.005961 0.011350 0.000281 -0.008476 0.003473
# 4 -0.009999 -0.009578 0.000281 0.034933 0.009737 -0.012658
# 5 -0.017127 -0.001378 -0.008476 0.009737 0.045776 -0.022954
# 6 0.021062 0.002526 0.003473 -0.012658 -0.022954 0.045586
#
#
# Mechanical properties :
#
#
# Convention : Reuss Voigt Hill
#
# Bulk Modulus (GPa) = 21.55117 52.71870 37.13493
# Shear Modulus (GPa) = 23.16498 35.46469 29.31484
#
# Velocity S-wave (km/s) = 3.19533 3.95364 3.59454
# Velocity P-wave (km/s) = 4.80753 6.63912 5.79613
#
# Compressibility (1/GPa) = 0.04640119
#
# Stress axis : x y z
#
# Youngs Moduli (GPa) = 34.88537 49.44156 88.10640
#
# Poissons Ratio (x) = 0.11569 -0.12172
# Poissons Ratio (y) = 0.08163 0.52524
# Poissons Ratio (z) = -0.04819 0.29474
#
# Static dielectric constant tensor:
#      x y z
#    x 1.869080 0.033130 0.012810 
#    y 0.033130 1.822220 0.025070 
#    z 0.012810 0.025070 1.878950 
# 
# From -- ./inp_files/446789.got.cif
#   From: 2010.05.17/outbox.cif.g08.bks.cpg/sg2_224_cif.got.tgz:446789.got - 2010.06.03 11:33:40.
