data_PCOD9006233
_publ_section_title
;
Structure prediction by ZEFSAII (Michael W. Deem and Ramdas Pophale) SiO2 
 PCOD9006233
Probable space group: P -1
;
_chemical_formula_sum "Si O2"
_cell_formula_units_Z 16
_cell_length_a 12.038605
_cell_length_b 15.184242
_cell_length_c 16.198068
_cell_angle_alpha 46.309695
_cell_angle_beta 25.657103
_cell_angle_gamma 63.738048
_cell_volume 758.133541
_symmetry_space_group_name_H-M "P -1"
_symmetry_group_IT_number 2
_symmetry_cell_setting 'triclinic'
loop_
_space_group_symop_operation_xyz
x,y,z
-x,-y,-z
loop_
_atom_site_type_symbol
_atom_site_label
_atom_site_fract_x
_atom_site_fract_y
_atom_site_fract_z
Si Si1 0.321424 0.955207 0.849899
Si Si2 0.760743 0.609911 0.822116
Si Si3 0.722096 0.167110 0.211402
Si Si4 0.662586 0.850493 0.804577
Si Si5 0.708783 0.166218 0.788438
Si Si6 0.886038 0.280532 0.193713
Si Si7 0.830117 0.801526 0.403533
Si Si8 0.342870 0.521992 0.847616
O O1 0.178807 0.847124 0.935978
O O2 0.484542 0.896779 0.834748
O O3 0.598400 0.123690 0.527239
O O4 0.042784 0.931240 0.110047
O O5 0.682139 0.724698 0.831491
O O6 0.100527 0.709668 0.488217
O O7 0.500000 0.500000 0.000000
O O8 0.777791 0.533207 0.942637
O O9 0.967340 0.251886 0.066478
O O10 0.476575 0.212143 0.349485
O O11 0.500000 0.000000 0.500000
O O12 0.487357 0.800864 0.041601
O O13 0.000000 0.000000 0.500000
O O14 0.965387 0.173578 0.670803
O O15 0.500000 0.000000 0.000000
O O16 0.754944 0.379438 0.196529
O O17 0.181597 0.374787 0.994993
O O18 0.711053 0.645802 0.538227
#
# Coordination Sequence:
#
# PCOD9006233 Si02
#       8
#     2   2   2   2   2   2   2   2
#     4  10  21  38  65  91 120 161 216 265 314 372
#     4  12  24  42  67  93 136 175 207 268 339 387
#     4   9  19  35  59  87 118 157 205 253 311 363
#     4  11  23  39  66  98 130 165 221 275 322 388
#     4  11  23  41  65  98 126 171 224 265 326 392
#     4   9  20  38  62  88 120 165 209 255 314 382
#     4  10  21  39  61  90 126 161 205 266 314 380
#     4  10  21  39  60  88 128 166 202 254 326 382
#
# _framework density 21.104462000000002
#
# number of rings (size 3 to 8) (size 9 to 14) (size 15 to 20)
#    0.000    1.750    2.500    1.500    3.500    5.000 
#    0.000    0.625    0.000    4.500    0.000    0.000 
#    0.000    0.000    0.000    0.000    0.000    0.000 
#
# Total GULP energy -89205.133405 kJ/mol
# GULP energy per Si atom -5575.320838 kJ/mol
# Density = 2.105643 g / cm^3
# Si number density = 21.104462 Si / 1000 Ang^3
#
#
#
# Elastic Constant Matrix: (Units=GPa)
#
#
# Indices 1 2 3 4 5 6 
#
# 1 116.8227 32.3792 49.3367 -12.5057 -3.6800 29.2219
# 2 32.3792 90.6342 36.7301 -11.4916 2.5176 16.6376
# 3 49.3367 36.7301 104.3349 -16.8130 17.2536 8.4460
# 4 -12.5057 -11.4916 -16.8130 29.5027 11.9357 -7.8470
# 5 -3.6800 2.5176 17.2536 11.9357 45.4049 -13.1984
# 6 29.2219 16.6376 8.4460 -7.8470 -13.1984 36.4136
#
#
#
# Elastic Compliance Matrix: (Units=1/GPa)
#
#
# Indices 1 2 3 4 5 6 
#
# 1 0.013302 -0.001028 -0.005429 -0.000504 0.000781 -0.008772
# 2 -0.001028 0.014024 -0.003391 0.002462 -0.001631 -0.004857
# 3 -0.005429 -0.003391 0.016176 0.009337 -0.008542 0.001070
# 4 -0.000504 0.002462 0.009337 0.046658 -0.015544 0.001535
# 5 0.000781 -0.001631 -0.008542 -0.015544 0.032579 0.010559
# 6 -0.008772 -0.004857 0.001070 0.001535 0.010559 0.040631
#
#
# Mechanical properties :
#
#
# Convention : Reuss Voigt Hill
#
# Bulk Modulus (GPa) = 42.00463 60.96488 51.48476
# Shear Modulus (GPa) = 26.17781 35.15397 30.66589
#
# Velocity S-wave (km/s) = 3.52574 4.08574 3.81603
# Velocity P-wave (km/s) = 6.04325 7.15595 6.62301
#
# Compressibility (1/GPa) = 0.02380690
#
# Stress axis : x y z
#
# Youngs Moduli (GPa) = 75.17488 71.30660 61.81981
#
# Poissons Ratio (x) = 0.07327 0.33561
# Poissons Ratio (y) = 0.07725 0.20965
# Poissons Ratio (z) = 0.40811 0.24183
#
# Static dielectric constant tensor:
#      x y z
#    x 1.793530 0.011920 -0.006410 
#    y 0.011920 1.824840 -0.007600 
#    z -0.006410 -0.007600 1.778260 
# 
# From -- ./inp_files/521531.got.cif
#   From: 2010.05.17/outbox.cif.g08.bks.cpg/sg2_261_cif.got.tgz:521531.got - 2010.06.03 11:33:40.
