data_PCOD9006879
_publ_section_title
;
Structure prediction by ZEFSAII (Michael W. Deem and Ramdas Pophale) SiO2 
 PCOD9006879
Probable space group: P -1
;
_chemical_formula_sum "Si O2"
_cell_formula_units_Z 16
_cell_length_a 15.167135
_cell_length_b 9.271609
_cell_length_c 9.080716
_cell_angle_alpha 105.760921
_cell_angle_beta 101.785674
_cell_angle_gamma 36.158577
_cell_volume 724.855676
_symmetry_space_group_name_H-M "P -1"
_symmetry_group_IT_number 2
_symmetry_cell_setting 'triclinic'
loop_
_space_group_symop_operation_xyz
x,y,z
-x,-y,-z
loop_
_atom_site_type_symbol
_atom_site_label
_atom_site_fract_x
_atom_site_fract_y
_atom_site_fract_z
Si Si1 0.699301 0.192171 0.025083
Si Si2 0.761470 0.146285 0.500636
Si Si3 0.495997 0.277081 0.436944
Si Si4 0.910892 0.479516 0.030864
Si Si5 0.967449 0.893650 0.233172
Si Si6 0.909938 0.962146 0.798798
Si Si7 0.591100 0.892148 0.151228
Si Si8 0.500833 0.714743 0.210900
O O1 0.641762 0.122245 0.899737
O O2 0.775638 0.192545 0.924286
O O3 0.576955 0.450984 0.141509
O O4 0.829977 0.997065 0.130993
O O5 0.634468 0.200483 0.416880
O O6 0.663616 0.428727 0.560938
O O7 0.906070 0.974973 0.399295
O O8 0.827253 0.007368 0.640636
O O9 0.517371 0.230204 0.607508
O O10 0.512412 0.106190 0.300476
O O11 0.754168 0.731978 0.117625
O O12 0.997363 0.277292 0.136968
O O13 0.000000 0.500000 0.000000
O O14 0.894739 0.385244 0.860638
O O15 0.992128 0.028503 0.219823
O O16 0.598307 0.718334 0.178384
O O17 0.500000 0.000000 0.000000
#
# Coordination Sequence:
#
# PCOD9006879 Si02
#       8
#     2   2   2   2   2   2   2   2
#     4  10  21  38  72  98 132 177 234 287 339 403
#     4  11  24  42  71 107 133 182 233 297 351 408
#     4  11  25  44  67  99 146 179 230 290 351 417
#     4  11  26  47  70 101 139 185 233 288 351 425
#     4  11  22  42  70 101 141 173 238 293 343 411
#     4  11  23  43  70 101 137 180 236 287 349 409
#     4  12  29  44  71  99 142 187 233 283 354 427
#     4  11  22  42  67 101 138 184 229 281 353 418
#
# _framework density 22.073359
#
# number of rings (size 3 to 8) (size 9 to 14) (size 15 to 20)
#    0.000    1.000    2.500    4.500    8.750    0.000 
#    0.000    2.500    0.000    0.000    0.000    0.000 
#    0.000    0.000    0.000    0.000    0.000    0.000 
#
# Total GULP energy -89314.975000 kJ/mol
# GULP energy per Si atom -5582.185937 kJ/mol
# Density = 2.202312 g / cm^3
# Si number density = 22.073359 Si / 1000 Ang^3
#
#
#
# Elastic Constant Matrix: (Units=GPa)
#
#
# Indices 1 2 3 4 5 6 
#
# 1 93.3076 6.7931 28.3070 -4.4704 -19.5508 12.4204
# 2 6.7931 48.2027 34.2486 5.2918 1.2741 4.7194
# 3 28.3070 34.2486 142.9006 10.8604 -10.5363 0.5188
# 4 -4.4704 5.2918 10.8604 25.2745 -1.6358 -0.0136
# 5 -19.5508 1.2741 -10.5363 -1.6358 37.9922 2.0527
# 6 12.4204 4.7194 0.5188 -0.0136 2.0527 27.3487
#
#
#
# Elastic Compliance Matrix: (Units=1/GPa)
#
#
# Indices 1 2 3 4 5 6 
#
# 1 0.014086 -0.000164 -0.002511 0.004061 0.007103 -0.006852
# 2 -0.000164 0.025918 -0.006126 -0.002991 -0.002560 -0.004091
# 3 -0.002511 -0.006126 0.009282 -0.003068 0.001251 0.001926
# 4 0.004061 -0.002991 -0.003068 0.042438 0.003247 -0.001492
# 5 0.007103 -0.002560 0.001251 0.003247 0.030826 -0.005120
# 6 -0.006852 -0.004091 0.001926 -0.001492 -0.005120 0.040730
#
#
# Mechanical properties :
#
#
# Convention : Reuss Voigt Hill
#
# Bulk Modulus (GPa) = 31.56106 47.01202 39.28654
# Shear Modulus (GPa) = 26.11768 32.46055 29.28912
#
# Velocity S-wave (km/s) = 3.44353 3.83897 3.64661
# Velocity P-wave (km/s) = 5.48998 6.40270 5.96382
#
# Compressibility (1/GPa) = 0.03168461
#
# Stress axis : x y z
#
# Youngs Moduli (GPa) = 70.99313 38.58348 107.73687
#
# Poissons Ratio (x) = 0.00631 0.27054
# Poissons Ratio (y) = 0.01161 0.65998
# Poissons Ratio (z) = 0.17827 0.23636
#
# Static dielectric constant tensor:
#      x y z
#    x 1.836950 -0.053430 0.004970 
#    y -0.053430 1.942660 0.033120 
#    z 0.004970 0.033120 1.824700 
# 
# From -- ./inp_files/299296.got.cif
#   From: 2010.05.17/outbox.cif.g08.bks.cpg/sg2_150_cif.got.tgz:299296.got - 2010.06.03 11:33:40.
