data_PCOD9006613
_publ_section_title
;
Structure prediction by ZEFSAII (Michael W. Deem and Ramdas Pophale) SiO2 
 PCOD9006613
Probable space group: P -1
;
_chemical_formula_sum "Si O2"
_cell_formula_units_Z 16
_cell_length_a 14.457786
_cell_length_b 11.371971
_cell_length_c 11.484248
_cell_angle_alpha 141.947325
_cell_angle_beta 30.875734
_cell_angle_gamma 131.918312
_cell_volume 597.075315
_symmetry_space_group_name_H-M "P -1"
_symmetry_group_IT_number 2
_symmetry_cell_setting 'triclinic'
loop_
_space_group_symop_operation_xyz
x,y,z
-x,-y,-z
loop_
_atom_site_type_symbol
_atom_site_label
_atom_site_fract_x
_atom_site_fract_y
_atom_site_fract_z
Si Si1 0.202180 0.724572 0.513715
Si Si2 0.116450 0.401690 0.959380
Si Si3 0.757907 0.344938 0.172280
Si Si4 0.848066 0.907196 0.704091
Si Si5 0.507815 0.221644 0.944405
Si Si6 0.460255 0.671665 0.391412
Si Si7 0.219270 0.028081 0.427745
Si Si8 0.821884 0.667642 0.899630
O O1 0.350221 0.812897 0.338993
O O2 0.281934 0.737766 0.566513
O O3 0.202322 0.500700 0.298953
O O4 0.994624 0.790449 0.776720
O O5 0.501994 0.554111 0.844857
O O6 0.121935 0.428702 0.111959
O O7 0.913927 0.434327 0.154503
O O8 0.245603 0.533915 0.846788
O O9 0.581383 0.313150 0.415594
O O10 0.828044 0.135024 0.902461
O O11 0.056688 0.876223 0.484347
O O12 0.795072 0.857939 0.590447
O O13 0.698299 0.832754 0.894342
O O14 0.595113 0.088316 0.846348
O O15 0.822720 0.815488 0.306040
O O16 0.631412 0.764504 0.216336
#
# Coordination Sequence:
#
# PCOD9006613 Si02
#       8
#     2   2   2   2   2   2   2   2
#     4  10  23  43  63  95 124 162 221 261 304 367
#     4  10  21  41  66  94 128 162 207 262 314 367
#     4  10  22  39  67  97 124 165 207 260 313 375
#     4  10  23  41  64  91 132 168 199 256 318 374
#     4  11  23  39  65  92 122 170 205 258 310 373
#     4  11  23  41  66  95 126 159 219 263 306 367
#     4  10  23  42  60  93 133 164 206 249 318 385
#     4  10  21  38  67  91 121 163 206 266 307 361
#
# _framework density 26.797288999999999
#
# number of rings (size 3 to 8) (size 9 to 14) (size 15 to 20)
#    0.000    1.750    1.250    2.625    5.250    5.500 
#    0.000    1.250    2.750    0.000    0.000    0.000 
#    0.000    0.000    0.000    0.000    0.000    0.000 
#
# Total GULP energy -89601.637055 kJ/mol
# GULP energy per Si atom -5600.102316 kJ/mol
# Density = 2.673630 g / cm^3
# Si number density = 26.797289 Si / 1000 Ang^3
#
#
#
# Elastic Constant Matrix: (Units=GPa)
#
#
# Indices 1 2 3 4 5 6 
#
# 1 75.1543 11.9926 11.7674 -2.5686 -0.9730 6.0239
# 2 11.9926 56.7611 36.8693 -17.6218 -3.9924 -0.3244
# 3 11.7674 36.8693 119.7555 -43.9123 -2.3526 5.6682
# 4 -2.5686 -17.6218 -43.9123 64.1563 -2.2996 -7.3757
# 5 -0.9730 -3.9924 -2.3526 -2.2996 46.7867 -11.3602
# 6 6.0239 -0.3244 5.6682 -7.3757 -11.3602 23.4262
#
#
#
# Elastic Compliance Matrix: (Units=1/GPa)
#
#
# Indices 1 2 3 4 5 6 
#
# 1 0.014209 -0.003029 -0.000767 -0.001347 -0.001159 -0.004496
# 2 -0.003029 0.023269 -0.006002 0.002827 0.002942 0.004870
# 3 -0.000767 -0.006002 0.012912 0.007099 0.000319 -0.000620
# 4 -0.001347 0.002827 0.007099 0.022130 0.003430 0.007299
# 5 -0.001159 0.002942 0.000319 0.003430 0.025062 0.013495
# 6 -0.004496 0.004870 -0.000620 0.007299 0.013495 0.052903
#
#
# Mechanical properties :
#
#
# Convention : Reuss Voigt Hill
#
# Bulk Modulus (GPa) = 32.47537 41.43661 36.95599
# Shear Modulus (GPa) = 27.72433 39.60996 33.66715
#
# Velocity S-wave (km/s) = 3.22000 3.84882 3.54837
# Velocity P-wave (km/s) = 5.09605 5.93698 5.53252
#
# Compressibility (1/GPa) = 0.03079257
#
# Stress axis : x y z
#
# Youngs Moduli (GPa) = 70.37889 42.97580 77.44558
#
# Poissons Ratio (x) = 0.13017 0.05944
# Poissons Ratio (y) = 0.21317 0.46485
# Poissons Ratio (z) = 0.05402 0.25795
#
# Static dielectric constant tensor:
#      x y z
#    x 2.131530 0.039050 0.001430 
#    y 0.039050 2.101810 -0.073980 
#    z 0.001430 -0.073980 2.075470 
# 
# From -- ./inp_files/454035.got.cif
#   From: 2010.05.17/outbox.cif.g08.bks.cpg/sg2_228_cif.got.tgz:454035.got - 2010.06.03 11:33:40.
