data_PCOD9006379
_publ_section_title
;
Structure prediction by ZEFSAII (Michael W. Deem and Ramdas Pophale) SiO2 
 PCOD9006379
Probable space group: P -1
;
_chemical_formula_sum "Si O2"
_cell_formula_units_Z 16
_cell_length_a 8.429268
_cell_length_b 10.130663
_cell_length_c 15.506521
_cell_angle_alpha 72.057249
_cell_angle_beta 48.323335
_cell_angle_gamma 43.635107
_cell_volume 642.817716
_symmetry_space_group_name_H-M "P -1"
_symmetry_group_IT_number 2
_symmetry_cell_setting 'triclinic'
loop_
_space_group_symop_operation_xyz
x,y,z
-x,-y,-z
loop_
_atom_site_type_symbol
_atom_site_label
_atom_site_fract_x
_atom_site_fract_y
_atom_site_fract_z
Si Si1 0.248605 0.730129 0.902904
Si Si2 0.133481 0.779742 0.487424
Si Si3 0.065836 0.997926 0.769168
Si Si4 0.108212 0.161775 0.262590
Si Si5 0.062211 0.617443 0.266856
Si Si6 0.261836 0.495695 0.796382
Si Si7 0.769579 0.785439 0.163095
Si Si8 0.704205 0.793189 0.522564
O O1 0.050503 0.941326 0.881771
O O2 0.595864 0.602868 0.831768
O O3 0.296977 0.589627 0.840025
O O4 0.048504 0.752128 0.043807
O O5 0.440341 0.637663 0.347288
O O6 0.145623 0.722673 0.592916
O O7 0.898680 0.789548 0.520458
O O8 0.000000 0.000000 0.500000
O O9 0.439016 0.823432 0.652049
O O10 0.919063 0.966047 0.758058
O O11 0.932078 0.216107 0.762784
O O12 0.033726 0.317609 0.191165
O O13 0.440656 0.012006 0.217963
O O14 0.820076 0.712041 0.257644
O O15 0.931516 0.619826 0.403498
O O16 0.224535 0.356287 0.867141
O O17 0.500000 0.000000 0.500000
#
# Coordination Sequence:
#
# PCOD9006379 Si02
#       8
#     2   2   2   2   2   2   2   2
#     4  11  25  47  65  98 131 177 231 264 326 391
#     4  12  21  40  70  97 137 168 218 277 330 393
#     4  10  24  41  68  97 134 175 210 277 331 394
#     4  11  24  42  65 101 135 170 224 268 333 391
#     4  11  23  43  65  97 132 171 223 269 334 386
#     4  11  25  43  66  99 130 176 218 279 325 389
#     4  12  26  42  71  94 133 183 219 274 323 387
#     4  10  21  38  65  98 130 172 210 265 341 387
#
# _framework density 24.890412999999999
#
# number of rings (size 3 to 8) (size 9 to 14) (size 15 to 20)
#    0.000    1.000    2.500    4.875    1.750    6.000 
#    0.000    0.000    0.000    0.000    0.000    0.000 
#    0.000    0.000    0.000    0.000    0.000    0.000 
#
# Total GULP energy -89653.534135 kJ/mol
# GULP energy per Si atom -5603.345883 kJ/mol
# Density = 2.483376 g / cm^3
# Si number density = 24.890413 Si / 1000 Ang^3
#
#
#
# Elastic Constant Matrix: (Units=GPa)
#
#
# Indices 1 2 3 4 5 6 
#
# 1 96.9900 34.9277 13.5905 13.8055 3.1511 -13.7545
# 2 34.9277 69.3823 4.0694 8.3197 3.6132 -6.1644
# 3 13.5905 4.0694 51.7572 0.5868 -2.6427 4.8723
# 4 13.8055 8.3197 0.5868 30.8122 -2.6993 -0.1922
# 5 3.1511 3.6132 -2.6427 -2.6993 31.3717 3.7122
# 6 -13.7545 -6.1644 4.8723 -0.1922 3.7122 41.7805
#
#
#
# Elastic Compliance Matrix: (Units=1/GPa)
#
#
# Indices 1 2 3 4 5 6 
#
# 1 0.014369 -0.005921 -0.003775 -0.004918 -0.002030 0.004455
# 2 -0.005921 0.017835 0.000011 -0.002312 -0.001755 0.000826
# 3 -0.003775 0.000011 0.020800 0.001506 0.002721 -0.003902
# 4 -0.004918 -0.002312 0.001506 0.035609 0.004229 -0.002347
# 5 -0.002030 -0.001755 0.002721 0.004229 0.033371 -0.004190
# 6 0.004455 0.000826 -0.003902 -0.002347 -0.004190 0.026340
#
#
# Mechanical properties :
#
#
# Convention : Reuss Voigt Hill
#
# Bulk Modulus (GPa) = 29.73048 35.92275 32.82662
# Shear Modulus (GPa) = 27.94781 31.82900 29.88841
#
# Velocity S-wave (km/s) = 3.35451 3.57986 3.46902
# Velocity P-wave (km/s) = 5.19366 5.61702 5.40948
#
# Compressibility (1/GPa) = 0.03363552
#
# Stress axis : x y z
#
# Youngs Moduli (GPa) = 69.59340 56.06980 48.07594
#
# Poissons Ratio (x) = 0.33199 0.18148
# Poissons Ratio (y) = 0.41206 -0.00054
# Poissons Ratio (z) = 0.26270 -0.00063
#
# Static dielectric constant tensor:
#      x y z
#    x 1.965550 0.025860 0.022690 
#    y 0.025860 1.966460 0.010710 
#    z 0.022690 0.010710 1.975960 
# 
# From -- ./inp_files/427406.got.cif
#   From: 2010.05.17/outbox.cif.g08.bks.cpg/sg2_214_cif.got.tgz:427406.got - 2010.06.03 11:33:40.
