data_PCOD9006985
_publ_section_title
;
Structure prediction by ZEFSAII (Michael W. Deem and Ramdas Pophale) SiO2 
 PCOD9006985
Probable space group: P -1
;
_chemical_formula_sum "Si O2"
_cell_formula_units_Z 15
_cell_length_a 13.069870
_cell_length_b 13.278990
_cell_length_c 10.573022
_cell_angle_alpha 70.534963
_cell_angle_beta 31.700904
_cell_angle_gamma 52.270211
_cell_volume 680.705817
_symmetry_space_group_name_H-M "P -1"
_symmetry_group_IT_number 2
_symmetry_cell_setting 'triclinic'
loop_
_space_group_symop_operation_xyz
x,y,z
-x,-y,-z
loop_
_atom_site_type_symbol
_atom_site_label
_atom_site_fract_x
_atom_site_fract_y
_atom_site_fract_z
Si Si1 0.096179 0.635175 0.353007
Si Si2 0.476785 0.839561 0.496885
Si Si3 0.522209 0.155014 0.799478
Si Si4 0.244660 0.143435 0.590731
Si Si5 0.229491 0.968659 0.040990
Si Si6 0.000000 0.000000 0.000000
Si Si7 0.415390 0.324687 0.070980
Si Si8 0.900878 0.861039 0.650136
O O1 0.331817 0.472093 0.140189
O O2 0.990540 0.734932 0.298290
O O3 0.850756 0.647378 0.639862
O O4 0.115476 0.712855 0.414807
O O5 0.533659 0.804688 0.305773
O O6 0.703670 0.803294 0.361755
O O7 0.241445 0.018906 0.683005
O O8 0.296512 0.820977 0.762919
O O9 0.781318 0.990467 0.622604
O O10 0.501373 0.268058 0.860322
O O11 0.312186 0.150074 0.081882
O O12 0.515555 0.055281 0.263267
O O13 0.368362 0.813326 0.014879
O O14 0.076532 0.083533 0.266096
O O15 0.048639 0.016913 0.093264
#
# Coordination Sequence:
#
# PCOD9006985 Si02
#       8
#     2   2   2   2   2   1   2   2
#     4   9  14  26  44  76  94 119 143 194 224 283
#     4  10  17  29  44  72  91 126 148 199 219 272
#     4   9  14  26  45  71  93 119 145 194 230 268
#     4   9  16  26  49  68  95 114 159 182 235 262
#     4   9  16  31  45  72  90 125 145 194 223 279
#     4  10  22  30  46  68  98 116 162 190 232 256
#     4   8  16  25  46  70 102 114 145 185 247 260
#     4   9  14  24  47  70  94 113 152 187 231 268
#
# _framework density 22.03595
#
# number of rings (size 3 to 8) (size 9 to 14) (size 15 to 20)
#    0.000    2.933    2.667    1.600    0.000    0.000 
#    0.000    3.333    0.000    1.600    0.000    0.000 
#    0.000    0.000    0.000    0.000    0.000    0.000 
#
# Total GULP energy -83541.492847 kJ/mol
# GULP energy per Si atom -5569.432856 kJ/mol
# Density = 2.198579 g / cm^3
# Si number density = 22.035950 Si / 1000 Ang^3
#
#
#
# Elastic Constant Matrix: (Units=GPa)
#
#
# Indices 1 2 3 4 5 6 
#
# 1 182.5202 60.0730 42.6635 23.7019 41.3400 19.0606
# 2 60.0730 89.3129 50.6155 24.2751 18.6155 21.5653
# 3 42.6635 50.6155 106.4318 13.6342 9.8890 11.4500
# 4 23.7019 24.2751 13.6342 41.6436 10.8421 4.5879
# 5 41.3400 18.6155 9.8890 10.8421 42.9334 -3.0520
# 6 19.0606 21.5653 11.4500 4.5879 -3.0520 23.5210
#
#
#
# Elastic Compliance Matrix: (Units=1/GPa)
#
#
# Indices 1 2 3 4 5 6 
#
# 1 0.008829 -0.002243 -0.001097 -0.000828 -0.007449 -0.005369
# 2 -0.002243 0.023736 -0.007258 -0.006921 -0.005837 -0.015819
# 3 -0.001097 -0.007258 0.013008 0.000115 0.001274 0.001354
# 4 -0.000828 -0.006921 0.000115 0.029328 -0.003580 0.000775
# 5 -0.007449 -0.005837 0.001274 -0.003580 0.034741 0.015974
# 6 -0.005369 -0.015819 0.001354 0.000775 0.015974 0.062632
#
#
# Mechanical properties :
#
#
# Convention : Reuss Voigt Hill
#
# Bulk Modulus (GPa) = 41.02176 76.10766 58.56471
# Shear Modulus (GPa) = 24.80224 36.61379 30.70801
#
# Velocity S-wave (km/s) = 3.35854 4.08063 3.73707
# Velocity P-wave (km/s) = 5.80482 7.53757 6.72722
#
# Compressibility (1/GPa) = 0.02437730
#
# Stress axis : x y z
#
# Youngs Moduli (GPa) = 113.26779 42.13056 76.87436
#
# Poissons Ratio (x) = 0.09449 0.08430
# Poissons Ratio (y) = 0.25405 0.55797
# Poissons Ratio (z) = 0.12421 0.30579
#
# Static dielectric constant tensor:
#      x y z
#    x 1.825060 0.068100 -0.058970 
#    y 0.068100 1.858340 -0.115260 
#    z -0.058970 -0.115260 2.013500 
# 
# From -- ./inp_files/453773.got.cif
#   From: 2010.05.17/outbox.cif.g08.bks.cpg/sg2_227_cif.got.tgz:453773.got - 2010.06.03 11:33:40.
