data_PCOD9006226
_publ_section_title
;
Structure prediction by ZEFSAII (Michael W. Deem and Ramdas Pophale) SiO2 
 PCOD9006226
Probable space group: P -1
;
_chemical_formula_sum "Si O2"
_cell_formula_units_Z 16
_cell_length_a 11.580381
_cell_length_b 15.905909
_cell_length_c 9.624071
_cell_angle_alpha 71.367976
_cell_angle_beta 141.527653
_cell_angle_gamma 135.314121
_cell_volume 651.751063
_symmetry_space_group_name_H-M "P -1"
_symmetry_group_IT_number 2
_symmetry_cell_setting 'triclinic'
loop_
_space_group_symop_operation_xyz
x,y,z
-x,-y,-z
loop_
_atom_site_type_symbol
_atom_site_label
_atom_site_fract_x
_atom_site_fract_y
_atom_site_fract_z
Si Si1 0.953522 0.363763 0.179376
Si Si2 0.739459 0.107831 0.547143
Si Si3 0.836661 0.588019 0.143384
Si Si4 0.840376 0.847300 0.904192
Si Si5 0.913220 0.863750 0.643032
Si Si6 0.378624 0.053008 0.743047
Si Si7 0.334564 0.558982 0.210892
Si Si8 0.332729 0.552855 0.679491
O O1 0.264671 0.483427 0.327719
O O2 0.045033 0.415181 0.395358
O O3 0.724497 0.200263 0.021835
O O4 0.785739 0.385773 0.944110
O O5 0.868823 0.255179 0.601632
O O6 0.500000 0.000000 0.500000
O O7 0.653965 0.035596 0.356556
O O8 0.020946 0.157845 0.839028
O O9 0.745571 0.472971 0.218343
O O10 0.857094 0.563301 0.019572
O O11 0.563105 0.555747 0.891588
O O12 0.929656 0.851258 0.830229
O O13 0.490556 0.696365 0.679470
O O14 0.000000 0.000000 0.000000
O O15 0.774506 0.912500 0.477266
O O16 0.684196 0.706785 0.443844
O O17 0.205687 0.972775 0.766776
#
# Coordination Sequence:
#
# PCOD9006226 Si02
#       8
#     2   2   2   2   2   2   2   2
#     4  10  21  40  63  93 123 162 216 266 316 368
#     4  11  24  43  63  94 135 172 210 264 331 381
#     4  10  24  41  62  90 130 174 208 260 318 387
#     4  11  22  40  68  94 124 168 219 267 316 389
#     4  10  21  39  64  98 121 164 218 265 317 378
#     4  10  22  39  65  93 132 164 208 270 321 376
#     4  10  21  38  65  90 127 163 211 266 316 377
#     4  10  23  41  61  93 125 167 218 254 321 384
#
# _framework density 24.549251999999999
#
# number of rings (size 3 to 8) (size 9 to 14) (size 15 to 20)
#    0.000    1.750    2.500    0.750    5.250    4.000 
#    2.250    1.250    0.000    0.000    0.000    0.000 
#    0.000    0.000    0.000    0.000    0.000    0.000 
#
# Total GULP energy -89371.730219 kJ/mol
# GULP energy per Si atom -5585.733139 kJ/mol
# Density = 2.449338 g / cm^3
# Si number density = 24.549252 Si / 1000 Ang^3
#
#
#
# Elastic Constant Matrix: (Units=GPa)
#
#
# Indices 1 2 3 4 5 6 
#
# 1 77.3281 34.7206 28.8683 14.6524 -24.3628 0.8306
# 2 34.7206 112.3165 42.6985 18.4190 -15.6521 8.8464
# 3 28.8683 42.6985 112.4890 24.6881 -28.6010 2.8272
# 4 14.6524 18.4190 24.6881 44.5803 -4.7492 -1.1059
# 5 -24.3628 -15.6521 -28.6010 -4.7492 39.0052 -1.9471
# 6 0.8306 8.8464 2.8272 -1.1059 -1.9471 34.6671
#
#
#
# Elastic Compliance Matrix: (Units=1/GPa)
#
#
# Indices 1 2 3 4 5 6 
#
# 1 0.018290 -0.003817 -0.000141 -0.003328 0.009432 0.000971
# 2 -0.003817 0.011745 -0.003040 -0.002013 -0.000281 -0.002738
# 3 -0.000141 -0.003040 0.013180 -0.005175 0.007725 -0.000027
# 4 -0.003328 -0.002013 -0.005175 0.026911 -0.003320 0.001687
# 5 0.009432 -0.000281 0.007725 -0.003320 0.036735 0.001173
# 6 0.000971 -0.002738 -0.000027 0.001687 0.001173 0.029643
#
#
# Mechanical properties :
#
#
# Convention : Reuss Voigt Hill
#
# Bulk Modulus (GPa) = 34.22208 57.18980 45.70594
# Shear Modulus (GPa) = 31.20315 36.70692 33.95504
#
# Velocity S-wave (km/s) = 3.56904 3.87102 3.72309
# Velocity P-wave (km/s) = 5.56367 6.58227 6.09429
#
# Compressibility (1/GPa) = 0.02922090
#
# Stress axis : x y z
#
# Youngs Moduli (GPa) = 54.67437 85.13951 75.87055
#
# Poissons Ratio (x) = 0.32496 0.01069
# Poissons Ratio (y) = 0.20868 0.23063
# Poissons Ratio (z) = 0.00770 0.25881
#
# Static dielectric constant tensor:
#      x y z
#    x 1.994430 -0.171170 0.167390 
#    y -0.171170 2.540150 -0.303440 
#    z 0.167390 -0.303440 2.212050 
# 
# From -- ./inp_files/207376.got.cif
#   From: 2010.05.17/outbox.cif.g08.bks.cpg/sg2_104_cif.got.tgz:207376.got - 2010.06.03 11:33:40.
