data_PCOD9006971
_publ_section_title
;
Structure prediction by ZEFSAII (Michael W. Deem and Ramdas Pophale) SiO2 
 PCOD9006971
Probable space group: P -1
;
_chemical_formula_sum "Si O2"
_cell_formula_units_Z 14
_cell_length_a 9.372091
_cell_length_b 16.724858
_cell_length_c 6.886007
_cell_angle_alpha 123.107981
_cell_angle_beta 49.195777
_cell_angle_gamma 107.077718
_cell_volume 680.953337
_symmetry_space_group_name_H-M "P -1"
_symmetry_group_IT_number 2
_symmetry_cell_setting 'triclinic'
loop_
_space_group_symop_operation_xyz
x,y,z
-x,-y,-z
loop_
_atom_site_type_symbol
_atom_site_label
_atom_site_fract_x
_atom_site_fract_y
_atom_site_fract_z
Si Si1 0.691059 0.414027 0.060774
Si Si2 0.582119 0.135281 0.634068
Si Si3 0.086742 0.299397 0.436998
Si Si4 0.004003 0.910615 0.728970
Si Si5 0.633037 0.991385 0.056200
Si Si6 0.593998 0.655281 0.046673
Si Si7 0.624672 0.632965 0.444187
O O1 0.715461 0.522777 0.242485
O O2 0.578974 0.364278 0.265326
O O3 0.537670 0.419494 0.028839
O O4 0.886797 0.356092 0.747676
O O5 0.435626 0.082232 0.820388
O O6 0.507822 0.244163 0.808555
O O7 0.777983 0.116325 0.553230
O O8 0.617614 0.088304 0.326601
O O9 0.054119 0.190202 0.269000
O O10 0.234273 0.301353 0.487550
O O11 0.195468 0.351109 0.239057
O O12 0.848299 0.950266 0.762866
O O13 0.000000 0.000000 0.000000
O O14 0.500000 0.000000 0.000000
O O15 0.601670 0.654816 0.268696
#
# Coordination Sequence:
#
# PCOD9006971 Si02
#       7
#     2   2   2   2   2   2   2
#     4  10  22  43  62  90 129 161 200 258 309 363
#     4  10  21  39  58  84 122 157 198 254 299 363
#     4  11  22  40  64  90 125 162 206 257 302 364
#     4  10  21  40  60  86 124 161 197 251 306 354
#     4  10  22  38  62  84 116 156 205 251 304 355
#     4  11  22  38  65  91 123 163 204 249 310 365
#     4  10  24  40  64  94 123 160 208 254 307 366
#
# _framework density 20.559411000000001
#
# number of rings (size 3 to 8) (size 9 to 14) (size 15 to 20)
#    0.000    1.714    2.857    0.857    2.000    2.286 
#    0.000    1.429    0.000    0.000    0.000    0.000 
#    0.000    0.000    0.000    0.000    0.000    0.000 
#
# Total GULP energy -78110.197751 kJ/mol
# GULP energy per Si atom -5579.299839 kJ/mol
# Density = 2.051262 g / cm^3
# Si number density = 20.559411 Si / 1000 Ang^3
#
#
#
# Elastic Constant Matrix: (Units=GPa)
#
#
# Indices 1 2 3 4 5 6 
#
# 1 89.1911 16.0502 58.5777 -7.1173 -6.4261 5.3670
# 2 16.0502 54.6797 26.2231 18.6348 -3.5043 13.6640
# 3 58.5777 26.2231 117.7186 -10.3372 -19.4321 -9.6939
# 4 -7.1173 18.6348 -10.3372 22.5471 -3.5630 3.5269
# 5 -6.4261 -3.5043 -19.4321 -3.5630 51.0151 -0.3572
# 6 5.3670 13.6640 -9.6939 3.5269 -0.3572 28.3073
#
#
#
# Elastic Compliance Matrix: (Units=1/GPa)
#
#
# Indices 1 2 3 4 5 6 
#
# 1 0.017983 0.000535 -0.009736 0.001690 -0.001339 -0.007229
# 2 0.000535 0.047165 -0.017704 -0.044313 -0.006696 -0.023495
# 3 -0.009736 -0.017704 0.021518 0.020174 0.007270 0.015339
# 4 0.001690 -0.044313 0.020174 0.089889 0.011250 0.016920
# 5 -0.001339 -0.006696 0.007270 0.011250 0.022563 0.004859
# 6 -0.007229 -0.023495 0.015339 0.016920 0.004859 0.051244
#
#
# Mechanical properties :
#
#
# Convention : Reuss Voigt Hill
#
# Bulk Modulus (GPa) = 30.43481 51.47683 40.95582
# Shear Modulus (GPa) = 15.86678 31.08979 23.47828
#
# Velocity S-wave (km/s) = 2.78106 3.89291 3.38297
# Velocity P-wave (km/s) = 5.01476 6.73044 5.93492
#
# Compressibility (1/GPa) = 0.03285711
#
# Stress axis : x y z
#
# Youngs Moduli (GPa) = 55.60801 21.20196 46.47269
#
# Poissons Ratio (x) = -0.01135 0.45244
# Poissons Ratio (y) = -0.02976 0.82276
# Poissons Ratio (z) = 0.54138 0.37536
#
# Static dielectric constant tensor:
#      x y z
#    x 1.733980 0.039740 -0.007630 
#    y 0.039740 1.749720 0.030400 
#    z -0.007630 0.030400 1.755760 
# 
# From -- ./inp_files/48775.got.cif
#   From: 2010.05.17/outbox.cif.g08.bks.cpg/sg2_25_cif.got.tgz:48775.got - 2010.06.03 11:33:40.
