data_PCOD9006789
_publ_section_title
;
Structure prediction by ZEFSAII (Michael W. Deem and Ramdas Pophale) SiO2 
 PCOD9006789
Probable space group: P -1
;
_chemical_formula_sum "Si O2"
_cell_formula_units_Z 13
_cell_length_a 5.076279
_cell_length_b 13.496376
_cell_length_c 8.475358
_cell_angle_alpha 129.430334
_cell_angle_beta 92.138354
_cell_angle_gamma 83.568420
_cell_volume 445.243127
_symmetry_space_group_name_H-M "P -1"
_symmetry_group_IT_number 2
_symmetry_cell_setting 'triclinic'
loop_
_space_group_symop_operation_xyz
x,y,z
-x,-y,-z
loop_
_atom_site_type_symbol
_atom_site_label
_atom_site_fract_x
_atom_site_fract_y
_atom_site_fract_z
Si Si1 0.000000 0.500000 0.000000
Si Si2 0.856874 0.850090 0.654503
Si Si3 0.493559 0.064503 0.802212
Si Si4 0.463489 0.382470 0.668823
Si Si5 0.241462 0.327854 0.121284
Si Si6 0.234028 0.665077 0.661392
Si Si7 0.226619 0.841152 0.387264
O O1 0.237539 0.471424 0.841774
O O2 0.823750 0.603152 0.977282
O O3 0.684895 0.730385 0.527780
O O4 0.117402 0.797683 0.704395
O O5 0.938983 0.862984 0.483695
O O6 0.694326 0.981246 0.840965
O O7 0.684823 0.135662 0.762805
O O8 0.373505 0.946630 0.592326
O O9 0.251994 0.170940 0.945193
O O10 0.644167 0.423510 0.571004
O O11 0.678747 0.308955 0.719428
O O12 0.532623 0.324488 0.200744
O O13 0.013169 0.373886 0.287285
#
# Coordination Sequence:
#
# PCOD9006789 Si02
#       7
#     1   2   2   2   2   2   2
#     4  12  28  52  80 110 138 196 258 322 342 442
#     4  10  21  42  75 105 152 193 236 292 375 446
#     4  10  21  38  69 111 150 194 236 301 362 442
#     4  10  22  49  74 109 144 194 248 299 373 429
#     4  12  28  49  75 111 150 191 254 297 368 430
#     4  11  26  51  73 109 155 196 232 306 373 449
#     4   9  19  39  67 108 151 191 235 304 367 431
#
# _framework density 29.197527999999998
#
# number of rings (size 3 to 8) (size 9 to 14) (size 15 to 20)
#    0.000    1.538    3.077    0.462    2.154    4.308 
#    5.538    0.000    0.000    0.000    0.000    0.000 
#    0.000    0.000    0.000    0.000    0.000    0.000 
#
# Total GULP energy -72641.324859 kJ/mol
# GULP energy per Si atom -5587.794220 kJ/mol
# Density = 2.913107 g / cm^3
# Si number density = 29.197528 Si / 1000 Ang^3
#
#
#
# Elastic Constant Matrix: (Units=GPa)
#
#
# Indices 1 2 3 4 5 6 
#
# 1 152.8307 39.7856 61.4157 -20.1637 -40.8051 -5.2982
# 2 39.7856 167.7505 81.8967 -12.5618 -17.6784 -25.4799
# 3 61.4157 81.8967 168.4615 13.2635 -45.4398 -8.9238
# 4 -20.1637 -12.5618 13.2635 36.4330 3.4267 -18.8704
# 5 -40.8051 -17.6784 -45.4398 3.4267 62.7516 -12.0658
# 6 -5.2982 -25.4799 -8.9238 -18.8704 -12.0658 59.4702
#
#
#
# Elastic Compliance Matrix: (Units=1/GPa)
#
#
# Indices 1 2 3 4 5 6 
#
# 1 0.010421 0.001278 -0.003567 0.009632 0.004990 0.005010
# 2 0.001278 0.010313 -0.005814 0.009907 0.000306 0.006866
# 3 -0.003567 -0.005814 0.011957 -0.010538 0.004618 -0.003421
# 4 0.009632 0.009907 -0.010538 0.050120 0.002520 0.019936
# 5 0.004990 0.000306 0.004618 0.002520 0.023800 0.006897
# 6 0.005010 0.006866 -0.003421 0.019936 0.006897 0.027415
#
#
# Mechanical properties :
#
#
# Convention : Reuss Voigt Hill
#
# Bulk Modulus (GPa) = 60.65791 95.02651 77.84221
# Shear Modulus (GPa) = 32.10742 52.12728 42.11735
#
# Velocity S-wave (km/s) = 3.31971 4.22990 3.80214
# Velocity P-wave (km/s) = 5.95937 7.51484 6.78185
#
# Compressibility (1/GPa) = 0.01648590
#
# Stress axis : x y z
#
# Youngs Moduli (GPa) = 95.96042 96.96224 83.63229
#
# Poissons Ratio (x) = -0.12394 0.29836
# Poissons Ratio (y) = -0.12266 0.48620
# Poissons Ratio (z) = 0.34234 0.56369
#
# Static dielectric constant tensor:
#      x y z
#    x 2.700800 -0.003420 0.387200 
#    y -0.003420 2.385160 -0.077920 
#    z 0.387200 -0.077920 2.549640 
# 
# From -- ./inp_files/134572.got.cif
#   From: 2010.05.17/outbox.cif.g08.bks.cpg/sg2_68_cif.got.tgz:134572.got - 2010.06.03 11:33:40.
