data_PCOD9006685
_publ_section_title
;
Structure prediction by ZEFSAII (Michael W. Deem and Ramdas Pophale) SiO2 
 PCOD9006685
Probable space group: P -1
;
_chemical_formula_sum "Si O2"
_cell_formula_units_Z 16
_cell_length_a 16.163622
_cell_length_b 9.837754
_cell_length_c 11.134516
_cell_angle_alpha 60.801665
_cell_angle_beta 67.311937
_cell_angle_gamma 119.753473
_cell_volume 751.592245
_symmetry_space_group_name_H-M "P -1"
_symmetry_group_IT_number 2
_symmetry_cell_setting 'triclinic'
loop_
_space_group_symop_operation_xyz
x,y,z
-x,-y,-z
loop_
_atom_site_type_symbol
_atom_site_label
_atom_site_fract_x
_atom_site_fract_y
_atom_site_fract_z
Si Si1 0.668373 0.346187 0.783801
Si Si2 0.929116 0.600845 0.941119
Si Si3 0.304194 0.276257 0.512363
Si Si4 0.661071 0.708188 0.041079
Si Si5 0.134935 0.065597 0.938423
Si Si6 0.811606 0.686907 0.796162
Si Si7 0.078182 0.544862 0.744928
Si Si8 0.182138 0.738417 0.351177
O O1 0.680625 0.528354 0.632964
O O2 0.703888 0.439670 0.861449
O O3 0.797836 0.411728 0.631773
O O4 0.500000 0.000000 0.000000
O O5 0.837619 0.607982 0.926247
O O6 0.952882 0.496462 0.878758
O O7 0.847445 0.415792 0.189778
O O8 0.122788 0.937566 0.719430
O O9 0.463327 0.410678 0.318785
O O10 0.284845 0.270059 0.668345
O O11 0.778627 0.802814 0.037121
O O12 0.716291 0.700069 0.892196
O O13 0.701096 0.952142 0.902017
O O14 0.000000 0.000000 0.000000
O O15 0.029812 0.751880 0.124948
O O16 0.000000 0.000000 0.500000
O O17 0.196372 0.775403 0.471531
O O18 0.000000 0.500000 0.500000
#
# Coordination Sequence:
#
# PCOD9006685 Si02
#       8
#     2   2   2   2   2   2   2   2
#     4  12  26  45  64 101 142 180 221 292 353 410
#     4  10  22  42  67  96 136 180 234 289 346 415
#     4  11  24  43  67  99 142 182 228 286 363 412
#     4  12  25  42  68 103 137 181 228 291 353 413
#     4  11  23  43  72  99 136 182 238 284 344 423
#     4  12  25  43  69  98 137 183 239 287 340 422
#     4  10  21  38  67  99 128 175 233 291 332 401
#     4  12  23  39  68 101 134 177 239 283 340 418
#
# _framework density 21.288139000000001
#
# number of rings (size 3 to 8) (size 9 to 14) (size 15 to 20)
#    0.000    0.750    3.750    4.875    0.000    1.500 
#    0.000    0.000    0.000    9.000    0.000    0.000 
#    0.000    0.000    0.000    0.000    0.000    0.000 
#
# Total GULP energy -89341.315383 kJ/mol
# GULP energy per Si atom -5583.832211 kJ/mol
# Density = 2.123969 g / cm^3
# Si number density = 21.288139 Si / 1000 Ang^3
#
#
#
# Elastic Constant Matrix: (Units=GPa)
#
#
# Indices 1 2 3 4 5 6 
#
# 1 94.3841 32.8156 28.5520 9.5055 11.6092 -12.3002
# 2 32.8156 126.5832 27.4323 14.6164 -8.3599 -6.4487
# 3 28.5520 27.4323 72.2796 11.2032 -2.6757 3.9090
# 4 9.5055 14.6164 11.2032 37.4254 -2.8190 -2.1199
# 5 11.6092 -8.3599 -2.6757 -2.8190 26.3592 6.3415
# 6 -12.3002 -6.4487 3.9090 -2.1199 6.3415 31.1296
#
#
#
# Elastic Compliance Matrix: (Units=1/GPa)
#
#
# Indices 1 2 3 4 5 6 
#
# 1 0.015977 -0.002991 -0.005806 -0.001481 -0.010782 0.008518
# 2 -0.002991 0.009616 -0.002006 -0.002094 0.003910 0.000123
# 3 -0.005806 -0.002006 0.017881 -0.003075 0.004889 -0.006160
# 4 -0.001481 -0.002094 -0.003075 0.029076 0.002588 0.000820
# 5 -0.010782 0.003910 0.004889 0.002588 0.047987 -0.013664
# 6 0.008518 0.000123 -0.006160 0.000820 -0.013664 0.039128
#
#
# Mechanical properties :
#
#
# Convention : Reuss Voigt Hill
#
# Bulk Modulus (GPa) = 45.72761 52.31631 49.02196
# Shear Modulus (GPa) = 26.51697 32.61264 29.56480
#
# Velocity S-wave (km/s) = 3.53317 3.91828 3.73069
# Velocity P-wave (km/s) = 6.17829 6.71559 6.45254
#
# Compressibility (1/GPa) = 0.02186863
#
# Stress axis : x y z
#
# Youngs Moduli (GPa) = 62.59111 103.99154 55.92595
#
# Poissons Ratio (x) = 0.31100 0.32472
# Poissons Ratio (y) = 0.18718 0.11217
# Poissons Ratio (z) = 0.36342 0.20857
#
# Static dielectric constant tensor:
#      x y z
#    x 1.829130 0.032100 -0.022910 
#    y 0.032100 1.709660 0.037800 
#    z -0.022910 0.037800 1.853480 
# 
# From -- ./inp_files/446945.got.cif
#   From: 2010.05.17/outbox.cif.g08.bks.cpg/sg2_224_cif.got.tgz:446945.got - 2010.06.03 11:33:40.
