data_PCOD9006702
_publ_section_title
;
Structure prediction by ZEFSAII (Michael W. Deem and Ramdas Pophale) SiO2 
 PCOD9006702
Probable space group: P -1
;
_chemical_formula_sum "Si O2"
_cell_formula_units_Z 14
_cell_length_a 14.749225
_cell_length_b 6.878287
_cell_length_c 13.237661
_cell_angle_alpha 116.853539
_cell_angle_beta 141.820659
_cell_angle_gamma 42.592130
_cell_volume 535.287665
_symmetry_space_group_name_H-M "P -1"
_symmetry_group_IT_number 2
_symmetry_cell_setting 'triclinic'
loop_
_space_group_symop_operation_xyz
x,y,z
-x,-y,-z
loop_
_atom_site_type_symbol
_atom_site_label
_atom_site_fract_x
_atom_site_fract_y
_atom_site_fract_z
Si Si1 0.776913 0.714988 0.235677
Si Si2 0.796022 0.600203 0.882843
Si Si3 0.789160 0.563772 0.419952
Si Si4 0.417653 0.832690 0.499006
Si Si5 0.773612 0.080305 0.064362
Si Si6 0.983420 0.190128 0.133649
Si Si7 0.354836 0.720089 0.786719
O O1 0.726681 0.609411 0.259090
O O2 0.970040 0.665186 0.425531
O O3 0.869136 0.491659 0.170922
O O4 0.607729 0.073093 0.168336
O O5 0.640792 0.716402 0.681637
O O6 0.000000 0.500000 0.000000
O O7 0.861365 0.336372 0.954765
O O8 0.719769 0.885585 0.947824
O O9 0.724959 0.402552 0.378041
O O10 0.697681 0.884933 0.456396
O O11 0.500000 0.500000 0.500000
O O12 0.223671 0.007080 0.293400
O O13 0.796200 0.085249 0.204938
O O14 0.948417 0.012844 0.132931
O O15 0.574751 0.414630 0.938026
#
# Coordination Sequence:
#
# PCOD9006702 Si02
#       7
#     2   2   2   2   2   2   2
#     4  10  21  38  68 103 141 185 220 291 358 415
#     4  12  27  50  74 102 140 187 243 293 348 423
#     4  10  21  41  65 104 144 176 237 285 347 429
#     4  11  26  49  73 103 140 189 240 291 346 418
#     4  11  24  40  68 105 143 182 232 288 349 422
#     4  11  25  48  74 103 145 186 231 293 360 412
#     4  11  21  38  66 103 142 180 228 282 351 420
#
# _framework density 26.154160999999998
#
# number of rings (size 3 to 8) (size 9 to 14) (size 15 to 20)
#    0.000    1.143    4.286    1.286    2.000    3.429 
#    0.000    1.429    0.000    0.000    0.000    0.000 
#    0.000    0.000    0.000    0.000    0.000    0.000 
#
# Total GULP energy -77961.638858 kJ/mol
# GULP energy per Si atom -5568.688490 kJ/mol
# Density = 2.609463 g / cm^3
# Si number density = 26.154161 Si / 1000 Ang^3
#
#
#
# Elastic Constant Matrix: (Units=GPa)
#
#
# Indices 1 2 3 4 5 6 
#
# 1 56.0648 -2.6982 31.4461 -3.8776 11.9388 6.4669
# 2 -2.6982 133.7436 25.1636 11.7607 2.2981 8.3624
# 3 31.4461 25.1636 118.7586 -0.4348 28.7376 0.3913
# 4 -3.8776 11.7607 -0.4348 51.0719 -6.0396 6.8237
# 5 11.9388 2.2981 28.7376 -6.0396 34.3073 0.9751
# 6 6.4669 8.3624 0.3913 6.8237 0.9751 40.6304
#
#
#
# Elastic Compliance Matrix: (Units=1/GPa)
#
#
# Indices 1 2 3 4 5 6 
#
# 1 0.022177 0.001656 -0.005518 0.001453 -0.002837 -0.003993
# 2 0.001656 0.008171 -0.002316 -0.001479 0.000604 -0.001689
# 3 -0.005518 -0.002316 0.012436 -0.001008 -0.008565 0.001610
# 4 0.001453 -0.001479 -0.001008 0.020997 0.004234 -0.003545
# 5 -0.002837 0.000604 -0.008565 0.004234 0.038049 -0.001215
# 6 -0.003993 -0.001689 0.001610 -0.003545 -0.001215 0.026204
#
#
# Mechanical properties :
#
#
# Convention : Reuss Voigt Hill
#
# Bulk Modulus (GPa) = 32.86454 46.26556 39.56505
# Shear Modulus (GPa) = 33.21537 42.17896 37.69717
#
# Velocity S-wave (km/s) = 3.56755 4.02021 3.80062
# Velocity P-wave (km/s) = 5.43717 6.26717 5.86687
#
# Compressibility (1/GPa) = 0.03042793
#
# Stress axis : x y z
#
# Youngs Moduli (GPa) = 45.09275 122.37781 80.41278
#
# Poissons Ratio (x) = -0.20269 0.44373
# Poissons Ratio (y) = -0.07468 0.18623
# Poissons Ratio (z) = 0.24883 0.28343
#
# Static dielectric constant tensor:
#      x y z
#    x 2.143370 0.065570 -0.063320 
#    y 0.065570 2.223330 -0.001220 
#    z -0.063320 -0.001220 2.096600 
# 
# From -- ./inp_files/525942.got.cif
#   From: 2010.05.17/outbox.cif.g08.bks.cpg/sg2_263_cif.got.tgz:525942.got - 2010.06.03 11:33:40.
