data_PCOD9006383
_publ_section_title
;
Structure prediction by ZEFSAII (Michael W. Deem and Ramdas Pophale) SiO2 
 PCOD9006383
Probable space group: P -1
;
_chemical_formula_sum "Si O2"
_cell_formula_units_Z 16
_cell_length_a 11.689903
_cell_length_b 17.291618
_cell_length_c 20.810510
_cell_angle_alpha 160.600507
_cell_angle_beta 143.291406
_cell_angle_gamma 30.463645
_cell_volume 706.777939
_symmetry_space_group_name_H-M "P -1"
_symmetry_group_IT_number 2
_symmetry_cell_setting 'triclinic'
loop_
_space_group_symop_operation_xyz
x,y,z
-x,-y,-z
loop_
_atom_site_type_symbol
_atom_site_label
_atom_site_fract_x
_atom_site_fract_y
_atom_site_fract_z
Si Si1 0.964340 0.672186 0.182174
Si Si2 0.403802 0.826213 0.768066
Si Si3 0.309102 0.649026 0.976891
Si Si4 0.830397 0.436220 0.589986
Si Si5 0.628099 0.300970 0.552414
Si Si6 0.980760 0.648713 0.926602
Si Si7 0.724777 0.826672 0.649077
Si Si8 0.128064 0.448871 0.625502
O O1 0.901164 0.518782 0.087401
O O2 0.198599 0.653319 0.292171
O O3 0.778036 0.995832 0.350788
O O4 0.000000 0.500000 0.000000
O O5 0.605591 0.738620 0.739508
O O6 0.221882 0.799269 0.624027
O O7 0.512062 0.558012 0.652765
O O8 0.263880 0.103517 0.963286
O O9 0.086135 0.762249 0.011914
O O10 0.270653 0.500281 0.782568
O O11 0.500000 0.500000 0.000000
O O12 0.359686 0.860552 0.131932
O O13 0.976928 0.413785 0.699098
O O14 0.951865 0.426917 0.572838
O O15 0.427875 0.290302 0.489407
O O16 0.732419 0.805034 0.557941
O O17 0.967238 0.676289 0.677710
#
# Coordination Sequence:
#
# PCOD9006383 Si02
#       8
#     2   2   2   2   2   2   2   2
#     4  11  27  45  64  99 140 180 216 268 346 412
#     4  11  22  38  69 100 127 167 219 279 335 384
#     4  11  25  44  66  96 138 184 227 275 339 409
#     4  10  21  38  65  98 133 161 219 278 333 387
#     4  11  25  44  67  99 136 174 218 278 337 402
#     4  11  24  41  66  98 131 171 228 273 327 402
#     4  11  23  44  68  98 137 171 234 278 338 397
#     4  10  23  42  68 100 126 184 222 288 332 396
#
# _framework density 22.637944000000001
#
# number of rings (size 3 to 8) (size 9 to 14) (size 15 to 20)
#    0.000    1.250    2.500    2.250    5.250    2.500 
#    0.000    0.000    0.000    0.000    0.000    0.000 
#    0.000    0.000    0.000    0.000    0.000    0.000 
#
# Total GULP energy -89156.388988 kJ/mol
# GULP energy per Si atom -5572.274312 kJ/mol
# Density = 2.258642 g / cm^3
# Si number density = 22.637944 Si / 1000 Ang^3
#
#
#
# Elastic Constant Matrix: (Units=GPa)
#
#
# Indices 1 2 3 4 5 6 
#
# 1 87.9661 12.8205 24.9527 -21.8460 -13.8367 1.9141
# 2 12.8205 71.5416 29.1830 -16.0532 -10.9097 9.6548
# 3 24.9527 29.1830 86.5439 -21.0808 -14.5001 7.5657
# 4 -21.8460 -16.0532 -21.0808 33.0576 11.6274 0.2847
# 5 -13.8367 -10.9097 -14.5001 11.6274 35.6225 -4.9283
# 6 1.9141 9.6548 7.5657 0.2847 -4.9283 37.8367
#
#
#
# Elastic Compliance Matrix: (Units=1/GPa)
#
#
# Indices 1 2 3 4 5 6 
#
# 1 0.014084 0.000310 -0.001962 0.007387 0.002335 -0.000151
# 2 0.000310 0.017554 -0.004076 0.005629 0.001513 -0.003525
# 3 -0.001962 -0.004076 0.015420 0.005823 0.002129 -0.001710
# 4 0.007387 0.005629 0.005823 0.044488 -0.008162 -0.004372
# 5 0.002335 0.001513 0.002129 -0.008162 0.033456 0.003489
# 6 -0.000151 -0.003525 -0.001710 -0.004372 0.003489 0.028166
#
#
# Mechanical properties :
#
#
# Convention : Reuss Voigt Hill
#
# Bulk Modulus (GPa) = 28.08726 42.21823 35.15274
# Shear Modulus (GPa) = 28.33008 33.24305 30.78656
#
# Velocity S-wave (km/s) = 3.54141 3.83621 3.69176
# Velocity P-wave (km/s) = 5.39965 6.18966 5.80810
#
# Compressibility (1/GPa) = 0.03560333
#
# Stress axis : x y z
#
# Youngs Moduli (GPa) = 71.00035 56.96555 64.85244
#
# Poissons Ratio (x) = -0.01768 0.12722
# Poissons Ratio (y) = -0.02203 0.26436
# Poissons Ratio (z) = 0.13928 0.23221
#
# Static dielectric constant tensor:
#      x y z
#    x 1.889810 -0.046590 0.007940 
#    y -0.046590 1.944800 -0.010550 
#    z 0.007940 -0.010550 1.838370 
# 
# From -- ./inp_files/596058.got.cif
#   From: 2010.05.17/outbox.cif.g08.bks.cpg/sg2_299_cif.got.tgz:596058.got - 2010.06.03 11:33:40.
