data_PCOD9006174
_publ_section_title
;
Structure prediction by ZEFSAII (Michael W. Deem and Ramdas Pophale) SiO2 
 PCOD9006174
Probable space group: P -1
;
_chemical_formula_sum "Si O2"
_cell_formula_units_Z 16
_cell_length_a 21.501056
_cell_length_b 9.074176
_cell_length_c 12.322147
_cell_angle_alpha 48.743511
_cell_angle_beta 27.009345
_cell_angle_gamma 43.311667
_cell_volume 748.450786
_symmetry_space_group_name_H-M "P -1"
_symmetry_group_IT_number 2
_symmetry_cell_setting 'triclinic'
loop_
_space_group_symop_operation_xyz
x,y,z
-x,-y,-z
loop_
_atom_site_type_symbol
_atom_site_label
_atom_site_fract_x
_atom_site_fract_y
_atom_site_fract_z
Si Si1 0.988433 0.723700 0.962700
Si Si2 0.686520 0.526140 0.419066
Si Si3 0.295927 0.255768 0.492284
Si Si4 0.861079 0.546659 0.573746
Si Si5 0.633267 0.951344 0.150674
Si Si6 0.195592 0.292835 0.186597
Si Si7 0.203808 0.850603 0.046144
Si Si8 0.417009 0.522136 0.730611
O O1 0.850587 0.787004 0.229167
O O2 0.000000 0.500000 0.000000
O O3 0.156674 0.661757 0.770700
O O4 0.934723 0.921535 0.866691
O O5 0.696876 0.587159 0.498443
O O6 0.663504 0.737064 0.279412
O O7 0.546956 0.466397 0.645041
O O8 0.256234 0.358801 0.385851
O O9 0.458353 0.059665 0.339401
O O10 0.833370 0.711834 0.637226
O O11 0.844416 0.333165 0.746234
O O12 0.035142 0.463423 0.308829
O O13 0.740430 0.901788 0.902558
O O14 0.679296 0.105430 0.080146
O O15 0.327592 0.374233 0.938242
O O16 0.292644 0.754571 0.843527
O O17 0.500000 0.500000 0.500000
#
# Coordination Sequence:
#
# PCOD9006174 Si02
#       8
#     2   2   2   2   2   2   2   2
#     4  10  21  38  65 101 134 168 223 282 331 385
#     4  11  21  39  65 103 133 170 219 286 331 390
#     4  11  22  38  68 100 133 171 223 282 330 394
#     4  10  25  47  66  94 140 181 221 271 340 410
#     4  12  21  39  70  98 133 174 227 282 336 391
#     4  10  24  45  66  91 138 185 218 271 342 402
#     4  11  23  43  68 101 133 179 226 273 336 402
#     4  11  22  40  70  96 136 177 221 270 341 396
#
# _framework density 21.377490999999999
#
# number of rings (size 3 to 8) (size 9 to 14) (size 15 to 20)
#    0.000    1.250    5.000    1.875    1.750    1.500 
#    0.000    4.375    0.000    0.000    0.000    0.000 
#    0.000    0.000    0.000    0.000    0.000    0.000 
#
# Total GULP energy -89291.776483 kJ/mol
# GULP energy per Si atom -5580.736030 kJ/mol
# Density = 2.132883 g / cm^3
# Si number density = 21.377491 Si / 1000 Ang^3
#
#
#
# Elastic Constant Matrix: (Units=GPa)
#
#
# Indices 1 2 3 4 5 6 
#
# 1 102.8393 35.7709 13.7925 10.0030 0.4948 -13.6199
# 2 35.7709 63.5673 15.8321 15.0805 5.2302 -17.9870
# 3 13.7925 15.8321 75.1824 23.1687 -9.6403 -8.2348
# 4 10.0030 15.0805 23.1687 36.4603 3.9922 -3.4764
# 5 0.4948 5.2302 -9.6403 3.9922 40.3363 9.9583
# 6 -13.6199 -17.9870 -8.2348 -3.4764 9.9583 37.6529
#
#
#
# Elastic Compliance Matrix: (Units=1/GPa)
#
#
# Indices 1 2 3 4 5 6 
#
# 1 0.012190 -0.006336 -0.000680 -0.000209 0.000246 0.001150
# 2 -0.006336 0.024311 -0.001839 -0.005623 -0.005383 0.009824
# 3 -0.000680 -0.001839 0.017964 -0.011046 0.005556 0.000315
# 4 -0.000209 -0.005623 -0.011046 0.037413 -0.005548 -0.000256
# 5 0.000246 -0.005383 0.005556 -0.005548 0.029745 -0.009646
# 6 0.001150 0.009824 0.000315 -0.000256 -0.009646 0.034264
#
#
# Mechanical properties :
#
#
# Convention : Reuss Voigt Hill
#
# Bulk Modulus (GPa) = 27.20624 41.37555 34.29089
# Shear Modulus (GPa) = 26.90365 34.63613 30.76989
#
# Velocity S-wave (km/s) = 3.55139 4.02956 3.79800
# Velocity P-wave (km/s) = 5.43789 6.40675 5.94210
#
# Compressibility (1/GPa) = 0.03675627
#
# Stress axis : x y z
#
# Youngs Moduli (GPa) = 82.03219 41.13315 55.66700
#
# Poissons Ratio (x) = 0.26061 0.03787
# Poissons Ratio (y) = 0.51974 0.10235
# Poissons Ratio (z) = 0.05580 0.07563
#
# Static dielectric constant tensor:
#      x y z
#    x 1.800670 0.006370 0.013600 
#    y 0.006370 1.786220 0.014180 
#    z 0.013600 0.014180 1.826610 
# 
# From -- ./inp_files/382455.got.cif
#   From: 2010.05.17/outbox.cif.g08.bks.cpg/sg2_192_cif.got.tgz:382455.got - 2010.06.03 11:33:40.
