data_PCOD9006144
_publ_section_title
;
Structure prediction by ZEFSAII (Michael W. Deem and Ramdas Pophale) SiO2 
 PCOD9006144
Probable space group: P -1
;
_chemical_formula_sum "Si O2"
_cell_formula_units_Z 16
_cell_length_a 10.940482
_cell_length_b 5.564954
_cell_length_c 17.168605
_cell_angle_alpha 120.629665
_cell_angle_beta 44.819677
_cell_angle_gamma 115.043134
_cell_volume 630.685495
_symmetry_space_group_name_H-M "P -1"
_symmetry_group_IT_number 2
_symmetry_cell_setting 'triclinic'
loop_
_space_group_symop_operation_xyz
x,y,z
-x,-y,-z
loop_
_atom_site_type_symbol
_atom_site_label
_atom_site_fract_x
_atom_site_fract_y
_atom_site_fract_z
Si Si1 0.160417 0.086584 0.996799
Si Si2 0.368965 0.720083 0.411348
Si Si3 0.393624 0.628266 0.976810
Si Si4 0.089024 0.111810 0.798290
Si Si5 0.159081 0.963245 0.233301
Si Si6 0.737765 0.395294 0.733716
Si Si7 0.357498 0.640420 0.810720
Si Si8 0.361815 0.733925 0.587550
O O1 0.313996 0.947729 0.860928
O O2 0.230021 0.400195 0.033042
O O3 0.091170 0.936357 0.081660
O O4 0.000000 0.000000 0.000000
O O5 0.300847 0.739966 0.357337
O O6 0.470157 0.443111 0.318823
O O7 0.278608 0.695054 0.531978
O O8 0.510077 0.983740 0.408512
O O9 0.573848 0.482193 0.876113
O O10 0.386474 0.655720 0.891757
O O11 0.336361 0.890121 0.094823
O O12 0.204076 0.395944 0.819543
O O13 0.021718 0.143045 0.746162
O O14 0.190736 0.836669 0.724949
O O15 0.169128 0.815417 0.287986
O O16 0.166092 0.299827 0.281641
O O17 0.500000 0.500000 0.500000
#
# Coordination Sequence:
#
# PCOD9006144 Si02
#       8
#     2   2   2   2   2   2   2   2
#     4  12  22  34  63 103 139 180 213 285 365 418
#     4   9  23  44  68 102 128 172 239 287 348 407
#     4  11  23  40  63  97 140 186 235 276 340 415
#     4  11  23  43  63 104 142 178 237 284 360 414
#     4  12  25  44  64 101 144 196 232 279 335 416
#     4  11  27  44  71  97 143 191 239 278 332 416
#     4  10  21  38  64  98 136 173 223 292 355 408
#     4  10  23  45  75 102 127 176 229 305 354 409
#
# _framework density 25.369221
#
# number of rings (size 3 to 8) (size 9 to 14) (size 15 to 20)
#    0.000    1.250    2.500    2.625    7.000    0.000 
#    6.750    1.250    0.000    0.000    0.000    0.000 
#    0.000    0.000    0.000    0.000    0.000    0.000 
#
# Total GULP energy -89227.860327 kJ/mol
# GULP energy per Si atom -5576.741270 kJ/mol
# Density = 2.531148 g / cm^3
# Si number density = 25.369221 Si / 1000 Ang^3
#
#
#
# Elastic Constant Matrix: (Units=GPa)
#
#
# Indices 1 2 3 4 5 6 
#
# 1 133.0812 35.3030 32.6426 9.0984 30.7502 -16.0615
# 2 35.3030 81.6292 13.4319 17.7014 10.2337 -1.9162
# 3 32.6426 13.4319 83.3422 20.6071 13.8970 -15.7673
# 4 9.0984 17.7014 20.6071 26.8458 -11.2058 0.7587
# 5 30.7502 10.2337 13.8970 -11.2058 50.2673 6.2021
# 6 -16.0615 -1.9162 -15.7673 0.7587 6.2021 36.6661
#
#
#
# Elastic Compliance Matrix: (Units=1/GPa)
#
#
# Indices 1 2 3 4 5 6 
#
# 1 0.011307 -0.002325 0.000164 -0.006231 -0.008680 0.006499
# 2 -0.002325 0.017273 0.004214 -0.017047 -0.007468 0.003312
# 3 0.000164 0.004214 0.022958 -0.027084 -0.014979 0.013259
# 4 -0.006231 -0.017047 -0.027084 0.087569 0.037175 -0.023367
# 5 -0.008680 -0.007468 -0.014979 0.037175 0.041423 -0.018410
# 6 0.006499 0.003312 0.013259 -0.023367 -0.018410 0.039592
#
#
# Mechanical properties :
#
#
# Convention : Reuss Voigt Hill
#
# Bulk Modulus (GPa) = 17.97157 51.20082 34.58619
# Shear Modulus (GPa) = 21.31601 37.20085 29.25843
#
# Velocity S-wave (km/s) = 2.90182 3.83349 3.39972
# Velocity P-wave (km/s) = 4.28098 6.31033 5.39198
#
# Compressibility (1/GPa) = 0.05564345
#
# Stress axis : x y z
#
# Youngs Moduli (GPa) = 88.44314 57.89272 43.55753
#
# Poissons Ratio (x) = 0.13459 -0.00714
# Poissons Ratio (y) = 0.20562 -0.18354
# Poissons Ratio (z) = -0.01449 -0.24394
#
# Static dielectric constant tensor:
#      x y z
#    x 2.100660 -0.062690 -0.031060 
#    y -0.062690 1.996200 0.012980 
#    z -0.031060 0.012980 1.961560 
# 
# From -- ./inp_files/484354.got.cif
#   From: 2010.05.17/outbox.cif.g08.bks.cpg/sg2_243_cif.got.tgz:484354.got - 2010.06.03 11:33:40.
