data_PCOD9006581
_publ_section_title
;
Structure prediction by ZEFSAII (Michael W. Deem and Ramdas Pophale) SiO2 
 PCOD9006581
Probable space group: P -1
;
_chemical_formula_sum "Si O2"
_cell_formula_units_Z 13
_cell_length_a 9.663758
_cell_length_b 6.624030
_cell_length_c 10.620612
_cell_angle_alpha 98.358332
_cell_angle_beta 52.807771
_cell_angle_gamma 87.270047
_cell_volume 527.851934
_symmetry_space_group_name_H-M "P -1"
_symmetry_group_IT_number 2
_symmetry_cell_setting 'triclinic'
loop_
_space_group_symop_operation_xyz
x,y,z
-x,-y,-z
loop_
_atom_site_type_symbol
_atom_site_label
_atom_site_fract_x
_atom_site_fract_y
_atom_site_fract_z
Si Si1 0.702912 0.744807 0.224588
Si Si2 0.927143 0.308181 0.455716
Si Si3 0.770114 0.965575 0.621928
Si Si4 0.403495 0.839371 0.798458
Si Si5 0.500000 0.500000 0.500000
Si Si6 0.067315 0.380805 0.699045
Si Si7 0.675990 0.451323 0.981350
O O1 0.561913 0.700209 0.402963
O O2 0.677019 0.630918 0.099119
O O3 0.884243 0.653066 0.186508
O O4 0.705081 0.981046 0.209140
O O5 0.000000 0.500000 0.500000
O O6 0.096494 0.124949 0.347621
O O7 0.852175 0.419163 0.378274
O O8 0.785996 0.197661 0.594882
O O9 0.577273 0.928485 0.751640
O O10 0.845587 0.817602 0.448462
O O11 0.461430 0.642411 0.660041
O O12 0.318509 0.759446 0.961561
O O13 0.858223 0.433290 0.804448
O O14 0.500000 0.500000 0.000000
#
# Coordination Sequence:
#
# PCOD9006581 Si02
#       7
#     2   2   2   2   1   2   2
#     4  11  25  41  70 102 140 181 231 284 348 413
#     4   9  21  38  62  97 135 176 225 282 339 402
#     4  10  21  38  67 100 133 178 232 283 342 407
#     4  11  24  42  70 103 135 180 228 284 348 410
#     4  10  22  42  66 102 142 172 218 286 346 406
#     4  11  23  42  67 100 137 183 228 285 344 408
#     4  11  27  47  68  96 141 189 232 285 343 415
#
# _framework density 24.628121
#
# number of rings (size 3 to 8) (size 9 to 14) (size 15 to 20)
#    0.000    1.538    1.538    1.846    2.154    8.615 
#    0.000    0.000    0.000    0.000    0.000    0.000 
#    0.000    0.000    0.000    0.000    0.000    0.000 
#
# Total GULP energy -72498.717933 kJ/mol
# GULP energy per Si atom -5576.824456 kJ/mol
# Density = 2.457207 g / cm^3
# Si number density = 24.628121 Si / 1000 Ang^3
#
#
#
# Elastic Constant Matrix: (Units=GPa)
#
#
# Indices 1 2 3 4 5 6 
#
# 1 74.9610 23.6740 -4.1136 10.3712 13.1384 -12.2802
# 2 23.6740 171.1899 24.8962 -37.0590 6.4621 -7.5330
# 3 -4.1136 24.8962 89.0361 -11.4311 0.6405 3.1542
# 4 10.3712 -37.0590 -11.4311 32.4662 1.8096 2.9123
# 5 13.1384 6.4621 0.6405 1.8096 30.8130 -9.2958
# 6 -12.2802 -7.5330 3.1542 2.9123 -9.2958 42.1206
#
#
#
# Elastic Compliance Matrix: (Units=1/GPa)
#
#
# Indices 1 2 3 4 5 6 
#
# 1 0.017776 -0.004504 0.000599 -0.010700 -0.004809 0.004011
# 2 -0.004504 0.009151 -0.001260 0.011537 -0.000819 -0.000561
# 3 0.000599 -0.001260 0.012019 0.002765 -0.000801 -0.001319
# 4 -0.010700 0.011537 0.002765 0.048956 -0.002348 -0.005166
# 5 -0.004809 -0.000819 -0.000801 -0.002348 0.036887 0.006814
# 6 0.004011 -0.000561 -0.001319 -0.005166 0.006814 0.026770
#
#
# Mechanical properties :
#
#
# Convention : Reuss Voigt Hill
#
# Bulk Modulus (GPa) = 34.94391 47.12225 41.03308
# Shear Modulus (GPa) = 29.16704 40.46200 34.81452
#
# Velocity S-wave (km/s) = 3.44510 4.05769 3.76388
# Velocity P-wave (km/s) = 5.48127 6.41313 5.96542
#
# Compressibility (1/GPa) = 0.02861729
#
# Stress axis : x y z
#
# Youngs Moduli (GPa) = 56.25639 109.27446 83.20241
#
# Poissons Ratio (x) = 0.49213 -0.04987
# Poissons Ratio (y) = 0.25336 0.10484
# Poissons Ratio (z) = -0.03372 0.13769
#
# Static dielectric constant tensor:
#      x y z
#    x 2.705970 -0.394850 -0.358990 
#    y -0.394850 2.178990 0.185030 
#    z -0.358990 0.185030 2.128640 
# 
# From -- ./inp_files/408416.got.cif
#   From: 2010.05.17/outbox.cif.g08.bks.cpg/sg2_205_cif.got.tgz:408416.got - 2010.06.03 11:33:40.
