data_PCOD9006171
_publ_section_title
;
Structure prediction by ZEFSAII (Michael W. Deem and Ramdas Pophale) SiO2 
 PCOD9006171
Probable space group: P -1
;
_chemical_formula_sum "Si O2"
_cell_formula_units_Z 16
_cell_length_a 8.065143
_cell_length_b 9.909825
_cell_length_c 14.983870
_cell_angle_alpha 96.411187
_cell_angle_beta 127.682503
_cell_angle_gamma 117.798718
_cell_volume 690.758955
_symmetry_space_group_name_H-M "P -1"
_symmetry_group_IT_number 2
_symmetry_cell_setting 'triclinic'
loop_
_space_group_symop_operation_xyz
x,y,z
-x,-y,-z
loop_
_atom_site_type_symbol
_atom_site_label
_atom_site_fract_x
_atom_site_fract_y
_atom_site_fract_z
Si Si1 0.508140 0.959515 0.187624
Si Si2 0.691161 0.715377 0.494190
Si Si3 0.054134 0.304081 0.106355
Si Si4 0.623981 0.713633 0.278070
Si Si5 0.957242 0.053325 0.206224
Si Si6 0.945317 0.379502 0.390165
Si Si7 0.044020 0.528249 0.246428
Si Si8 0.198200 0.305004 0.855129
O O1 0.533379 0.828958 0.238881
O O2 0.680629 0.007096 0.154559
O O3 0.179493 0.844715 0.052289
O O4 0.681033 0.160537 0.301471
O O5 0.797292 0.783243 0.432440
O O6 0.779928 0.598535 0.532382
O O7 0.366113 0.618056 0.371570
O O8 0.834887 0.859280 0.632856
O O9 0.347531 0.493346 0.179397
O O10 0.915194 0.370603 0.118829
O O11 0.092819 0.204097 0.184820
O O12 0.782491 0.731608 0.244390
O O13 0.877645 0.868376 0.134134
O O14 0.898470 0.442930 0.288276
O O15 0.000000 0.500000 0.500000
O O16 0.024529 0.670777 0.213878
O O17 0.500000 0.500000 0.000000
#
# Coordination Sequence:
#
# PCOD9006171 Si02
#       8
#     2   2   2   2   2   2   2   2
#     4  10  21  38  65 101 127 176 226 263 333 405
#     4  10  22  42  67  94 131 172 230 264 333 392
#     4  11  21  41  73  94 127 176 227 266 333 394
#     4  10  23  40  68  93 136 170 213 283 327 391
#     4  10  22  40  68  96 130 178 215 279 321 406
#     4  11  23  38  64  99 136 170 221 275 330 386
#     4  11  22  39  69  92 129 179 214 275 327 393
#     4  11  25  43  64  98 138 172 221 275 339 389
#
# _framework density 23.162925999999999
#
# number of rings (size 3 to 8) (size 9 to 14) (size 15 to 20)
#    0.000    1.500    2.500    3.375    3.500    7.000 
#    0.000    3.125    0.000    0.000    0.000    0.000 
#    0.000    0.000    0.000    0.000    0.000    0.000 
#
# Total GULP energy -89466.871883 kJ/mol
# GULP energy per Si atom -5591.679493 kJ/mol
# Density = 2.311021 g / cm^3
# Si number density = 23.162926 Si / 1000 Ang^3
#
#
#
# Elastic Constant Matrix: (Units=GPa)
#
#
# Indices 1 2 3 4 5 6 
#
# 1 41.6493 33.7388 19.1953 12.5409 -5.7013 -6.8846
# 2 33.7388 143.3792 21.8198 27.6558 -6.1534 -10.3618
# 3 19.1953 21.8198 86.8227 22.4960 5.7941 -17.1149
# 4 12.5409 27.6558 22.4960 40.6567 4.4992 -7.9574
# 5 -5.7013 -6.1534 5.7941 4.4992 31.2359 3.9981
# 6 -6.8846 -10.3618 -17.1149 -7.9574 3.9981 30.4517
#
#
#
# Elastic Compliance Matrix: (Units=1/GPa)
#
#
# Indices 1 2 3 4 5 6 
#
# 1 0.033411 -0.005993 -0.005131 -0.003941 0.006339 0.000768
# 2 -0.005993 0.009349 0.000204 -0.004661 0.001311 0.000551
# 3 -0.005131 0.000204 0.015601 -0.005436 -0.003873 0.006766
# 4 -0.003941 -0.004661 -0.005436 0.033429 -0.005954 0.003985
# 5 0.006339 0.001311 -0.003873 -0.005954 0.035846 -0.006560
# 6 0.000768 0.000551 0.006766 0.003985 -0.006560 0.038905
#
#
# Mechanical properties :
#
#
# Convention : Reuss Voigt Hill
#
# Bulk Modulus (GPa) = 27.38106 46.81767 37.09936
# Shear Modulus (GPa) = 24.93075 33.60868 29.26972
#
# Velocity S-wave (km/s) = 3.28429 3.81329 3.55863
# Velocity P-wave (km/s) = 5.12141 6.29638 5.73905
#
# Compressibility (1/GPa) = 0.03652160
#
# Stress axis : x y z
#
# Youngs Moduli (GPa) = 29.92996 106.96533 64.09648
#
# Poissons Ratio (x) = 0.64109 0.32887
# Poissons Ratio (y) = 0.17938 -0.01310
# Poissons Ratio (z) = 0.15357 -0.02186
#
# Static dielectric constant tensor:
#      x y z
#    x 1.906950 0.040390 0.001740 
#    y 0.040390 1.895070 -0.000490 
#    z 0.001740 -0.000490 1.870000 
# 
# From -- ./inp_files/495306.got.cif
#   From: 2010.05.17/outbox.cif.g08.bks.cpg/sg2_248_cif.got.tgz:495306.got - 2010.06.03 11:33:40.
