data_PCOD9006375
_publ_section_title
;
Structure prediction by ZEFSAII (Michael W. Deem and Ramdas Pophale) SiO2 
 PCOD9006375
Probable space group: P -1
;
_chemical_formula_sum "Si O2"
_cell_formula_units_Z 16
_cell_length_a 6.523395
_cell_length_b 13.794340
_cell_length_c 13.597821
_cell_angle_alpha 127.947516
_cell_angle_beta 53.509018
_cell_angle_gamma 96.574804
_cell_volume 712.245104
_symmetry_space_group_name_H-M "P -1"
_symmetry_group_IT_number 2
_symmetry_cell_setting 'triclinic'
loop_
_space_group_symop_operation_xyz
x,y,z
-x,-y,-z
loop_
_atom_site_type_symbol
_atom_site_label
_atom_site_fract_x
_atom_site_fract_y
_atom_site_fract_z
Si Si1 0.322031 0.022358 0.466960
Si Si2 0.008249 0.350924 0.229276
Si Si3 0.008311 0.333955 0.715528
Si Si4 0.628068 0.496857 0.261440
Si Si5 0.764649 0.864712 0.814048
Si Si6 0.399332 0.680003 0.024176
Si Si7 0.997380 0.384962 0.519181
Si Si8 0.158135 0.988807 0.298472
O O1 0.189879 0.181241 0.593262
O O2 0.114259 0.954924 0.521423
O O3 0.500000 0.000000 0.500000
O O4 0.398537 0.976921 0.302967
O O5 0.077647 0.211682 0.180422
O O6 0.977227 0.472379 0.389154
O O7 0.745408 0.404643 0.266548
O O8 0.281123 0.337440 0.079626
O O9 0.172971 0.423569 0.759093
O O10 0.720046 0.361630 0.870524
O O11 0.985208 0.347389 0.613541
O O12 0.305169 0.595590 0.424444
O O13 0.641022 0.404739 0.107302
O O14 0.750164 0.735623 0.680749
O O15 0.897783 0.920625 0.724724
O O16 0.500000 0.000000 0.000000
O O17 0.223403 0.837513 0.154343
#
# Coordination Sequence:
#
# PCOD9006375 Si02
#       8
#     2   2   2   2   2   2   2   2
#     4  10  22  39  66  97 130 167 207 269 326 392
#     4  10  23  43  66  95 130 175 220 267 318 379
#     4  10  21  38  65  98 129 169 214 265 327 387
#     4  10  23  39  65  98 132 168 221 264 321 385
#     4  12  23  44  71  91 126 178 218 271 328 381
#     4  10  21  40  63  97 136 167 207 267 323 383
#     4  10  23  43  68  92 129 171 219 272 325 385
#     4  10  22  41  64  96 131 165 213 259 331 388
#
# _framework density 22.464175999999998
#
# number of rings (size 3 to 8) (size 9 to 14) (size 15 to 20)
#    0.000    1.750    2.500    0.750    1.750    8.000 
#    0.000    4.375    0.000    0.000    0.000    0.000 
#    0.000    0.000    0.000    0.000    0.000    0.000 
#
# Total GULP energy -89176.699500 kJ/mol
# GULP energy per Si atom -5573.543719 kJ/mol
# Density = 2.241305 g / cm^3
# Si number density = 22.464176 Si / 1000 Ang^3
#
#
#
# Elastic Constant Matrix: (Units=GPa)
#
#
# Indices 1 2 3 4 5 6 
#
# 1 92.9080 46.1894 19.0084 -6.0229 6.8192 -20.0339
# 2 46.1894 161.5201 37.6996 7.5264 -6.7220 -24.1628
# 3 19.0084 37.6996 103.3279 11.8739 4.5289 -8.3448
# 4 -6.0229 7.5264 11.8739 43.7520 -0.2311 -4.1182
# 5 6.8192 -6.7220 4.5289 -0.2311 14.7864 1.4886
# 6 -20.0339 -24.1628 -8.3448 -4.1182 1.4886 29.6632
#
#
#
# Elastic Compliance Matrix: (Units=1/GPa)
#
#
# Indices 1 2 3 4 5 6 
#
# 1 0.015386 -0.003508 -0.000906 0.003696 -0.009187 0.008253
# 2 -0.003508 0.008554 -0.002338 -0.000958 0.005854 0.003514
# 3 -0.000906 -0.002338 0.011235 -0.002749 -0.004177 0.000472
# 4 0.003696 -0.000958 -0.002749 0.024686 -0.001359 0.004438
# 5 -0.009187 0.005854 -0.004177 -0.001359 0.076454 -0.006636
# 6 0.008253 0.003514 0.000472 0.004438 -0.006636 0.043230
#
#
# Mechanical properties :
#
#
# Convention : Reuss Voigt Hill
#
# Bulk Modulus (GPa) = 46.14684 62.61675 54.38180
# Shear Modulus (GPa) = 24.96576 34.63089 29.79832
#
# Velocity S-wave (km/s) = 3.33732 3.93059 3.64604
# Velocity P-wave (km/s) = 5.95292 6.96663 6.47963
#
# Compressibility (1/GPa) = 0.02166996
#
# Stress axis : x y z
#
# Youngs Moduli (GPa) = 64.99244 116.90154 89.00882
#
# Poissons Ratio (x) = 0.41014 0.08064
# Poissons Ratio (y) = 0.22802 0.20813
# Poissons Ratio (z) = 0.05888 0.27335
#
# Static dielectric constant tensor:
#      x y z
#    x 2.007940 -0.026320 0.030680 
#    y -0.026320 1.914550 -0.072000 
#    z 0.030680 -0.072000 1.949220 
# 
# From -- ./inp_files/368036.got.cif
#   From: 2010.05.17/outbox.cif.g08.bks.cpg/sg2_185_cif.got.tgz:368036.got - 2010.06.03 11:33:40.
