data_PCOD9006146
_publ_section_title
;
Structure prediction by ZEFSAII (Michael W. Deem and Ramdas Pophale) SiO2 
 PCOD9006146
Probable space group: P -1
;
_chemical_formula_sum "Si O2"
_cell_formula_units_Z 14
_cell_length_a 11.976078
_cell_length_b 5.088572
_cell_length_c 18.952417
_cell_angle_alpha 111.915219
_cell_angle_beta 138.952206
_cell_angle_gamma 50.933567
_cell_volume 576.965528
_symmetry_space_group_name_H-M "P -1"
_symmetry_group_IT_number 2
_symmetry_cell_setting 'triclinic'
loop_
_space_group_symop_operation_xyz
x,y,z
-x,-y,-z
loop_
_atom_site_type_symbol
_atom_site_label
_atom_site_fract_x
_atom_site_fract_y
_atom_site_fract_z
Si Si1 0.909940 0.770343 0.735479
Si Si2 0.925903 0.778756 0.903561
Si Si3 0.667396 0.739453 0.895549
Si Si4 0.778207 0.870050 0.426089
Si Si5 0.402593 0.291096 0.922955
Si Si6 0.898174 0.142249 0.634131
Si Si7 0.671432 0.367394 0.292153
O O1 0.158594 0.526079 0.832912
O O2 0.855089 0.064189 0.683393
O O3 0.846126 0.888591 0.797395
O O4 0.849271 0.521493 0.650438
O O5 0.775661 0.731401 0.874754
O O6 0.148385 0.404549 0.974134
O O7 0.000000 0.000000 0.000000
O O8 0.552927 0.547297 0.824942
O O9 0.479056 0.117926 0.865709
O O10 0.641614 0.720119 0.336736
O O11 0.000000 0.500000 0.500000
O O12 0.767256 0.082266 0.509986
O O13 0.752398 0.099551 0.369843
O O14 0.500000 0.500000 0.000000
O O15 0.500000 0.000000 0.000000
O O16 0.142152 0.855729 0.698861
#
# Coordination Sequence:
#
# PCOD9006146 Si02
#       7
#     2   2   2   2   2   2   2
#     4  12  24  40  67  95 133 174 214 272 330 390
#     4  11  27  46  65  90 137 185 230 265 322 399
#     4  11  26  42  66  96 132 179 226 269 324 402
#     4  10  21  38  64  98 139 164 207 273 338 397
#     4  12  24  39  62  95 133 167 215 276 329 378
#     4  11  22  39  65 100 131 166 213 269 336 382
#     4  11  22  39  66 100 132 171 213 268 335 397
#
# _framework density 24.264880999999999
#
# number of rings (size 3 to 8) (size 9 to 14) (size 15 to 20)
#    0.000    0.857    2.857    6.000    6.000    0.000 
#    0.000    0.000    0.000    5.143    0.000    0.000 
#    0.000    0.000    0.000    0.000    0.000    0.000 
#
# Total GULP energy -78372.158465 kJ/mol
# GULP energy per Si atom -5598.011319 kJ/mol
# Density = 2.420965 g / cm^3
# Si number density = 24.264881 Si / 1000 Ang^3
#
#
#
# Elastic Constant Matrix: (Units=GPa)
#
#
# Indices 1 2 3 4 5 6 
#
# 1 144.3014 19.1504 38.7727 19.8944 -11.0053 13.9805
# 2 19.1504 56.2391 6.8873 21.6883 11.1609 22.4680
# 3 38.7727 6.8873 85.2943 25.8154 0.7746 10.3207
# 4 19.8944 21.6883 25.8154 54.4799 15.9845 0.1068
# 5 -11.0053 11.1609 0.7746 15.9845 44.5665 1.8798
# 6 13.9805 22.4680 10.3207 0.1068 1.8798 46.9848
#
#
#
# Elastic Compliance Matrix: (Units=1/GPa)
#
#
# Indices 1 2 3 4 5 6 
#
# 1 0.008664 -0.002139 -0.003119 -0.001839 0.003432 -0.001003
# 2 -0.002139 0.028548 0.003827 -0.011475 -0.003050 -0.013707
# 3 -0.003119 0.003827 0.015842 -0.008214 0.001128 -0.004408
# 4 -0.001839 -0.011475 -0.008214 0.029974 -0.008531 0.008112
# 5 0.003432 -0.003050 0.001128 -0.008531 0.027127 -0.000876
# 6 -0.001003 -0.013707 -0.004408 0.008112 -0.000876 0.029122
#
#
# Mechanical properties :
#
#
# Convention : Reuss Voigt Hill
#
# Bulk Modulus (GPa) = 19.92385 46.16171 33.04278
# Shear Modulus (GPa) = 31.47216 43.94121 37.70668
#
# Velocity S-wave (km/s) = 3.60533 4.26008 3.94631
# Velocity P-wave (km/s) = 5.05569 6.57747 5.86614
#
# Compressibility (1/GPa) = 0.05019110
#
# Stress axis : x y z
#
# Youngs Moduli (GPa) = 115.41526 35.02874 63.12323
#
# Poissons Ratio (x) = 0.07494 0.19688
# Poissons Ratio (y) = 0.24692 -0.24156
# Poissons Ratio (z) = 0.35998 -0.13405
#
# Static dielectric constant tensor:
#      x y z
#    x 1.935290 0.000170 -0.017390 
#    y 0.000170 1.941970 0.013690 
#    z -0.017390 0.013690 1.987910 
# 
# From -- ./inp_files/104071.got.cif
#   From: 2010.05.17/outbox.cif.g08.bks.cpg/sg2_53_cif.got.tgz:104071.got - 2010.06.03 11:33:40.
