data_PCOD9006934
_publ_section_title
;
Structure prediction by ZEFSAII (Michael W. Deem and Ramdas Pophale) SiO2 
 PCOD9006934
Probable space group: P -1
;
_chemical_formula_sum "Si O2"
_cell_formula_units_Z 14
_cell_length_a 10.967209
_cell_length_b 13.598437
_cell_length_c 13.348047
_cell_angle_alpha 34.217571
_cell_angle_beta 100.189643
_cell_angle_gamma 75.621188
_cell_volume 772.538904
_symmetry_space_group_name_H-M "P -1"
_symmetry_group_IT_number 2
_symmetry_cell_setting 'triclinic'
loop_
_space_group_symop_operation_xyz
x,y,z
-x,-y,-z
loop_
_atom_site_type_symbol
_atom_site_label
_atom_site_fract_x
_atom_site_fract_y
_atom_site_fract_z
Si Si1 0.042769 0.327128 0.063249
Si Si2 0.548390 0.564237 0.051284
Si Si3 0.775195 0.007612 0.219146
Si Si4 0.084976 0.877159 0.009557
Si Si5 0.566555 0.946246 0.669068
Si Si6 0.756516 0.641672 0.586785
Si Si7 0.912423 0.089877 0.601154
O O1 0.248742 0.139772 0.226135
O O2 0.007859 0.161549 0.228833
O O3 0.000000 0.500000 0.000000
O O4 0.917154 0.500641 0.807050
O O5 0.719684 0.318236 0.339649
O O6 0.500000 0.500000 0.000000
O O7 0.382789 0.744713 0.950468
O O8 0.589016 0.723103 0.893585
O O9 0.750527 0.824586 0.366474
O O10 0.799287 0.079668 0.055422
O O11 0.955750 0.878355 0.413265
O O12 0.199328 0.584186 0.271525
O O13 0.000000 0.000000 0.000000
O O14 0.932063 0.018604 0.782033
O O15 0.420032 0.182803 0.519297
O O16 0.500000 0.000000 0.500000
#
# Coordination Sequence:
#
# PCOD9006934 Si02
#       7
#     2   2   2   2   2   2   2
#     4  11  21  32  55  80 118 160 193 230 290 341
#     4  11  23  34  57  85 120 161 189 232 292 348
#     4   9  22  39  58  85 120 149 199 241 289 351
#     4   9  21  42  66  84 112 155 199 252 300 333
#     4  11  22  34  54  82 118 161 194 227 285 350
#     4  10  21  39  57  85 116 152 192 246 286 349
#     4   9  22  38  56  84 120 147 201 241 284 348
#
# _framework density 18.122064000000002
#
# number of rings (size 3 to 8) (size 9 to 14) (size 15 to 20)
#    0.857    1.143    1.429    1.714    8.000    1.143 
#    0.000    0.714    0.000    1.714    0.000    0.000 
#    0.000    0.000    0.000    0.000    0.000    0.000 
#
# Total GULP energy -78018.237544 kJ/mol
# GULP energy per Si atom -5572.731253 kJ/mol
# Density = 1.808082 g / cm^3
# Si number density = 18.122064 Si / 1000 Ang^3
#
#
#
# Elastic Constant Matrix: (Units=GPa)
#
#
# Indices 1 2 3 4 5 6 
#
# 1 68.5305 18.0527 24.7237 -12.6432 -4.5840 -15.7055
# 2 18.0527 85.1305 42.1176 -23.9140 -18.5390 -13.5081
# 3 24.7237 42.1176 98.5362 -18.3149 -7.1483 -6.7636
# 4 -12.6432 -23.9140 -18.3149 23.3861 7.3078 0.1599
# 5 -4.5840 -18.5390 -7.1483 7.3078 33.1698 3.8153
# 6 -15.7055 -13.5081 -6.7636 0.1599 3.8153 20.4864
#
#
#
# Elastic Compliance Matrix: (Units=1/GPa)
#
#
# Indices 1 2 3 4 5 6 
#
# 1 0.021067 0.003117 -0.003233 0.012145 -0.000694 0.017173
# 2 0.003117 0.022623 -0.005613 0.018394 0.006184 0.014158
# 3 -0.003233 -0.005613 0.013875 0.003785 -0.001267 -0.001392
# 4 0.012145 0.018394 0.003785 0.072795 -0.005935 0.023226
# 5 -0.000694 0.006184 -0.001267 -0.005935 0.034926 -0.003331
# 6 0.017173 0.014158 -0.001392 0.023226 -0.003331 0.071294
#
#
# Mechanical properties :
#
#
# Convention : Reuss Voigt Hill
#
# Bulk Modulus (GPa) = 21.68785 46.88726 34.28755
# Shear Modulus (GPa) = 18.98224 26.56200 22.77212
#
# Velocity S-wave (km/s) = 3.23997 3.83263 3.54870
# Velocity P-wave (km/s) = 5.09805 6.74645 5.97933
#
# Compressibility (1/GPa) = 0.04610877
#
# Stress axis : x y z
#
# Youngs Moduli (GPa) = 47.46775 44.20324 72.07423
#
# Poissons Ratio (x) = -0.13779 0.23298
# Poissons Ratio (y) = -0.14797 0.40452
# Poissons Ratio (z) = 0.15344 0.24809
#
# Static dielectric constant tensor:
#      x y z
#    x 1.658250 -0.001480 -0.027610 
#    y -0.001480 1.599300 0.002020 
#    z -0.027610 0.002020 1.630790 
# 
# From -- ./inp_files/281944.got.cif
#   From: 2010.05.17/outbox.cif.g08.bks.cpg/sg2_141_cif.got.tgz:281944.got - 2010.06.03 11:33:40.
