data_PCOD9006459
_publ_section_title
;
Structure prediction by ZEFSAII (Michael W. Deem and Ramdas Pophale) SiO2 
 PCOD9006459
Probable space group: P -1
;
_chemical_formula_sum "Si O2"
_cell_formula_units_Z 16
_cell_length_a 20.562625
_cell_length_b 19.587599
_cell_length_c 8.999114
_cell_angle_alpha 42.724990
_cell_angle_beta 127.634633
_cell_angle_gamma 160.671049
_cell_volume 756.937452
_symmetry_space_group_name_H-M "P -1"
_symmetry_group_IT_number 2
_symmetry_cell_setting 'triclinic'
loop_
_space_group_symop_operation_xyz
x,y,z
-x,-y,-z
loop_
_atom_site_type_symbol
_atom_site_label
_atom_site_fract_x
_atom_site_fract_y
_atom_site_fract_z
Si Si1 0.869683 0.615536 0.798088
Si Si2 0.910257 0.835130 0.950160
Si Si3 0.727299 0.013229 0.563336
Si Si4 0.143899 0.729592 0.937925
Si Si5 0.268175 0.159249 0.374878
Si Si6 0.270859 0.390682 0.621191
Si Si7 0.091949 0.533387 0.441812
Si Si8 0.703538 0.423681 0.184702
O O1 0.748697 0.530347 0.628354
O O2 0.710609 0.424319 0.017172
O O3 0.078341 0.922470 0.603614
O O4 0.985359 0.639884 0.904660
O O5 0.743431 0.736239 0.842394
O O6 0.844649 0.724244 0.199175
O O7 0.884738 0.710136 0.013035
O O8 0.134037 0.143614 0.758985
O O9 0.773859 0.955729 0.649259
O O10 0.513685 0.777329 0.735169
O O11 0.911396 0.270129 0.512781
O O12 0.692173 0.038177 0.321798
O O13 0.207339 0.736876 0.158160
O O14 0.000000 0.500000 0.000000
O O15 0.491231 0.375397 0.400371
O O16 0.000000 0.500000 0.500000
O O17 0.238432 0.614840 0.592155
#
# Coordination Sequence:
#
# PCOD9006459 Si02
#       8
#     2   2   2   2   2   2   2   2
#     4  10  23  41  59  92 131 161 208 260 311 371
#     4  10  23  37  65  96 128 162 213 259 301 370
#     4  10  24  40  68  95 120 166 212 256 309 379
#     4   9  20  42  64  87 122 161 207 262 306 370
#     4  10  21  41  66  93 128 166 211 254 304 374
#     4  10  21  38  66  90 124 171 208 250 306 369
#     4  11  24  44  65  91 128 167 201 264 327 361
#     4  12  25  41  63  96 130 164 207 262 314 371
#
# _framework density 21.137810000000002
#
# number of rings (size 3 to 8) (size 9 to 14) (size 15 to 20)
#    0.000    1.750    2.500    0.375    8.750    4.000 
#    0.000    1.250    0.000    0.000    0.000    0.000 
#    0.000    0.000    0.000    0.000    0.000    0.000 
#
# Total GULP energy -89229.725851 kJ/mol
# GULP energy per Si atom -5576.857866 kJ/mol
# Density = 2.108970 g / cm^3
# Si number density = 21.137810 Si / 1000 Ang^3
#
#
#
# Elastic Constant Matrix: (Units=GPa)
#
#
# Indices 1 2 3 4 5 6 
#
# 1 41.1890 -10.0354 41.1063 9.4470 -1.1849 9.7609
# 2 -10.0354 73.4370 19.3246 14.3096 1.0765 19.7799
# 3 41.1063 19.3246 135.1944 32.0354 -9.7372 14.5879
# 4 9.4470 14.3096 32.0354 31.0429 11.9474 2.0512
# 5 -1.1849 1.0765 -9.7372 11.9474 37.1361 -4.6547
# 6 9.7609 19.7799 14.5879 2.0512 -4.6547 23.5621
#
#
#
# Elastic Compliance Matrix: (Units=1/GPa)
#
#
# Indices 1 2 3 4 5 6 
#
# 1 0.051884 0.020323 -0.014054 -0.007089 -0.004104 -0.030047
# 2 0.020323 0.027440 -0.004225 -0.012324 -0.000790 -0.027921
# 3 -0.014054 -0.004225 0.015832 -0.013539 0.008484 0.002422
# 4 -0.007089 -0.012324 -0.013539 0.061593 -0.021729 0.012011
# 5 -0.004104 -0.000790 0.008484 -0.021729 0.036822 0.006276
# 6 -0.030047 -0.027921 0.002422 0.012011 0.006276 0.077022
#
#
# Mechanical properties :
#
#
# Convention : Reuss Voigt Hill
#
# Bulk Modulus (GPa) = 10.07634 38.95684 24.51659
# Shear Modulus (GPa) = 16.68973 31.64321 24.16647
#
# Velocity S-wave (km/s) = 2.81297 3.87330 3.38491
# Velocity P-wave (km/s) = 3.91507 6.20268 5.18657
#
# Compressibility (1/GPa) = 0.09924243
#
# Stress axis : x y z
#
# Youngs Moduli (GPa) = 19.27382 36.44373 63.16438
#
# Poissons Ratio (x) = -0.74064 0.88771
# Poissons Ratio (y) = -0.39170 0.26688
# Poissons Ratio (z) = 0.27087 0.15398
#
# Static dielectric constant tensor:
#      x y z
#    x 1.787500 -0.058160 0.001960 
#    y -0.058160 1.778550 0.014370 
#    z 0.001960 0.014370 1.796240 
# 
# From -- ./inp_files/349433.got.cif
#   From: 2010.05.17/outbox.cif.g08.bks.cpg/sg2_175_cif.got.tgz:349433.got - 2010.06.03 11:33:40.
