data_PCOD9006669
_publ_section_title
;
Structure prediction by ZEFSAII (Michael W. Deem and Ramdas Pophale) SiO2 
 PCOD9006669
Probable space group: P -1
;
_chemical_formula_sum "Si O2"
_cell_formula_units_Z 14
_cell_length_a 13.970360
_cell_length_b 8.788638
_cell_length_c 9.635312
_cell_angle_alpha 104.244282
_cell_angle_beta 45.856147
_cell_angle_gamma 73.094268
_cell_volume 614.907707
_symmetry_space_group_name_H-M "P -1"
_symmetry_group_IT_number 2
_symmetry_cell_setting 'triclinic'
loop_
_space_group_symop_operation_xyz
x,y,z
-x,-y,-z
loop_
_atom_site_type_symbol
_atom_site_label
_atom_site_fract_x
_atom_site_fract_y
_atom_site_fract_z
Si Si1 0.312304 0.821875 0.190815
Si Si2 0.014648 0.885237 0.819572
Si Si3 0.522875 0.673873 0.673332
Si Si4 0.297965 0.040769 0.759280
Si Si5 0.926033 0.204497 0.751443
Si Si6 0.817016 0.560435 0.151126
Si Si7 0.391587 0.695169 0.380906
O O1 0.211316 0.742815 0.217378
O O2 0.427768 0.709121 0.188615
O O3 0.447818 0.775227 0.925137
O O4 0.132167 0.063718 0.460635
O O5 0.220597 0.715020 0.538454
O O6 0.931198 0.052291 0.817382
O O7 0.905331 0.817048 0.948376
O O8 0.000000 0.000000 0.000000
O O9 0.401951 0.872137 0.738126
O O10 0.714625 0.563230 0.385578
O O11 0.497544 0.502488 0.670300
O O12 0.331359 0.900984 0.562802
O O13 0.313856 0.206554 0.732697
O O14 0.863607 0.399008 0.949172
O O15 0.000000 0.500000 0.000000
#
# Coordination Sequence:
#
# PCOD9006669 Si02
#       7
#     2   2   2   2   2   2   2
#     4  10  22  41  68 100 128 162 216 269 322 377
#     4   9  16  34  62  91 118 161 210 258 302 369
#     4  12  24  41  67 100 127 168 220 273 312 373
#     4  11  22  39  64  98 131 165 217 267 315 377
#     4  10  21  41  68  93 131 166 210 268 323 382
#     4  12  25  43  66  94 130 175 217 260 322 386
#     4  10  21  38  67  97 129 166 210 267 322 380
#
# _framework density 22.767643
#
# number of rings (size 3 to 8) (size 9 to 14) (size 15 to 20)
#    0.000    1.429    1.429    6.429    2.000    0.000 
#    0.000    3.571    3.143    0.000    0.000    0.000 
#    0.000    0.000    0.000    0.000    0.000    0.000 
#
# Total GULP energy -78047.236038 kJ/mol
# GULP energy per Si atom -5574.802574 kJ/mol
# Density = 2.271582 g / cm^3
# Si number density = 22.767643 Si / 1000 Ang^3
#
#
#
# Elastic Constant Matrix: (Units=GPa)
#
#
# Indices 1 2 3 4 5 6 
#
# 1 67.7031 34.4555 44.5854 -6.9773 11.7865 -13.0835
# 2 34.4555 123.2883 55.5402 11.3228 31.3789 -2.4105
# 3 44.5854 55.5402 179.4476 -10.1242 20.9761 4.5509
# 4 -6.9773 11.3228 -10.1242 32.0831 -15.3292 1.0495
# 5 11.7865 31.3789 20.9761 -15.3292 33.5357 -7.9486
# 6 -13.0835 -2.4105 4.5509 1.0495 -7.9486 33.2397
#
#
#
# Elastic Compliance Matrix: (Units=1/GPa)
#
#
# Indices 1 2 3 4 5 6 
#
# 1 0.022891 -0.007497 -0.004088 0.010149 0.008724 0.010792
# 2 -0.007497 0.019509 -0.002222 -0.021177 -0.025488 -0.006658
# 3 -0.004088 -0.002222 0.007592 0.001854 -0.001129 -0.003138
# 4 0.010149 -0.021177 0.001854 0.063410 0.046772 0.011388
# 5 0.008724 -0.025488 -0.001129 0.046772 0.077121 0.018705
# 6 0.010792 -0.006658 -0.003138 0.011388 0.018705 0.038392
#
#
# Mechanical properties :
#
#
# Convention : Reuss Voigt Hill
#
# Bulk Modulus (GPa) = 44.68712 71.06679 57.87696
# Shear Modulus (GPa) = 18.94021 35.49558 27.21789
#
# Velocity S-wave (km/s) = 2.88738 3.95275 3.46130
# Velocity P-wave (km/s) = 5.54852 7.21900 6.43817
#
# Compressibility (1/GPa) = 0.02237781
#
# Stress axis : x y z
#
# Youngs Moduli (GPa) = 43.68620 51.25816 131.71378
#
# Poissons Ratio (x) = 0.38430 0.53841
# Poissons Ratio (y) = 0.32753 0.29267
# Poissons Ratio (z) = 0.17858 0.11390
#
# Static dielectric constant tensor:
#      x y z
#    x 1.944730 -0.087720 -0.083060 
#    y -0.087720 1.877440 0.090190 
#    z -0.083060 0.090190 1.964830 
# 
# From -- ./inp_files/295706.got.cif
#   From: 2010.05.17/outbox.cif.g08.bks.cpg/sg2_148_cif.got.tgz:295706.got - 2010.06.03 11:33:40.
