data_PCOD9006413
_publ_section_title
;
Structure prediction by ZEFSAII (Michael W. Deem and Ramdas Pophale) SiO2 
 PCOD9006413
Probable space group: P -1
;
_chemical_formula_sum "Si O2"
_cell_formula_units_Z 14
_cell_length_a 9.844097
_cell_length_b 17.318788
_cell_length_c 7.596300
_cell_angle_alpha 105.184952
_cell_angle_beta 103.671017
_cell_angle_gamma 27.030726
_cell_volume 568.007968
_symmetry_space_group_name_H-M "P -1"
_symmetry_group_IT_number 2
_symmetry_cell_setting 'triclinic'
loop_
_space_group_symop_operation_xyz
x,y,z
-x,-y,-z
loop_
_atom_site_type_symbol
_atom_site_label
_atom_site_fract_x
_atom_site_fract_y
_atom_site_fract_z
Si Si1 0.374976 0.483211 0.368865
Si Si2 0.869879 0.943419 0.900796
Si Si3 0.213820 0.814939 0.446925
Si Si4 0.250192 0.074178 0.771467
Si Si5 0.906646 0.390363 0.984438
Si Si6 0.544958 0.262280 0.895012
Si Si7 0.090464 0.247409 0.339618
O O1 0.500000 0.500000 0.500000
O O2 0.579295 0.306898 0.394035
O O3 0.346078 0.513932 0.171115
O O4 0.057960 0.637639 0.467028
O O5 0.630231 0.127158 0.863409
O O6 0.922489 0.842544 0.726739
O O7 0.755599 0.965841 0.064507
O O8 0.179257 0.832412 0.976648
O O9 0.417631 0.728630 0.288766
O O10 0.009209 0.841044 0.361104
O O11 0.000000 0.000000 0.500000
O O12 0.181518 0.202111 0.870372
O O13 0.563107 0.906082 0.670297
O O14 0.787056 0.542021 0.032888
O O15 0.924697 0.357435 0.173825
#
# Coordination Sequence:
#
# PCOD9006413 Si02
#       7
#     2   2   2   2   2   2   2
#     4  12  25  41  72 102 129 177 231 280 322 403
#     4   9  20  35  67  96 129 176 221 267 339 387
#     4  11  25  44  68 100 136 173 227 282 333 393
#     4  10  23  44  68  96 137 179 219 279 334 404
#     4  11  22  41  68  99 133 171 228 267 334 387
#     4  10  21  38  66 101 130 175 220 284 321 390
#     4  11  24  46  68  97 139 177 222 276 339 394
#
# _framework density 24.647542999999999
#
# number of rings (size 3 to 8) (size 9 to 14) (size 15 to 20)
#    0.000    1.429    2.857    2.571    8.000    2.857 
#    0.000    5.000    0.000    0.000    0.000    0.000 
#    0.000    0.000    0.000    0.000    0.000    0.000 
#
# Total GULP energy -78185.537930 kJ/mol
# GULP energy per Si atom -5584.681281 kJ/mol
# Density = 2.459144 g / cm^3
# Si number density = 24.647543 Si / 1000 Ang^3
#
#
#
# Elastic Constant Matrix: (Units=GPa)
#
#
# Indices 1 2 3 4 5 6 
#
# 1 67.4736 60.6215 10.4068 -5.1004 -5.8303 7.0816
# 2 60.6215 174.2867 18.8917 15.9421 -10.9604 38.6323
# 3 10.4068 18.8917 64.9594 -21.6478 -13.5039 1.2878
# 4 -5.1004 15.9421 -21.6478 43.7552 7.7131 -8.7623
# 5 -5.8303 -10.9604 -13.5039 7.7131 22.4492 7.2435
# 6 7.0816 38.6323 1.2878 -8.7623 7.2435 37.0522
#
#
#
# Elastic Compliance Matrix: (Units=1/GPa)
#
#
# Indices 1 2 3 4 5 6 
#
# 1 0.026335 -0.014681 0.002756 0.014332 -0.008509 0.015231
# 2 -0.014681 0.020568 -0.006256 -0.020936 0.018359 -0.026962
# 3 0.002756 -0.006256 0.022180 0.014575 0.003413 0.008004
# 4 0.014332 -0.020936 0.014575 0.051329 -0.026982 0.035996
# 5 -0.008509 0.018359 0.003413 -0.026982 0.075108 -0.038698
# 6 0.015231 -0.026962 0.008004 0.035996 -0.038698 0.067990
#
#
# Mechanical properties :
#
#
# Convention : Reuss Voigt Hill
#
# Bulk Modulus (GPa) = 30.56023 54.06219 42.31121
# Shear Modulus (GPa) = 16.08859 35.10462 25.59661
#
# Velocity S-wave (km/s) = 2.55766 3.77804 3.22608
# Velocity P-wave (km/s) = 4.59869 6.40415 5.57499
#
# Compressibility (1/GPa) = 0.03272227
#
# Stress axis : x y z
#
# Youngs Moduli (GPa) = 37.97188 48.61888 45.08552
#
# Poissons Ratio (x) = 0.71377 -0.12426
# Poissons Ratio (y) = 0.55747 0.28204
# Poissons Ratio (z) = -0.10465 0.30414
#
# Static dielectric constant tensor:
#      x y z
#    x 1.977270 -0.030060 -0.020600 
#    y -0.030060 2.061590 0.047540 
#    z -0.020600 0.047540 2.004690 
# 
# From -- ./inp_files/283101.got.cif
#   From: 2010.05.17/outbox.cif.g08.bks.cpg/sg2_142_cif.got.tgz:283101.got - 2010.06.03 11:33:40.
