data_PCOD9006525
_publ_section_title
;
Structure prediction by ZEFSAII (Michael W. Deem and Ramdas Pophale) SiO2 
 PCOD9006525
Probable space group: P -1
;
_chemical_formula_sum "Si O2"
_cell_formula_units_Z 12
_cell_length_a 7.598698
_cell_length_b 11.744265
_cell_length_c 8.498363
_cell_angle_alpha 133.399182
_cell_angle_beta 80.322163
_cell_angle_gamma 74.528209
_cell_volume 459.368121
_symmetry_space_group_name_H-M "P -1"
_symmetry_group_IT_number 2
_symmetry_cell_setting 'triclinic'
loop_
_space_group_symop_operation_xyz
x,y,z
-x,-y,-z
loop_
_atom_site_type_symbol
_atom_site_label
_atom_site_fract_x
_atom_site_fract_y
_atom_site_fract_z
Si Si1 0.241855 0.196013 0.705574
Si Si2 0.854569 0.429512 0.382802
Si Si3 0.537820 0.226431 0.168220
Si Si4 0.764769 0.120763 0.725930
Si Si5 0.757130 0.916972 0.046144
Si Si6 0.767615 0.465996 0.054056
O O1 0.221640 0.141056 0.832094
O O2 0.336178 0.324823 0.792362
O O3 0.334019 0.002951 0.418510
O O4 0.001246 0.340272 0.821263
O O5 0.624557 0.553589 0.612273
O O6 0.805970 0.468937 0.240154
O O7 0.000000 0.500000 0.500000
O O8 0.006239 0.210439 0.178483
O O9 0.636530 0.133618 0.232671
O O10 0.731788 0.139612 0.936499
O O11 0.384913 0.153971 0.075596
O O12 0.677611 0.335766 0.906134
O O13 0.000000 0.000000 0.500000
#
# Coordination Sequence:
#
# PCOD9006525 Si02
#       6
#     2   2   2   2   2   2
#     4   9  19  38  67  88 128 175 211 265 325 382
#     4   9  19  37  64  93 129 166 216 264 320 386
#     4  10  21  38  66  95 129 169 218 268 322 388
#     4  10  22  40  64  94 133 169 213 270 324 383
#     4   9  20  39  66  98 121 173 221 260 330 383
#     4   9  19  38  63  93 129 171 213 265 324 382
#
# _framework density 26.122841000000001
#
# number of rings (size 3 to 8) (size 9 to 14) (size 15 to 20)
#    0.000    2.667    0.000    0.000    7.000    1.333 
#    3.000    8.333    0.000    0.000    0.000    0.000 
#    0.000    0.000    0.000    0.000    0.000    0.000 
#
# Total GULP energy -66885.705687 kJ/mol
# GULP energy per Si atom -5573.808807 kJ/mol
# Density = 2.606338 g / cm^3
# Si number density = 26.122841 Si / 1000 Ang^3
#
#
#
# Elastic Constant Matrix: (Units=GPa)
#
#
# Indices 1 2 3 4 5 6 
#
# 1 116.5600 36.8604 50.7966 19.2608 30.1426 17.1048
# 2 36.8604 119.6761 59.8902 35.6890 -2.9821 4.4492
# 3 50.7966 59.8902 133.9956 20.1903 -14.7035 -0.7442
# 4 19.2608 35.6890 20.1903 36.4511 12.8431 4.4929
# 5 30.1426 -2.9821 -14.7035 12.8431 55.1282 17.1875
# 6 17.1048 4.4492 -0.7442 4.4929 17.1875 25.3229
#
#
#
# Elastic Compliance Matrix: (Units=1/GPa)
#
#
# Indices 1 2 3 4 5 6 
#
# 1 0.014215 -0.001894 -0.005613 0.000879 -0.008355 -0.003919
# 2 -0.001894 0.014668 -0.003414 -0.012814 0.004605 -0.002250
# 3 -0.005613 -0.003414 0.012284 -0.002916 0.006592 0.000796
# 4 0.000879 -0.012814 -0.002916 0.045521 -0.013354 0.002560
# 5 -0.008355 0.004605 0.006592 -0.013354 0.032370 -0.014573
# 6 -0.003919 -0.002250 0.000796 0.002560 -0.014573 0.051993
#
#
# Mechanical properties :
#
#
# Convention : Reuss Voigt Hill
#
# Bulk Modulus (GPa) = 51.74894 73.92512 62.83703
# Shear Modulus (GPa) = 25.08359 38.22608 31.65484
#
# Velocity S-wave (km/s) = 3.10210 3.82949 3.48482
# Velocity P-wave (km/s) = 5.71695 6.92198 6.34812
#
# Compressibility (1/GPa) = 0.01932407
#
# Stress axis : x y z
#
# Youngs Moduli (GPa) = 70.34915 68.17773 81.40639
#
# Poissons Ratio (x) = 0.12911 0.45696
# Poissons Ratio (y) = 0.13322 0.27794
# Poissons Ratio (z) = 0.39489 0.23277
#
# Static dielectric constant tensor:
#      x y z
#    x 2.718100 -0.535170 0.406390 
#    y -0.535170 2.529990 -0.346170 
#    z 0.406390 -0.346170 2.346350 
# 
# From -- ./inp_files/183007.got.cif
#   From: 2010.05.17/outbox.cif.g08.bks.cpg/sg2_92_cif.got.tgz:183007.got - 2010.06.03 11:33:40.
