data_PCOD9006958
_publ_section_title
;
Structure prediction by ZEFSAII (Michael W. Deem and Ramdas Pophale) SiO2 
 PCOD9006958
Probable space group: P -1
;
_chemical_formula_sum "Si O2"
_cell_formula_units_Z 14
_cell_length_a 23.849951
_cell_length_b 9.868850
_cell_length_c 5.288688
_cell_angle_alpha 47.594877
_cell_angle_beta 57.581697
_cell_angle_gamma 40.059624
_cell_volume 591.034995
_symmetry_space_group_name_H-M "P -1"
_symmetry_group_IT_number 2
_symmetry_cell_setting 'triclinic'
loop_
_space_group_symop_operation_xyz
x,y,z
-x,-y,-z
loop_
_atom_site_type_symbol
_atom_site_label
_atom_site_fract_x
_atom_site_fract_y
_atom_site_fract_z
Si Si1 0.139547 0.670184 0.993149
Si Si2 0.561807 0.613372 0.244381
Si Si3 0.707963 0.587865 0.743872
Si Si4 0.376744 0.707986 0.006529
Si Si5 0.423177 0.998884 0.768233
Si Si6 0.025994 0.113037 0.099097
Si Si7 0.804639 0.120184 0.805395
O O1 0.218151 0.435803 0.253235
O O2 0.080051 0.907568 0.014126
O O3 0.179837 0.743072 0.604957
O O4 0.068609 0.656729 0.062910
O O5 0.582281 0.484486 0.622146
O O6 0.624637 0.678498 0.994928
O O7 0.591881 0.432491 0.159913
O O8 0.462906 0.844982 0.122821
O O9 0.758373 0.309786 0.909445
O O10 0.667955 0.735314 0.393898
O O11 0.271597 0.883551 0.077923
O O12 0.409162 0.853576 0.797079
O O13 0.500000 0.000000 0.500000
O O14 0.098147 0.115170 0.051380
O O15 0.000000 0.000000 0.500000
#
# Coordination Sequence:
#
# PCOD9006958 Si02
#       7
#     2   2   2   2   2   2   2
#     4   9  14  28  49  77 110 139 178 223 272 320
#     4  10  21  39  58  80 107 147 193 233 274 325
#     4   9  18  34  50  80 113 144 183 229 281 327
#     4  11  21  39  59  80 110 148 191 233 273 328
#     4  10  22  39  55  81 111 146 186 234 282 330
#     4   8  15  25  48  81 107 136 176 227 264 320
#     4   9  17  30  52  78 109 143 184 225 271 324
#
# _framework density 23.687260999999999
#
# number of rings (size 3 to 8) (size 9 to 14) (size 15 to 20)
#    0.000    2.571    1.429    0.857    0.000    0.000 
#    5.143    5.000    0.000    0.857    0.000   34.000 
#    0.000    0.000    0.000    0.000    0.000    0.000 
#
# Total GULP energy -78009.509613 kJ/mol
# GULP energy per Si atom -5572.107830 kJ/mol
# Density = 2.363335 g / cm^3
# Si number density = 23.687261 Si / 1000 Ang^3
#
#
#
# Elastic Constant Matrix: (Units=GPa)
#
#
# Indices 1 2 3 4 5 6 
#
# 1 168.7567 65.6970 49.1905 -16.8461 17.9694 -60.0313
# 2 65.6970 66.6771 22.4914 1.4916 1.5583 -30.2746
# 3 49.1905 22.4914 69.4483 -0.9288 16.1351 -16.4018
# 4 -16.8461 1.4916 -0.9288 29.1764 -11.2537 18.1945
# 5 17.9694 1.5583 16.1351 -11.2537 35.5075 -13.9139
# 6 -60.0313 -30.2746 -16.4018 18.1945 -13.9139 57.8821
#
#
#
# Elastic Compliance Matrix: (Units=1/GPa)
#
#
# Indices 1 2 3 4 5 6 
#
# 1 0.013662 -0.008657 -0.005109 0.003713 -0.000311 0.006951
# 2 -0.008657 0.028992 -0.002042 -0.011173 0.004492 0.010199
# 3 -0.005109 -0.002042 0.020322 -0.004763 -0.008523 -0.001160
# 4 0.003713 -0.011173 -0.004763 0.051468 0.010420 -0.017016
# 5 -0.000311 0.004492 -0.008523 0.010420 0.037385 0.005322
# 6 0.006951 0.010199 -0.001160 -0.017016 0.005322 0.036120
#
#
# Mechanical properties :
#
#
# Convention : Reuss Voigt Hill
#
# Bulk Modulus (GPa) = 31.88851 64.40442 48.14647
# Shear Modulus (GPa) = 21.73746 35.68008 28.70877
#
# Velocity S-wave (km/s) = 3.03262 3.88532 3.48514
# Velocity P-wave (km/s) = 5.07483 6.88303 6.04690
#
# Compressibility (1/GPa) = 0.03135926
#
# Stress axis : x y z
#
# Youngs Moduli (GPa) = 73.19717 34.49243 49.20785
#
# Poissons Ratio (x) = 0.29860 0.25142
# Poissons Ratio (y) = 0.63367 0.10047
# Poissons Ratio (z) = 0.37398 0.07043
#
# Static dielectric constant tensor:
#      x y z
#    x 2.051260 -0.034130 0.072400 
#    y -0.034130 2.013910 -0.008080 
#    z 0.072400 -0.008080 1.960590 
# 
# From -- ./inp_files/43441.got.cif
#   From: 2010.05.17/outbox.cif.g08.bks.cpg/sg2_22_cif.got.tgz:43441.got - 2010.06.03 11:33:40.
