data_PCOD9006480
_publ_section_title
;
Structure prediction by ZEFSAII (Michael W. Deem and Ramdas Pophale) SiO2 
 PCOD9006480
Probable space group: P -1
;
_chemical_formula_sum "Si O2"
_cell_formula_units_Z 16
_cell_length_a 9.630051
_cell_length_b 17.726989
_cell_length_c 8.843379
_cell_angle_alpha 87.192385
_cell_angle_beta 120.922484
_cell_angle_gamma 132.661153
_cell_volume 838.403877
_symmetry_space_group_name_H-M "P -1"
_symmetry_group_IT_number 2
_symmetry_cell_setting 'triclinic'
loop_
_space_group_symop_operation_xyz
x,y,z
-x,-y,-z
loop_
_atom_site_type_symbol
_atom_site_label
_atom_site_fract_x
_atom_site_fract_y
_atom_site_fract_z
Si Si1 0.869418 0.886857 0.027682
Si Si2 0.652701 0.330297 0.385918
Si Si3 0.466184 0.778336 0.356012
Si Si4 0.102418 0.423894 0.465282
Si Si5 0.795011 0.809911 0.304948
Si Si6 0.281900 0.976879 0.425620
Si Si7 0.974729 0.580307 0.934871
Si Si8 0.467805 0.441366 0.833900
O O1 0.784706 0.868218 0.157353
O O2 0.629765 0.774375 0.817027
O O3 0.092467 0.908175 0.183709
O O4 0.000000 0.000000 0.000000
O O5 0.653002 0.309817 0.563686
O O6 0.755558 0.450652 0.408613
O O7 0.829617 0.333919 0.397380
O O8 0.674544 0.802482 0.385941
O O9 0.597669 0.899090 0.484700
O O10 0.235738 0.710477 0.120345
O O11 0.071592 0.421619 0.268313
O O12 0.267654 0.412616 0.616311
O O13 0.637521 0.680247 0.183551
O O14 0.088144 0.891763 0.462615
O O15 0.500000 0.000000 0.500000
O O16 0.736200 0.527810 0.896033
O O17 0.000000 0.500000 0.000000
O O18 0.500000 0.500000 0.000000
#
# Coordination Sequence:
#
# PCOD9006480 Si02
#       8
#     2   2   2   2   2   2   2   2
#     4  10  21  38  66  92 125 165 223 265 322 393
#     4  11  21  38  67  97 127 173 221 266 331 395
#     4  12  22  42  69  93 130 177 219 267 328 394
#     4  11  25  39  64  98 139 169 219 273 328 394
#     4  10  23  41  65  93 132 168 218 266 328 392
#     4  10  25  41  65  96 126 166 218 278 327 381
#     4  12  24  42  65  97 137 177 218 268 331 399
#     4  12  25  41  67 100 136 177 219 274 333 388
#
# _framework density 19.083880000000001
#
# number of rings (size 3 to 8) (size 9 to 14) (size 15 to 20)
#    0.750    0.250    3.750    3.000    5.250    0.000 
#    0.000    0.000    0.000    2.250    0.000    0.000 
#    0.000    0.000    0.000    0.000    0.000    0.000 
#
# Total GULP energy -89199.420699 kJ/mol
# GULP energy per Si atom -5574.963794 kJ/mol
# Density = 1.904044 g / cm^3
# Si number density = 19.083880 Si / 1000 Ang^3
#
#
#
# Elastic Constant Matrix: (Units=GPa)
#
#
# Indices 1 2 3 4 5 6 
#
# 1 131.6123 44.9662 47.4044 -4.0009 13.0183 21.5787
# 2 44.9662 81.8684 22.0926 7.2728 2.4214 16.8031
# 3 47.4044 22.0926 124.2406 9.2606 16.6860 13.7641
# 4 -4.0009 7.2728 9.2606 41.9778 8.8335 -7.7523
# 5 13.0183 2.4214 16.6860 8.8335 29.4618 7.0440
# 6 21.5787 16.8031 13.7641 -7.7523 7.0440 28.7213
#
#
#
# Elastic Compliance Matrix: (Units=1/GPa)
#
#
# Indices 1 2 3 4 5 6 
#
# 1 0.011141 -0.004962 -0.002869 0.002723 -0.003085 -0.002601
# 2 -0.004962 0.017306 -0.000393 -0.006114 0.004998 -0.009084
# 3 -0.002869 -0.000393 0.010053 -0.002158 -0.003214 -0.002226
# 4 0.002723 -0.006114 -0.002158 0.030682 -0.011973 0.013783
# 5 -0.003085 0.004998 -0.003214 -0.011973 0.043399 -0.012942
# 6 -0.002601 -0.009084 -0.002226 0.013783 -0.012942 0.050047
#
#
# Mechanical properties :
#
#
# Convention : Reuss Voigt Hill
#
# Bulk Modulus (GPa) = 45.34899 62.96084 54.15491
# Shear Modulus (GPa) = 26.82020 34.91606 30.86813
#
# Velocity S-wave (km/s) = 3.75291 4.28203 4.02618
# Velocity P-wave (km/s) = 6.52639 7.58360 7.07477
#
# Compressibility (1/GPa) = 0.02205121
#
# Stress axis : x y z
#
# Youngs Moduli (GPa) = 89.75782 57.78366 99.47610
#
# Poissons Ratio (x) = 0.28671 0.28541
# Poissons Ratio (y) = 0.44536 0.03912
# Poissons Ratio (z) = 0.25753 0.02273
#
# Static dielectric constant tensor:
#      x y z
#    x 1.663870 0.009310 -0.014260 
#    y 0.009310 1.692240 -0.026430 
#    z -0.014260 -0.026430 1.775540 
# 
# From -- ./inp_files/217525.got.cif
#   From: 2010.05.17/outbox.cif.g08.bks.cpg/sg2_109_cif.got.tgz:217525.got - 2010.06.03 11:33:40.
