data_PCOD9006316
_publ_section_title
;
Structure prediction by ZEFSAII (Michael W. Deem and Ramdas Pophale) SiO2 
 PCOD9006316
Probable space group: P -1
;
_chemical_formula_sum "Si O2"
_cell_formula_units_Z 14
_cell_length_a 8.879022
_cell_length_b 16.371452
_cell_length_c 9.688895
_cell_angle_alpha 66.306216
_cell_angle_beta 116.780132
_cell_angle_gamma 152.678950
_cell_volume 577.084618
_symmetry_space_group_name_H-M "P -1"
_symmetry_group_IT_number 2
_symmetry_cell_setting 'triclinic'
loop_
_space_group_symop_operation_xyz
x,y,z
-x,-y,-z
loop_
_atom_site_type_symbol
_atom_site_label
_atom_site_fract_x
_atom_site_fract_y
_atom_site_fract_z
Si Si1 0.176645 0.677588 0.968479
Si Si2 0.744360 0.923069 0.243114
Si Si3 0.118978 0.941392 0.515668
Si Si4 0.151752 0.352612 0.532382
Si Si5 0.507911 0.546477 0.123881
Si Si6 0.768494 0.346357 0.400776
Si Si7 0.647877 0.796351 0.903276
O O1 0.378175 0.773189 0.131780
O O2 0.478768 0.806834 0.893566
O O3 0.000000 0.500000 0.000000
O O4 0.881383 0.615208 0.879723
O O5 0.800872 0.856680 0.394957
O O6 0.862485 0.051661 0.315086
O O7 0.003419 0.032439 0.148165
O O8 0.087465 0.835697 0.492357
O O9 0.452992 0.148167 0.468850
O O10 0.500000 0.500000 0.500000
O O11 0.255567 0.394899 0.707794
O O12 0.998305 0.375867 0.410017
O O13 0.500000 0.500000 0.000000
O O14 0.656774 0.715281 0.059880
O O15 0.617075 0.346395 0.230671
O O16 0.000000 0.500000 0.500000
#
# Coordination Sequence:
#
# PCOD9006316 Si02
#       7
#     2   2   2   2   2   2   2
#     4  10  21  38  65  94 131 173 225 279 343 409
#     4  10  22  40  71 101 138 182 235 293 353 426
#     4  10  24  42  68 104 145 181 237 291 358 417
#     4  12  27  45  72 105 147 185 234 295 355 417
#     4  11  25  43  70 101 142 181 233 291 352 416
#     4  11  25  43  74 101 138 187 237 286 356 430
#     4  10  22  43  67 101 132 179 239 284 357 416
#
# _framework density 24.259872999999999
#
# number of rings (size 3 to 8) (size 9 to 14) (size 15 to 20)
#    0.000    1.429    0.000    4.286   14.000    1.143 
#    0.000    2.143    0.000    0.000    0.000    0.000 
#    0.000    0.000    0.000    0.000    0.000    0.000 
#
# Total GULP energy -78277.249764 kJ/mol
# GULP energy per Si atom -5591.232126 kJ/mol
# Density = 2.420466 g / cm^3
# Si number density = 24.259873 Si / 1000 Ang^3
#
#
#
# Elastic Constant Matrix: (Units=GPa)
#
#
# Indices 1 2 3 4 5 6 
#
# 1 84.2133 22.6849 -0.1132 4.0584 -15.0670 3.0358
# 2 22.6849 99.8170 31.7914 23.5915 -6.2495 -0.2490
# 3 -0.1132 31.7914 76.1366 30.0196 -5.9950 -3.7326
# 4 4.0584 23.5915 30.0196 47.0799 4.0831 -11.5604
# 5 -15.0670 -6.2495 -5.9950 4.0831 41.2866 0.2282
# 6 3.0358 -0.2490 -3.7326 -11.5604 0.2282 40.9771
#
#
#
# Elastic Compliance Matrix: (Units=1/GPa)
#
#
# Indices 1 2 3 4 5 6 
#
# 1 0.013779 -0.003127 0.002432 -0.001958 0.005110 -0.001399
# 2 -0.003127 0.012958 -0.003774 -0.004176 0.000692 -0.001215
# 3 0.002432 -0.003774 0.019528 -0.011564 0.004305 -0.001711
# 4 -0.001958 -0.004176 -0.011564 0.033532 -0.006389 0.008562
# 5 0.005110 0.000692 0.004305 -0.006389 0.027458 -0.001938
# 6 -0.001399 -0.001215 -0.001711 0.008562 -0.001938 0.026771
#
#
# Mechanical properties :
#
#
# Convention : Reuss Voigt Hill
#
# Bulk Modulus (GPa) = 26.78959 40.98813 33.88886
# Shear Modulus (GPa) = 32.17370 39.58896 35.88133
#
# Velocity S-wave (km/s) = 3.64567 4.04402 3.85000
# Velocity P-wave (km/s) = 5.36544 6.22396 5.81057
#
# Compressibility (1/GPa) = 0.03732793
#
# Stress axis : x y z
#
# Youngs Moduli (GPa) = 72.57309 77.17119 51.20774
#
# Poissons Ratio (x) = 0.24130 -0.12454
# Poissons Ratio (y) = 0.22692 0.19326
# Poissons Ratio (z) = -0.17650 0.29125
#
# Static dielectric constant tensor:
#      x y z
#    x 1.967060 0.004670 -0.070770 
#    y 0.004670 1.945770 -0.011730 
#    z -0.070770 -0.011730 1.979330 
# 
# From -- ./inp_files/217148.got.cif
#   From: 2010.05.17/outbox.cif.g08.bks.cpg/sg2_109_cif.got.tgz:217148.got - 2010.06.03 11:33:40.
