data_PCOD9006052
_publ_section_title
;
Structure prediction by ZEFSAII (Michael W. Deem and Ramdas Pophale) SiO2 
 PCOD9006052
Probable space group: P -1
;
_chemical_formula_sum "Si O2"
_cell_formula_units_Z 16
_cell_length_a 20.129866
_cell_length_b 10.907875
_cell_length_c 6.579363
_cell_angle_alpha 62.167084
_cell_angle_beta 101.891845
_cell_angle_gamma 145.654394
_cell_volume 672.537292
_symmetry_space_group_name_H-M "P -1"
_symmetry_group_IT_number 2
_symmetry_cell_setting 'triclinic'
loop_
_space_group_symop_operation_xyz
x,y,z
-x,-y,-z
loop_
_atom_site_type_symbol
_atom_site_label
_atom_site_fract_x
_atom_site_fract_y
_atom_site_fract_z
Si Si1 0.487433 0.884769 0.278052
Si Si2 0.376680 0.412905 0.606500
Si Si3 0.353796 0.115323 0.054086
Si Si4 0.162503 0.137581 0.008293
Si Si5 0.672351 0.208941 0.514650
Si Si6 0.114757 0.357730 0.942356
Si Si7 0.752652 0.932555 0.591753
Si Si8 0.862964 0.334575 0.046198
O O1 0.479072 0.705756 0.395369
O O2 0.356367 0.708688 0.430390
O O3 0.598635 0.103411 0.338403
O O4 0.500000 0.000000 0.000000
O O5 0.301708 0.255785 0.474500
O O6 0.422376 0.342445 0.774287
O O7 0.279199 0.299026 0.808799
O O8 0.392704 0.030197 0.220359
O O9 0.340066 0.172922 0.211538
O O10 0.221841 0.854909 0.053972
O O11 0.150529 0.994700 0.277073
O O12 0.172710 0.302192 0.005757
O O13 0.034213 0.917211 0.968864
O O14 0.817702 0.450524 0.356734
O O15 0.135930 0.498850 0.035560
O O16 0.801045 0.152423 0.341207
O O17 0.000000 0.500000 0.000000
#
# Coordination Sequence:
#
# PCOD9006052 Si02
#       8
#     2   2   2   2   2   2   2   2
#     4  11  27  45  71  95 131 176 224 284 337 386
#     4  10  22  44  65  99 134 170 223 275 329 401
#     4  10  23  41  67  95 132 174 223 273 329 393
#     4  10  23  41  64 100 134 176 215 269 338 394
#     4  11  25  45  67 100 131 174 227 274 334 392
#     4  11  22  42  67  96 138 172 219 270 325 408
#     4  10  21  38  64  93 134 175 211 268 334 381
#     4  11  23  38  63 101 135 178 221 264 325 396
#
# _framework density 23.790502
#
# number of rings (size 3 to 8) (size 9 to 14) (size 15 to 20)
#    0.000    1.500    2.500    2.250    5.250    2.500 
#    0.000    3.125    0.000    0.000    0.000    0.000 
#    0.000    0.000    0.000    0.000    0.000    0.000 
#
# Total GULP energy -89358.701486 kJ/mol
# GULP energy per Si atom -5584.918843 kJ/mol
# Density = 2.373635 g / cm^3
# Si number density = 23.790502 Si / 1000 Ang^3
#
#
#
# Elastic Constant Matrix: (Units=GPa)
#
#
# Indices 1 2 3 4 5 6 
#
# 1 111.2551 26.0396 19.8209 3.8673 -1.6708 -20.1475
# 2 26.0396 81.4617 24.5929 3.4263 2.0204 -17.6815
# 3 19.8209 24.5929 115.2622 5.5543 20.0379 -2.5750
# 4 3.8673 3.4263 5.5543 34.4020 -2.8247 1.9303
# 5 -1.6708 2.0204 20.0379 -2.8247 37.7197 -2.5485
# 6 -20.1475 -17.6815 -2.5750 1.9303 -2.5485 36.7890
#
#
#
# Elastic Compliance Matrix: (Units=1/GPa)
#
#
# Indices 1 2 3 4 5 6 
#
# 1 0.010665 -0.001851 -0.001576 -0.000903 0.001679 0.005005
# 2 -0.001851 0.015098 -0.002882 -0.001096 0.000975 0.006166
# 3 -0.001576 -0.002882 0.010607 -0.001622 -0.005795 -0.001822
# 4 -0.000903 -0.001096 -0.001622 0.029923 0.002952 -0.002501
# 5 0.001679 0.000975 -0.005795 0.002952 0.030029 0.002908
# 6 0.005005 0.006166 -0.001822 -0.002501 0.002908 0.033091
#
#
# Mechanical properties :
#
#
# Convention : Reuss Voigt Hill
#
# Bulk Modulus (GPa) = 42.10097 49.87619 45.98858
# Shear Modulus (GPa) = 33.34493 37.61718 35.48105
#
# Velocity S-wave (km/s) = 3.74787 3.98073 3.86605
# Velocity P-wave (km/s) = 6.03851 6.49142 6.26906
#
# Compressibility (1/GPa) = 0.02375242
#
# Stress axis : x y z
#
# Youngs Moduli (GPa) = 93.76300 66.23555 94.28142
#
# Poissons Ratio (x) = 0.12259 0.14856
# Poissons Ratio (y) = 0.17354 0.27171
# Poissons Ratio (z) = 0.14774 0.19089
#
# Static dielectric constant tensor:
#      x y z
#    x 1.963710 -0.008280 -0.012190 
#    y -0.008280 1.891650 -0.061420 
#    z -0.012190 -0.061420 1.934550 
# 
# From -- ./inp_files/108884.got.cif
#   From: 2010.05.17/outbox.cif.g08.bks.cpg/sg2_55_cif.got.tgz:108884.got - 2010.06.03 11:33:40.
