data_PCOD9006914
_publ_section_title
;
Structure prediction by ZEFSAII (Michael W. Deem and Ramdas Pophale) SiO2 
 PCOD9006914
Probable space group: P -1
;
_chemical_formula_sum "Si O2"
_cell_formula_units_Z 16
_cell_length_a 17.149558
_cell_length_b 4.972932
_cell_length_c 22.773920
_cell_angle_alpha 117.025774
_cell_angle_beta 158.690480
_cell_angle_gamma 71.393629
_cell_volume 595.246555
_symmetry_space_group_name_H-M "P -1"
_symmetry_group_IT_number 2
_symmetry_cell_setting 'triclinic'
loop_
_space_group_symop_operation_xyz
x,y,z
-x,-y,-z
loop_
_atom_site_type_symbol
_atom_site_label
_atom_site_fract_x
_atom_site_fract_y
_atom_site_fract_z
Si Si1 0.115585 0.635726 0.032753
Si Si2 0.194703 0.592928 0.751159
Si Si3 0.693296 0.350476 0.363672
Si Si4 0.224971 0.141023 0.974985
Si Si5 0.311638 0.338262 0.926960
Si Si6 0.389302 0.995050 0.608935
Si Si7 0.747751 0.898177 0.599965
Si Si8 0.340416 0.539795 0.340494
O O1 0.187336 0.358469 0.022942
O O2 0.350413 0.919672 0.220923
O O3 0.000000 0.500000 0.000000
O O4 0.908402 0.713898 0.862733
O O5 0.218879 0.513858 0.828873
O O6 0.952532 0.393401 0.534115
O O7 0.226850 0.967797 0.809657
O O8 0.414361 0.545086 0.870951
O O9 0.470943 0.100801 0.153042
O O10 0.656586 0.692611 0.364915
O O11 0.676885 0.263178 0.412333
O O12 0.242098 0.332855 0.945167
O O13 0.988332 0.852918 0.776182
O O14 0.250148 0.941607 0.445772
O O15 0.724208 0.146322 0.657183
O O16 0.510331 0.616337 0.412226
O O17 0.500000 0.500000 0.500000
#
# Coordination Sequence:
#
# PCOD9006914 Si02
#       8
#     2   2   2   2   2   2   2   2
#     4  10  21  42  59  87 127 169 217 261 317 369
#     4  10  21  42  71  95 130 165 206 252 315 391
#     4  11  24  40  62  96 125 165 204 255 317 370
#     4  10  23  39  61  92 129 165 208 268 308 374
#     4  10  22  42  68 100 126 166 208 255 313 377
#     4  11  24  41  64  88 125 167 211 260 311 374
#     4  10  21  39  56  84 118 159 210 259 318 366
#     4  10  22  36  59  83 112 159 210 267 313 368
#
# _framework density 26.879615000000001
#
# number of rings (size 3 to 8) (size 9 to 14) (size 15 to 20)
#    0.000    1.750    1.250    2.250    3.500    2.500 
#    2.250    3.125    0.000    8.250    0.000    0.000 
#    0.000    0.000    0.000    0.000    0.000    0.000 
#
# Total GULP energy -89559.992030 kJ/mol
# GULP energy per Si atom -5597.499502 kJ/mol
# Density = 2.681844 g / cm^3
# Si number density = 26.879615 Si / 1000 Ang^3
#
#
#
# Elastic Constant Matrix: (Units=GPa)
#
#
# Indices 1 2 3 4 5 6 
#
# 1 78.9027 7.3230 8.5469 2.1991 9.4519 9.5731
# 2 7.3230 68.1550 19.4253 -1.1453 13.1674 -3.9569
# 3 8.5469 19.4253 278.0856 -20.9432 24.4465 4.9806
# 4 2.1991 -1.1453 -20.9432 29.5325 -0.8046 -0.7696
# 5 9.4519 13.1674 24.4465 -0.8046 26.2854 -3.1284
# 6 9.5731 -3.9569 4.9806 -0.7696 -3.1284 33.9611
#
#
#
# Elastic Compliance Matrix: (Units=1/GPa)
#
#
# Indices 1 2 3 4 5 6 
#
# 1 0.013959 -0.000788 0.000075 -0.001279 -0.005275 -0.004553
# 2 -0.000788 0.016397 -0.000495 0.000185 -0.007282 0.001538
# 3 0.000075 -0.000495 0.004183 0.002815 -0.003699 -0.000969
# 4 -0.001279 0.000185 0.002815 0.035949 -0.001069 0.000685
# 5 -0.005275 -0.007282 -0.003699 -0.001069 0.047656 0.005547
# 6 -0.004553 0.001538 -0.000969 0.000685 0.005547 0.031577
#
#
# Mechanical properties :
#
#
# Convention : Reuss Voigt Hill
#
# Bulk Modulus (GPa) = 31.12930 55.08151 43.10541
# Shear Modulus (GPa) = 30.70441 43.94569 37.32505
#
# Velocity S-wave (km/s) = 3.38345 4.04779 3.73044
# Velocity P-wave (km/s) = 5.18361 6.51018 5.88440
#
# Compressibility (1/GPa) = 0.03212408
#
# Stress axis : x y z
#
# Youngs Moduli (GPa) = 71.63945 60.98550 239.07470
#
# Poissons Ratio (x) = 0.04804 -0.01793
# Poissons Ratio (y) = 0.05644 0.11825
# Poissons Ratio (z) = -0.00537 0.03017
#
# Static dielectric constant tensor:
#      x y z
#    x 2.108180 -0.057290 -0.030240 
#    y -0.057290 2.146540 0.041860 
#    z -0.030240 0.041860 2.160560 
# 
# From -- ./inp_files/356000.got.cif
#   From: 2010.05.17/outbox.cif.g08.bks.cpg/sg2_178_cif.got.tgz:356000.got - 2010.06.03 11:33:40.
