data_PCOD9006013
_publ_section_title
;
Structure prediction by ZEFSAII (Michael W. Deem and Ramdas Pophale) SiO2 
 PCOD9006013
Probable space group: P -1
;
_chemical_formula_sum "Si O2"
_cell_formula_units_Z 16
_cell_length_a 8.906237
_cell_length_b 5.708559
_cell_length_c 19.087894
_cell_angle_alpha 116.981529
_cell_angle_beta 83.855903
_cell_angle_gamma 60.709986
_cell_volume 683.358624
_symmetry_space_group_name_H-M "P -1"
_symmetry_group_IT_number 2
_symmetry_cell_setting 'triclinic'
loop_
_space_group_symop_operation_xyz
x,y,z
-x,-y,-z
loop_
_atom_site_type_symbol
_atom_site_label
_atom_site_fract_x
_atom_site_fract_y
_atom_site_fract_z
Si Si1 0.800554 0.128095 0.436699
Si Si2 0.854953 0.897856 0.562591
Si Si3 0.605352 0.248095 0.024643
Si Si4 0.607005 0.830422 0.751758
Si Si5 0.724408 0.294084 0.788781
Si Si6 0.471364 0.149959 0.399942
Si Si7 0.129542 0.479377 0.092658
Si Si8 0.216933 0.458732 0.920875
O O1 0.690082 0.999864 0.387643
O O2 0.652156 0.527898 0.500190
O O3 0.007073 0.035426 0.394154
O O4 0.829107 0.019488 0.501209
O O5 0.643201 0.009206 0.608426
O O6 0.000000 0.500000 0.500000
O O7 0.459621 0.425471 0.118650
O O8 0.778905 0.233420 0.044567
O O9 0.500000 0.500000 0.000000
O O10 0.694913 0.889015 0.942916
O O11 0.726961 0.972801 0.747922
O O12 0.419569 0.132566 0.842225
O O13 0.695942 0.506596 0.750683
O O14 0.555124 0.766776 0.669924
O O15 0.887130 0.242214 0.823252
O O16 0.938511 0.520322 0.113671
O O17 0.175877 0.464514 0.006178
#
# Coordination Sequence:
#
# PCOD9006013 Si02
#       8
#     2   2   2   2   2   2   2   2
#     4   9  19  38  67  94 126 161 214 259 310 378
#     4   9  18  36  62  99 123 155 208 260 308 375
#     4  11  19  35  61  87 111 158 208 266 311 373
#     4  11  25  43  58  91 126 170 203 261 315 386
#     4  11  23  40  61  85 123 163 213 252 320 380
#     4  10  21  38  64  92 125 170 209 258 320 382
#     4  11  20  37  60  86 116 158 212 267 310 371
#     4  10  22  36  57  87 119 155 208 264 319 367
#
# _framework density 23.413767
#
# number of rings (size 3 to 8) (size 9 to 14) (size 15 to 20)
#    0.000    1.750    2.500    2.625    1.750    0.000 
#    2.250    0.000    0.000    0.000    0.000    0.000 
#    0.000    0.000    0.000    0.000    0.000    0.000 
#
# Total GULP energy -89090.931243 kJ/mol
# GULP energy per Si atom -5568.183203 kJ/mol
# Density = 2.336048 g / cm^3
# Si number density = 23.413767 Si / 1000 Ang^3
#
#
#
# Elastic Constant Matrix: (Units=GPa)
#
#
# Indices 1 2 3 4 5 6 
#
# 1 195.1132 24.4853 33.9730 -0.2862 41.9130 21.1685
# 2 24.4853 57.7714 9.8977 -5.9140 -0.9814 13.7882
# 3 33.9730 9.8977 67.6818 -3.9891 18.7103 1.5265
# 4 -0.2862 -5.9140 -3.9891 26.7988 -7.9824 -1.6170
# 5 41.9130 -0.9814 18.7103 -7.9824 22.5014 -3.0614
# 6 21.1685 13.7882 1.5265 -1.6170 -3.0614 25.9912
#
#
#
# Elastic Compliance Matrix: (Units=1/GPa)
#
#
# Indices 1 2 3 4 5 6 
#
# 1 0.014497 -0.005107 0.003023 -0.012098 -0.035974 -0.014265
# 2 -0.005107 0.022714 -0.004819 0.009006 0.017020 -0.005042
# 3 0.003023 -0.004819 0.020883 -0.005920 -0.025926 -0.004555
# 4 -0.012098 0.009006 -0.005920 0.053731 0.048888 0.014525
# 5 -0.035974 0.017020 -0.025926 0.048888 0.156988 0.043325
# 6 -0.014265 -0.005042 -0.004555 0.014525 0.043325 0.059042
#
#
# Mechanical properties :
#
#
# Convention : Reuss Voigt Hill
#
# Bulk Modulus (GPa) = 22.57863 50.80871 36.69367
# Shear Modulus (GPa) = 14.02825 31.87229 22.95027
#
# Velocity S-wave (km/s) = 2.45040 3.69353 3.13422
# Velocity P-wave (km/s) = 4.20359 6.31958 5.36690
#
# Compressibility (1/GPa) = 0.04428967
#
# Stress axis : x y z
#
# Youngs Moduli (GPa) = 68.97821 44.02523 47.88562
#
# Poissons Ratio (x) = 0.22485 -0.14477
# Poissons Ratio (y) = 0.35229 0.23074
# Poissons Ratio (z) = -0.20854 0.21214
#
# Static dielectric constant tensor:
#      x y z
#    x 1.939880 0.002470 -0.036460 
#    y 0.002470 1.873200 -0.041410 
#    z -0.036460 -0.041410 1.880580 
# 
# From -- ./inp_files/52776.got.cif
#   From: 2010.05.17/outbox.cif.g08.bks.cpg/sg2_27_cif.got.tgz:52776.got - 2010.06.03 11:33:40.
