data_PCOD9006556
_publ_section_title
;
Structure prediction by ZEFSAII (Michael W. Deem and Ramdas Pophale) SiO2 
 PCOD9006556
Probable space group: P -1
;
_chemical_formula_sum "Si O2"
_cell_formula_units_Z 12
_cell_length_a 16.355496
_cell_length_b 24.672113
_cell_length_c 13.446516
_cell_angle_alpha 159.680535
_cell_angle_beta 152.321936
_cell_angle_gamma 17.071300
_cell_volume 549.968911
_symmetry_space_group_name_H-M "P -1"
_symmetry_group_IT_number 2
_symmetry_cell_setting 'triclinic'
loop_
_space_group_symop_operation_xyz
x,y,z
-x,-y,-z
loop_
_atom_site_type_symbol
_atom_site_label
_atom_site_fract_x
_atom_site_fract_y
_atom_site_fract_z
Si Si1 0.145320 0.279628 0.852920
Si Si2 0.340332 0.431509 0.448911
Si Si3 0.596695 0.498624 0.708554
Si Si4 0.274955 0.273483 0.275236
Si Si5 0.271104 0.035075 0.273142
Si Si6 0.688947 0.784675 0.548611
O O1 0.905762 0.354372 0.781671
O O2 0.352448 0.010742 0.563007
O O3 0.317020 0.280076 0.108800
O O4 0.000000 0.500000 0.000000
O O5 0.566381 0.386801 0.566120
O O6 0.365778 0.373866 0.493679
O O7 0.038902 0.718552 0.598724
O O8 0.500000 0.500000 0.500000
O O9 0.389098 0.786113 0.997754
O O10 0.285340 0.252229 0.368599
O O11 0.934790 0.505356 0.286715
O O12 0.500000 0.000000 0.000000
O O13 0.256654 0.087287 0.228942
O O14 0.500000 0.000000 0.500000
#
# Coordination Sequence:
#
# PCOD9006556 Si02
#       6
#     2   2   2   2   2   2
#     4  12  20  39  63  95 136 168 210 272 337 388
#     4  11  22  39  62  94 129 174 221 266 327 393
#     4  12  24  37  63  99 134 175 214 274 338 397
#     4  10  21  39  68  93 127 181 227 268 317 395
#     4  11  21  39  65  97 133 170 216 273 335 395
#     4  10  21  38  66  98 126 174 227 262 326 396
#
# _framework density 21.819414999999999
#
# number of rings (size 3 to 8) (size 9 to 14) (size 15 to 20)
#    0.000    1.000    6.667    0.500    0.000    0.000 
#    0.000    0.833    0.000    2.000    0.000    0.000 
#    0.000    0.000    0.000    0.000    0.000    0.000 
#
# Total GULP energy -66855.921681 kJ/mol
# GULP energy per Si atom -5571.326807 kJ/mol
# Density = 2.176975 g / cm^3
# Si number density = 21.819415 Si / 1000 Ang^3
#
#
#
# Elastic Constant Matrix: (Units=GPa)
#
#
# Indices 1 2 3 4 5 6 
#
# 1 155.3862 46.4507 40.0177 -2.4966 26.9827 -17.9316
# 2 46.4507 90.7391 48.7742 36.2510 9.5380 -29.2977
# 3 40.0177 48.7742 95.6579 13.7811 4.7814 -19.0194
# 4 -2.4966 36.2510 13.7811 46.0160 -13.0504 -4.4842
# 5 26.9827 9.5380 4.7814 -13.0504 44.2531 3.9337
# 6 -17.9316 -29.2977 -19.0194 -4.4842 3.9337 47.7324
#
#
#
# Elastic Compliance Matrix: (Units=1/GPa)
#
#
# Indices 1 2 3 4 5 6 
#
# 1 0.008942 -0.004831 -0.001613 0.003929 -0.003112 0.000377
# 2 -0.004831 0.035464 -0.008352 -0.028030 -0.013403 0.015096
# 3 -0.001613 -0.008352 0.014986 0.002573 0.001894 0.000325
# 4 0.003929 -0.028030 0.002573 0.047318 0.018369 -0.011772
# 5 -0.003112 -0.013403 0.001894 0.018369 0.033456 -0.009673
# 6 0.000377 0.015096 0.000325 -0.011772 -0.009673 0.030178
#
#
# Mechanical properties :
#
#
# Convention : Reuss Voigt Hill
#
# Bulk Modulus (GPa) = 33.55657 68.02982 50.79319
# Shear Modulus (GPa) = 23.82420 41.36968 32.59694
#
# Velocity S-wave (km/s) = 3.30795 4.35904 3.86935
# Velocity P-wave (km/s) = 5.47747 7.52205 6.57966
#
# Compressibility (1/GPa) = 0.02980043
#
# Stress axis : x y z
#
# Youngs Moduli (GPa) = 111.82905 28.19736 66.72716
#
# Poissons Ratio (x) = 0.13624 0.10763
# Poissons Ratio (y) = 0.54030 0.55729
# Poissons Ratio (z) = 0.18038 0.23550
#
# Static dielectric constant tensor:
#      x y z
#    x 2.139290 0.084390 -0.111390 
#    y 0.084390 1.868970 0.009910 
#    z -0.111390 0.009910 1.844550 
# 
# From -- ./inp_files/396713.got.cif
#   From: 2010.05.17/outbox.cif.g08.bks.cpg/sg2_199_cif.got.tgz:396713.got - 2010.06.03 11:33:40.
