data_PCOD9006330
_publ_section_title
;
Structure prediction by ZEFSAII (Michael W. Deem and Ramdas Pophale) SiO2 
 PCOD9006330
Probable space group: P -1
;
_chemical_formula_sum "Si O2"
_cell_formula_units_Z 16
_cell_length_a 5.523874
_cell_length_b 21.629800
_cell_length_c 8.056188
_cell_angle_alpha 55.235453
_cell_angle_beta 61.065568
_cell_angle_gamma 93.414715
_cell_volume 612.100948
_symmetry_space_group_name_H-M "P -1"
_symmetry_group_IT_number 2
_symmetry_cell_setting 'triclinic'
loop_
_space_group_symop_operation_xyz
x,y,z
-x,-y,-z
loop_
_atom_site_type_symbol
_atom_site_label
_atom_site_fract_x
_atom_site_fract_y
_atom_site_fract_z
Si Si1 0.136029 0.069291 0.210665
Si Si2 0.264492 0.617959 0.369462
Si Si3 0.276462 0.961677 0.937130
Si Si4 0.228527 0.488029 0.812139
Si Si5 0.406710 0.148115 0.615024
Si Si6 0.246364 0.672960 0.918566
Si Si7 0.749383 0.642567 0.589844
Si Si8 0.246441 0.232031 0.843788
O O1 0.479295 0.074579 0.079546
O O2 0.896702 0.043048 0.173743
O O3 0.123516 0.155175 0.130071
O O4 0.000000 0.000000 0.500000
O O5 0.224894 0.526901 0.571881
O O6 0.594576 0.687395 0.216367
O O7 0.046899 0.632946 0.555898
O O8 0.214259 0.641634 0.166372
O O9 0.450335 0.063708 0.755601
O O10 0.964559 0.899085 0.240540
O O11 0.557409 0.553974 0.684737
O O12 0.000000 0.500000 0.000000
O O13 0.073571 0.387569 0.982473
O O14 0.625033 0.225707 0.303782
O O15 0.422960 0.196812 0.710088
O O16 0.512809 0.651916 0.780186
O O17 0.901211 0.730656 0.298953
#
# Coordination Sequence:
#
# PCOD9006330 Si02
#       8
#     2   2   2   2   2   2   2   2
#     4  11  24  40  67  99 138 179 231 290 348 412
#     4  11  22  38  67  92 130 170 219 273 338 399
#     4  10  23  43  68  94 136 184 230 285 350 416
#     4   9  20  41  62  91 136 164 217 271 336 405
#     4   9  21  42  64  92 131 176 230 279 349 408
#     4  10  21  38  65  95 125 169 225 278 323 416
#     4   9  21  42  62  88 131 172 212 272 339 403
#     4   9  22  39  59  92 127 172 210 278 333 405
#
# _framework density 26.139478
#
# number of rings (size 3 to 8) (size 9 to 14) (size 15 to 20)
#    0.000    2.250    0.000    1.500    7.000    8.000 
#    0.000   10.000    0.000    0.000    0.000    0.000 
#    0.000    0.000    0.000    0.000    0.000    0.000 
#
# Total GULP energy -89093.564435 kJ/mol
# GULP energy per Si atom -5568.347777 kJ/mol
# Density = 2.607998 g / cm^3
# Si number density = 26.139478 Si / 1000 Ang^3
#
#
#
# Elastic Constant Matrix: (Units=GPa)
#
#
# Indices 1 2 3 4 5 6 
#
# 1 75.9115 42.3884 38.1823 -2.0386 13.3067 -13.4502
# 2 42.3884 101.4470 38.5742 -28.2160 -1.1185 -17.2897
# 3 38.1823 38.5742 156.3726 -37.7860 18.0898 -0.6941
# 4 -2.0386 -28.2160 -37.7860 46.7391 -2.2543 1.9920
# 5 13.3067 -1.1185 18.0898 -2.2543 28.8359 7.9377
# 6 -13.4502 -17.2897 -0.6941 1.9920 7.9377 33.2122
#
#
#
# Elastic Compliance Matrix: (Units=1/GPa)
#
#
# Indices 1 2 3 4 5 6 
#
# 1 0.023939 -0.009711 -0.004290 -0.009182 -0.011619 0.007877
# 2 -0.009711 0.017363 -0.000034 0.010135 0.005064 0.003287
# 3 -0.004290 -0.000034 0.009610 0.007464 -0.003121 -0.001256
# 4 -0.009182 0.010135 0.007464 0.033324 0.002817 -0.000959
# 5 -0.011619 0.005064 -0.003121 0.002817 0.046081 -0.013317
# 6 0.007877 0.003287 -0.001256 -0.000959 -0.013317 0.038225
#
#
# Mechanical properties :
#
#
# Convention : Reuss Voigt Hill
#
# Bulk Modulus (GPa) = 43.77774 63.55786 53.66780
# Shear Modulus (GPa) = 24.48256 36.06320 30.27288
#
# Velocity S-wave (km/s) = 3.06373 3.71839 3.40682
# Velocity P-wave (km/s) = 5.41289 6.54239 6.00426
#
# Compressibility (1/GPa) = 0.02284266
#
# Stress axis : x y z
#
# Youngs Moduli (GPa) = 41.77220 57.59379 104.05792
#
# Poissons Ratio (x) = 0.55931 0.44636
# Poissons Ratio (y) = 0.40566 0.00355
# Poissons Ratio (z) = 0.17918 0.00196
#
# Static dielectric constant tensor:
#      x y z
#    x 2.068670 -0.017090 -0.022830 
#    y -0.017090 2.126980 -0.016850 
#    z -0.022830 -0.016850 2.274220 
# 
# From -- ./inp_files/143107.got.cif
#   From: 2010.05.17/outbox.cif.g08.bks.cpg/sg2_72_cif.got.tgz:143107.got - 2010.06.03 11:33:40.
