data_PCOD9006070
_publ_section_title
;
Structure prediction by ZEFSAII (Michael W. Deem and Ramdas Pophale) SiO2 
 PCOD9006070
Probable space group: P -1
;
_chemical_formula_sum "Si O2"
_cell_formula_units_Z 14
_cell_length_a 15.755210
_cell_length_b 9.803399
_cell_length_c 9.071418
_cell_angle_alpha 42.890035
_cell_angle_beta 42.314126
_cell_angle_gamma 44.223300
_cell_volume 593.370290
_symmetry_space_group_name_H-M "P -1"
_symmetry_group_IT_number 2
_symmetry_cell_setting 'triclinic'
loop_
_space_group_symop_operation_xyz
x,y,z
-x,-y,-z
loop_
_atom_site_type_symbol
_atom_site_label
_atom_site_fract_x
_atom_site_fract_y
_atom_site_fract_z
Si Si1 0.778916 0.408394 0.170261
Si Si2 0.306641 0.919815 0.576010
Si Si3 0.914043 0.382444 0.616014
Si Si4 0.373593 0.324177 0.106897
Si Si5 0.485439 0.250323 0.316600
Si Si6 0.189106 0.405481 0.710214
Si Si7 0.923391 0.903193 0.029956
O O1 0.722661 0.216533 0.408902
O O2 0.816168 0.502520 0.194278
O O3 0.924210 0.277887 0.006595
O O4 0.661820 0.590602 0.081538
O O5 0.399204 0.753460 0.713293
O O6 0.171372 0.056964 0.734715
O O7 0.371711 0.083638 0.305116
O O8 0.762133 0.516461 0.762892
O O9 0.915503 0.434891 0.398858
O O10 0.000000 0.500000 0.500000
O O11 0.936654 0.129639 0.796820
O O12 0.489740 0.311089 0.089974
O O13 0.338731 0.369265 0.485164
O O14 0.500000 0.000000 0.500000
O O15 0.156696 0.187748 0.912472
#
# Coordination Sequence:
#
# PCOD9006070 Si02
#       7
#     2   2   2   2   2   2   2
#     4  12  26  38  61 102 133 163 205 267 333 369
#     4  11  22  41  69  92 125 170 223 260 303 379
#     4  11  22  39  67  95 122 169 221 253 308 384
#     4  10  21  38  64  95 120 169 214 262 308 374
#     4   9  19  43  68  87 122 172 221 262 299 373
#     4  11  25  43  61  97 136 161 207 273 318 371
#     4  12  23  40  68  94 126 172 209 258 317 386
#
# _framework density 23.594035000000002
#
# number of rings (size 3 to 8) (size 9 to 14) (size 15 to 20)
#    0.000    1.143    5.714    2.571    0.000    2.857 
#    0.000    2.857    0.000    0.000    0.000    0.000 
#    0.000    0.000    0.000    0.000    0.000    0.000 
#
# Total GULP energy -78118.702700 kJ/mol
# GULP energy per Si atom -5579.907336 kJ/mol
# Density = 2.354033 g / cm^3
# Si number density = 23.594035 Si / 1000 Ang^3
#
#
#
# Elastic Constant Matrix: (Units=GPa)
#
#
# Indices 1 2 3 4 5 6 
#
# 1 163.3423 46.8841 29.2607 -21.5280 -0.1637 42.9668
# 2 46.8841 65.2205 25.3497 -21.1591 4.8638 24.1891
# 3 29.2607 25.3497 58.5243 -27.6130 -1.9236 14.2011
# 4 -21.5280 -21.1591 -27.6130 31.7151 -0.2221 -9.3244
# 5 -0.1637 4.8638 -1.9236 -0.2221 38.7048 -3.0378
# 6 42.9668 24.1891 14.2011 -9.3244 -3.0378 58.4993
#
#
#
# Elastic Compliance Matrix: (Units=1/GPa)
#
#
# Indices 1 2 3 4 5 6 
#
# 1 0.008723 -0.003884 -0.001104 0.001090 0.000135 -0.004352
# 2 -0.003884 0.024636 -0.003060 0.009565 -0.003622 -0.005255
# 3 -0.001104 -0.003060 0.030331 0.023192 0.001903 -0.001491
# 4 0.001090 0.009565 0.023192 0.058539 0.000209 -0.001044
# 5 0.000135 -0.003622 0.001903 0.000209 0.026573 0.002350
# 6 -0.004352 -0.005255 -0.001491 -0.001044 0.002350 0.022781
#
#
# Mechanical properties :
#
#
# Convention : Reuss Voigt Hill
#
# Bulk Modulus (GPa) = 21.01080 54.45291 37.73186
# Shear Modulus (GPa) = 24.56455 38.15667 31.36061
#
# Velocity S-wave (km/s) = 3.23016 4.02583 3.64974
# Velocity P-wave (km/s) = 4.77874 6.68871 5.81271
#
# Compressibility (1/GPa) = 0.04759457
#
# Stress axis : x y z
#
# Youngs Moduli (GPa) = 114.63408 40.59070 32.96912
#
# Poissons Ratio (x) = 0.15765 0.03641
# Poissons Ratio (y) = 0.44521 0.10089
# Poissons Ratio (z) = 0.12660 0.12421
#
# Static dielectric constant tensor:
#      x y z
#    x 2.008870 -0.032050 0.032860 
#    y -0.032050 1.887800 -0.041040 
#    z 0.032860 -0.041040 2.114710 
# 
# From -- ./inp_files/291462.got.cif
#   From: 2010.05.17/outbox.cif.g08.bks.cpg/sg2_146_cif.got.tgz:291462.got - 2010.06.03 11:33:40.
