data_PCOD9006847
_publ_section_title
;
Structure prediction by ZEFSAII (Michael W. Deem and Ramdas Pophale) SiO2 
 PCOD9006847
Probable space group: P -1
;
_chemical_formula_sum "Si O2"
_cell_formula_units_Z 14
_cell_length_a 11.036260
_cell_length_b 8.676758
_cell_length_c 8.304704
_cell_angle_alpha 114.789247
_cell_angle_beta 114.990914
_cell_angle_gamma 63.619663
_cell_volume 618.918809
_symmetry_space_group_name_H-M "P -1"
_symmetry_group_IT_number 2
_symmetry_cell_setting 'triclinic'
loop_
_space_group_symop_operation_xyz
x,y,z
-x,-y,-z
loop_
_atom_site_type_symbol
_atom_site_label
_atom_site_fract_x
_atom_site_fract_y
_atom_site_fract_z
Si Si1 0.391025 0.960441 0.548816
Si Si2 0.445463 0.832691 0.869794
Si Si3 0.842368 0.201195 0.660891
Si Si4 0.696976 0.688618 0.127980
Si Si5 0.033653 0.613561 0.712430
Si Si6 0.149652 0.414500 0.131675
Si Si7 0.878071 0.076157 0.253385
O O1 0.319461 0.149897 0.685604
O O2 0.500000 0.000000 0.500000
O O3 0.453035 0.818786 0.671160
O O4 0.271862 0.885858 0.373272
O O5 0.284945 0.884545 0.861406
O O6 0.545257 0.681914 0.979324
O O7 0.500000 0.000000 0.000000
O O8 0.794838 0.416259 0.735461
O O9 0.865253 0.135732 0.460095
O O10 0.000414 0.115325 0.783647
O O11 0.818524 0.512758 0.181599
O O12 0.756107 0.721838 0.001765
O O13 0.060586 0.789653 0.746549
O O14 0.000000 0.500000 0.500000
O O15 0.893813 0.659623 0.763337
O O16 0.000000 0.500000 0.000000
#
# Coordination Sequence:
#
# PCOD9006847 Si02
#       7
#     2   2   2   2   2   2   2
#     4  10  22  44  70  97 123 179 230 261 317 400
#     4   9  21  40  63  91 134 174 208 265 341 377
#     4  10  21  41  69  94 132 166 222 272 322 390
#     4  10  23  43  64  90 144 167 205 281 333 385
#     4  11  21  39  66 102 127 168 224 271 320 390
#     4  10  23  40  63  99 136 168 202 272 352 370
#     4  10  21  38  70  96 123 174 224 264 316 390
#
# _framework density 22.620090999999999
#
# number of rings (size 3 to 8) (size 9 to 14) (size 15 to 20)
#    0.000    2.000    1.429    0.857   14.000    2.857 
#   12.857    4.286    0.000    0.000    0.000    0.000 
#    0.000    0.000    0.000    0.000    0.000    0.000 
#
# Total GULP energy -78035.616654 kJ/mol
# GULP energy per Si atom -5573.972618 kJ/mol
# Density = 2.256861 g / cm^3
# Si number density = 22.620091 Si / 1000 Ang^3
#
#
#
# Elastic Constant Matrix: (Units=GPa)
#
#
# Indices 1 2 3 4 5 6 
#
# 1 177.5061 48.1899 44.9947 12.3110 1.4841 19.6191
# 2 48.1899 77.3526 -1.6495 -0.1918 2.1969 3.6267
# 3 44.9947 -1.6495 35.2090 1.6783 5.8710 -1.0190
# 4 12.3110 -0.1918 1.6783 29.9153 -12.3090 7.7372
# 5 1.4841 2.1969 5.8710 -12.3090 46.0595 -6.2995
# 6 19.6191 3.6267 -1.0190 7.7372 -6.2995 40.7279
#
#
#
# Elastic Compliance Matrix: (Units=1/GPa)
#
#
# Indices 1 2 3 4 5 6 
#
# 1 0.012977 -0.008226 -0.017104 -0.002777 0.000686 -0.005313
# 2 -0.008226 0.018243 0.011564 0.001771 -0.001320 0.002087
# 3 -0.017104 0.011564 0.051961 -0.000087 -0.005599 0.007660
# 4 -0.002777 0.001771 -0.000087 0.039973 0.010033 -0.004864
# 5 0.000686 -0.001320 -0.005599 0.010033 0.025375 0.001666
# 6 -0.005313 0.002087 0.007660 -0.004864 0.001666 0.028300
#
#
# Mechanical properties :
#
#
# Convention : Reuss Voigt Hill
#
# Bulk Modulus (GPa) = 17.97042 52.57091 35.27066
# Shear Modulus (GPa) = 22.43029 36.57602 29.50316
#
# Velocity S-wave (km/s) = 3.15240 4.02552 3.61541
# Velocity P-wave (km/s) = 4.60563 6.70057 5.74933
#
# Compressibility (1/GPa) = 0.05564701
#
# Stress axis : x y z
#
# Youngs Moduli (GPa) = 77.06126 54.81437 19.24507
#
# Poissons Ratio (x) = 0.45092 0.32918
# Poissons Ratio (y) = 0.63393 -0.22254
# Poissons Ratio (z) = 1.31809 -0.63385
#
# Static dielectric constant tensor:
#      x y z
#    x 1.907890 -0.032170 0.005660 
#    y -0.032170 1.891870 -0.077940 
#    z 0.005660 -0.077940 1.912360 
# 
# From -- ./inp_files/240604.got.cif
#   From: 2010.05.17/outbox.cif.g08.bks.cpg/sg2_121_cif.got.tgz:240604.got - 2010.06.03 11:33:40.
