data_PCOD9006215
_publ_section_title
;
Structure prediction by ZEFSAII (Michael W. Deem and Ramdas Pophale) SiO2 
 PCOD9006215
Probable space group: P -1
;
_chemical_formula_sum "Si O2"
_cell_formula_units_Z 14
_cell_length_a 14.746563
_cell_length_b 8.760365
_cell_length_c 11.670189
_cell_angle_alpha 44.036651
_cell_angle_beta 125.752117
_cell_angle_gamma 93.674425
_cell_volume 659.807983
_symmetry_space_group_name_H-M "P -1"
_symmetry_group_IT_number 2
_symmetry_cell_setting 'triclinic'
loop_
_space_group_symop_operation_xyz
x,y,z
-x,-y,-z
loop_
_atom_site_type_symbol
_atom_site_label
_atom_site_fract_x
_atom_site_fract_y
_atom_site_fract_z
Si Si1 0.618383 0.521448 0.129451
Si Si2 0.792926 0.716674 0.640105
Si Si3 0.431283 0.096107 0.771040
Si Si4 0.344482 0.660886 0.480571
Si Si5 0.588465 0.699091 0.659640
Si Si6 0.844669 0.313019 0.221237
Si Si7 0.894936 0.750022 0.936521
O O1 0.636803 0.427884 0.324406
O O2 0.767530 0.355721 0.261283
O O3 0.500000 0.500000 0.000000
O O4 0.553719 0.848814 0.911101
O O5 0.702744 0.899712 0.362813
O O6 0.680689 0.699375 0.630003
O O7 0.836447 0.818558 0.723848
O O8 0.936477 0.424189 0.860212
O O9 0.366981 0.420233 0.550500
O O10 0.500000 0.000000 0.000000
O O11 0.470569 0.676729 0.540742
O O12 0.191520 0.972512 0.199740
O O13 0.500000 0.000000 0.500000
O O14 0.710679 0.429020 0.973244
O O15 0.873338 0.533674 0.091406
O O16 0.000000 0.000000 0.500000
#
# Coordination Sequence:
#
# PCOD9006215 Si02
#       7
#     2   2   2   2   2   2   2
#     4  11  22  39  66  89 126 166 211 270 317 367
#     4  10  21  38  65  89 130 163 216 263 319 372
#     4  10  24  40  62  96 128 169 215 260 327 387
#     4  11  22  39  65  90 128 170 215 260 322 381
#     4  11  20  38  63  97 123 163 224 267 306 381
#     4  11  24  36  63 101 128 158 214 276 320 366
#     4  10  23  40  65  95 126 167 217 268 316 380
#
# _framework density 21.218295999999999
#
# number of rings (size 3 to 8) (size 9 to 14) (size 15 to 20)
#    0.000    1.429    4.286    1.714    8.000    1.143 
#    0.000    0.000    0.000    2.571    0.000    0.000 
#    0.000    0.000    0.000    0.000    0.000    0.000 
#
# Total GULP energy -78024.240654 kJ/mol
# GULP energy per Si atom -5573.160047 kJ/mol
# Density = 2.117000 g / cm^3
# Si number density = 21.218296 Si / 1000 Ang^3
#
#
#
# Elastic Constant Matrix: (Units=GPa)
#
#
# Indices 1 2 3 4 5 6 
#
# 1 105.3075 30.4444 43.7063 -20.0911 26.6688 -14.6777
# 2 30.4444 105.7686 65.0951 -28.4111 14.3377 -1.8466
# 3 43.7063 65.0951 135.3199 -29.5800 25.5448 -2.1147
# 4 -20.0911 -28.4111 -29.5800 55.1794 -9.0453 -4.9697
# 5 26.6688 14.3377 25.5448 -9.0453 45.4369 -7.1080
# 6 -14.6777 -1.8466 -2.1147 -4.9697 -7.1080 18.5798
#
#
#
# Elastic Compliance Matrix: (Units=1/GPa)
#
#
# Indices 1 2 3 4 5 6 
#
# 1 0.013851 -0.000848 -0.002324 0.003547 -0.004301 0.009896
# 2 -0.000848 0.014337 -0.005738 0.004152 0.000230 0.001300
# 3 -0.002324 -0.005738 0.011930 0.001860 -0.003455 -0.001873
# 4 0.003547 0.004152 0.001860 0.023819 0.001954 0.010545
# 5 -0.004301 0.000230 -0.003455 0.001954 0.027958 0.007450
# 6 0.009896 0.001300 -0.001873 0.010545 0.007450 0.067227
#
#
# Mechanical properties :
#
#
# Convention : Reuss Voigt Hill
#
# Bulk Modulus (GPa) = 44.84661 69.43196 57.13928
# Shear Modulus (GPa) = 27.11863 37.64922 32.38392
#
# Velocity S-wave (km/s) = 3.57890 4.21690 3.91093
# Velocity P-wave (km/s) = 6.18545 7.51688 6.88343
#
# Compressibility (1/GPa) = 0.02229823
#
# Stress axis : x y z
#
# Youngs Moduli (GPa) = 72.19695 69.74854 83.81944
#
# Poissons Ratio (x) = 0.05915 0.19477
# Poissons Ratio (y) = 0.06123 0.48099
# Poissons Ratio (z) = 0.16776 0.40025
#
# Static dielectric constant tensor:
#      x y z
#    x 1.792990 -0.014430 -0.097490 
#    y -0.014430 1.814130 0.052010 
#    z -0.097490 0.052010 1.920360 
# 
# From -- ./inp_files/445558.got.cif
#   From: 2010.05.17/outbox.cif.g08.bks.cpg/sg2_223_cif.got.tgz:445558.got - 2010.06.03 11:33:40.
