data_PCOD9006186
_publ_section_title
;
Structure prediction by ZEFSAII (Michael W. Deem and Ramdas Pophale) SiO2 
 PCOD9006186
Probable space group: P -1
;
_chemical_formula_sum "Si O2"
_cell_formula_units_Z 16
_cell_length_a 14.542714
_cell_length_b 9.885175
_cell_length_c 9.862707
_cell_angle_alpha 56.102259
_cell_angle_beta 124.670673
_cell_angle_gamma 148.919471
_cell_volume 593.617867
_symmetry_space_group_name_H-M "P -1"
_symmetry_group_IT_number 2
_symmetry_cell_setting 'triclinic'
loop_
_space_group_symop_operation_xyz
x,y,z
-x,-y,-z
loop_
_atom_site_type_symbol
_atom_site_label
_atom_site_fract_x
_atom_site_fract_y
_atom_site_fract_z
Si Si1 0.433386 0.953228 0.318428
Si Si2 0.047100 0.446131 0.698250
Si Si3 0.362744 0.350263 0.667847
Si Si4 0.240885 0.147871 0.210834
Si Si5 0.501512 0.843693 0.182188
Si Si6 0.328468 0.486095 0.846628
Si Si7 0.858503 0.748182 0.708400
Si Si8 0.015347 0.415505 0.196128
O O1 0.132333 0.863230 0.236623
O O2 0.480462 0.193208 0.179840
O O3 0.500000 0.000000 0.500000
O O4 0.535525 0.947833 0.304217
O O5 0.193774 0.481170 0.761199
O O6 0.000000 0.500000 0.500000
O O7 0.101875 0.629436 0.763308
O O8 0.778388 0.336137 0.711953
O O9 0.572288 0.659630 0.656143
O O10 0.390330 0.187462 0.766783
O O11 0.305369 0.363733 0.755025
O O12 0.239479 0.275476 0.485066
O O13 0.101522 0.080869 0.233389
O O14 0.301330 0.330205 0.034164
O O15 0.292365 0.539220 0.185014
O O16 0.500000 0.000000 0.000000
O O17 0.009110 0.801065 0.743948
O O18 0.000000 0.500000 0.000000
#
# Coordination Sequence:
#
# PCOD9006186 Si02
#       8
#     2   2   2   2   2   2   2   2
#     4  11  23  44  76 110 143 189 247 301 351 427
#     4  12  27  47  70 102 143 191 242 301 365 431
#     4  11  23  43  71 103 140 183 236 296 355 427
#     4  11  24  46  69  98 140 188 236 300 363 430
#     4  10  21  38  65 108 144 178 230 298 357 415
#     4  12  25  44  69 104 140 187 243 295 355 428
#     4  10  22  43  69 100 137 185 237 289 352 427
#     4  11  25  47  73 107 149 193 237 298 364 427
#
# _framework density 26.953365000000002
#
# number of rings (size 3 to 8) (size 9 to 14) (size 15 to 20)
#    0.000    1.000    0.000    8.250    0.000    7.000 
#    0.000    7.500    0.000    0.000    0.000    0.000 
#    0.000    0.000    0.000    0.000    0.000    0.000 
#
# Total GULP energy -89823.312048 kJ/mol
# GULP energy per Si atom -5613.957003 kJ/mol
# Density = 2.689202 g / cm^3
# Si number density = 26.953365 Si / 1000 Ang^3
#
#
#
# Elastic Constant Matrix: (Units=GPa)
#
#
# Indices 1 2 3 4 5 6 
#
# 1 210.8408 32.7567 40.9685 -2.9967 -7.9439 -49.7009
# 2 32.7567 119.5678 -10.7290 -15.0970 -9.6287 -23.7408
# 3 40.9685 -10.7290 122.2931 -11.3115 -2.0978 -18.1915
# 4 -2.9967 -15.0970 -11.3115 45.4196 -14.4941 -6.4062
# 5 -7.9439 -9.6287 -2.0978 -14.4941 44.5008 6.3570
# 6 -49.7009 -23.7408 -18.1915 -6.4062 6.3570 64.4655
#
#
#
# Elastic Compliance Matrix: (Units=1/GPa)
#
#
# Indices 1 2 3 4 5 6 
#
# 1 0.006136 -0.000950 -0.001507 0.000393 0.000382 0.003957
# 2 -0.000950 0.010688 0.002470 0.005825 0.003567 0.004128
# 3 -0.001507 0.002470 0.009707 0.004051 0.001653 0.002726
# 4 0.000393 0.005825 0.004051 0.029011 0.010189 0.005470
# 5 0.000382 0.003567 0.001653 0.010189 0.026642 0.000460
# 6 0.003957 0.004128 0.002726 0.005470 0.000460 0.021351
#
#
# Mechanical properties :
#
#
# Convention : Reuss Voigt Hill
#
# Bulk Modulus (GPa) = 37.65643 64.29935 50.97789
# Shear Modulus (GPa) = 44.49868 56.85754 50.67811
#
# Velocity S-wave (km/s) = 4.06760 4.59789 4.34085
# Velocity P-wave (km/s) = 6.00514 7.21769 6.63915
#
# Compressibility (1/GPa) = 0.02655589
#
# Stress axis : x y z
#
# Youngs Moduli (GPa) = 162.96747 93.56503 103.01436
#
# Poissons Ratio (x) = 0.08891 0.15529
# Poissons Ratio (y) = 0.15486 -0.25444
# Poissons Ratio (z) = 0.24567 -0.23110
#
# Static dielectric constant tensor:
#      x y z
#    x 2.209720 0.038210 0.003160 
#    y 0.038210 2.093890 0.007000 
#    z 0.003160 0.007000 1.983670 
# 
# From -- ./inp_files/294585.got.cif
#   From: 2010.05.17/outbox.cif.g08.bks.cpg/sg2_148_cif.got.tgz:294585.got - 2010.06.03 11:33:40.
