data_PCOD9006566
_publ_section_title
;
Structure prediction by ZEFSAII (Michael W. Deem and Ramdas Pophale) SiO2 
 PCOD9006566
Probable space group: P -1
;
_chemical_formula_sum "Si O2"
_cell_formula_units_Z 14
_cell_length_a 14.586390
_cell_length_b 15.749504
_cell_length_c 20.748825
_cell_angle_alpha 16.821883
_cell_angle_beta 26.673068
_cell_angle_gamma 26.183167
_cell_volume 585.904743
_symmetry_space_group_name_H-M "P -1"
_symmetry_group_IT_number 2
_symmetry_cell_setting 'triclinic'
loop_
_space_group_symop_operation_xyz
x,y,z
-x,-y,-z
loop_
_atom_site_type_symbol
_atom_site_label
_atom_site_fract_x
_atom_site_fract_y
_atom_site_fract_z
Si Si1 0.218213 0.787567 0.486859
Si Si2 0.515318 0.687537 0.951506
Si Si3 0.889231 0.120720 0.720427
Si Si4 0.503475 0.502548 0.231583
Si Si5 0.329976 0.347583 0.632023
Si Si6 0.341214 0.177253 0.368669
Si Si7 0.287651 0.198449 0.026550
O O1 0.210537 0.480155 0.677788
O O2 0.420128 0.694334 0.476413
O O3 0.267003 0.998511 0.246476
O O4 0.000000 0.000000 0.500000
O O5 0.600705 0.571404 0.053246
O O6 0.411602 0.439851 0.168852
O O7 0.674375 0.736309 0.760654
O O8 0.338622 0.020602 0.834978
O O9 0.725236 0.231220 0.803080
O O10 0.775239 0.394217 0.542179
O O11 0.128318 0.136326 0.563716
O O12 0.888798 0.804191 0.914245
O O13 0.481935 0.163148 0.489425
O O14 0.661661 0.512293 0.184414
O O15 0.500000 0.000000 0.000000
#
# Coordination Sequence:
#
# PCOD9006566 Si02
#       7
#     2   2   2   2   2   2   2
#     4  10  21  38  66  99 128 172 220 262 323 402
#     4  11  24  46  69  92 132 178 221 277 328 376
#     4  10  23  42  66  97 133 172 216 269 335 391
#     4  11  22  45  66  93 133 173 216 278 326 387
#     4  10  21  40  64  95 135 166 208 278 322 383
#     4  11  26  46  64  97 132 173 229 274 320 387
#     4   9  20  37  62  94 131 164 206 262 336 383
#
# _framework density 23.894667999999999
#
# number of rings (size 3 to 8) (size 9 to 14) (size 15 to 20)
#    0.000    1.714    2.857    0.429    4.000    1.714 
#    5.143    0.000    0.000    0.000    0.000    0.000 
#    0.000    0.000    0.000    0.000    0.000    0.000 
#
# Total GULP energy -78198.122732 kJ/mol
# GULP energy per Si atom -5585.580195 kJ/mol
# Density = 2.384028 g / cm^3
# Si number density = 23.894668 Si / 1000 Ang^3
#
#
#
# Elastic Constant Matrix: (Units=GPa)
#
#
# Indices 1 2 3 4 5 6 
#
# 1 49.7731 37.9151 16.5218 -12.5974 6.3069 25.3073
# 2 37.9151 144.0171 20.6598 9.3344 -11.4559 19.5859
# 3 16.5218 20.6598 68.8829 -12.2325 -12.7130 27.6520
# 4 -12.5974 9.3344 -12.2325 40.1660 15.1435 -9.3219
# 5 6.3069 -11.4559 -12.7130 15.1435 45.1738 -2.3572
# 6 25.3073 19.5859 27.6520 -9.3219 -2.3572 35.7813
#
#
#
# Elastic Compliance Matrix: (Units=1/GPa)
#
#
# Indices 1 2 3 4 5 6 
#
# 1 0.048873 -0.012339 0.002703 0.019424 -0.017058 -0.025965
# 2 -0.012339 0.011368 -0.001396 -0.009362 0.007436 0.001634
# 3 0.002703 -0.001396 0.022528 0.002482 0.003855 -0.017657
# 4 0.019424 -0.009362 0.002482 0.040433 -0.018004 -0.001184
# 5 -0.017058 0.007436 0.003855 -0.018004 0.033657 0.002542
# 6 -0.025965 0.001634 -0.017657 -0.001184 0.002542 0.058921
#
#
# Mechanical properties :
#
#
# Convention : Reuss Voigt Hill
#
# Bulk Modulus (GPa) = 16.47325 45.87403 31.17364
# Shear Modulus (GPa) = 19.37373 36.72933 28.05153
#
# Velocity S-wave (km/s) = 2.85054 3.92488 3.43004
# Velocity P-wave (km/s) = 4.21227 6.30712 5.36297
#
# Compressibility (1/GPa) = 0.06070447
#
# Stress axis : x y z
#
# Youngs Moduli (GPa) = 20.46113 87.96270 44.38890
#
# Poissons Ratio (x) = 1.08539 -0.11998
# Poissons Ratio (y) = 0.25247 0.06198
# Poissons Ratio (z) = -0.05530 0.12282
#
# Static dielectric constant tensor:
#      x y z
#    x 1.788950 0.152300 -0.076590 
#    y 0.152300 1.795890 0.067610 
#    z -0.076590 0.067610 1.939720 
# 
# From -- ./inp_files/598079.got.cif
#   From: 2010.05.17/outbox.cif.g08.bks.cpg/sg2_300_cif.got.tgz:598079.got - 2010.06.03 11:33:40.
