data_PCOD9006517
_publ_section_title
;
Structure prediction by ZEFSAII (Michael W. Deem and Ramdas Pophale) SiO2 
 PCOD9006517
Probable space group: P -1
;
_chemical_formula_sum "Si O2"
_cell_formula_units_Z 16
_cell_length_a 10.361190
_cell_length_b 15.404843
_cell_length_c 10.564339
_cell_angle_alpha 79.918120
_cell_angle_beta 90.754711
_cell_angle_gamma 27.691477
_cell_volume 717.486632
_symmetry_space_group_name_H-M "P -1"
_symmetry_group_IT_number 2
_symmetry_cell_setting 'triclinic'
loop_
_space_group_symop_operation_xyz
x,y,z
-x,-y,-z
loop_
_atom_site_type_symbol
_atom_site_label
_atom_site_fract_x
_atom_site_fract_y
_atom_site_fract_z
Si Si1 0.594030 0.531015 0.923156
Si Si2 0.161112 0.778157 0.617560
Si Si3 0.215896 0.916809 0.925300
Si Si4 0.759720 0.863330 0.639294
Si Si5 0.782048 0.880776 0.080537
Si Si6 0.209532 0.254286 0.671144
Si Si7 0.146669 0.487581 0.661713
Si Si8 0.240646 0.828131 0.363345
O O1 0.413118 0.636753 0.761979
O O2 0.487406 0.683572 0.957468
O O3 0.941500 0.310240 0.957580
O O4 0.500000 0.500000 0.000000
O O5 0.295282 0.722721 0.498981
O O6 0.009272 0.776457 0.614215
O O7 0.886789 0.010185 0.599924
O O8 0.282089 0.975482 0.952899
O O9 0.023396 0.042100 0.762596
O O10 0.000000 0.000000 0.000000
O O11 0.949888 0.658710 0.719938
O O12 0.500000 0.000000 0.500000
O O13 0.562827 0.028447 0.703633
O O14 0.869065 0.784918 0.242789
O O15 0.500000 0.000000 0.000000
O O16 0.152037 0.380230 0.712643
O O17 0.024216 0.384337 0.506075
O O18 0.479645 0.317085 0.682326
#
# Coordination Sequence:
#
# PCOD9006517 Si02
#       8
#     2   2   2   2   2   2   2   2
#     4  11  25  48  74 102 141 186 237 291 353 421
#     4  10  22  41  67 101 136 179 231 292 347 406
#     4  11  26  47  74 103 140 186 237 290 351 427
#     4  10  22  36  61  95 136 177 218 277 342 416
#     4  12  29  47  73 100 140 185 236 298 349 420
#     4  10  23  43  60  95 141 168 226 275 352 399
#     4  10  21  38  66  94 133 180 211 281 343 417
#     4  10  22  40  69  98 134 175 235 287 343 413
#
# _framework density 22.300068
#
# number of rings (size 3 to 8) (size 9 to 14) (size 15 to 20)
#    0.000    1.500    2.500    0.750    8.750    2.000 
#    0.000    0.000    0.000    0.000    0.000    0.000 
#    0.000    0.000    0.000    0.000    0.000    0.000 
#
# Total GULP energy -89424.691916 kJ/mol
# GULP energy per Si atom -5589.043245 kJ/mol
# Density = 2.224931 g / cm^3
# Si number density = 22.300068 Si / 1000 Ang^3
#
#
#
# Elastic Constant Matrix: (Units=GPa)
#
#
# Indices 1 2 3 4 5 6 
#
# 1 154.1960 67.0459 17.6353 -5.6693 -1.8540 24.6039
# 2 67.0459 129.1441 10.4537 -21.2962 4.1442 16.8033
# 3 17.6353 10.4537 64.3847 -2.9750 -10.7850 7.5890
# 4 -5.6693 -21.2962 -2.9750 18.7593 -5.8152 -0.3805
# 5 -1.8540 4.1442 -10.7850 -5.8152 29.1677 -0.5024
# 6 24.6039 16.8033 7.5890 -0.3805 -0.5024 42.2656
#
#
#
# Elastic Compliance Matrix: (Units=1/GPa)
#
#
# Indices 1 2 3 4 5 6 
#
# 1 0.009081 -0.004643 -0.001472 -0.002801 0.000079 -0.003200
# 2 -0.004643 0.012551 0.000185 0.012998 0.000543 -0.002196
# 3 -0.001472 0.000185 0.017615 0.004778 0.007307 -0.002249
# 4 -0.002801 0.012998 0.004778 0.072268 0.014088 -0.003577
# 5 0.000079 0.000543 0.007307 0.014088 0.039706 -0.000975
# 6 -0.003200 -0.002196 -0.002249 -0.003577 -0.000975 0.026756
#
#
# Mechanical properties :
#
#
# Convention : Reuss Voigt Hill
#
# Bulk Modulus (GPa) = 36.51728 59.77718 48.14723
# Shear Modulus (GPa) = 25.12964 34.87785 30.00375
#
# Velocity S-wave (km/s) = 3.36055 3.95907 3.67202
# Velocity P-wave (km/s) = 5.60970 6.91107 6.29411
#
# Compressibility (1/GPa) = 0.02738430
#
# Stress axis : x y z
#
# Youngs Moduli (GPa) = 110.11677 79.67666 56.77025
#
# Poissons Ratio (x) = 0.36997 0.08359
# Poissons Ratio (y) = 0.51132 -0.01048
# Poissons Ratio (z) = 0.16214 -0.01471
#
# Static dielectric constant tensor:
#      x y z
#    x 1.910230 0.053900 -0.005990 
#    y 0.053900 1.799790 -0.000960 
#    z -0.005990 -0.000960 1.861350 
# 
# From -- ./inp_files/299748.got.cif
#   From: 2010.05.17/outbox.cif.g08.bks.cpg/sg2_150_cif.got.tgz:299748.got - 2010.06.03 11:33:40.
