data_PCOD9006580
_publ_section_title
;
Structure prediction by ZEFSAII (Michael W. Deem and Ramdas Pophale) SiO2 
 PCOD9006580
Probable space group: P -1
;
_chemical_formula_sum "Si O2"
_cell_formula_units_Z 16
_cell_length_a 23.643316
_cell_length_b 8.788237
_cell_length_c 9.498109
_cell_angle_alpha 56.043611
_cell_angle_beta 150.519178
_cell_angle_gamma 133.809972
_cell_volume 695.471570
_symmetry_space_group_name_H-M "P -1"
_symmetry_group_IT_number 2
_symmetry_cell_setting 'triclinic'
loop_
_space_group_symop_operation_xyz
x,y,z
-x,-y,-z
loop_
_atom_site_type_symbol
_atom_site_label
_atom_site_fract_x
_atom_site_fract_y
_atom_site_fract_z
Si Si1 0.909831 0.786208 0.827552
Si Si2 0.657211 0.499912 0.972136
Si Si3 0.029066 0.561920 0.366271
Si Si4 0.624004 0.479432 0.335568
Si Si5 0.411222 0.916478 0.642095
Si Si6 0.068818 0.220666 0.453898
Si Si7 0.678624 0.099180 0.259874
Si Si8 0.455400 0.660679 0.462535
O O1 0.753337 0.710035 0.521521
O O2 0.955375 0.800709 0.755338
O O3 0.925338 0.612534 0.040286
O O4 0.000000 0.000000 0.000000
O O5 0.533969 0.532992 0.701606
O O6 0.669239 0.471640 0.844893
O O7 0.775815 0.679288 0.224498
O O8 0.635945 0.278750 0.093201
O O9 0.033059 0.380270 0.375096
O O10 0.174835 0.775599 0.551146
O O11 0.000000 0.500000 0.500000
O O12 0.673322 0.336337 0.434065
O O13 0.584297 0.345676 0.461995
O O14 0.500000 0.500000 0.000000
O O15 0.339102 0.976608 0.578541
O O16 0.451757 0.101109 0.518467
O O17 0.556250 0.940701 0.980176
O O18 0.000000 0.000000 0.500000
#
# Coordination Sequence:
#
# PCOD9006580 Si02
#       8
#     2   2   2   2   2   2   2   2
#     4  12  29  47  70 108 145 194 246 293 364 433
#     4   9  20  40  65  95 132 173 227 277 351 407
#     4  11  25  46  73 103 145 193 240 302 360 432
#     4  12  26  43  67  96 146 178 233 295 354 418
#     4  10  21  39  65 102 127 181 225 290 348 421
#     4  11  24  45  72  99 142 190 238 290 358 431
#     4   9  20  40  68  92 137 170 231 279 357 413
#     4  10  21  38  67 100 133 174 230 287 353 416
#
# _framework density 23.005973000000001
#
# number of rings (size 3 to 8) (size 9 to 14) (size 15 to 20)
#    0.000    1.500    0.000    4.500    8.750    3.000 
#    2.250    0.000    0.000    0.000    0.000    0.000 
#    0.000    0.000    0.000    0.000    0.000    0.000 
#
# Total GULP energy -89227.049579 kJ/mol
# GULP energy per Si atom -5576.690599 kJ/mol
# Density = 2.295361 g / cm^3
# Si number density = 23.005973 Si / 1000 Ang^3
#
#
#
# Elastic Constant Matrix: (Units=GPa)
#
#
# Indices 1 2 3 4 5 6 
#
# 1 119.1906 14.2949 46.6599 -11.4854 -35.7429 22.6012
# 2 14.2949 75.3415 30.5008 13.3750 -9.0860 15.9857
# 3 46.6599 30.5008 112.0380 4.1112 -15.2420 5.3473
# 4 -11.4854 13.3750 4.1112 36.0490 6.0758 -2.2144
# 5 -35.7429 -9.0860 -15.2420 6.0758 46.9112 -0.1763
# 6 22.6012 15.9857 5.3473 -2.2144 -0.1763 31.3465
#
#
#
# Elastic Compliance Matrix: (Units=1/GPa)
#
#
# Indices 1 2 3 4 5 6 
#
# 1 0.015663 0.002456 -0.005321 0.002240 0.010348 -0.011422
# 2 0.002456 0.018947 -0.004719 -0.007218 0.004901 -0.011110
# 3 -0.005321 -0.004719 0.012144 -0.000928 -0.000887 0.004101
# 4 0.002240 -0.007218 -0.000928 0.032212 -0.004148 0.004476
# 5 0.010348 0.004901 -0.000887 -0.004148 0.030362 -0.009931
# 6 -0.011422 -0.011110 0.004101 0.004476 -0.009931 0.045363
#
#
# Mechanical properties :
#
#
# Convention : Reuss Voigt Hill
#
# Bulk Modulus (GPa) = 31.65976 54.38681 43.02328
# Shear Modulus (GPa) = 27.71798 37.20233 32.46015
#
# Velocity S-wave (km/s) = 3.47481 4.02565 3.76033
# Velocity P-wave (km/s) = 5.46722 6.73048 6.13147
#
# Compressibility (1/GPa) = 0.03158584
#
# Stress axis : x y z
#
# Youngs Moduli (GPa) = 63.84362 52.77864 82.34562
#
# Poissons Ratio (x) = -0.12962 0.43817
# Poissons Ratio (y) = -0.15680 0.38859
# Poissons Ratio (z) = 0.33972 0.24906
#
# Static dielectric constant tensor:
#      x y z
#    x 2.181710 -0.010650 -0.078170 
#    y -0.010650 1.913290 0.096620 
#    z -0.078170 0.096620 1.963840 
# 
# From -- ./inp_files/352128.got.cif
#   From: 2010.05.17/outbox.cif.g08.bks.cpg/sg2_177_cif.got.tgz:352128.got - 2010.06.03 11:33:40.
