data_PCOD9006942
_publ_section_title
;
Structure prediction by ZEFSAII (Michael W. Deem and Ramdas Pophale) SiO2 
 PCOD9006942
Probable space group: P -1
;
_chemical_formula_sum "Si O2"
_cell_formula_units_Z 16
_cell_length_a 13.877543
_cell_length_b 9.037867
_cell_length_c 14.668934
_cell_angle_alpha 105.936840
_cell_angle_beta 147.560297
_cell_angle_gamma 95.985764
_cell_volume 719.980630
_symmetry_space_group_name_H-M "P -1"
_symmetry_group_IT_number 2
_symmetry_cell_setting 'triclinic'
loop_
_space_group_symop_operation_xyz
x,y,z
-x,-y,-z
loop_
_atom_site_type_symbol
_atom_site_label
_atom_site_fract_x
_atom_site_fract_y
_atom_site_fract_z
Si Si1 0.568421 0.985117 0.728227
Si Si2 0.458585 0.678460 0.174762
Si Si3 0.171931 0.547449 0.286188
Si Si4 0.875503 0.030575 0.827158
Si Si5 0.016161 0.181015 0.227916
Si Si6 0.238511 0.487529 0.137428
Si Si7 0.232931 0.339919 0.800602
Si Si8 0.985292 0.889946 0.582332
O O1 0.316970 0.762456 0.486433
O O2 0.679211 0.020787 0.721424
O O3 0.555852 0.152399 0.779124
O O4 0.752409 0.007852 0.947623
O O5 0.717789 0.807003 0.360595
O O6 0.425799 0.560149 0.220577
O O7 0.252820 0.492805 0.913643
O O8 0.117130 0.379931 0.283752
O O9 0.931835 0.476826 0.036887
O O10 0.319577 0.574092 0.319130
O O11 0.829599 0.882956 0.686353
O O12 0.064971 0.250294 0.974101
O O13 0.000000 0.000000 0.000000
O O14 0.987088 0.181975 0.312435
O O15 0.037888 0.233306 0.545552
O O16 0.500000 0.500000 0.000000
O O17 0.166576 0.135315 0.757534
#
# Coordination Sequence:
#
# PCOD9006942 Si02
#       8
#     2   2   2   2   2   2   2   2
#     4  11  24  39  59  89 136 177 215 263 319 374
#     4  11  23  39  66  99 127 169 219 268 320 381
#     4  11  24  39  61  88 138 179 221 257 314 376
#     4  10  21  39  57  86 132 174 217 267 303 364
#     4  11  23  44  59  97 137 170 217 270 316 379
#     4  11  21  40  61  91 129 178 222 265 306 379
#     4   9  21  45  70  99 127 157 215 270 330 397
#     4  10  23  41  73  98 124 167 213 270 332 388
#
# _framework density 22.222819999999999
#
# number of rings (size 3 to 8) (size 9 to 14) (size 15 to 20)
#    0.000    1.500    3.750    1.500    5.250    5.500 
#    0.000    0.625    0.000    7.500    0.000    0.000 
#    0.000    0.000    0.000    0.000    0.000    0.000 
#
# Total GULP energy -89231.691683 kJ/mol
# GULP energy per Si atom -5576.980730 kJ/mol
# Density = 2.217224 g / cm^3
# Si number density = 22.222820 Si / 1000 Ang^3
#
#
#
# Elastic Constant Matrix: (Units=GPa)
#
#
# Indices 1 2 3 4 5 6 
#
# 1 59.4155 40.4659 38.4550 11.8648 -11.6142 24.5062
# 2 40.4659 99.2904 46.9020 28.0109 -26.3724 16.0418
# 3 38.4550 46.9020 134.5318 29.8171 -28.2475 9.0755
# 4 11.8648 28.0109 29.8171 39.6234 2.9205 -2.1071
# 5 -11.6142 -26.3724 -28.2475 2.9205 38.0991 -5.8967
# 6 24.5062 16.0418 9.0755 -2.1071 -5.8967 32.4478
#
#
#
# Elastic Compliance Matrix: (Units=1/GPa)
#
#
# Indices 1 2 3 4 5 6 
#
# 1 0.034700 -0.008488 -0.005987 -0.000783 -0.002913 -0.020917
# 2 -0.008488 0.021093 0.001370 -0.014562 0.013703 -0.002856
# 3 -0.005987 0.001370 0.012599 -0.009273 0.009396 0.001426
# 4 -0.000783 -0.014562 -0.009273 0.044675 -0.019100 0.009814
# 5 -0.002913 0.013703 0.009396 -0.019100 0.043183 -0.000595
# 6 -0.020917 -0.002856 0.001426 0.009814 -0.000595 0.048159
#
#
# Mechanical properties :
#
#
# Convention : Reuss Voigt Hill
#
# Bulk Modulus (GPa) = 23.70630 60.54261 42.12446
# Shear Modulus (GPa) = 20.43500 33.19505 26.81503
#
# Velocity S-wave (km/s) = 3.03570 3.86908 3.47745
# Velocity P-wave (km/s) = 4.79354 6.87476 5.92623
#
# Compressibility (1/GPa) = 0.04218287
#
# Stress axis : x y z
#
# Youngs Moduli (GPa) = 28.81820 47.40948 79.37251
#
# Poissons Ratio (x) = 0.40239 0.47520
# Poissons Ratio (y) = 0.24460 -0.10874
# Poissons Ratio (z) = 0.17253 -0.06495
#
# Static dielectric constant tensor:
#      x y z
#    x 1.997590 -0.033100 0.010050 
#    y -0.033100 1.832250 -0.050830 
#    z 0.010050 -0.050830 1.907890 
# 
# From -- ./inp_files/530005.got.cif
#   From: 2010.05.17/outbox.cif.g08.bks.cpg/sg2_266_cif.got.tgz:530005.got - 2010.06.03 11:33:40.
