data_PCOD9006386
_publ_section_title
;
Structure prediction by ZEFSAII (Michael W. Deem and Ramdas Pophale) SiO2 
 PCOD9006386
Probable space group: P -1
;
_chemical_formula_sum "Si O2"
_cell_formula_units_Z 10
_cell_length_a 5.255230
_cell_length_b 12.420415
_cell_length_c 10.434998
_cell_angle_alpha 129.534879
_cell_angle_beta 55.377444
_cell_angle_gamma 99.202634
_cell_volume 409.856585
_symmetry_space_group_name_H-M "P -1"
_symmetry_group_IT_number 2
_symmetry_cell_setting 'triclinic'
loop_
_space_group_symop_operation_xyz
x,y,z
-x,-y,-z
loop_
_atom_site_type_symbol
_atom_site_label
_atom_site_fract_x
_atom_site_fract_y
_atom_site_fract_z
Si Si1 0.794361 0.852104 0.770429
Si Si2 0.749484 0.085601 0.530517
Si Si3 0.753721 0.627420 0.993786
Si Si4 0.590700 0.335828 0.409886
Si Si5 0.375697 0.528724 0.848451
O O1 0.624130 0.747080 0.665788
O O2 0.039156 0.893573 0.633885
O O3 0.034314 0.767925 0.754274
O O4 0.500000 0.000000 0.000000
O O5 0.537248 0.236126 0.772270
O O6 0.500000 0.000000 0.500000
O O7 0.000000 0.000000 0.500000
O O8 0.761613 0.496522 0.992501
O O9 0.685165 0.576591 0.835049
O O10 0.099106 0.649790 0.940293
O O11 0.500000 0.500000 0.500000
O O12 0.468816 0.382511 0.626353
#
# Coordination Sequence:
#
# PCOD9006386 Si02
#       5
#     2   2   2   2   2
#     4  12  28  51  74 106 156 204 246 304 378 449
#     4  12  26  44  72 105 143 192 245 299 362 447
#     4  10  21  38  65  98 133 172 223 292 360 418
#     4  12  26  47  76 108 147 196 253 306 366 451
#     4  10  21  38  68  97 131 174 223 294 363 414
#
# _framework density 24.398781
#
# number of rings (size 3 to 8) (size 9 to 14) (size 15 to 20)
#    0.000    0.800    2.000    4.800    5.600    4.800 
#    0.000    0.000    0.000    0.000    0.000    0.000 
#    0.000    0.000    0.000    0.000    0.000    0.000 
#
# Total GULP energy -55925.779472 kJ/mol
# GULP energy per Si atom -5592.577947 kJ/mol
# Density = 2.434325 g / cm^3
# Si number density = 24.398781 Si / 1000 Ang^3
#
#
#
# Elastic Constant Matrix: (Units=GPa)
#
#
# Indices 1 2 3 4 5 6 
#
# 1 269.4548 75.5127 69.9855 29.7748 -3.4375 -11.0550
# 2 75.5127 113.8174 31.1238 16.7238 -9.5109 5.2297
# 3 69.9855 31.1238 157.6738 25.7942 -17.9130 0.3830
# 4 29.7748 16.7238 25.7942 26.6168 -5.2246 -5.1250
# 5 -3.4375 -9.5109 -17.9130 -5.2246 55.8780 17.2458
# 6 -11.0550 5.2297 0.3830 -5.1250 17.2458 47.2541
#
#
#
# Elastic Compliance Matrix: (Units=1/GPa)
#
#
# Indices 1 2 3 4 5 6 
#
# 1 0.005254 -0.002907 -0.001516 -0.002516 -0.001455 0.001821
# 2 -0.002907 0.011702 -0.000046 -0.004219 0.002428 -0.003318
# 3 -0.001516 -0.000046 0.008349 -0.006246 0.002625 -0.002053
# 4 -0.002516 -0.004219 -0.006246 0.050146 0.000176 0.005303
# 5 -0.001455 0.002428 0.002625 0.000176 0.021712 -0.008535
# 6 0.001821 -0.003318 -0.002053 0.005303 -0.008535 0.025662
#
#
# Mechanical properties :
#
#
# Convention : Reuss Voigt Hill
#
# Bulk Modulus (GPa) = 61.09345 99.35444 80.22394
# Shear Modulus (GPa) = 36.43825 50.23803 43.33814
#
# Velocity S-wave (km/s) = 3.86870 4.54259 4.21912
# Velocity P-wave (km/s) = 6.71191 8.26577 7.52903
#
# Compressibility (1/GPa) = 0.01636837
#
# Stress axis : x y z
#
# Youngs Moduli (GPa) = 190.33957 85.45416 119.77025
#
# Poissons Ratio (x) = 0.24837 0.18160
# Poissons Ratio (y) = 0.55322 0.00547
# Poissons Ratio (z) = 0.28861 0.00390
#
# Static dielectric constant tensor:
#      x y z
#    x 2.052590 0.022810 -0.046300 
#    y 0.022810 2.035080 -0.064220 
#    z -0.046300 -0.064220 1.939520 
# 
# From -- ./inp_files/362445.got.cif
#   From: 2010.05.17/outbox.cif.g08.bks.cpg/sg2_182_cif.got.tgz:362445.got - 2010.06.03 11:33:40.
