data_PCOD9006543
_publ_section_title
;
Structure prediction by ZEFSAII (Michael W. Deem and Ramdas Pophale) SiO2 
 PCOD9006543
Probable space group: P -1
;
_chemical_formula_sum "Si O2"
_cell_formula_units_Z 14
_cell_length_a 14.124815
_cell_length_b 11.957973
_cell_length_c 5.510904
_cell_angle_alpha 76.906768
_cell_angle_beta 125.478968
_cell_angle_gamma 124.424586
_cell_volume 618.052690
_symmetry_space_group_name_H-M "P -1"
_symmetry_group_IT_number 2
_symmetry_cell_setting 'triclinic'
loop_
_space_group_symop_operation_xyz
x,y,z
-x,-y,-z
loop_
_atom_site_type_symbol
_atom_site_label
_atom_site_fract_x
_atom_site_fract_y
_atom_site_fract_z
Si Si1 0.900061 0.638468 0.140606
Si Si2 0.590993 0.864790 0.632370
Si Si3 0.645383 0.094528 0.307483
Si Si4 0.778675 0.981516 0.236063
Si Si5 0.067959 0.731285 0.853573
Si Si6 0.850086 0.866878 0.784861
Si Si7 0.296559 0.680077 0.032689
O O1 0.969987 0.669389 0.497412
O O2 0.849689 0.738607 0.947270
O O3 0.775805 0.480356 0.025419
O O4 0.000553 0.666085 0.045778
O O5 0.714725 0.856655 0.701860
O O6 0.443614 0.754916 0.354045
O O7 0.620719 0.016689 0.558665
O O8 0.625413 0.870853 0.961814
O O9 0.756847 0.069194 0.361240
O O10 0.687130 0.246288 0.239566
O O11 0.500000 0.000000 0.000000
O O12 0.835216 0.893391 0.466435
O O13 0.878293 0.106838 0.143230
O O14 0.193120 0.709637 0.007918
O O15 0.000000 0.000000 0.000000
#
# Coordination Sequence:
#
# PCOD9006543 Si02
#       7
#     2   2   2   2   2   2   2
#     4  12  26  46  67 102 136 184 227 275 338 401
#     4  10  22  42  67 101 131 174 228 276 349 392
#     4   8  18  37  59  94 126 167 210 268 330 396
#     4  10  21  38  66  97 124 172 226 283 329 392
#     4  11  25  44  71  98 135 181 230 275 339 397
#     4  11  23  42  68  96 133 175 231 282 329 404
#     4  10  23  44  65  98 139 177 218 285 336 415
#
# _framework density 22.651789999999998
#
# number of rings (size 3 to 8) (size 9 to 14) (size 15 to 20)
#    0.000    1.714    1.429    1.714    6.000    6.857 
#   15.429    0.714    0.000    0.000    0.000    0.000 
#    0.000    0.000    0.000    0.000    0.000    0.000 
#
# Total GULP energy -78109.539706 kJ/mol
# GULP energy per Si atom -5579.252836 kJ/mol
# Density = 2.260023 g / cm^3
# Si number density = 22.651790 Si / 1000 Ang^3
#
#
#
# Elastic Constant Matrix: (Units=GPa)
#
#
# Indices 1 2 3 4 5 6 
#
# 1 88.0635 38.2369 29.4965 5.8128 21.3459 0.7685
# 2 38.2369 164.1978 72.0917 6.7250 25.7632 -10.7294
# 3 29.4965 72.0917 187.6445 12.5622 19.5159 -3.5985
# 4 5.8128 6.7250 12.5622 26.8028 -4.5648 3.3783
# 5 21.3459 25.7632 19.5159 -4.5648 30.4225 -3.8041
# 6 0.7685 -10.7294 -3.5985 3.3783 -3.8041 21.2484
#
#
#
# Elastic Compliance Matrix: (Units=1/GPa)
#
#
# Indices 1 2 3 4 5 6 
#
# 1 0.014870 -0.001779 -0.000453 -0.003863 -0.009542 -0.002607
# 2 -0.001779 0.008514 -0.002357 -0.001815 -0.004286 0.003486
# 3 -0.000453 -0.002357 0.006755 -0.002893 -0.002454 -0.000009
# 4 -0.003863 -0.001815 -0.002893 0.042713 0.011768 -0.005951
# 5 -0.009542 -0.004286 -0.002454 0.011768 0.047076 0.004322
# 6 -0.002607 0.003486 -0.000009 -0.005951 0.004322 0.050635
#
#
# Mechanical properties :
#
#
# Convention : Reuss Voigt Hill
#
# Bulk Modulus (GPa) = 47.70804 79.95066 63.82935
# Shear Modulus (GPa) = 26.77684 35.70013 31.23848
#
# Velocity S-wave (km/s) = 3.44191 3.97424 3.71762
# Velocity P-wave (km/s) = 6.07477 7.51210 6.83134
#
# Compressibility (1/GPa) = 0.02096083
#
# Stress axis : x y z
#
# Youngs Moduli (GPa) = 67.24832 117.45270 148.04172
#
# Poissons Ratio (x) = 0.20893 0.06707
# Poissons Ratio (y) = 0.11963 0.34898
# Poissons Ratio (z) = 0.03047 0.27687
#
# Static dielectric constant tensor:
#      x y z
#    x 2.010180 0.057410 -0.080340 
#    y 0.057410 1.825120 -0.021570 
#    z -0.080340 -0.021570 1.932550 
# 
# From -- ./inp_files/68338.got.cif
#   From: 2010.05.17/outbox.cif.g08.bks.cpg/sg2_35_cif.got.tgz:68338.got - 2010.06.03 11:33:40.
