data_PCOD9006759
_publ_section_title
;
Structure prediction by ZEFSAII (Michael W. Deem and Ramdas Pophale) SiO2 
 PCOD9006759
Probable space group: P -1
;
_chemical_formula_sum "Si O2"
_cell_formula_units_Z 14
_cell_length_a 14.731313
_cell_length_b 9.620715
_cell_length_c 12.824133
_cell_angle_alpha 46.186008
_cell_angle_beta 59.627766
_cell_angle_gamma 30.866717
_cell_volume 653.281068
_symmetry_space_group_name_H-M "P -1"
_symmetry_group_IT_number 2
_symmetry_cell_setting 'triclinic'
loop_
_space_group_symop_operation_xyz
x,y,z
-x,-y,-z
loop_
_atom_site_type_symbol
_atom_site_label
_atom_site_fract_x
_atom_site_fract_y
_atom_site_fract_z
Si Si1 0.063529 0.589482 0.852144
Si Si2 0.340391 0.195656 0.226919
Si Si3 0.984664 0.622378 0.333307
Si Si4 0.446255 0.455930 0.684360
Si Si5 0.759699 0.244677 0.553807
Si Si6 0.278328 0.262191 0.699033
Si Si7 0.797867 0.304977 0.121620
O O1 0.235831 0.296274 0.829201
O O2 0.105366 0.694618 0.854565
O O3 0.909420 0.890747 0.704929
O O4 0.000000 0.500000 0.000000
O O5 0.179401 0.336072 0.311536
O O6 0.434614 0.895391 0.252576
O O7 0.504312 0.040968 0.280363
O O8 0.255681 0.491261 0.053038
O O9 0.830605 0.737344 0.298889
O O10 0.000000 0.500000 0.500000
O O11 0.920934 0.937943 0.216716
O O12 0.567967 0.464400 0.601088
O O13 0.274652 0.732923 0.561412
O O14 0.379291 0.506035 0.811343
O O15 0.796620 0.414859 0.458210
#
# Coordination Sequence:
#
# PCOD9006759 Si02
#       7
#     2   2   2   2   2   2   2
#     4  12  24  40  71 108 138 178 234 289 349 414
#     4  11  25  48  72 100 148 178 237 289 349 420
#     4  12  29  47  71 101 146 188 233 286 355 415
#     4  10  22  40  74 104 131 180 235 293 345 403
#     4  10  21  38  68  97 142 171 234 279 347 399
#     4  11  25  46  71 100 139 190 230 286 347 417
#     4  12  25  45  71 105 139 183 228 292 354 407
#
# _framework density 21.430285999999999
#
# number of rings (size 3 to 8) (size 9 to 14) (size 15 to 20)
#    0.000    0.857    2.857    4.714   10.000    1.143 
#    2.571    0.000    0.000    0.000    0.000    0.000 
#    0.000    0.000    0.000    0.000    0.000    0.000 
#
# Total GULP energy -78358.443319 kJ/mol
# GULP energy per Si atom -5597.031666 kJ/mol
# Density = 2.138151 g / cm^3
# Si number density = 21.430286 Si / 1000 Ang^3
#
#
#
# Elastic Constant Matrix: (Units=GPa)
#
#
# Indices 1 2 3 4 5 6 
#
# 1 140.5194 31.5545 22.7264 1.6758 -10.1809 -6.1077
# 2 31.5545 84.4205 35.3611 5.6660 -1.5363 -6.9424
# 3 22.7264 35.3611 146.0366 -0.2767 -10.7922 -6.8592
# 4 1.6758 5.6660 -0.2767 34.3546 -9.1189 -9.0230
# 5 -10.1809 -1.5363 -10.7922 -9.1189 35.5124 -4.3043
# 6 -6.1077 -6.9424 -6.8592 -9.0230 -4.3043 32.8684
#
#
#
# Elastic Compliance Matrix: (Units=1/GPa)
#
#
# Indices 1 2 3 4 5 6 
#
# 1 0.008027 -0.002775 -0.000316 0.001132 0.002556 0.001485
# 2 -0.002775 0.014412 -0.003137 -0.002440 -0.001632 0.000990
# 3 -0.000316 -0.003137 0.007959 0.001842 0.002886 0.001823
# 4 0.001132 -0.002440 0.001842 0.035414 0.011239 0.011273
# 5 0.002556 -0.001632 0.002886 0.011239 0.033580 0.008215
# 6 0.001485 0.000990 0.001823 0.011273 0.008215 0.035460
#
#
# Mechanical properties :
#
#
# Convention : Reuss Voigt Hill
#
# Bulk Modulus (GPa) = 55.73654 61.14005 58.43829
# Shear Modulus (GPa) = 32.61808 39.30269 35.96039
#
# Velocity S-wave (km/s) = 3.90559 4.28714 4.10080
# Velocity P-wave (km/s) = 6.81197 7.28682 7.05339
#
# Compressibility (1/GPa) = 0.01794155
#
# Stress axis : x y z
#
# Youngs Moduli (GPa) = 124.57942 69.38641 125.64810
#
# Poissons Ratio (x) = 0.19256 0.03976
# Poissons Ratio (y) = 0.34572 0.39410
# Poissons Ratio (z) = 0.03942 0.21763
#
# Static dielectric constant tensor:
#      x y z
#    x 1.778350 -0.020420 -0.000990 
#    y -0.020420 1.823020 -0.012350 
#    z -0.000990 -0.012350 1.762750 
# 
# From -- ./inp_files/446783.got.cif
#   From: 2010.05.17/outbox.cif.g08.bks.cpg/sg2_224_cif.got.tgz:446783.got - 2010.06.03 11:33:40.
