data_PCOD9006254
_publ_section_title
;
Structure prediction by ZEFSAII (Michael W. Deem and Ramdas Pophale) SiO2 
 PCOD9006254
Probable space group: P -1
;
_chemical_formula_sum "Si O2"
_cell_formula_units_Z 14
_cell_length_a 8.671768
_cell_length_b 17.756172
_cell_length_c 10.428400
_cell_angle_alpha 148.843248
_cell_angle_beta 50.087076
_cell_angle_gamma 140.458065
_cell_volume 528.092308
_symmetry_space_group_name_H-M "P -1"
_symmetry_group_IT_number 2
_symmetry_cell_setting 'triclinic'
loop_
_space_group_symop_operation_xyz
x,y,z
-x,-y,-z
loop_
_atom_site_type_symbol
_atom_site_label
_atom_site_fract_x
_atom_site_fract_y
_atom_site_fract_z
Si Si1 0.677651 0.934880 0.291550
Si Si2 0.790754 0.067989 0.165411
Si Si3 0.320749 0.530109 0.808681
Si Si4 0.752322 0.633656 0.132780
Si Si5 0.982448 0.143174 0.910558
Si Si6 0.406928 0.658369 0.689379
Si Si7 0.499620 0.183010 0.377439
O O1 0.851106 0.935105 0.306779
O O2 0.500000 0.000000 0.500000
O O3 0.858990 0.058347 0.259651
O O4 0.502879 0.729920 0.049890
O O5 0.642273 0.158795 0.376292
O O6 0.993938 0.175934 0.105725
O O7 0.608182 0.859986 0.922583
O O8 0.179091 0.430846 0.870741
O O9 0.233838 0.552712 0.748346
O O10 0.459973 0.437830 0.561732
O O11 0.938341 0.715591 0.036313
O O12 0.681238 0.763100 0.409680
O O13 0.500000 0.500000 0.000000
O O14 0.697806 0.009304 0.850160
O O15 0.322683 0.685621 0.636680
#
# Coordination Sequence:
#
# PCOD9006254 Si02
#       7
#     2   2   2   2   2   2   2
#     4  11  22  37  62  90 125 162 205 252 306 365
#     4  10  21  38  65  92 121 159 208 256 301 360
#     4   9  18  34  56  84 118 162 195 243 306 355
#     4  11  21  36  60  88 129 166 198 247 311 365
#     4  11  21  38  62  93 120 161 210 248 304 365
#     4   8  16  33  60  85 113 156 202 246 301 349
#     4  10  21  39  67  91 120 160 208 256 300 362
#
# _framework density 26.510515999999999
#
# number of rings (size 3 to 8) (size 9 to 14) (size 15 to 20)
#    0.000    2.000    1.429    3.429    0.000    0.000 
#    0.000    0.714    3.143   29.143    0.000    0.000 
#    0.000    0.000    0.000    0.000    0.000    0.000 
#
# Total GULP energy -78110.661186 kJ/mol
# GULP energy per Si atom -5579.332942 kJ/mol
# Density = 2.645018 g / cm^3
# Si number density = 26.510516 Si / 1000 Ang^3
#
#
#
# Elastic Constant Matrix: (Units=GPa)
#
#
# Indices 1 2 3 4 5 6 
#
# 1 80.7419 45.8774 -8.9945 13.1727 -6.6270 -41.4190
# 2 45.8774 201.8073 15.6415 -17.0890 -6.4617 -68.0001
# 3 -8.9945 15.6415 67.4210 7.4929 -7.6127 5.6162
# 4 13.1727 -17.0890 7.4929 22.6636 -8.5820 -7.4172
# 5 -6.6270 -6.4617 -7.6127 -8.5820 20.6563 0.1381
# 6 -41.4190 -68.0001 5.6162 -7.4172 0.1381 65.9420
#
#
#
# Elastic Compliance Matrix: (Units=1/GPa)
#
#
# Indices 1 2 3 4 5 6 
#
# 1 0.021313 -0.003803 0.004817 -0.013767 0.001654 0.007503
# 2 -0.003803 0.013567 -0.006306 0.023228 0.010252 0.014730
# 3 0.004817 -0.006306 0.019319 -0.016214 0.000003 -0.006946
# 4 -0.013767 0.023228 -0.016214 0.098257 0.037512 0.027660
# 5 0.001654 0.010252 0.000003 0.037512 0.067630 0.015688
# 6 0.007503 0.014730 -0.006946 0.027660 0.015688 0.038737
#
#
# Mechanical properties :
#
#
# Convention : Reuss Voigt Hill
#
# Bulk Modulus (GPa) = 22.92744 50.55767 36.74255
# Shear Modulus (GPa) = 17.60899 41.68211 29.64555
#
# Velocity S-wave (km/s) = 2.58006 3.96951 3.34766
# Velocity P-wave (km/s) = 4.18841 6.33416 5.36956
#
# Compressibility (1/GPa) = 0.04361586
#
# Stress axis : x y z
#
# Youngs Moduli (GPa) = 46.91882 73.70753 51.76356
#
# Poissons Ratio (x) = 0.28033 -0.24937
# Poissons Ratio (y) = 0.17844 0.32641
# Poissons Ratio (z) = -0.22603 0.46479
#
# Static dielectric constant tensor:
#      x y z
#    x 1.745750 0.129330 -0.622010 
#    y 0.129330 2.074440 0.300740 
#    z -0.622010 0.300740 0.845760 
# 
# From -- ./inp_files/403518.got.cif
#   From: 2010.05.17/outbox.cif.g08.bks.cpg/sg2_202_cif.got.tgz:403518.got - 2010.06.03 11:33:40.
