data_PCOD9006636
_publ_section_title
;
Structure prediction by ZEFSAII (Michael W. Deem and Ramdas Pophale) SiO2 
 PCOD9006636
Probable space group: P -1
;
_chemical_formula_sum "Si O2"
_cell_formula_units_Z 16
_cell_length_a 11.583096
_cell_length_b 14.151666
_cell_length_c 8.780972
_cell_angle_alpha 52.906232
_cell_angle_beta 63.910763
_cell_angle_gamma 34.928393
_cell_volume 652.624346
_symmetry_space_group_name_H-M "P -1"
_symmetry_group_IT_number 2
_symmetry_cell_setting 'triclinic'
loop_
_space_group_symop_operation_xyz
x,y,z
-x,-y,-z
loop_
_atom_site_type_symbol
_atom_site_label
_atom_site_fract_x
_atom_site_fract_y
_atom_site_fract_z
Si Si1 0.562585 0.928524 0.860851
Si Si2 0.304692 0.729775 0.143677
Si Si3 0.395534 0.849393 0.484130
Si Si4 0.265466 0.446853 0.901918
Si Si5 0.913514 0.000921 0.267233
Si Si6 0.148443 0.216784 0.626388
Si Si7 0.626913 0.520072 0.471730
Si Si8 0.805136 0.557795 0.723904
O O1 0.660363 0.975603 0.685681
O O2 0.358354 0.054059 0.757514
O O3 0.500000 0.000000 0.000000
O O4 0.705573 0.712606 0.988229
O O5 0.510205 0.655983 0.106920
O O6 0.323982 0.575422 0.302373
O O7 0.145819 0.872228 0.233734
O O8 0.204340 0.831557 0.944109
O O9 0.496746 0.725931 0.393089
O O10 0.573613 0.715361 0.639855
O O11 0.200591 0.916017 0.587861
O O12 0.206542 0.557614 0.672743
O O13 0.164655 0.525468 0.048979
O O14 0.888697 0.884012 0.330992
O O15 0.164633 0.320660 0.407031
O O16 0.969922 0.385298 0.681102
O O17 0.500000 0.500000 0.500000
#
# Coordination Sequence:
#
# PCOD9006636 Si02
#       8
#     2   2   2   2   2   2   2   2
#     4  11  21  38  65  89 124 160 194 254 308 365
#     4  10  22  40  60  87 124 163 199 254 298 350
#     4  11  21  39  67  92 115 163 208 248 309 362
#     4  11  20  43  62  91 126 162 203 245 309 365
#     4  11  21  39  64  94 121 157 206 261 296 354
#     4  10  21  39  62  94 128 149 204 261 302 354
#     4  10  23  41  57  84 128 164 200 246 296 366
#     4  10  21  38  67  94 119 160 201 256 307 359
#
# _framework density 24.516401999999999
#
# number of rings (size 3 to 8) (size 9 to 14) (size 15 to 20)
#    0.000    1.500    3.750    1.500    0.000    2.500 
#   11.250    3.125    0.000    0.000    0.000    0.000 
#    0.000    0.000    0.000    0.000    0.000    0.000 
#
# Total GULP energy -89394.711986 kJ/mol
# GULP energy per Si atom -5587.169499 kJ/mol
# Density = 2.446060 g / cm^3
# Si number density = 24.516402 Si / 1000 Ang^3
#
#
#
# Elastic Constant Matrix: (Units=GPa)
#
#
# Indices 1 2 3 4 5 6 
#
# 1 55.7678 -3.1438 16.2277 -4.1205 -1.5196 -1.0689
# 2 -3.1438 34.1868 30.5147 7.7222 -5.2911 9.2674
# 3 16.2277 30.5147 171.9601 3.5664 -19.1917 6.9337
# 4 -4.1205 7.7222 3.5664 53.0749 -2.0414 -6.9854
# 5 -1.5196 -5.2911 -19.1917 -2.0414 19.4213 1.6782
# 6 -1.0689 9.2674 6.9337 -6.9854 1.6782 28.5005
#
#
#
# Elastic Compliance Matrix: (Units=1/GPa)
#
#
# Indices 1 2 3 4 5 6 
#
# 1 0.018943 0.003564 -0.002448 0.001178 0.000120 0.000429
# 2 0.003564 0.041453 -0.006347 -0.006928 0.005768 -0.013839
# 3 -0.002448 -0.006347 0.007827 0.000410 0.005872 -0.000177
# 4 0.001178 -0.006928 0.000410 0.020881 0.000174 0.007305
# 5 0.000120 0.005768 0.005872 0.000174 0.059475 -0.006759
# 6 0.000429 -0.013839 -0.000177 0.007305 -0.006759 0.041835
#
#
# Mechanical properties :
#
#
# Convention : Reuss Voigt Hill
#
# Bulk Modulus (GPa) = 17.31301 38.79021 28.05161
# Shear Modulus (GPa) = 22.71383 34.75375 28.73379
#
# Velocity S-wave (km/s) = 3.04711 3.76915 3.42720
# Velocity P-wave (km/s) = 4.41100 5.89902 5.20843
#
# Compressibility (1/GPa) = 0.05776004
#
# Stress axis : x y z
#
# Youngs Moduli (GPa) = 52.78900 24.12378 127.76969
#
# Poissons Ratio (x) = -0.08597 0.31282
# Poissons Ratio (y) = -0.18813 0.81093
# Poissons Ratio (z) = 0.12925 0.15311
#
# Static dielectric constant tensor:
#      x y z
#    x 1.989040 -0.068520 0.090910 
#    y -0.068520 1.993450 -0.051040 
#    z 0.090910 -0.051040 2.004470 
# 
# From -- ./inp_files/205571.got.cif
#   From: 2010.05.17/outbox.cif.g08.bks.cpg/sg2_103_cif.got.tgz:205571.got - 2010.06.03 11:33:40.
