data_PCOD9006731
_publ_section_title
;
Structure prediction by ZEFSAII (Michael W. Deem and Ramdas Pophale) SiO2 
 PCOD9006731
Probable space group: P -1
;
_chemical_formula_sum "Si O2"
_cell_formula_units_Z 16
_cell_length_a 8.543125
_cell_length_b 13.908288
_cell_length_c 8.616704
_cell_angle_alpha 61.439106
_cell_angle_beta 56.437686
_cell_angle_gamma 62.881109
_cell_volume 723.216267
_symmetry_space_group_name_H-M "P -1"
_symmetry_group_IT_number 2
_symmetry_cell_setting 'triclinic'
loop_
_space_group_symop_operation_xyz
x,y,z
-x,-y,-z
loop_
_atom_site_type_symbol
_atom_site_label
_atom_site_fract_x
_atom_site_fract_y
_atom_site_fract_z
Si Si1 0.794594 0.824348 0.350873
Si Si2 0.258012 0.943875 0.471239
Si Si3 0.016156 0.815452 0.533422
Si Si4 0.581629 0.163603 0.240902
Si Si5 0.866412 0.435347 0.218594
Si Si6 0.926438 0.582215 0.333723
Si Si7 0.385887 0.005256 0.896703
Si Si8 0.669069 0.402238 0.056006
O O1 0.980949 0.815609 0.368888
O O2 0.627926 0.840135 0.568945
O O3 0.807755 0.906784 0.131532
O O4 0.801379 0.703288 0.365785
O O5 0.252863 0.916277 0.677095
O O6 0.479240 0.938747 0.326937
O O7 0.206924 0.850418 0.461058
O O8 0.137484 0.071753 0.399882
O O9 0.018631 0.692681 0.694741
O O10 0.600300 0.115742 0.093605
O O11 0.612641 0.286381 0.145681
O O12 0.814065 0.515317 0.334771
O O13 0.695885 0.423347 0.207407
O O14 0.000000 0.500000 0.000000
O O15 0.121000 0.600815 0.130890
O O16 0.000000 0.500000 0.500000
O O17 0.500000 0.000000 0.000000
O O18 0.500000 0.500000 0.000000
#
# Coordination Sequence:
#
# PCOD9006731 Si02
#       8
#     2   2   2   2   2   2   2   2
#     4  11  22  41  68  90 126 175 211 259 321 381
#     4  10  21  38  68  93 123 170 216 257 326 380
#     4  11  19  38  68  94 122 164 217 263 313 380
#     4  11  21  44  65  93 127 174 214 258 321 393
#     4  10  23  40  63  94 127 165 214 263 319 378
#     4  11  23  42  65  94 127 168 216 265 322 380
#     4  11  24  41  61  96 132 167 208 267 319 384
#     4  11  25  42  65  94 128 170 213 267 322 384
#
# _framework density 22.123397000000001
#
# number of rings (size 3 to 8) (size 9 to 14) (size 15 to 20)
#    0.000    1.250    5.000    1.500    1.750    4.000 
#    0.000    5.000    0.000    0.000    0.000    0.000 
#    0.000    0.000    0.000    0.000    0.000    0.000 
#
# Total GULP energy -89097.649890 kJ/mol
# GULP energy per Si atom -5568.603118 kJ/mol
# Density = 2.207304 g / cm^3
# Si number density = 22.123397 Si / 1000 Ang^3
#
#
#
# Elastic Constant Matrix: (Units=GPa)
#
#
# Indices 1 2 3 4 5 6 
#
# 1 73.4627 35.6270 23.4449 -2.0796 35.3409 38.1203
# 2 35.6270 141.3026 32.7073 -9.6624 33.6351 33.7933
# 3 23.4449 32.7073 51.7242 -4.9924 28.1952 12.3084
# 4 -2.0796 -9.6624 -4.9924 28.6470 5.3440 7.6190
# 5 35.3409 33.6351 28.1952 5.3440 52.0223 6.8603
# 6 38.1203 33.7933 12.3084 7.6190 6.8603 50.9001
#
#
#
# Elastic Compliance Matrix: (Units=1/GPa)
#
#
# Indices 1 2 3 4 5 6 
#
# 1 0.048652 0.006866 0.006696 0.025115 -0.038264 -0.041216
# 2 0.006866 0.011956 -0.000324 0.010073 -0.011545 -0.012953
# 3 0.006696 -0.000324 0.032385 0.013176 -0.021705 -0.011678
# 4 0.025115 0.010073 0.013176 0.057191 -0.032252 -0.032897
# 5 -0.038264 -0.011545 -0.021705 -0.032252 0.062756 0.037941
# 6 -0.041216 -0.012953 -0.011678 -0.032897 0.037941 0.061749
#
#
# Mechanical properties :
#
#
# Convention : Reuss Voigt Hill
#
# Bulk Modulus (GPa) = 8.37035 50.00533 29.18784
# Shear Modulus (GPa) = 17.35903 37.96122 27.66012
#
# Velocity S-wave (km/s) = 2.80419 4.14682 3.53975
# Velocity P-wave (km/s) = 3.77841 6.75131 5.47067
#
# Compressibility (1/GPa) = 0.11946925
#
# Stress axis : x y z
#
# Youngs Moduli (GPa) = 20.55419 83.64182 30.87816
#
# Poissons Ratio (x) = -0.57430 -0.20677
# Poissons Ratio (y) = -0.14113 0.01001
# Poissons Ratio (z) = -0.13763 0.02712
#
# Static dielectric constant tensor:
#      x y z
#    x 2.739050 -0.403210 0.231970 
#    y -0.403210 1.977550 -0.065640 
#    z 0.231970 -0.065640 1.890870 
# 
# From -- ./inp_files/176055.got.cif
#   From: 2010.05.17/outbox.cif.g08.bks.cpg/sg2_89_cif.got.tgz:176055.got - 2010.06.03 11:33:40.
