data_PCOD9006672
_publ_section_title
;
Structure prediction by ZEFSAII (Michael W. Deem and Ramdas Pophale) SiO2 
 PCOD9006672
Probable space group: P -1
;
_chemical_formula_sum "Si O2"
_cell_formula_units_Z 15
_cell_length_a 4.922574
_cell_length_b 8.302862
_cell_length_c 13.637643
_cell_angle_alpha 93.554898
_cell_angle_beta 67.886568
_cell_angle_gamma 92.852731
_cell_volume 515.184714
_symmetry_space_group_name_H-M "P -1"
_symmetry_group_IT_number 2
_symmetry_cell_setting 'triclinic'
loop_
_space_group_symop_operation_xyz
x,y,z
-x,-y,-z
loop_
_atom_site_type_symbol
_atom_site_label
_atom_site_fract_x
_atom_site_fract_y
_atom_site_fract_z
Si Si1 0.669356 0.394674 0.653248
Si Si2 0.300492 0.194030 0.828818
Si Si3 0.212896 0.076092 0.259387
Si Si4 0.519591 0.691388 0.604237
Si Si5 0.500000 0.500000 0.000000
Si Si6 0.373362 0.817355 0.028247
Si Si7 0.137826 0.119568 0.567256
Si Si8 0.913763 0.620777 0.798630
O O1 0.375834 0.300255 0.727193
O O2 0.656757 0.515640 0.568810
O O3 0.743934 0.509298 0.738665
O O4 0.919764 0.267075 0.605074
O O5 0.437048 0.274736 0.914183
O O6 0.961120 0.158748 0.891866
O O7 0.515345 0.041598 0.790169
O O8 0.293349 0.199204 0.340501
O O9 0.161061 0.189141 0.178728
O O10 0.919490 0.977109 0.328009
O O11 0.550306 0.802712 0.506733
O O12 0.225413 0.646393 0.700989
O O13 0.380562 0.659295 0.953176
O O14 0.166080 0.470178 0.094494
O O15 0.500000 0.000000 0.000000
O O16 0.000000 0.000000 0.500000
#
# Coordination Sequence:
#
# PCOD9006672 Si02
#       8
#     2   2   2   2   1   2   2   2
#     4  10  21  41  64  93 138 173 228 286 358 427
#     4  11  24  46  67 100 138 188 233 298 363 424
#     4   9  22  40  67  94 139 174 226 291 355 432
#     4  10  21  38  67  97 131 181 224 288 361 429
#     4  12  26  46  68 100 144 190 248 302 354 426
#     4  12  27  46  71 103 140 186 250 304 362 423
#     4   9  19  40  64  98 130 175 224 288 358 442
#     4  11  23  42  63  97 132 182 235 291 358 419
#
# _framework density 29.115769
#
# number of rings (size 3 to 8) (size 9 to 14) (size 15 to 20)
#    0.000    1.600    1.333    2.400    3.733    1.600 
#    2.400    0.000    0.000    0.000    0.000    0.000 
#    0.000    0.000    0.000    0.000    0.000    0.000 
#
# Total GULP energy -83735.315999 kJ/mol
# GULP energy per Si atom -5582.354400 kJ/mol
# Density = 2.904950 g / cm^3
# Si number density = 29.115769 Si / 1000 Ang^3
#
#
#
# Elastic Constant Matrix: (Units=GPa)
#
#
# Indices 1 2 3 4 5 6 
#
# 1 87.7848 22.9444 44.1739 -20.7263 -27.9991 19.3023
# 2 22.9444 154.7129 78.9977 -32.6752 -31.3304 1.2665
# 3 44.1739 78.9977 177.6190 -66.7346 -41.0748 -1.3286
# 4 -20.7263 -32.6752 -66.7346 95.5242 14.6247 -9.0880
# 5 -27.9991 -31.3304 -41.0748 14.6247 57.9763 -3.1735
# 6 19.3023 1.2665 -1.3286 -9.0880 -3.1735 45.8858
#
#
#
# Elastic Compliance Matrix: (Units=1/GPa)
#
#
# Indices 1 2 3 4 5 6 
#
# 1 0.015910 0.000259 -0.002807 0.000138 0.005451 -0.006377
# 2 0.000259 0.008632 -0.003203 0.000383 0.002413 -0.000197
# 3 -0.002807 -0.003203 0.010560 0.005460 0.003175 0.002876
# 4 0.000138 0.000383 0.005460 0.014638 0.000615 0.003031
# 5 0.005451 0.002413 0.003175 0.000615 0.023249 -0.000538
# 6 -0.006377 -0.000197 0.002876 0.003031 -0.000538 0.025128
#
#
# Mechanical properties :
#
#
# Convention : Reuss Voigt Hill
#
# Bulk Modulus (GPa) = 42.37466 79.14988 60.76227
# Shear Modulus (GPa) = 42.55845 58.14397 50.35121
#
# Velocity S-wave (km/s) = 3.82736 4.47362 4.16305
# Velocity P-wave (km/s) = 5.84098 7.34356 6.63494
#
# Compressibility (1/GPa) = 0.02359901
#
# Stress axis : x y z
#
# Youngs Moduli (GPa) = 62.85498 115.85014 94.69697
#
# Poissons Ratio (x) = -0.03002 0.26584
# Poissons Ratio (y) = -0.01629 0.30333
# Poissons Ratio (z) = 0.17645 0.37108
#
# Static dielectric constant tensor:
#      x y z
#    x 2.246060 -0.266590 -0.155350 
#    y -0.266590 1.812520 -0.192250 
#    z -0.155350 -0.192250 2.271140 
# 
# From -- ./inp_files/35519.got.cif
#   From: 2010.05.17/outbox.cif.g08.bks.cpg/sg2_18_cif.got.tgz:35519.got - 2010.06.03 11:33:40.
