data_PCOD9006763
_publ_section_title
;
Structure prediction by ZEFSAII (Michael W. Deem and Ramdas Pophale) SiO2 
 PCOD9006763
Probable space group: P -1
;
_chemical_formula_sum "Si O2"
_cell_formula_units_Z 14
_cell_length_a 7.870901
_cell_length_b 13.907575
_cell_length_c 9.651522
_cell_angle_alpha 105.855002
_cell_angle_beta 76.723589
_cell_angle_gamma 50.950500
_cell_volume 665.412998
_symmetry_space_group_name_H-M "P -1"
_symmetry_group_IT_number 2
_symmetry_cell_setting 'triclinic'
loop_
_space_group_symop_operation_xyz
x,y,z
-x,-y,-z
loop_
_atom_site_type_symbol
_atom_site_label
_atom_site_fract_x
_atom_site_fract_y
_atom_site_fract_z
Si Si1 0.107019 0.358909 0.000183
Si Si2 0.025649 0.554964 0.652611
Si Si3 0.103030 0.162968 0.270418
Si Si4 0.022157 0.102659 0.974784
Si Si5 0.428169 0.618056 0.452909
Si Si6 0.389671 0.571662 0.898566
Si Si7 0.419744 0.049888 0.695102
O O1 0.305312 0.209046 0.814552
O O2 0.000000 0.500000 0.000000
O O3 0.166689 0.371821 0.150151
O O4 0.865416 0.385934 0.067590
O O5 0.320988 0.417244 0.599957
O O6 0.000000 0.500000 0.500000
O O7 0.974860 0.688815 0.666232
O O8 0.841489 0.217955 0.391778
O O9 0.332027 0.058976 0.294476
O O10 0.148974 0.107840 0.083806
O O11 0.210338 0.055347 0.792629
O O12 0.733050 0.268395 0.054779
O O13 0.000000 0.000000 0.000000
O O14 0.500000 0.500000 0.500000
O O15 0.401972 0.565562 0.297070
O O16 0.500000 0.500000 0.000000
O O17 0.500000 0.000000 0.500000
#
# Coordination Sequence:
#
# PCOD9006763 Si02
#       7
#     2   2   2   2   2   2   2
#     4  10  23  43  62  98 137 173 237 286 346 422
#     4  10  21  38  68  98 129 178 236 282 346 411
#     4  11  22  44  65  94 144 174 228 299 341 426
#     4  11  24  46  70 101 136 190 238 285 354 426
#     4   9  18  38  61  95 125 171 222 280 342 410
#     4  10  21  40  66  94 137 174 226 295 348 409
#     4  11  26  46  70 102 143 188 229 294 363 417
#
# _framework density 21.039563000000001
#
# number of rings (size 3 to 8) (size 9 to 14) (size 15 to 20)
#    0.000    1.714    5.714    0.429    6.000    3.429 
#    2.571    0.714    0.000    0.000    0.000    0.000 
#    0.000    0.000    0.000    0.000    0.000    0.000 
#
# Total GULP energy -77940.035969 kJ/mol
# GULP energy per Si atom -5567.145426 kJ/mol
# Density = 2.099168 g / cm^3
# Si number density = 21.039563 Si / 1000 Ang^3
#
#
#
# Elastic Constant Matrix: (Units=GPa)
#
#
# Indices 1 2 3 4 5 6 
#
# 1 50.6667 33.2969 36.1574 0.2249 11.6508 4.6240
# 2 33.2969 122.2173 47.6923 -4.7202 9.4283 4.7582
# 3 36.1574 47.6923 181.3929 -24.3643 18.5354 -2.1278
# 4 0.2249 -4.7202 -24.3643 32.9247 -10.9623 7.4644
# 5 11.6508 9.4283 18.5354 -10.9623 35.5550 0.7604
# 6 4.6240 4.7582 -2.1278 7.4644 0.7604 38.0687
#
#
#
# Elastic Compliance Matrix: (Units=1/GPa)
#
#
# Indices 1 2 3 4 5 6 
#
# 1 0.028410 -0.005677 -0.004270 -0.006299 -0.007486 -0.001595
# 2 -0.005677 0.010374 -0.001535 0.000614 0.000116 -0.000816
# 3 -0.004270 -0.001535 0.007517 0.005169 -0.000521 0.000128
# 4 -0.006299 0.000614 0.005169 0.039801 0.011629 -0.007059
# 5 -0.007486 0.000116 -0.000521 0.011629 0.034450 -0.002103
# 6 -0.001595 -0.000816 0.000128 -0.007059 -0.002103 0.027997
#
#
# Mechanical properties :
#
#
# Convention : Reuss Voigt Hill
#
# Bulk Modulus (GPa) = 42.85192 65.39668 54.12430
# Shear Modulus (GPa) = 27.88738 37.11835 32.50287
#
# Velocity S-wave (km/s) = 3.64465 4.20481 3.93472
# Velocity P-wave (km/s) = 6.17437 7.39758 6.81348
#
# Compressibility (1/GPa) = 0.02333618
#
# Stress axis : x y z
#
# Youngs Moduli (GPa) = 35.19869 96.39130 133.03708
#
# Poissons Ratio (x) = 0.54725 0.56809
# Poissons Ratio (y) = 0.19984 0.20421
# Poissons Ratio (z) = 0.15030 0.14796
#
# Static dielectric constant tensor:
#      x y z
#    x 1.865990 0.035050 -0.103520 
#    y 0.035050 1.763520 -0.046720 
#    z -0.103520 -0.046720 1.745310 
# 
# From -- ./inp_files/203038.got.cif
#   From: 2010.05.17/outbox.cif.g08.bks.cpg/sg2_102_cif.got.tgz:203038.got - 2010.06.03 11:33:40.
