data_PCOD9006624
_publ_section_title
;
Structure prediction by ZEFSAII (Michael W. Deem and Ramdas Pophale) SiO2 
 PCOD9006624
Probable space group: P -1
;
_chemical_formula_sum "Si O2"
_cell_formula_units_Z 14
_cell_length_a 13.216660
_cell_length_b 25.302315
_cell_length_c 5.147879
_cell_angle_alpha 77.756326
_cell_angle_beta 86.230053
_cell_angle_gamma 144.783551
_cell_volume 878.586685
_symmetry_space_group_name_H-M "P -1"
_symmetry_group_IT_number 2
_symmetry_cell_setting 'triclinic'
loop_
_space_group_symop_operation_xyz
x,y,z
-x,-y,-z
loop_
_atom_site_type_symbol
_atom_site_label
_atom_site_fract_x
_atom_site_fract_y
_atom_site_fract_z
Si Si1 0.108204 0.482866 0.755620
Si Si2 0.802732 0.163036 0.674509
Si Si3 0.245113 0.375878 0.455048
Si Si4 0.848390 0.373715 0.426533
Si Si5 0.582259 0.160203 0.536505
Si Si6 0.466678 0.053597 0.158939
Si Si7 0.355871 0.492602 0.816298
O O1 0.953727 0.399208 0.640880
O O2 0.187855 0.578933 0.577101
O O3 0.270811 0.511616 0.731558
O O4 0.995069 0.434980 0.096724
O O5 0.766134 0.202518 0.486009
O O6 0.026452 0.256467 0.590182
O O7 0.698364 0.065851 0.650231
O O8 0.668035 0.112469 0.005460
O O9 0.277439 0.414878 0.694779
O O10 0.411769 0.407442 0.339660
O O11 0.284865 0.440488 0.165042
O O12 0.661239 0.254334 0.502336
O O13 0.495013 0.108851 0.325331
O O14 0.439059 0.072602 0.873262
#
# Coordination Sequence:
#
# PCOD9006624 Si02
#       7
#     2   2   2   2   2   2   2
#     4  10  19  32  45  67  94 117 155 194 215 278
#     4   9  19  29  45  65  91 120 146 188 223 275
#     4  10  21  30  50  66  93 125 158 176 231 267
#     4  10  20  29  48  68  88 125 153 179 242 264
#     4  10  17  29  42  65  90 117 143 186 224 278
#     4   9  20  27  44  65  94 112 153 180 234 263
#     4  10  20  34  44  71  92 123 155 190 212 278
#
# _framework density 15.934684000000001
#
# number of rings (size 3 to 8) (size 9 to 14) (size 15 to 20)
#    0.857    1.429    0.000    3.857    4.000    0.000 
#    0.000    0.000    0.000    0.000    0.000    2.000 
#    0.000    0.000    0.000    0.000    0.000    0.000 
#
# Total GULP energy -77954.321799 kJ/mol
# GULP energy per Si atom -5568.165843 kJ/mol
# Density = 1.589842 g / cm^3
# Si number density = 15.934684 Si / 1000 Ang^3
#
#
#
# Elastic Constant Matrix: (Units=GPa)
#
#
# Indices 1 2 3 4 5 6 
#
# 1 63.9141 8.2847 6.1695 -8.2593 4.4477 8.1197
# 2 8.2847 70.6835 12.9174 -0.4404 -9.2968 0.7090
# 3 6.1695 12.9174 27.5145 9.2805 -2.2979 8.0919
# 4 -8.2593 -0.4404 9.2805 33.0282 6.0749 -1.1014
# 5 4.4477 -9.2968 -2.2979 6.0749 11.7041 -4.0292
# 6 8.1197 0.7090 8.0919 -1.1014 -4.0292 22.8427
#
#
#
# Elastic Compliance Matrix: (Units=1/GPa)
#
#
# Indices 1 2 3 4 5 6 
#
# 1 0.020377 -0.003885 -0.005319 0.009916 -0.019865 -0.008264
# 2 -0.003885 0.018222 -0.007598 -0.001601 0.017536 0.006522
# 3 -0.005319 -0.007598 0.052946 -0.018809 0.010760 -0.015638
# 4 0.009916 -0.001601 -0.018809 0.043818 -0.031569 -0.000268
# 5 -0.019865 0.017536 0.010760 -0.031569 0.133958 0.024812
# 6 -0.008264 0.006522 -0.015638 -0.000268 0.024812 0.056416
#
#
# Mechanical properties :
#
#
# Convention : Reuss Voigt Hill
#
# Bulk Modulus (GPa) = 17.25818 24.09504 20.67661
# Shear Modulus (GPa) = 13.20469 22.49770 17.85119
#
# Velocity S-wave (km/s) = 2.88180 3.76156 3.35068
# Velocity P-wave (km/s) = 4.68264 5.83265 5.28899
#
# Compressibility (1/GPa) = 0.05794355
#
# Stress axis : x y z
#
# Youngs Moduli (GPa) = 49.07567 54.87771 18.88728
#
# Poissons Ratio (x) = 0.21317 0.10045
# Poissons Ratio (y) = 0.19064 0.14350
# Poissons Ratio (z) = 0.26101 0.41693
#
# Static dielectric constant tensor:
#      x y z
#    x 1.530830 -0.009680 0.018530 
#    y -0.009680 1.531450 0.013260 
#    z 0.018530 0.013260 1.556900 
# 
# From -- ./inp_files/82138.got.cif
#   From: 2010.05.17/outbox.cif.g08.bks.cpg/sg2_42_cif.got.tgz:82138.got - 2010.06.03 11:33:40.
