data_PCOD9006842
_publ_section_title
;
Structure prediction by ZEFSAII (Michael W. Deem and Ramdas Pophale) SiO2 
 PCOD9006842
Probable space group: P -1
;
_chemical_formula_sum "Si O2"
_cell_formula_units_Z 16
_cell_length_a 22.467475
_cell_length_b 13.588677
_cell_length_c 9.063694
_cell_angle_alpha 135.375779
_cell_angle_beta 151.341496
_cell_angle_gamma 35.432727
_cell_volume 769.331787
_symmetry_space_group_name_H-M "P -1"
_symmetry_group_IT_number 2
_symmetry_cell_setting 'triclinic'
loop_
_space_group_symop_operation_xyz
x,y,z
-x,-y,-z
loop_
_atom_site_type_symbol
_atom_site_label
_atom_site_fract_x
_atom_site_fract_y
_atom_site_fract_z
Si Si1 0.701389 0.914372 0.083084
Si Si2 0.146756 0.395832 0.106419
Si Si3 0.493461 0.532436 0.734369
Si Si4 0.757097 0.313566 0.876215
Si Si5 0.518637 0.760380 0.235905
Si Si6 0.051298 0.601337 0.817270
Si Si7 0.193686 0.018251 0.326704
Si Si8 0.492257 0.804313 0.560541
O O1 0.815419 0.782151 0.067452
O O2 0.626966 0.826118 0.906057
O O3 0.562754 0.084506 0.889547
O O4 0.783808 0.953877 0.424729
O O5 0.301282 0.338755 0.464663
O O6 0.000000 0.500000 0.000000
O O7 0.122922 0.504577 0.023453
O O8 0.661925 0.440541 0.938216
O O9 0.374518 0.660774 0.491353
O O10 0.465756 0.384845 0.530145
O O11 0.479065 0.630614 0.955210
O O12 0.850003 0.118210 0.921214
O O13 0.846783 0.369908 0.038936
O O14 0.456744 0.836851 0.344285
O O15 0.918673 0.793489 0.777197
O O16 0.000000 0.500000 0.500000
O O17 0.351096 0.927701 0.486457
#
# Coordination Sequence:
#
# PCOD9006842 Si02
#       8
#     2   2   2   2   2   2   2   2
#     4  11  22  42  65  97 127 172 216 272 320 380
#     4  11  26  44  64  98 134 170 218 266 328 391
#     4  10  21  38  70  94 127 167 211 279 320 380
#     4  10  22  42  63 100 129 164 222 266 324 383
#     4  11  23  41  68  95 132 169 212 276 328 378
#     4  12  26  42  67  91 132 179 217 262 323 391
#     4  11  23  41  65  95 128 176 212 272 319 386
#     4  10  22  37  61  97 129 159 221 262 321 379
#
# _framework density 20.797269
#
# number of rings (size 3 to 8) (size 9 to 14) (size 15 to 20)
#    0.000    1.250    2.500    4.125    5.250    0.000 
#    0.000    0.000    0.000    3.000    0.000    0.000 
#    0.000    0.000    0.000    0.000    0.000    0.000 
#
# Total GULP energy -89362.898837 kJ/mol
# GULP energy per Si atom -5585.181177 kJ/mol
# Density = 2.074993 g / cm^3
# Si number density = 20.797269 Si / 1000 Ang^3
#
#
#
# Elastic Constant Matrix: (Units=GPa)
#
#
# Indices 1 2 3 4 5 6 
#
# 1 68.3492 19.6296 21.4342 2.1972 23.3260 -6.1473
# 2 19.6296 134.9921 36.2379 -9.3075 11.9283 -1.2199
# 3 21.4342 36.2379 38.6336 -4.1107 -4.3738 -9.9382
# 4 2.1972 -9.3075 -4.1107 36.4254 3.6333 -8.2168
# 5 23.3260 11.9283 -4.3738 3.6333 31.4012 -2.4217
# 6 -6.1473 -1.2199 -9.9382 -8.2168 -2.4217 29.5056
#
#
#
# Elastic Compliance Matrix: (Units=1/GPa)
#
#
# Indices 1 2 3 4 5 6 
#
# 1 0.031015 0.005045 -0.026759 -0.001905 -0.028867 -0.005243
# 2 0.005045 0.012116 -0.016514 0.000989 -0.011124 -0.004648
# 3 -0.026759 -0.016514 0.066284 0.005923 0.036294 0.020697
# 4 -0.001905 0.000989 0.005923 0.030874 -0.000924 0.010161
# 5 -0.028867 -0.011124 0.036294 -0.000924 0.063503 0.010705
# 6 -0.005243 -0.004648 0.020697 0.010161 0.010705 0.043287
#
#
# Mechanical properties :
#
#
# Convention : Reuss Voigt Hill
#
# Bulk Modulus (GPa) = 30.34038 44.06424 37.20231
# Shear Modulus (GPa) = 14.94679 30.44463 22.69571
#
# Velocity S-wave (km/s) = 2.68375 3.83021 3.30704
# Velocity P-wave (km/s) = 4.92175 6.38704 5.70166
#
# Compressibility (1/GPa) = 0.03295938
#
# Stress axis : x y z
#
# Youngs Moduli (GPa) = 32.24295 82.53286 15.08667
#
# Poissons Ratio (x) = -0.41641 0.40370
# Poissons Ratio (y) = -0.16268 0.24914
# Poissons Ratio (z) = 0.86279 1.36295
#
# Static dielectric constant tensor:
#      x y z
#    x 1.742570 0.015040 0.018590 
#    y 0.015040 1.801090 -0.018570 
#    z 0.018590 -0.018570 1.731410 
# 
# From -- ./inp_files/244259.got.cif
#   From: 2010.05.17/outbox.cif.g08.bks.cpg/sg2_123_cif.got.tgz:244259.got - 2010.06.03 11:33:40.
