data_PCOD9006536
_publ_section_title
;
Structure prediction by ZEFSAII (Michael W. Deem and Ramdas Pophale) SiO2 
 PCOD9006536
Probable space group: P -1
;
_chemical_formula_sum "Si O2"
_cell_formula_units_Z 12
_cell_length_a 12.094518
_cell_length_b 4.976781
_cell_length_c 18.501689
_cell_angle_alpha 77.340131
_cell_angle_beta 155.195258
_cell_angle_gamma 94.734845
_cell_volume 437.028325
_symmetry_space_group_name_H-M "P -1"
_symmetry_group_IT_number 2
_symmetry_cell_setting 'triclinic'
loop_
_space_group_symop_operation_xyz
x,y,z
-x,-y,-z
loop_
_atom_site_type_symbol
_atom_site_label
_atom_site_fract_x
_atom_site_fract_y
_atom_site_fract_z
Si Si1 0.803442 0.895296 0.444890
Si Si2 0.154359 0.125146 0.191244
Si Si3 0.496609 0.564086 0.360609
Si Si4 0.716037 0.537667 0.182950
Si Si5 0.980387 0.268274 0.757728
Si Si6 0.644065 0.558717 0.904062
O O1 0.667295 0.627893 0.388729
O O2 0.040830 0.761196 0.652254
O O3 0.466176 0.839915 0.741034
O O4 0.000000 0.000000 0.500000
O O5 0.382485 0.291390 0.310988
O O6 0.251664 0.845988 0.216114
O O7 0.110903 0.999828 0.251584
O O8 0.858252 0.349497 0.990270
O O9 0.706866 0.511372 0.557003
O O10 0.562741 0.585699 0.166417
O O11 0.841595 0.773789 0.207792
O O12 0.500000 0.500000 0.000000
O O13 0.165085 0.349439 0.926270
#
# Coordination Sequence:
#
# PCOD9006536 Si02
#       6
#     2   2   2   2   2   2
#     4   9  20  44  69  94 133 170 220 269 330 387
#     4  12  24  41  66  99 135 173 218 269 323 390
#     4  11  25  42  68  96 131 175 221 268 323 384
#     4   8  17  38  70  97 128 171 222 273 321 382
#     4  10  21  40  66  96 132 172 222 272 319 381
#     4  10  21  38  66  96 134 173 217 268 329 386
#
# _framework density 27.458172999999999
#
# number of rings (size 3 to 8) (size 9 to 14) (size 15 to 20)
#    0.000    2.000    1.667    1.000    2.333    2.000 
#    3.000    0.833   18.333    0.000    0.000    0.000 
#    0.000    0.000    0.000    0.000    0.000    0.000 
#
# Total GULP energy -66998.103139 kJ/mol
# GULP energy per Si atom -5583.175262 kJ/mol
# Density = 2.739568 g / cm^3
# Si number density = 27.458173 Si / 1000 Ang^3
#
#
#
# Elastic Constant Matrix: (Units=GPa)
#
#
# Indices 1 2 3 4 5 6 
#
# 1 140.1333 99.0928 68.3863 18.3115 2.9725 51.0127
# 2 99.0928 162.0525 25.5029 19.4720 4.5142 48.4664
# 3 68.3863 25.5029 160.7479 -8.1789 -25.7904 -1.4015
# 4 18.3115 19.4720 -8.1789 35.8850 19.4163 15.5154
# 5 2.9725 4.5142 -25.7904 19.4163 31.9602 8.2984
# 6 51.0127 48.4664 -1.4015 15.5154 8.2984 71.0429
#
#
#
# Elastic Compliance Matrix: (Units=1/GPa)
#
#
# Indices 1 2 3 4 5 6 
#
# 1 0.020331 -0.008360 -0.008125 -0.002055 -0.003902 -0.008151
# 2 -0.008360 0.011691 0.001980 -0.002250 0.002543 -0.001739
# 3 -0.008125 0.001980 0.010742 -0.000829 0.008643 0.003866
# 4 -0.002055 -0.002250 -0.000829 0.046461 -0.027358 -0.003957
# 5 -0.003902 0.002543 0.008643 -0.027358 0.054673 0.000826
# 6 -0.008151 -0.001739 0.003866 -0.003957 0.000826 0.021960
#
#
# Mechanical properties :
#
#
# Convention : Reuss Voigt Hill
#
# Bulk Modulus (GPa) = 72.70398 94.32196 83.51297
# Shear Modulus (GPa) = 25.06861 45.77439 35.42150
#
# Velocity S-wave (km/s) = 3.02482 4.08739 3.59558
# Velocity P-wave (km/s) = 6.22374 7.53003 6.90784
#
# Compressibility (1/GPa) = 0.01375440
#
# Stress axis : x y z
#
# Youngs Moduli (GPa) = 49.18494 85.53495 93.09660
#
# Poissons Ratio (x) = 0.71510 0.75638
# Poissons Ratio (y) = 0.41120 -0.18435
# Poissons Ratio (z) = 0.39961 -0.16937
#
# Static dielectric constant tensor:
#      x y z
#    x 2.204910 0.001090 0.012060 
#    y 0.001090 2.159790 0.026880 
#    z 0.012060 0.026880 2.204430 
# 
# From -- ./inp_files/618929.got.cif
#   From: 2010.05.17/outbox.cif.g08.bks.cpg/sg2_310_cif.got.tgz:618929.got - 2010.06.03 11:33:40.
