data_PCOD9006577
_publ_section_title
;
Structure prediction by ZEFSAII (Michael W. Deem and Ramdas Pophale) SiO2 
 PCOD9006577
Probable space group: P -1
;
_chemical_formula_sum "Si O2"
_cell_formula_units_Z 14
_cell_length_a 8.775424
_cell_length_b 13.740533
_cell_length_c 12.008225
_cell_angle_alpha 53.280555
_cell_angle_beta 52.753077
_cell_angle_gamma 29.546927
_cell_volume 558.924103
_symmetry_space_group_name_H-M "P -1"
_symmetry_group_IT_number 2
_symmetry_cell_setting 'triclinic'
loop_
_space_group_symop_operation_xyz
x,y,z
-x,-y,-z
loop_
_atom_site_type_symbol
_atom_site_label
_atom_site_fract_x
_atom_site_fract_y
_atom_site_fract_z
Si Si1 0.759260 0.027827 0.534997
Si Si2 0.561108 0.196813 0.151872
Si Si3 0.727259 0.536772 0.110835
Si Si4 0.185427 0.703096 0.934320
Si Si5 0.911945 0.395553 0.366678
Si Si6 0.822354 0.813713 0.217768
Si Si7 0.713736 0.552591 0.588791
O O1 0.472767 0.127301 0.673772
O O2 0.571841 0.215949 0.409849
O O3 0.000000 0.000000 0.500000
O O4 0.928290 0.819583 0.561335
O O5 0.209629 0.341780 0.259265
O O6 0.714606 0.990599 0.203149
O O7 0.524953 0.281163 0.989148
O O8 0.787414 0.168545 0.142756
O O9 0.697778 0.530386 0.260086
O O10 0.822103 0.356932 0.141048
O O11 0.000000 0.500000 0.000000
O O12 0.893661 0.797091 0.068810
O O13 0.500000 0.500000 0.000000
O O14 0.282617 0.495963 0.506838
O O15 0.151132 0.611901 0.271358
O O16 0.000000 0.500000 0.500000
#
# Coordination Sequence:
#
# PCOD9006577 Si02
#       7
#     2   2   2   2   2   2   2
#     4  10  24  44  65  99 137 182 229 272 347 405
#     4   9  20  39  69 101 131 174 226 282 341 405
#     4   9  20  38  64  96 136 181 208 278 345 399
#     4  10  21  38  67 100 129 176 225 271 338 409
#     4  10  22  46  65  99 142 176 227 286 344 406
#     4  10  22  43  68 102 134 171 234 284 336 404
#     4  10  24  42  74  96 132 185 230 285 344 395
#
# _framework density 25.048124000000001
#
# number of rings (size 3 to 8) (size 9 to 14) (size 15 to 20)
#    0.000    2.286    0.000    0.429   12.000    8.000 
#    7.714    2.143    0.000    0.000    0.000    0.000 
#    0.000    0.000    0.000    0.000    0.000    0.000 
#
# Total GULP energy -78163.075397 kJ/mol
# GULP energy per Si atom -5583.076814 kJ/mol
# Density = 2.499111 g / cm^3
# Si number density = 25.048124 Si / 1000 Ang^3
#
#
#
# Elastic Constant Matrix: (Units=GPa)
#
#
# Indices 1 2 3 4 5 6 
#
# 1 124.0992 4.7731 58.4778 0.4436 -14.7017 5.2515
# 2 4.7731 49.0083 43.2907 -14.4914 -15.8822 -2.7381
# 3 58.4778 43.2907 133.2787 9.3747 5.7267 4.0407
# 4 0.4436 -14.4914 9.3747 40.1485 6.4805 -3.4992
# 5 -14.7017 -15.8822 5.7267 6.4805 48.9856 -5.5407
# 6 5.2515 -2.7381 4.0407 -3.4992 -5.5407 25.0258
#
#
#
# Elastic Compliance Matrix: (Units=1/GPa)
#
#
# Indices 1 2 3 4 5 6 
#
# 1 0.014079 0.014430 -0.011858 0.006551 0.009834 0.003632
# 2 0.014430 0.064354 -0.030917 0.027528 0.027306 0.018900
# 3 -0.011858 -0.030917 0.024809 -0.015208 -0.015658 -0.010493
# 4 0.006551 0.027528 -0.015208 0.037869 0.008945 0.011368
# 5 0.009834 0.027306 -0.015658 0.008945 0.034256 0.012287
# 6 0.003632 0.018900 -0.010493 0.011368 0.012287 0.047268
#
#
# Mechanical properties :
#
#
# Convention : Reuss Voigt Hill
#
# Bulk Modulus (GPa) = 21.48118 57.71883 39.60001
# Shear Modulus (GPa) = 16.95821 36.15494 26.55658
#
# Velocity S-wave (km/s) = 2.60479 3.80336 3.25964
# Velocity P-wave (km/s) = 4.20014 6.51004 5.47822
#
# Compressibility (1/GPa) = 0.04655237
#
# Stress axis : x y z
#
# Youngs Moduli (GPa) = 71.02989 15.53894 40.30821
#
# Poissons Ratio (x) = -0.22423 0.47797
# Poissons Ratio (y) = -1.02498 1.24622
# Poissons Ratio (z) = 0.84226 0.48042
#
# Static dielectric constant tensor:
#      x y z
#    x 2.025880 0.037400 -0.048900 
#    y 0.037400 1.956990 -0.052830 
#    z -0.048900 -0.052830 2.188580 
# 
# From -- ./inp_files/404769.got.cif
#   From: 2010.05.17/outbox.cif.g08.bks.cpg/sg2_203_cif.got.tgz:404769.got - 2010.06.03 11:33:40.
