data_PCOD9006533
_publ_section_title
;
Structure prediction by ZEFSAII (Michael W. Deem and Ramdas Pophale) SiO2 
 PCOD9006533
Probable space group: P -1
;
_chemical_formula_sum "Si O2"
_cell_formula_units_Z 16
_cell_length_a 9.901125
_cell_length_b 21.445269
_cell_length_c 5.131617
_cell_angle_alpha 107.561619
_cell_angle_beta 127.757527
_cell_angle_gamma 49.010206
_cell_volume 641.071650
_symmetry_space_group_name_H-M "P -1"
_symmetry_group_IT_number 2
_symmetry_cell_setting 'triclinic'
loop_
_space_group_symop_operation_xyz
x,y,z
-x,-y,-z
loop_
_atom_site_type_symbol
_atom_site_label
_atom_site_fract_x
_atom_site_fract_y
_atom_site_fract_z
Si Si1 0.277323 0.593270 0.802773
Si Si2 0.945822 0.555560 0.256669
Si Si3 0.665152 0.925990 0.403235
Si Si4 0.255219 0.198610 0.307250
Si Si5 0.685049 0.053587 0.378918
Si Si6 0.844817 0.295245 0.685073
Si Si7 0.285235 0.815456 0.415357
Si Si8 0.556280 0.732105 0.112886
O O1 0.103012 0.580813 0.485408
O O2 0.270325 0.648772 0.634204
O O3 0.500000 0.500000 0.000000
O O4 0.223280 0.644375 0.070809
O O5 0.000000 0.500000 0.500000
O O6 0.690290 0.635885 0.071760
O O7 0.000000 0.500000 0.000000
O O8 0.821998 0.840863 0.642411
O O9 0.500000 0.000000 0.500000
O O10 0.787018 0.958900 0.456694
O O11 0.493748 0.927463 0.022947
O O12 0.509991 0.121410 0.470863
O O13 0.260115 0.266170 0.537153
O O14 0.108445 0.236793 0.927357
O O15 0.832320 0.084553 0.579658
O O16 0.806566 0.228219 0.617053
O O17 0.373034 0.774319 0.179194
O O18 0.477702 0.782480 0.813598
#
# Coordination Sequence:
#
# PCOD9006533 Si02
#       8
#     2   2   2   2   2   2   2   2
#     4  12  29  50  66  95 135 179 217 270 347 407
#     4  12  27  44  71  98 127 164 224 278 334 390
#     4   9  17  35  61  98 131 170 215 269 329 381
#     4  10  21  38  66  96 128 174 223 275 320 391
#     4   9  19  35  65  95 133 172 220 268 323 390
#     4  12  27  45  69  95 136 176 221 273 336 395
#     4  11  24  41  66  98 133 175 222 271 326 388
#     4  11  23  42  66  94 129 169 226 280 319 388
#
# _framework density 24.958207999999999
#
# number of rings (size 3 to 8) (size 9 to 14) (size 15 to 20)
#    0.000    1.250    2.500    2.625   10.500    0.000 
#    0.000    0.625    0.000    6.750    0.000    0.000 
#    0.000    0.000    0.000    0.000    0.000    0.000 
#
# Total GULP energy -89292.465470 kJ/mol
# GULP energy per Si atom -5580.779092 kJ/mol
# Density = 2.490140 g / cm^3
# Si number density = 24.958208 Si / 1000 Ang^3
#
#
#
# Elastic Constant Matrix: (Units=GPa)
#
#
# Indices 1 2 3 4 5 6 
#
# 1 78.1696 27.6831 24.9424 15.5851 -7.7673 19.1660
# 2 27.6831 69.5618 8.0915 24.4035 -6.2226 14.8471
# 3 24.9424 8.0915 62.6019 13.8603 -17.9210 2.6370
# 4 15.5851 24.4035 13.8603 49.5700 5.6158 -3.8370
# 5 -7.7673 -6.2226 -17.9210 5.6158 49.1125 8.2495
# 6 19.1660 14.8471 2.6370 -3.8370 8.2495 37.9702
#
#
#
# Elastic Compliance Matrix: (Units=1/GPa)
#
#
# Indices 1 2 3 4 5 6 
#
# 1 0.018788 -0.003495 -0.005116 -0.003717 0.002547 -0.008690
# 2 -0.003495 0.022468 0.003600 -0.012503 0.006716 -0.009994
# 3 -0.005116 0.003600 0.021936 -0.007559 0.009032 -0.003075
# 4 -0.003717 -0.012503 -0.007559 0.031820 -0.010725 0.012836
# 5 0.002547 0.006716 0.009032 -0.010725 0.028107 -0.011729
# 6 -0.008690 -0.009994 -0.003075 0.012836 -0.011729 0.038690
#
#
# Mechanical properties :
#
#
# Convention : Reuss Voigt Hill
#
# Bulk Modulus (GPa) = 18.80743 36.86303 27.83523
# Shear Modulus (GPa) = 26.37789 37.30497 31.84143
#
# Velocity S-wave (km/s) = 3.25450 3.87033 3.57570
# Velocity P-wave (km/s) = 4.65556 5.89699 5.31266
#
# Compressibility (1/GPa) = 0.05317047
#
# Stress axis : x y z
#
# Youngs Moduli (GPa) = 53.22656 44.50742 45.58800
#
# Poissons Ratio (x) = 0.15556 0.23322
# Poissons Ratio (y) = 0.18603 -0.16414
# Poissons Ratio (z) = 0.27229 -0.16025
#
# Static dielectric constant tensor:
#      x y z
#    x 2.205220 0.086210 0.007210 
#    y 0.086210 2.111940 0.004800 
#    z 0.007210 0.004800 1.973500 
# 
# From -- ./inp_files/83374.got.cif
#   From: 2010.05.17/outbox.cif.g08.bks.cpg/sg2_42_cif.got.tgz:83374.got - 2010.06.03 11:33:40.
