data_PCOD9006840
_publ_section_title
;
Structure prediction by ZEFSAII (Michael W. Deem and Ramdas Pophale) SiO2 
 PCOD9006840
Probable space group: P -1
;
_chemical_formula_sum "Si O2"
_cell_formula_units_Z 14
_cell_length_a 11.090599
_cell_length_b 8.073004
_cell_length_c 8.699815
_cell_angle_alpha 108.589065
_cell_angle_beta 102.775084
_cell_angle_gamma 47.284371
_cell_volume 542.434338
_symmetry_space_group_name_H-M "P -1"
_symmetry_group_IT_number 2
_symmetry_cell_setting 'triclinic'
loop_
_space_group_symop_operation_xyz
x,y,z
-x,-y,-z
loop_
_atom_site_type_symbol
_atom_site_label
_atom_site_fract_x
_atom_site_fract_y
_atom_site_fract_z
Si Si1 0.023394 0.681147 0.090820
Si Si2 0.936240 0.224663 0.215260
Si Si3 0.769796 0.261081 0.683814
Si Si4 0.473206 0.977583 0.814393
Si Si5 0.270590 0.836097 0.701307
Si Si6 0.251304 0.301739 0.609007
Si Si7 0.594071 0.113390 0.652318
O O1 0.188363 0.583292 0.201824
O O2 0.024929 0.773740 0.950788
O O3 0.874816 0.891714 0.216473
O O4 0.000000 0.500000 0.000000
O O5 0.075723 0.988087 0.272457
O O6 0.767173 0.273084 0.209322
O O7 0.906544 0.435170 0.357266
O O8 0.754103 0.241097 0.491279
O O9 0.622017 0.291353 0.730005
O O10 0.432457 0.809008 0.733822
O O11 0.311462 0.228894 0.779574
O O12 0.606641 0.969176 0.755795
O O13 0.500000 0.000000 0.000000
O O14 0.414121 0.246225 0.569011
O O15 0.269569 0.092499 0.484852
#
# Coordination Sequence:
#
# PCOD9006840 Si02
#       7
#     2   2   2   2   2   2   2
#     4  11  25  41  63  97 134 172 221 274 331 387
#     4  11  24  39  68  98 133 170 223 277 330 384
#     4  11  22  45  70  95 137 178 218 271 333 395
#     4  10  21  38  70  93 130 174 219 268 326 391
#     4  11  22  45  65  98 138 177 219 270 332 398
#     4   9  19  42  62  99 129 176 215 270 321 400
#     4   9  20  41  69  88 136 173 218 262 339 383
#
# _framework density 25.809576
#
# number of rings (size 3 to 8) (size 9 to 14) (size 15 to 20)
#    0.857    0.857    1.429    4.286    4.000    0.571 
#    2.571    7.143    0.000    0.000    0.000    0.000 
#    0.000    0.000    0.000    0.000    0.000    0.000 
#
# Total GULP energy -78065.610320 kJ/mol
# GULP energy per Si atom -5576.115023 kJ/mol
# Density = 2.575083 g / cm^3
# Si number density = 25.809576 Si / 1000 Ang^3
#
#
#
# Elastic Constant Matrix: (Units=GPa)
#
#
# Indices 1 2 3 4 5 6 
#
# 1 159.5865 3.4033 75.8816 -2.1671 7.8252 35.4309
# 2 3.4033 51.1460 16.8738 3.1719 5.4257 10.5202
# 3 75.8816 16.8738 164.5985 1.7981 -0.5563 27.1578
# 4 -2.1671 3.1719 1.7981 27.6840 17.9553 -0.6438
# 5 7.8252 5.4257 -0.5563 17.9553 49.0693 5.1878
# 6 35.4309 10.5202 27.1578 -0.6438 5.1878 42.2679
#
#
#
# Elastic Compliance Matrix: (Units=1/GPa)
#
#
# Indices 1 2 3 4 5 6 
#
# 1 0.009297 0.001807 -0.003553 0.001762 -0.001763 -0.005717
# 2 0.001807 0.021485 -0.002156 -0.001209 -0.001687 -0.005289
# 3 -0.003553 -0.002156 0.008300 -0.001760 0.001761 -0.002061
# 4 0.001762 -0.001209 -0.001760 0.048369 -0.018175 0.002923
# 5 -0.001763 -0.001687 0.001761 -0.018175 0.027827 -0.002926
# 6 -0.005717 -0.005289 -0.002061 0.002923 -0.002926 0.031494
#
#
# Mechanical properties :
#
#
# Convention : Reuss Voigt Hill
#
# Bulk Modulus (GPa) = 31.97149 63.07204 47.52177
# Shear Modulus (GPa) = 30.30308 42.41573 36.35941
#
# Velocity S-wave (km/s) = 3.43023 4.05830 3.75741
# Velocity P-wave (km/s) = 5.30123 6.81544 6.10546
#
# Compressibility (1/GPa) = 0.03127786
#
# Stress axis : x y z
#
# Youngs Moduli (GPa) = 107.56534 46.54516 120.48809
#
# Poissons Ratio (x) = -0.08412 0.42811
# Poissons Ratio (y) = -0.19439 0.25971
# Poissons Ratio (z) = 0.38219 0.10033
#
# Static dielectric constant tensor:
#      x y z
#    x 2.239730 -0.025060 0.029620 
#    y -0.025060 2.124360 0.003600 
#    z 0.029620 0.003600 2.068450 
# 
# From -- ./inp_files/240572.got.cif
#   From: 2010.05.17/outbox.cif.g08.bks.cpg/sg2_121_cif.got.tgz:240572.got - 2010.06.03 11:33:40.
