data_PCOD9006949
_publ_section_title
;
Structure prediction by ZEFSAII (Michael W. Deem and Ramdas Pophale) SiO2 
 PCOD9006949
Probable space group: P -1
;
_chemical_formula_sum "Si O2"
_cell_formula_units_Z 14
_cell_length_a 19.852324
_cell_length_b 15.668463
_cell_length_c 7.197630
_cell_angle_alpha 129.672414
_cell_angle_beta 135.117194
_cell_angle_gamma 19.755452
_cell_volume 530.194104
_symmetry_space_group_name_H-M "P -1"
_symmetry_group_IT_number 2
_symmetry_cell_setting 'triclinic'
loop_
_space_group_symop_operation_xyz
x,y,z
-x,-y,-z
loop_
_atom_site_type_symbol
_atom_site_label
_atom_site_fract_x
_atom_site_fract_y
_atom_site_fract_z
Si Si1 0.517187 0.660884 0.291068
Si Si2 0.737858 0.726503 0.667923
Si Si3 0.972234 0.655710 0.597427
Si Si4 0.849226 0.858182 0.006930
Si Si5 0.837970 0.107838 0.479900
Si Si6 0.469087 0.158846 0.234745
Si Si7 0.674309 0.333093 0.869694
O O1 0.333466 0.767945 0.157607
O O2 0.387460 0.875474 0.189534
O O3 0.600978 0.636752 0.605183
O O4 0.695770 0.411043 0.167428
O O5 0.839827 0.743356 0.911973
O O6 0.856426 0.518332 0.471752
O O7 0.500000 0.000000 0.500000
O O8 0.700529 0.701054 0.745302
O O9 0.006702 0.688320 0.897139
O O10 0.727309 0.919126 0.413905
O O11 0.000000 0.500000 0.500000
O O12 0.878175 0.932836 0.298524
O O13 0.823982 0.166596 0.747752
O O14 0.582929 0.388610 0.307317
O O15 0.000000 0.000000 0.500000
O O16 0.500000 0.000000 0.000000
#
# Coordination Sequence:
#
# PCOD9006949 Si02
#       7
#     2   2   2   2   2   2   2
#     4   9  18  39  59  82 117 156 191 237 293 349
#     4  11  19  37  62  83 115 164 199 230 293 357
#     4   9  18  37  56  82 115 155 198 230 277 363
#     4   9  19  36  59  85 116 149 196 243 279 356
#     4  10  21  39  57  89 113 145 199 246 295 340
#     4  11  23  36  57  92 124 153 195 245 298 348
#     4   9  20  39  62  80 115 154 194 242 289 347
#
# _framework density 26.405424
#
# number of rings (size 3 to 8) (size 9 to 14) (size 15 to 20)
#    0.000    2.286    4.286    0.000    2.000    1.714 
#    7.714    9.286    0.000    0.000    0.000    0.000 
#    0.000    0.000    0.000    0.000    0.000    0.000 
#
# Total GULP energy -77950.641649 kJ/mol
# GULP energy per Si atom -5567.902975 kJ/mol
# Density = 2.634532 g / cm^3
# Si number density = 26.405424 Si / 1000 Ang^3
#
#
#
# Elastic Constant Matrix: (Units=GPa)
#
#
# Indices 1 2 3 4 5 6 
#
# 1 90.4739 35.7025 16.3473 25.2798 3.2081 -29.3196
# 2 35.7025 109.7642 51.8876 15.4033 -8.7973 -37.2065
# 3 16.3473 51.8876 177.5185 36.0908 0.5498 -19.8884
# 4 25.2798 15.4033 36.0908 63.6165 -3.4240 -12.3312
# 5 3.2081 -8.7973 0.5498 -3.4240 37.4158 17.8367
# 6 -29.3196 -37.2065 -19.8884 -12.3312 17.8367 54.3150
#
#
#
# Elastic Compliance Matrix: (Units=1/GPa)
#
#
# Indices 1 2 3 4 5 6 
#
# 1 0.016364 -0.002956 0.001385 -0.005325 -0.006541 0.008255
# 2 -0.002956 0.013767 -0.003197 0.000986 0.000408 0.006754
# 3 0.001385 -0.003197 0.007335 -0.003848 -0.001786 0.000956
# 4 -0.005325 0.000986 -0.003848 0.019932 0.002527 0.000088
# 5 -0.006541 0.000408 -0.001786 0.002527 0.034654 -0.014712
# 6 0.008255 0.006754 0.000956 0.000088 -0.014712 0.032695
#
#
# Mechanical properties :
#
#
# Convention : Reuss Voigt Hill
#
# Bulk Modulus (GPa) = 35.80452 65.07018 50.43735
# Shear Modulus (GPa) = 34.82027 49.32407 42.07217
#
# Velocity S-wave (km/s) = 3.63530 4.32667 3.99597
# Velocity P-wave (km/s) = 5.58655 7.04672 6.35869
#
# Compressibility (1/GPa) = 0.02792944
#
# Stress axis : x y z
#
# Youngs Moduli (GPa) = 61.10978 72.63788 136.32894
#
# Poissons Ratio (x) = 0.21474 -0.18878
# Poissons Ratio (y) = 0.18066 0.43582
# Poissons Ratio (z) = -0.08462 0.23221
#
# Static dielectric constant tensor:
#      x y z
#    x 2.009680 0.072490 -0.061490 
#    y 0.072490 2.115000 -0.060790 
#    z -0.061490 -0.060790 2.365480 
# 
# From -- ./inp_files/215569.got.cif
#   From: 2010.05.17/outbox.cif.g08.bks.cpg/sg2_108_cif.got.tgz:215569.got - 2010.06.03 11:33:40.
