data_PCOD9006780
_publ_section_title
;
Structure prediction by ZEFSAII (Michael W. Deem and Ramdas Pophale) SiO2 
 PCOD9006780
Probable space group: P -1
;
_chemical_formula_sum "Si O2"
_cell_formula_units_Z 15
_cell_length_a 19.340237
_cell_length_b 8.076812
_cell_length_c 9.860227
_cell_angle_alpha 50.862929
_cell_angle_beta 34.364461
_cell_angle_gamma 43.900396
_cell_volume 600.234062
_symmetry_space_group_name_H-M "P -1"
_symmetry_group_IT_number 2
_symmetry_cell_setting 'triclinic'
loop_
_space_group_symop_operation_xyz
x,y,z
-x,-y,-z
loop_
_atom_site_type_symbol
_atom_site_label
_atom_site_fract_x
_atom_site_fract_y
_atom_site_fract_z
Si Si1 0.385685 0.424236 0.688971
Si Si2 0.881455 0.825201 0.851603
Si Si3 0.310714 0.113290 0.132342
Si Si4 0.149757 0.680059 0.320336
Si Si5 0.563681 0.680096 0.833773
Si Si6 0.945725 0.836986 0.338718
Si Si7 0.500000 0.000000 0.500000
Si Si8 0.100993 0.664680 0.901114
O O1 0.500000 0.500000 0.500000
O O2 0.442988 0.216934 0.591250
O O3 0.244944 0.624770 0.753036
O O4 0.344936 0.331672 0.939551
O O5 0.781820 0.869982 0.860153
O O6 0.034605 0.750394 0.588936
O O7 0.821012 0.090546 0.875371
O O8 0.880877 0.594018 0.045505
O O9 0.207373 0.127191 0.408887
O O10 0.454251 0.877831 0.009690
O O11 0.287528 0.466450 0.264147
O O12 0.063487 0.660706 0.341902
O O13 0.564303 0.806277 0.625484
O O14 0.500000 0.500000 0.000000
O O15 0.941963 0.096430 0.239242
O O16 0.993928 0.743896 0.158048
#
# Coordination Sequence:
#
# PCOD9006780 Si02
#       8
#     2   2   2   2   2   2   1   2
#     4  10  23  46  74 111 146 193 246 302 377 459
#     4   9  19  39  64  95 133 178 237 302 348 446
#     4   9  20  42  70  97 139 188 237 293 378 436
#     4  10  21  38  69 100 135 180 254 291 361 455
#     4  11  22  42  69 108 141 192 237 305 379 444
#     4  10  23  45  70  98 140 201 241 311 369 436
#     4  10  26  46  74 102 158 192 230 314 370 432
#     4  10  23  45  68  98 148 192 246 305 382 431
#
# _framework density 24.990251000000001
#
# number of rings (size 3 to 8) (size 9 to 14) (size 15 to 20)
#    0.000    2.133    1.333    0.000    1.867    6.400 
#   12.000    0.667    5.867    4.800    0.000    0.000 
#    0.000    0.000    0.000    0.000    0.000    0.000 
#
# Total GULP energy -83674.838204 kJ/mol
# GULP energy per Si atom -5578.322547 kJ/mol
# Density = 2.493337 g / cm^3
# Si number density = 24.990251 Si / 1000 Ang^3
#
#
#
# Elastic Constant Matrix: (Units=GPa)
#
#
# Indices 1 2 3 4 5 6 
#
# 1 84.6128 49.3445 57.6339 -4.0812 -4.0713 -22.7168
# 2 49.3445 161.1392 66.8622 0.0068 -10.3552 -33.1954
# 3 57.6339 66.8622 152.5917 14.2536 -14.0141 -14.7340
# 4 -4.0812 0.0068 14.2536 38.8969 -2.3558 -11.0623
# 5 -4.0713 -10.3552 -14.0141 -2.3558 30.3480 10.6590
# 6 -22.7168 -33.1954 -14.7340 -11.0623 10.6590 43.7774
#
#
#
# Elastic Compliance Matrix: (Units=1/GPa)
#
#
# Indices 1 2 3 4 5 6 
#
# 1 0.020349 -0.001506 -0.007122 0.007301 -0.003958 0.009829
# 2 -0.001506 0.009162 -0.003162 0.002644 -0.000391 0.005865
# 3 -0.007122 -0.003162 0.011111 -0.005954 0.004362 -0.004921
# 4 0.007301 0.002644 -0.005954 0.032062 -0.002794 0.012572
# 5 -0.003958 -0.000391 0.004362 -0.002794 0.037882 -0.010812
# 6 0.009829 0.005865 -0.004921 0.012572 -0.010812 0.036543
#
#
# Mechanical properties :
#
#
# Convention : Reuss Voigt Hill
#
# Bulk Modulus (GPa) = 58.68368 82.89167 70.78767
# Shear Modulus (GPa) = 28.34948 37.57133 32.96040
#
# Velocity S-wave (km/s) = 3.37177 3.88163 3.63565
# Velocity P-wave (km/s) = 6.22029 7.30281 6.78318
#
# Compressibility (1/GPa) = 0.01704051
#
# Stress axis : x y z
#
# Youngs Moduli (GPa) = 49.14348 109.14572 90.00229
#
# Poissons Ratio (x) = 0.16435 0.64102
# Poissons Ratio (y) = 0.07400 0.28462
# Poissons Ratio (z) = 0.35001 0.34516
#
# Static dielectric constant tensor:
#      x y z
#    x 1.989340 0.064820 0.041330 
#    y 0.064820 2.042590 -0.040330 
#    z 0.041330 -0.040330 1.974940 
# 
# From -- ./inp_files/469199.got.cif
#   From: 2010.05.17/outbox.cif.g08.bks.cpg/sg2_235_cif.got.tgz:469199.got - 2010.06.03 11:33:40.
