data_PCOD9006817
_publ_section_title
;
Structure prediction by ZEFSAII (Michael W. Deem and Ramdas Pophale) SiO2 
 PCOD9006817
Probable space group: P -1
;
_chemical_formula_sum "Si O2"
_cell_formula_units_Z 16
_cell_length_a 23.839945
_cell_length_b 8.074016
_cell_length_c 23.409868
_cell_angle_alpha 46.728503
_cell_angle_beta 12.178737
_cell_angle_gamma 47.745161
_cell_volume 692.061107
_symmetry_space_group_name_H-M "P -1"
_symmetry_group_IT_number 2
_symmetry_cell_setting 'triclinic'
loop_
_space_group_symop_operation_xyz
x,y,z
-x,-y,-z
loop_
_atom_site_type_symbol
_atom_site_label
_atom_site_fract_x
_atom_site_fract_y
_atom_site_fract_z
Si Si1 0.638136 0.424122 0.134593
Si Si2 0.630671 0.769061 0.665725
Si Si3 0.145515 0.061107 0.077388
Si Si4 0.879483 0.287225 0.392570
Si Si5 0.254683 0.452358 0.796071
Si Si6 0.717468 0.936848 0.723837
Si Si7 0.254414 0.845408 0.796844
Si Si8 0.764421 0.292585 0.696140
O O1 0.517592 0.319842 0.222249
O O2 0.393092 0.569331 0.371190
O O3 0.731837 0.240126 0.131475
O O4 0.890728 0.581579 0.832655
O O5 0.696385 0.553904 0.690877
O O6 0.906806 0.886509 0.346288
O O7 0.407441 0.942548 0.871661
O O8 0.009325 0.242046 0.212955
O O9 0.241934 0.198619 0.893863
O O10 0.816293 0.047125 0.541274
O O11 0.500000 0.500000 0.500000
O O12 0.260500 0.626159 0.801896
O O13 0.000000 0.500000 0.000000
O O14 0.934094 0.756916 0.574231
O O15 0.712648 0.149174 0.723218
O O16 0.433082 0.821305 0.034898
O O17 0.500000 0.000000 0.500000
O O18 0.000000 0.000000 0.000000
#
# Coordination Sequence:
#
# PCOD9006817 Si02
#       8
#     2   2   2   2   2   2   2   2
#     4  12  26  45  74  99 143 176 245 285 337 408
#     4  12  26  45  71 106 139 186 231 293 341 408
#     4  12  28  47  70 100 148 181 232 281 353 422
#     4  12  24  47  71 104 133 195 231 284 343 417
#     4  12  28  50  72 100 141 188 225 274 359 428
#     4  10  21  38  69  98 137 182 228 287 346 402
#     4  12  28  48  72 107 138 174 230 297 340 403
#     4  10  21  40  63 105 138 174 233 290 338 404
#
# _framework density 23.119347000000001
#
# number of rings (size 3 to 8) (size 9 to 14) (size 15 to 20)
#    0.000    0.500    2.500    5.250   10.500    0.000 
#    0.000    3.750    0.000    0.000    0.000    0.000 
#    0.000    0.000    0.000    0.000    0.000    0.000 
#
# Total GULP energy -89691.014465 kJ/mol
# GULP energy per Si atom -5605.688404 kJ/mol
# Density = 2.306673 g / cm^3
# Si number density = 23.119347 Si / 1000 Ang^3
#
#
#
# Elastic Constant Matrix: (Units=GPa)
#
#
# Indices 1 2 3 4 5 6 
#
# 1 47.3711 8.9715 12.1973 -14.0840 3.7529 -5.2473
# 2 8.9715 106.4340 53.4944 1.4111 -2.8408 -19.4775
# 3 12.1973 53.4944 167.1240 -7.2810 0.9404 -11.7774
# 4 -14.0840 1.4111 -7.2810 53.3549 -3.4665 -0.3189
# 5 3.7529 -2.8408 0.9404 -3.4665 37.7119 -4.3904
# 6 -5.2473 -19.4775 -11.7774 -0.3189 -4.3904 29.1709
#
#
#
# Elastic Compliance Matrix: (Units=1/GPa)
#
#
# Indices 1 2 3 4 5 6 
#
# 1 0.023826 -0.001132 -0.000889 0.006117 -0.001522 0.003009
# 2 -0.001132 0.012611 -0.003507 -0.000946 0.001887 0.007074
# 3 -0.000889 -0.003507 0.007236 0.000833 -0.000234 0.000394
# 4 0.006117 -0.000946 0.000833 0.020590 0.001335 0.001231
# 5 -0.001522 0.001887 -0.000234 0.001335 0.027527 0.005049
# 6 0.003009 0.007074 0.000394 0.001231 0.005049 0.040478
#
#
# Mechanical properties :
#
#
# Convention : Reuss Voigt Hill
#
# Bulk Modulus (GPa) = 30.66047 52.25063 41.45555
# Shear Modulus (GPa) = 32.42575 40.46526 36.44550
#
# Velocity S-wave (km/s) = 3.74911 4.18817 3.97471
# Velocity P-wave (km/s) = 5.65966 6.78507 6.24775
#
# Compressibility (1/GPa) = 0.03261529
#
# Stress axis : x y z
#
# Youngs Moduli (GPa) = 41.97119 79.29382 138.18842
#
# Poissons Ratio (x) = 0.08980 0.12290
# Poissons Ratio (y) = 0.04753 0.48468
# Poissons Ratio (z) = 0.03733 0.27811
#
# Static dielectric constant tensor:
#      x y z
#    x 1.879500 0.059350 0.012860 
#    y 0.059350 1.866870 -0.002350 
#    z 0.012860 -0.002350 1.801840 
# 
# From -- ./inp_files/621133.got.cif
#   From: 2010.05.17/outbox.cif.g08.bks.cpg/sg2_311_cif.got.tgz:621133.got - 2010.06.03 11:33:40.
