data_PCOD9006573
_publ_section_title
;
Structure prediction by ZEFSAII (Michael W. Deem and Ramdas Pophale) SiO2 
 PCOD9006573
Probable space group: P -1
;
_chemical_formula_sum "Si O2"
_cell_formula_units_Z 14
_cell_length_a 20.452303
_cell_length_b 6.580933
_cell_length_c 17.459375
_cell_angle_alpha 50.500584
_cell_angle_beta 154.603110
_cell_angle_gamma 113.784951
_cell_volume 665.415869
_symmetry_space_group_name_H-M "P -1"
_symmetry_group_IT_number 2
_symmetry_cell_setting 'triclinic'
loop_
_space_group_symop_operation_xyz
x,y,z
-x,-y,-z
loop_
_atom_site_type_symbol
_atom_site_label
_atom_site_fract_x
_atom_site_fract_y
_atom_site_fract_z
Si Si1 0.477678 0.800599 0.945235
Si Si2 0.651621 0.660193 0.939572
Si Si3 0.327760 0.778881 0.212723
Si Si4 0.997244 0.804314 0.115821
Si Si5 0.130323 0.845474 0.603230
Si Si6 0.887689 0.317598 0.122544
Si Si7 0.372928 0.438474 0.683836
O O1 0.278121 0.941520 0.734517
O O2 0.468461 0.098187 0.826536
O O3 0.500000 0.500000 0.000000
O O4 0.622727 0.657614 0.200002
O O5 0.491330 0.597024 0.773915
O O6 0.606934 0.003283 0.804965
O O7 0.757300 0.509291 0.166845
O O8 0.779244 0.488234 0.043497
O O9 0.500000 0.500000 0.500000
O O10 0.241071 0.679352 0.078773
O O11 0.171223 0.971078 0.062921
O O12 0.977368 0.511354 0.144041
O O13 0.181408 0.661546 0.392018
O O14 0.000000 0.000000 0.000000
O O15 0.000000 0.000000 0.500000
O O16 0.026431 0.972631 0.383170
#
# Coordination Sequence:
#
# PCOD9006573 Si02
#       7
#     2   2   2   2   2   2   2
#     4  10  21  38  66  99 135 166 202 265 323 388
#     4   9  22  41  67  96 131 174 203 263 330 387
#     4  11  27  45  64  95 126 172 230 268 314 383
#     4  11  26  44  68  92 127 177 215 273 326 372
#     4   9  18  39  64  96 127 163 206 251 327 388
#     4  10  22  43  68  90 132 165 215 273 317 387
#     4  10  22  41  66  96 135 164 215 260 326 389
#
# _framework density 21.039473999999998
#
# number of rings (size 3 to 8) (size 9 to 14) (size 15 to 20)
#    0.000    2.000    1.429    0.000    6.000    4.571 
#    0.000    0.000    0.000    0.000    0.000    0.000 
#    0.000    0.000    0.000    0.000    0.000    0.000 
#
# Total GULP energy -78034.498043 kJ/mol
# GULP energy per Si atom -5573.892717 kJ/mol
# Density = 2.099159 g / cm^3
# Si number density = 21.039474 Si / 1000 Ang^3
#
#
#
# Elastic Constant Matrix: (Units=GPa)
#
#
# Indices 1 2 3 4 5 6 
#
# 1 63.8155 30.7729 44.1107 -4.4200 -10.4276 16.3056
# 2 30.7729 115.5897 82.1500 0.6726 -16.6876 23.6281
# 3 44.1107 82.1500 221.6103 -5.9220 -33.7170 19.8414
# 4 -4.4200 0.6726 -5.9220 32.8571 4.4474 -3.9390
# 5 -10.4276 -16.6876 -33.7170 4.4474 33.3754 -2.4831
# 6 16.3056 23.6281 19.8414 -3.9390 -2.4831 34.8858
#
#
#
# Elastic Compliance Matrix: (Units=1/GPa)
#
#
# Indices 1 2 3 4 5 6 
#
# 1 0.020419 -0.002151 -0.002299 0.001286 0.002329 -0.006468
# 2 -0.002151 0.013451 -0.003753 -0.002255 0.002110 -0.006075
# 3 -0.002299 -0.003753 0.007056 0.000430 0.004474 -0.000029
# 4 0.001286 -0.002255 0.000430 0.031780 -0.004231 0.003969
# 5 0.002329 0.002110 0.004474 -0.004231 0.036610 -0.002934
# 6 -0.006468 -0.006075 -0.000029 0.003969 -0.002934 0.036059
#
#
# Mechanical properties :
#
#
# Convention : Reuss Voigt Hill
#
# Bulk Modulus (GPa) = 40.78472 79.45365 60.11918
# Shear Modulus (GPa) = 29.41952 36.48911 32.95432
#
# Velocity S-wave (km/s) = 3.74344 4.16903 3.96196
# Velocity P-wave (km/s) = 6.17345 7.81156 7.04031
#
# Compressibility (1/GPa) = 0.02451899
#
# Stress axis : x y z
#
# Youngs Moduli (GPa) = 48.97402 74.34374 141.71835
#
# Poissons Ratio (x) = 0.15992 0.32582
# Poissons Ratio (y) = 0.10535 0.53193
# Poissons Ratio (z) = 0.11260 0.27904
#
# Static dielectric constant tensor:
#      x y z
#    x 1.844660 -0.057330 0.032040 
#    y -0.057330 1.834100 -0.062940 
#    z 0.032040 -0.062940 1.770150 
# 
# From -- ./inp_files/303469.got.cif
#   From: 2010.05.17/outbox.cif.g08.bks.cpg/sg2_152_cif.got.tgz:303469.got - 2010.06.03 11:33:40.
