data_PCOD9006728
_publ_section_title
;
Structure prediction by ZEFSAII (Michael W. Deem and Ramdas Pophale) SiO2 
 PCOD9006728
Probable space group: P -1
;
_chemical_formula_sum "Si O2"
_cell_formula_units_Z 16
_cell_length_a 8.359815
_cell_length_b 12.852612
_cell_length_c 6.297240
_cell_angle_alpha 80.328594
_cell_angle_beta 79.697395
_cell_angle_gamma 91.076375
_cell_volume 655.407234
_symmetry_space_group_name_H-M "P -1"
_symmetry_group_IT_number 2
_symmetry_cell_setting 'triclinic'
loop_
_space_group_symop_operation_xyz
x,y,z
-x,-y,-z
loop_
_atom_site_type_symbol
_atom_site_label
_atom_site_fract_x
_atom_site_fract_y
_atom_site_fract_z
Si Si1 0.625068 0.666790 0.504513
Si Si2 0.516887 0.839600 0.158508
Si Si3 0.637741 0.426967 0.088324
Si Si4 0.158911 0.524082 0.603502
Si Si5 0.228397 0.014071 0.717777
Si Si6 0.008260 0.846747 0.007958
Si Si7 0.738309 0.848593 0.718844
Si Si8 0.788316 0.284017 0.743803
O O1 0.585357 0.731956 0.279933
O O2 0.462902 0.637745 0.685185
O O3 0.713474 0.559276 0.482303
O O4 0.726874 0.751477 0.593435
O O5 0.607180 0.935676 0.231642
O O6 0.324553 0.821414 0.235259
O O7 0.577163 0.849457 0.900248
O O8 0.797680 0.480016 0.152334
O O9 0.500000 0.500000 0.000000
O O10 0.695469 0.354835 0.909691
O O11 0.186494 0.647000 0.493296
O O12 0.000000 0.500000 0.500000
O O13 0.236612 0.044498 0.459499
O O14 0.173502 0.897334 0.845032
O O15 0.080301 0.078466 0.830324
O O16 0.882595 0.832322 0.852756
O O17 0.048345 0.744891 0.166868
#
# Coordination Sequence:
#
# PCOD9006728 Si02
#       8
#     2   2   2   2   2   2   2   2
#     4  11  22  41  66  87 125 174 214 253 316 390
#     4  10  21  40  65  92 122 166 217 256 310 387
#     4  12  24  44  66  89 125 181 219 258 317 390
#     4  12  29  41  63  97 134 168 214 277 324 372
#     4   9  21  43  66  92 125 169 208 254 330 385
#     4  10  23  40  65  96 131 162 204 269 322 382
#     4  10  21  38  68  92 120 167 216 256 314 386
#     4  12  25  41  63  96 129 164 218 266 317 374
#
# _framework density 24.412300999999999
#
# number of rings (size 3 to 8) (size 9 to 14) (size 15 to 20)
#    0.000    1.250    3.750    1.500    7.000    1.000 
#    0.000    0.625    0.000    0.000    0.000    0.000 
#    0.000    0.000    0.000    0.000    0.000    0.000 
#
# Total GULP energy -89435.187151 kJ/mol
# GULP energy per Si atom -5589.699197 kJ/mol
# Density = 2.435674 g / cm^3
# Si number density = 24.412301 Si / 1000 Ang^3
#
#
#
# Elastic Constant Matrix: (Units=GPa)
#
#
# Indices 1 2 3 4 5 6 
#
# 1 70.6064 9.7642 19.4589 -1.0259 19.8113 18.2162
# 2 9.7642 38.9705 10.7145 -8.5469 14.9511 -5.3587
# 3 19.4589 10.7145 107.8588 -20.2696 20.6120 -0.3975
# 4 -1.0259 -8.5469 -20.2696 29.4395 6.1293 -0.5969
# 5 19.8113 14.9511 20.6120 6.1293 30.2876 -6.1170
# 6 18.2162 -5.3587 -0.3975 -0.5969 -6.1170 35.5176
#
#
#
# Elastic Compliance Matrix: (Units=1/GPa)
#
#
# Indices 1 2 3 4 5 6 
#
# 1 0.023728 0.000820 0.000501 0.005360 -0.020477 -0.015477
# 2 0.000820 0.039192 0.005030 0.020563 -0.027224 0.001205
# 3 0.000501 0.005030 0.014521 0.014782 -0.016059 -0.001853
# 4 0.005360 0.020563 0.014782 0.057778 -0.036373 -0.004774
# 5 -0.020477 -0.027224 -0.016059 -0.036373 0.082128 0.019748
# 6 -0.015477 0.001205 -0.001853 -0.004774 0.019748 0.039575
#
#
# Mechanical properties :
#
#
# Convention : Reuss Voigt Hill
#
# Bulk Modulus (GPa) = 11.09331 33.03456 22.06394
# Shear Modulus (GPa) = 18.23044 30.88214 24.55629
#
# Velocity S-wave (km/s) = 2.73568 3.56058 3.17503
# Velocity P-wave (km/s) = 3.81216 5.51950 4.74329
#
# Compressibility (1/GPa) = 0.09014439
#
# Stress axis : x y z
#
# Youngs Moduli (GPa) = 42.14456 25.51532 68.86483
#
# Poissons Ratio (x) = -0.02093 -0.03451
# Poissons Ratio (y) = -0.03458 -0.34640
# Poissons Ratio (z) = -0.02112 -0.12834
#
# Static dielectric constant tensor:
#      x y z
#    x 2.015250 0.076840 0.000560 
#    y 0.076840 1.952740 -0.020660 
#    z 0.000560 -0.020660 1.935990 
# 
# From -- ./inp_files/37409.got.cif
#   From: 2010.05.17/outbox.cif.g08.bks.cpg/sg2_19_cif.got.tgz:37409.got - 2010.06.03 11:33:40.
