data_PCOD9006454
_publ_section_title
;
Structure prediction by ZEFSAII (Michael W. Deem and Ramdas Pophale) SiO2 
 PCOD9006454
Probable space group: P -1
;
_chemical_formula_sum "Si O2"
_cell_formula_units_Z 14
_cell_length_a 17.967025
_cell_length_b 9.877885
_cell_length_c 9.912678
_cell_angle_alpha 54.511143
_cell_angle_beta 28.354915
_cell_angle_gamma 58.359346
_cell_volume 679.886004
_symmetry_space_group_name_H-M "P -1"
_symmetry_group_IT_number 2
_symmetry_cell_setting 'triclinic'
loop_
_space_group_symop_operation_xyz
x,y,z
-x,-y,-z
loop_
_atom_site_type_symbol
_atom_site_label
_atom_site_fract_x
_atom_site_fract_y
_atom_site_fract_z
Si Si1 0.643407 0.880124 0.376533
Si Si2 0.667712 0.350448 0.682896
Si Si3 0.927816 0.088836 0.430143
Si Si4 0.016759 0.577630 0.283002
Si Si5 0.076162 0.920676 0.057114
Si Si6 0.663319 0.626656 0.736177
Si Si7 0.165315 0.370801 0.922707
O O1 0.621057 0.748900 0.608338
O O2 0.695998 0.770562 0.225012
O O3 0.500000 0.000000 0.500000
O O4 0.778790 0.992181 0.156371
O O5 0.753838 0.171074 0.663885
O O6 0.668960 0.440393 0.774702
O O7 0.766015 0.474788 0.359677
O O8 0.482574 0.349768 0.942653
O O9 0.000000 0.000000 0.500000
O O10 0.029328 0.255659 0.143435
O O11 0.946702 0.951924 0.362467
O O12 0.842744 0.648912 0.479116
O O13 0.000000 0.500000 0.500000
O O14 0.122171 0.735045 0.047247
O O15 0.090074 0.449270 0.131874
O O16 0.000000 0.000000 0.000000
#
# Coordination Sequence:
#
# PCOD9006454 Si02
#       7
#     2   2   2   2   2   2   2
#     4  10  23  42  70  99 133 171 224 277 331 399
#     4  10  21  38  66  89 128 164 221 273 319 385
#     4  11  22  37  65  99 126 171 231 271 319 403
#     4  12  24  42  66  94 134 171 223 273 332 402
#     4  11  23  40  65  96 133 172 215 274 338 387
#     4  10  22  39  63  97 129 168 216 276 331 384
#     4  10  22  42  67  92 124 180 225 260 322 408
#
# _framework density 20.591687
#
# number of rings (size 3 to 8) (size 9 to 14) (size 15 to 20)
#    0.000    1.429    2.857    2.143    6.000    2.286 
#    0.000    5.000    0.000    0.000    0.000    0.000 
#    0.000    0.000    0.000    0.000    0.000    0.000 
#
# Total GULP energy -77978.508706 kJ/mol
# GULP energy per Si atom -5569.893479 kJ/mol
# Density = 2.054482 g / cm^3
# Si number density = 20.591687 Si / 1000 Ang^3
#
#
#
# Elastic Constant Matrix: (Units=GPa)
#
#
# Indices 1 2 3 4 5 6 
#
# 1 88.5907 52.6404 36.5941 22.9463 5.5565 -10.8023
# 2 52.6404 116.6520 31.6628 28.0539 -15.5156 -4.0675
# 3 36.5941 31.6628 88.6294 18.5685 -9.0882 -10.5493
# 4 22.9463 28.0539 18.5685 38.7269 1.4057 -7.1367
# 5 5.5565 -15.5156 -9.0882 1.4057 19.4544 -1.5562
# 6 -10.8023 -4.0675 -10.5493 -7.1367 -1.5562 37.9969
#
#
#
# Elastic Compliance Matrix: (Units=1/GPa)
#
#
# Indices 1 2 3 4 5 6 
#
# 1 0.021431 -0.009653 -0.006498 -0.001568 -0.016559 0.002283
# 2 -0.009653 0.016708 0.001255 -0.007862 0.017127 -0.001382
# 3 -0.006498 0.001255 0.015865 -0.004641 0.010785 0.002262
# 4 -0.001568 -0.007862 -0.004641 0.035729 -0.010275 0.003714
# 5 -0.016559 0.017127 0.010785 -0.010275 0.075675 0.001289
# 6 0.002283 -0.001382 0.002262 0.003714 0.001289 0.028197
#
#
# Mechanical properties :
#
#
# Convention : Reuss Voigt Hill
#
# Bulk Modulus (GPa) = 41.29972 59.51851 50.40912
# Shear Modulus (GPa) = 21.60138 30.76729 26.18434
#
# Velocity S-wave (km/s) = 3.24239 3.86963 3.56982
# Velocity P-wave (km/s) = 5.84102 6.99516 6.44398
#
# Compressibility (1/GPa) = 0.02421324
#
# Stress axis : x y z
#
# Youngs Moduli (GPa) = 46.66179 59.85021 63.03316
#
# Poissons Ratio (x) = 0.57773 0.40958
# Poissons Ratio (y) = 0.45042 -0.07913
# Poissons Ratio (z) = 0.30320 -0.07514
#
# Static dielectric constant tensor:
#      x y z
#    x 1.748180 0.001710 -0.012820 
#    y 0.001710 1.780070 0.001480 
#    z -0.012820 0.001480 1.866900 
# 
# From -- ./inp_files/159512.got.cif
#   From: 2010.05.17/outbox.cif.g08.bks.cpg/sg2_80_cif.got.tgz:159512.got - 2010.06.03 11:33:40.
