data_PCOD9006310
_publ_section_title
;
Structure prediction by ZEFSAII (Michael W. Deem and Ramdas Pophale) SiO2 
 PCOD9006310
Probable space group: P -1
;
_chemical_formula_sum "Si O2"
_cell_formula_units_Z 12
_cell_length_a 11.694618
_cell_length_b 10.253253
_cell_length_c 12.804071
_cell_angle_alpha 55.375202
_cell_angle_beta 34.242788
_cell_angle_gamma 80.458417
_cell_volume 536.314273
_symmetry_space_group_name_H-M "P -1"
_symmetry_group_IT_number 2
_symmetry_cell_setting 'triclinic'
loop_
_space_group_symop_operation_xyz
x,y,z
-x,-y,-z
loop_
_atom_site_type_symbol
_atom_site_label
_atom_site_fract_x
_atom_site_fract_y
_atom_site_fract_z
Si Si1 0.221809 0.194849 0.817882
Si Si2 0.262472 0.521878 0.299722
Si Si3 0.826458 0.171732 0.282841
Si Si4 0.358612 0.574955 0.442419
Si Si5 0.830755 0.430155 0.009531
Si Si6 0.608513 0.740547 0.735657
O O1 0.386976 0.403025 0.526979
O O2 0.443740 0.232270 0.712595
O O3 0.035901 0.192398 0.040433
O O4 0.000000 0.000000 0.000000
O O5 0.383181 0.607653 0.285645
O O6 0.188226 0.298971 0.428666
O O7 0.000000 0.500000 0.500000
O O8 0.487938 0.674855 0.972408
O O9 0.998369 0.364452 0.143719
O O10 0.682475 0.957667 0.550449
O O11 0.683302 0.227896 0.289605
O O12 0.050492 0.456023 0.759149
O O13 0.632395 0.419766 0.089368
#
# Coordination Sequence:
#
# PCOD9006310 Si02
#       6
#     2   2   2   2   2   2
#     4  10  21  38  65  94 128 168 220 282 333 391
#     4  11  23  44  70  96 139 184 226 275 326 404
#     4  10  22  39  64 101 130 174 223 277 341 401
#     4  10  21  40  63  94 131 174 219 272 336 387
#     4  10  21  40  67  96 141 172 215 289 338 393
#     4  11  23  42  70  96 134 184 223 272 339 396
#
# _framework density 22.374942999999998
#
# number of rings (size 3 to 8) (size 9 to 14) (size 15 to 20)
#    0.000    1.667    1.667    2.500    0.000    8.000 
#    3.000   10.000    0.000    0.000    0.000    0.000 
#    0.000    0.000    0.000    0.000    0.000    0.000 
#
# Total GULP energy -66944.225028 kJ/mol
# GULP energy per Si atom -5578.685419 kJ/mol
# Density = 2.232402 g / cm^3
# Si number density = 22.374943 Si / 1000 Ang^3
#
#
#
# Elastic Constant Matrix: (Units=GPa)
#
#
# Indices 1 2 3 4 5 6 
#
# 1 153.8883 56.4745 51.6816 3.6668 18.7525 22.4497
# 2 56.4745 105.0121 36.6688 7.7589 10.2335 7.0905
# 3 51.6816 36.6688 60.7575 -2.8191 17.6898 13.6507
# 4 3.6668 7.7589 -2.8191 26.1797 2.1731 -2.8243
# 5 18.7525 10.2335 17.6898 2.1731 37.9315 8.6825
# 6 22.4497 7.0905 13.6507 -2.8243 8.6825 43.4924
#
#
#
# Elastic Compliance Matrix: (Units=1/GPa)
#
#
# Indices 1 2 3 4 5 6 
#
# 1 0.010161 -0.002977 -0.006092 -0.001446 -0.000653 -0.002811
# 2 -0.002977 0.013471 -0.006214 -0.004216 0.000780 0.000861
# 3 -0.006092 -0.006214 0.028762 0.006193 -0.008443 -0.002782
# 4 -0.001446 -0.004216 0.006193 0.040973 -0.004061 0.002961
# 5 -0.000653 0.000780 -0.008443 -0.004061 0.031491 -0.003690
# 6 -0.002811 0.000861 -0.002782 0.002961 -0.003690 0.026105
#
#
# Mechanical properties :
#
#
# Convention : Reuss Voigt Hill
#
# Bulk Modulus (GPa) = 45.81291 67.70087 56.75689
# Shear Modulus (GPa) = 26.48261 33.17623 29.82942
#
# Velocity S-wave (km/s) = 3.44406 3.85481 3.65521
# Velocity P-wave (km/s) = 6.02784 7.08067 6.57536
#
# Compressibility (1/GPa) = 0.02182791
#
# Stress axis : x y z
#
# Youngs Moduli (GPa) = 98.41969 74.23416 34.76865
#
# Poissons Ratio (x) = 0.22099 0.21180
# Poissons Ratio (y) = 0.29299 0.21605
# Poissons Ratio (z) = 0.59953 0.46129
#
# Static dielectric constant tensor:
#      x y z
#    x 1.874280 -0.055350 0.004980 
#    y -0.055350 1.887480 -0.028910 
#    z 0.004980 -0.028910 1.853260 
# 
# From -- ./inp_files/360292.got.cif
#   From: 2010.05.17/outbox.cif.g08.bks.cpg/sg2_181_cif.got.tgz:360292.got - 2010.06.03 11:33:40.
