data_PCOD9006568
_publ_section_title
;
Structure prediction by ZEFSAII (Michael W. Deem and Ramdas Pophale) SiO2 
 PCOD9006568
Probable space group: P -1
;
_chemical_formula_sum "Si O2"
_cell_formula_units_Z 14
_cell_length_a 13.404770
_cell_length_b 8.360348
_cell_length_c 10.820372
_cell_angle_alpha 139.548857
_cell_angle_beta 128.161942
_cell_angle_gamma 64.520938
_cell_volume 616.690287
_symmetry_space_group_name_H-M "P -1"
_symmetry_group_IT_number 2
_symmetry_cell_setting 'triclinic'
loop_
_space_group_symop_operation_xyz
x,y,z
-x,-y,-z
loop_
_atom_site_type_symbol
_atom_site_label
_atom_site_fract_x
_atom_site_fract_y
_atom_site_fract_z
Si Si1 0.860566 0.335510 0.149898
Si Si2 0.946462 0.185801 0.395040
Si Si3 0.962946 0.235283 0.935582
Si Si4 0.398140 0.464717 0.008641
Si Si5 0.706880 0.088961 0.332104
Si Si6 0.528103 0.624613 0.728225
Si Si7 0.790994 0.539173 0.827622
O O1 0.875837 0.253841 0.254102
O O2 0.719269 0.387986 0.036506
O O3 0.958940 0.580878 0.356411
O O4 0.903138 0.148617 0.967807
O O5 0.838731 0.105070 0.365281
O O6 0.031753 0.967458 0.287321
O O7 0.879784 0.458662 0.959720
O O8 0.110234 0.333393 0.118353
O O9 0.342439 0.180041 0.815406
O O10 0.500000 0.500000 0.000000
O O11 0.460251 0.535518 0.231918
O O12 0.586224 0.200100 0.236026
O O13 0.732293 0.281478 0.577034
O O14 0.500000 0.500000 0.500000
O O15 0.678695 0.710901 0.876348
#
# Coordination Sequence:
#
# PCOD9006568 Si02
#       7
#     2   2   2   2   2   2   2
#     4  11  24  43  65 101 140 167 222 278 328 397
#     4  11  24  41  69 102 134 176 215 275 337 392
#     4  11  21  39  67  98 135 172 218 271 332 398
#     4  12  25  43  68  96 132 178 227 277 332 395
#     4  11  23  42  68  96 131 176 223 271 332 399
#     4  10  22  42  65  93 132 174 220 272 329 400
#     4  10  21  38  66  99 129 169 223 274 326 395
#
# _framework density 22.701834999999999
#
# number of rings (size 3 to 8) (size 9 to 14) (size 15 to 20)
#    0.000    1.143    2.857    3.429    2.000    2.286 
#    0.000    2.857    3.143    0.000    0.000    0.000 
#    0.000    0.000    0.000    0.000    0.000    0.000 
#
# Total GULP energy -78148.267140 kJ/mol
# GULP energy per Si atom -5582.019081 kJ/mol
# Density = 2.265016 g / cm^3
# Si number density = 22.701835 Si / 1000 Ang^3
#
#
#
# Elastic Constant Matrix: (Units=GPa)
#
#
# Indices 1 2 3 4 5 6 
#
# 1 184.7273 48.2617 23.9070 -13.4675 0.8487 -7.5524
# 2 48.2617 112.2006 6.2308 -30.8763 7.4345 -18.2457
# 3 23.9070 6.2308 62.8962 -7.7275 -5.3709 12.1116
# 4 -13.4675 -30.8763 -7.7275 39.1683 2.9673 2.4952
# 5 0.8487 7.4345 -5.3709 2.9673 31.1167 -7.0106
# 6 -7.5524 -18.2457 12.1116 2.4952 -7.0106 47.6610
#
#
#
# Elastic Compliance Matrix: (Units=1/GPa)
#
#
# Indices 1 2 3 4 5 6 
#
# 1 0.006402 -0.002646 -0.002325 -0.000403 0.000241 0.000649
# 2 -0.002646 0.013589 -0.000156 0.009775 -0.003271 0.003830
# 3 -0.002325 -0.000156 0.018260 0.002853 0.001867 -0.004943
# 4 -0.000403 0.009775 0.002853 0.034010 -0.004976 0.000441
# 5 0.000241 -0.003271 0.001867 -0.004976 0.034531 0.003651
# 6 0.000649 0.003830 -0.004943 0.000441 0.003651 0.024321
#
#
# Mechanical properties :
#
#
# Convention : Reuss Voigt Hill
#
# Bulk Modulus (GPa) = 35.71850 57.40255 46.56053
# Shear Modulus (GPa) = 33.17867 42.35085 37.76476
#
# Velocity S-wave (km/s) = 3.82710 4.32386 4.08304
# Velocity P-wave (km/s) = 5.94111 7.08999 6.54083
#
# Compressibility (1/GPa) = 0.02799670
#
# Stress axis : x y z
#
# Youngs Moduli (GPa) = 156.21193 73.58955 54.76342
#
# Poissons Ratio (x) = 0.19470 0.12733
# Poissons Ratio (y) = 0.41329 0.00856
# Poissons Ratio (z) = 0.36320 0.01150
#
# Static dielectric constant tensor:
#      x y z
#    x 1.854570 -0.008420 -0.043300 
#    y -0.008420 1.883220 0.001490 
#    z -0.043300 0.001490 1.920730 
# 
# From -- ./inp_files/255657.got.cif
#   From: 2010.05.17/outbox.cif.g08.bks.cpg/sg2_128_cif.got.tgz:255657.got - 2010.06.03 11:33:40.
