data_PCOD9006609
_publ_section_title
;
Structure prediction by ZEFSAII (Michael W. Deem and Ramdas Pophale) SiO2 
 PCOD9006609
Probable space group: P -1
;
_chemical_formula_sum "Si O2"
_cell_formula_units_Z 16
_cell_length_a 25.644955
_cell_length_b 9.655398
_cell_length_c 11.795461
_cell_angle_alpha 58.936638
_cell_angle_beta 153.023997
_cell_angle_gamma 137.978156
_cell_volume 777.532414
_symmetry_space_group_name_H-M "P -1"
_symmetry_group_IT_number 2
_symmetry_cell_setting 'triclinic'
loop_
_space_group_symop_operation_xyz
x,y,z
-x,-y,-z
loop_
_atom_site_type_symbol
_atom_site_label
_atom_site_fract_x
_atom_site_fract_y
_atom_site_fract_z
Si Si1 0.000507 0.984084 0.373726
Si Si2 0.498165 0.138833 0.130118
Si Si3 0.070556 0.403186 0.731267
Si Si4 0.221970 0.787393 0.401276
Si Si5 0.913515 0.258516 0.081203
Si Si6 0.661598 0.125561 0.836142
Si Si7 0.218166 0.016087 0.486226
Si Si8 0.687324 0.629512 0.331268
O O1 0.187131 0.174126 0.602549
O O2 0.927009 0.082541 0.152661
O O3 0.000000 0.000000 0.500000
O O4 0.916628 0.731289 0.276258
O O5 0.583475 0.064111 0.282063
O O6 0.662291 0.414744 0.360371
O O7 0.397947 0.024958 0.101549
O O8 0.377144 0.090156 0.822113
O O9 0.000000 0.500000 0.500000
O O10 0.940690 0.208663 0.656095
O O11 0.243373 0.621070 0.036766
O O12 0.201774 0.938529 0.360409
O O13 0.094857 0.532995 0.326761
O O14 0.171174 0.745060 0.189901
O O15 0.798455 0.171697 0.005218
O O16 0.500000 0.000000 0.500000
O O17 0.246862 0.233349 0.480078
O O18 0.500000 0.500000 0.000000
#
# Coordination Sequence:
#
# PCOD9006609 Si02
#       8
#     2   2   2   2   2   2   2   2
#     4  11  24  41  68  97 130 172 218 277 322 388
#     4  11  21  39  66  93 127 166 217 268 326 383
#     4  11  22  42  67  97 128 171 224 267 326 395
#     4  11  22  41  63  94 129 169 213 268 321 388
#     4  11  24  42  63  92 133 171 215 263 332 389
#     4  12  24  43  65  93 132 176 219 266 331 395
#     4  10  21  38  67  90 125 164 217 272 316 386
#     4   9  21  40  58  95 126 160 208 262 331 375
#
# _framework density 20.577919000000001
#
# number of rings (size 3 to 8) (size 9 to 14) (size 15 to 20)
#    0.000    1.250    5.000    1.125    3.500    0.000 
#    6.750    1.875    0.000    0.000    0.000    0.000 
#    0.000    0.000    0.000    0.000    0.000    0.000 
#
# Total GULP energy -89264.823320 kJ/mol
# GULP energy per Si atom -5579.051457 kJ/mol
# Density = 2.053108 g / cm^3
# Si number density = 20.577919 Si / 1000 Ang^3
#
#
#
# Elastic Constant Matrix: (Units=GPa)
#
#
# Indices 1 2 3 4 5 6 
#
# 1 127.1227 22.5090 21.1712 17.6363 5.4850 -16.1117
# 2 22.5090 75.6576 21.4913 19.3919 -3.9953 -20.3931
# 3 21.1712 21.4913 71.1051 14.0095 4.2713 -4.2793
# 4 17.6363 19.3919 14.0095 34.8190 -5.3853 -4.4734
# 5 5.4850 -3.9953 4.2713 -5.3853 28.5989 4.9441
# 6 -16.1117 -20.3931 -4.2793 -4.4734 4.9441 33.7502
#
#
#
# Elastic Compliance Matrix: (Units=1/GPa)
#
#
# Indices 1 2 3 4 5 6 
#
# 1 0.009359 -0.000485 -0.001462 -0.003849 -0.003048 0.003925
# 2 -0.000485 0.018943 -0.003502 -0.007622 0.000144 0.009739
# 3 -0.001462 -0.003502 0.016627 -0.004633 -0.003423 -0.000818
# 4 -0.003849 -0.007622 -0.004633 0.037603 0.008002 -0.003218
# 5 -0.003048 0.000144 -0.003423 0.008002 0.038697 -0.006410
# 6 0.003925 0.009739 -0.000818 -0.003218 -0.006410 0.037797
#
#
# Mechanical properties :
#
#
# Convention : Reuss Voigt Hill
#
# Bulk Modulus (GPa) = 29.38616 44.91427 37.15022
# Shear Modulus (GPa) = 27.58367 33.34789 30.46578
#
# Velocity S-wave (km/s) = 3.66519 4.02999 3.85191
# Velocity P-wave (km/s) = 5.67652 6.59760 6.15431
#
# Compressibility (1/GPa) = 0.03402962
#
# Stress axis : x y z
#
# Youngs Moduli (GPa) = 106.85072 52.79073 60.14413
#
# Poissons Ratio (x) = 0.02562 0.08794
# Poissons Ratio (y) = 0.05187 0.21061
# Poissons Ratio (z) = 0.15624 0.18486
#
# Static dielectric constant tensor:
#      x y z
#    x 1.755290 -0.042820 0.016190 
#    y -0.042820 1.815900 -0.007960 
#    z 0.016190 -0.007960 1.733900 
# 
# From -- ./inp_files/257963.got.cif
#   From: 2010.05.17/outbox.cif.g08.bks.cpg/sg2_129_cif.got.tgz:257963.got - 2010.06.03 11:33:40.
