data_PCOD9006462
_publ_section_title
;
Structure prediction by ZEFSAII (Michael W. Deem and Ramdas Pophale) SiO2 
 PCOD9006462
Probable space group: P -1
;
_chemical_formula_sum "Si O2"
_cell_formula_units_Z 16
_cell_length_a 10.141129
_cell_length_b 11.774196
_cell_length_c 8.052242
_cell_angle_alpha 86.592448
_cell_angle_beta 72.302083
_cell_angle_gamma 132.296679
_cell_volume 628.158203
_symmetry_space_group_name_H-M "P -1"
_symmetry_group_IT_number 2
_symmetry_cell_setting 'triclinic'
loop_
_space_group_symop_operation_xyz
x,y,z
-x,-y,-z
loop_
_atom_site_type_symbol
_atom_site_label
_atom_site_fract_x
_atom_site_fract_y
_atom_site_fract_z
Si Si1 0.974281 0.113687 0.122445
Si Si2 0.100086 0.412706 0.209653
Si Si3 0.742554 0.757604 0.266356
Si Si4 0.423023 0.917410 0.270943
Si Si5 0.303011 0.441601 0.422278
Si Si6 0.706489 0.977003 0.908851
Si Si7 0.505628 0.665901 0.816454
Si Si8 0.303066 0.735946 0.678872
O O1 0.982435 0.226358 0.224444
O O2 0.863327 0.940849 0.262608
O O3 0.192686 0.221248 0.951024
O O4 0.859406 0.063803 0.995284
O O5 0.154786 0.433520 0.379151
O O6 0.940694 0.412677 0.215120
O O7 0.312487 0.536023 0.021649
O O8 0.504962 0.630249 0.369523
O O9 0.782114 0.671954 0.373206
O O10 0.358423 0.809317 0.465760
O O11 0.262053 0.903982 0.246531
O O12 0.600798 0.109571 0.249400
O O13 0.501655 0.884383 0.096100
O O14 0.388173 0.385543 0.283472
O O15 0.670335 0.842456 0.829373
O O16 0.408990 0.684874 0.705216
#
# Coordination Sequence:
#
# PCOD9006462 Si02
#       8
#     2   2   2   2   2   2   2   2
#     4  11  23  40  68  95 130 166 220 266 317 377
#     4  12  24  42  66  96 130 165 218 265 320 379
#     4  10  25  44  64  94 129 173 212 266 323 383
#     4   9  20  40  62  92 126 171 210 263 318 378
#     4  11  25  45  67  94 132 171 213 265 325 384
#     4  10  21  38  66  90 128 170 215 255 320 385
#     4  11  24  42  65  92 133 174 208 259 330 386
#     4  10  22  41  65  95 128 165 214 266 316 379
#
# _framework density 25.471288999999999
#
# number of rings (size 3 to 8) (size 9 to 14) (size 15 to 20)
#    0.000    1.500    2.500    1.500    7.000    1.500 
#    0.000    0.625    0.000    0.000    0.000    0.000 
#    0.000    0.000    0.000    0.000    0.000    0.000 
#
# Total GULP energy -89560.132414 kJ/mol
# GULP energy per Si atom -5597.508276 kJ/mol
# Density = 2.541332 g / cm^3
# Si number density = 25.471289 Si / 1000 Ang^3
#
#
#
# Elastic Constant Matrix: (Units=GPa)
#
#
# Indices 1 2 3 4 5 6 
#
# 1 83.8478 14.5543 23.1816 6.1161 25.1205 21.6440
# 2 14.5543 69.5477 21.5277 -1.3720 3.3932 -0.3737
# 3 23.1816 21.5277 108.9011 -9.8839 26.0880 6.4640
# 4 6.1161 -1.3720 -9.8839 32.0537 -0.2997 -1.7764
# 5 25.1205 3.3932 26.0880 -0.2997 43.8514 16.6312
# 6 21.6440 -0.3737 6.4640 -1.7764 16.6312 39.3309
#
#
#
# Elastic Compliance Matrix: (Units=1/GPa)
#
#
# Indices 1 2 3 4 5 6 
#
# 1 0.016629 -0.002829 -0.001555 -0.004195 -0.005902 -0.006617
# 2 -0.002829 0.015826 -0.002958 0.000406 0.001572 0.001547
# 3 -0.001555 -0.002958 0.011937 0.003891 -0.006660 0.001858
# 4 -0.004195 0.000406 0.003891 0.033407 -0.001098 0.003646
# 5 -0.005902 0.001572 -0.006660 -0.001098 0.033806 -0.009987
# 6 -0.006617 0.001547 0.001858 0.003646 -0.009987 0.033164
#
#
# Mechanical properties :
#
#
# Convention : Reuss Voigt Hill
#
# Bulk Modulus (GPa) = 33.66067 42.31375 37.98721
# Shear Modulus (GPa) = 29.52380 36.58274 33.05327
#
# Velocity S-wave (km/s) = 3.40825 3.79388 3.60622
# Velocity P-wave (km/s) = 5.36023 5.98663 5.68207
#
# Compressibility (1/GPa) = 0.02970826
#
# Stress axis : x y z
#
# Youngs Moduli (GPa) = 60.13444 63.18776 83.77583
#
# Poissons Ratio (x) = 0.17877 0.13026
# Poissons Ratio (y) = 0.17013 0.24779
# Poissons Ratio (z) = 0.09350 0.18690
#
# Static dielectric constant tensor:
#      x y z
#    x 2.104840 0.024740 -0.034900 
#    y 0.024740 1.989320 -0.013460 
#    z -0.034900 -0.013460 1.995800 
# 
# From -- ./inp_files/272529.got.cif
#   From: 2010.05.17/outbox.cif.g08.bks.cpg/sg2_137_cif.got.tgz:272529.got - 2010.06.03 11:33:40.
