data_PCOD9006093
_publ_section_title
;
Structure prediction by ZEFSAII (Michael W. Deem and Ramdas Pophale) SiO2 
 PCOD9006093
Probable space group: P -1
;
_chemical_formula_sum "Si O2"
_cell_formula_units_Z 14
_cell_length_a 7.843461
_cell_length_b 8.868531
_cell_length_c 15.057144
_cell_angle_alpha 113.648038
_cell_angle_beta 147.382162
_cell_angle_gamma 71.564486
_cell_volume 516.664892
_symmetry_space_group_name_H-M "P -1"
_symmetry_group_IT_number 2
_symmetry_cell_setting 'triclinic'
loop_
_space_group_symop_operation_xyz
x,y,z
-x,-y,-z
loop_
_atom_site_type_symbol
_atom_site_label
_atom_site_fract_x
_atom_site_fract_y
_atom_site_fract_z
Si Si1 0.330825 0.581580 0.528846
Si Si2 0.141200 0.696820 0.745136
Si Si3 0.732242 0.804493 0.149811
Si Si4 0.951295 0.467497 0.847895
Si Si5 0.589783 0.112702 0.263807
Si Si6 0.911532 0.225090 0.940004
Si Si7 0.238375 0.018987 0.315605
O O1 0.500000 0.500000 0.500000
O O2 0.591166 0.522757 0.702127
O O3 0.321887 0.778747 0.584629
O O4 0.994766 0.486917 0.373523
O O5 0.228180 0.781391 0.709478
O O6 0.856369 0.794863 0.688441
O O7 0.430810 0.728883 0.946577
O O8 0.957072 0.650098 0.221056
O O9 0.664582 0.923386 0.230501
O O10 0.917354 0.929753 0.192365
O O11 0.992159 0.349836 0.922749
O O12 0.164316 0.637091 0.987768
O O13 0.218473 0.133350 0.085621
O O14 0.686366 0.083568 0.763565
O O15 0.500000 0.000000 0.500000
#
# Coordination Sequence:
#
# PCOD9006093 Si02
#       7
#     2   2   2   2   2   2   2
#     4  11  25  40  53  79 118 157 190 223 273 339
#     4  11  18  34  60  87 110 142 187 237 281 321
#     4  10  18  34  57  90 111 138 182 241 286 327
#     4   9  18  32  56  76 115 146 181 226 279 328
#     4  10  18  36  62  85 114 140 184 234 283 331
#     4   9  15  30  53  88 110 143 175 230 283 333
#     4  10  17  28  51  87 122 138 173 229 289 336
#
# _framework density 27.096869000000002
#
# number of rings (size 3 to 8) (size 9 to 14) (size 15 to 20)
#    0.000    2.000    4.286    3.000    0.000    0.000 
#    5.143    2.143    0.000    0.000    0.000    0.000 
#    0.000    0.000    0.000    0.000    0.000    0.000 
#
# Total GULP energy -78274.366162 kJ/mol
# GULP energy per Si atom -5591.026154 kJ/mol
# Density = 2.703519 g / cm^3
# Si number density = 27.096869 Si / 1000 Ang^3
#
#
#
# Elastic Constant Matrix: (Units=GPa)
#
#
# Indices 1 2 3 4 5 6 
#
# 1 93.1292 14.2587 19.4762 20.8819 -13.1060 -15.6433
# 2 14.2587 159.7406 54.2140 44.5610 1.2160 -37.9496
# 3 19.4762 54.2140 156.4398 43.7786 7.8611 -2.1893
# 4 20.8819 44.5610 43.7786 65.5599 -3.7422 -16.0024
# 5 -13.1060 1.2160 7.8611 -3.7422 28.3637 16.2618
# 6 -15.6433 -37.9496 -2.1893 -16.0024 16.2618 45.9897
#
#
#
# Elastic Compliance Matrix: (Units=1/GPa)
#
#
# Indices 1 2 3 4 5 6 
#
# 1 0.012510 0.000504 -0.001147 -0.002806 0.004540 0.002035
# 2 0.000504 0.010173 -0.002151 -0.003736 -0.005277 0.009029
# 3 -0.001147 -0.002151 0.008662 -0.004731 -0.001899 -0.002728
# 4 -0.002806 -0.003736 -0.004731 0.022692 0.001361 0.003152
# 5 0.004540 -0.005277 -0.001899 0.001361 0.049766 -0.020024
# 6 0.002035 0.009029 -0.002728 0.003152 -0.020024 0.037934
#
#
# Mechanical properties :
#
#
# Convention : Reuss Voigt Hill
#
# Bulk Modulus (GPa) = 38.82447 65.02307 51.92377
# Shear Modulus (GPa) = 32.06980 49.40670 40.73825
#
# Velocity S-wave (km/s) = 3.44397 4.27469 3.88162
# Velocity P-wave (km/s) = 5.49306 6.95791 6.26842
#
# Compressibility (1/GPa) = 0.02575695
#
# Stress axis : x y z
#
# Youngs Moduli (GPa) = 79.93441 98.30395 115.45300
#
# Poissons Ratio (x) = -0.04956 0.13238
# Poissons Ratio (y) = -0.04030 0.24836
# Poissons Ratio (z) = 0.09166 0.21147
#
# Static dielectric constant tensor:
#      x y z
#    x 2.260680 -0.037490 -0.026570 
#    y -0.037490 2.103320 0.076860 
#    z -0.026570 0.076860 2.176600 
# 
# From -- ./inp_files/213919.got.cif
#   From: 2010.05.17/outbox.cif.g08.bks.cpg/sg2_107_cif.got.tgz:213919.got - 2010.06.03 11:33:40.
