data_PCOD9006513
_publ_section_title
;
Structure prediction by ZEFSAII (Michael W. Deem and Ramdas Pophale) SiO2 
 PCOD9006513
Probable space group: P -1
;
_chemical_formula_sum "Si O2"
_cell_formula_units_Z 16
_cell_length_a 16.649939
_cell_length_b 18.593297
_cell_length_c 5.893322
_cell_angle_alpha 106.115908
_cell_angle_beta 77.332855
_cell_angle_gamma 159.746663
_cell_volume 602.091094
_symmetry_space_group_name_H-M "P -1"
_symmetry_group_IT_number 2
_symmetry_cell_setting 'triclinic'
loop_
_space_group_symop_operation_xyz
x,y,z
-x,-y,-z
loop_
_atom_site_type_symbol
_atom_site_label
_atom_site_fract_x
_atom_site_fract_y
_atom_site_fract_z
Si Si1 0.028987 0.265779 0.446267
Si Si2 0.448157 0.236846 0.762313
Si Si3 0.886016 0.199896 0.067141
Si Si4 0.501230 0.781238 0.779267
Si Si5 0.750545 0.682516 0.420287
Si Si6 0.845243 0.875207 0.203060
Si Si7 0.031313 0.430964 0.824464
Si Si8 0.547421 0.078109 0.786041
O O1 0.989003 0.315638 0.614320
O O2 0.200667 0.360067 0.568191
O O3 0.794625 0.018240 0.327204
O O4 0.085916 0.331234 0.203097
O O5 0.540758 0.295192 0.500756
O O6 0.379444 0.265006 0.820974
O O7 0.528367 0.285359 0.016221
O O8 0.647826 0.023425 0.186858
O O9 0.764623 0.037036 0.833417
O O10 0.991862 0.365156 0.042773
O O11 0.300397 0.674935 0.814093
O O12 0.500000 0.500000 0.500000
O O13 0.769742 0.727622 0.191963
O O14 0.974914 0.921142 0.580114
O O15 0.000000 0.000000 0.000000
O O16 0.831598 0.321334 0.806550
O O17 0.500000 0.000000 0.500000
O O18 0.500000 0.000000 0.000000
#
# Coordination Sequence:
#
# PCOD9006513 Si02
#       8
#     2   2   2   2   2   2   2   2
#     4  10  21  40  67  87 130 171 214 265 328 390
#     4  10  24  43  65  93 132 171 220 265 331 387
#     4  10  22  43  64  92 136 169 217 268 330 387
#     4  11  25  39  66  98 127 171 218 271 319 388
#     4  10  24  40  63  95 127 164 222 272 331 389
#     4  10  24  42  66  88 131 176 215 274 336 401
#     4  11  23  38  67  95 129 169 223 263 329 388
#     4  10  21  38  66  94 129 174 214 264 327 388
#
# _framework density 26.574051000000001
#
# number of rings (size 3 to 8) (size 9 to 14) (size 15 to 20)
#    0.000    1.750    2.500    0.000    8.750    2.000 
#    0.000    0.000    0.000    5.250    0.000    0.000 
#    0.000    0.000    0.000    0.000    0.000    0.000 
#
# Total GULP energy -89098.239299 kJ/mol
# GULP energy per Si atom -5568.639956 kJ/mol
# Density = 2.651357 g / cm^3
# Si number density = 26.574051 Si / 1000 Ang^3
#
#
#
# Elastic Constant Matrix: (Units=GPa)
#
#
# Indices 1 2 3 4 5 6 
#
# 1 143.1093 36.9574 45.6861 -4.5038 15.8101 18.8666
# 2 36.9574 88.5989 38.8579 9.1180 18.8073 13.6355
# 3 45.6861 38.8579 121.3362 -8.5198 14.2768 6.8972
# 4 -4.5038 9.1180 -8.5198 50.8944 -0.7135 -1.1288
# 5 15.8101 18.8073 14.2768 -0.7135 34.5036 -5.6939
# 6 18.8666 13.6355 6.8972 -1.1288 -5.6939 54.5252
#
#
#
# Elastic Compliance Matrix: (Units=1/GPa)
#
#
# Indices 1 2 3 4 5 6 
#
# 1 0.008813 -0.001828 -0.002246 0.000639 -0.002521 -0.002558
# 2 -0.001828 0.016169 -0.003706 -0.003863 -0.007144 -0.003768
# 3 -0.002246 -0.003706 0.010558 0.002222 -0.001226 0.000286
# 4 0.000639 -0.003863 0.002222 0.020813 0.001497 0.001051
# 5 -0.002521 -0.007144 -0.001226 0.001497 0.035654 0.006568
# 6 -0.002558 -0.003768 0.000286 0.001051 0.006568 0.020839
#
#
# Mechanical properties :
#
#
# Convention : Reuss Voigt Hill
#
# Bulk Modulus (GPa) = 50.05130 66.22744 58.13937
# Shear Modulus (GPa) = 37.01910 43.42084 40.21997
#
# Velocity S-wave (km/s) = 3.73641 4.04661 3.89460
# Velocity P-wave (km/s) = 6.12290 6.84173 6.49227
#
# Compressibility (1/GPa) = 0.01997950
#
# Stress axis : x y z
#
# Youngs Moduli (GPa) = 113.47410 61.84817 94.71406
#
# Poissons Ratio (x) = 0.11305 0.21271
# Poissons Ratio (y) = 0.20742 0.35103
# Poissons Ratio (z) = 0.25484 0.22922
#
# Static dielectric constant tensor:
#      x y z
#    x 2.019600 -0.163250 -0.135340 
#    y -0.163250 2.042660 -0.259700 
#    z -0.135340 -0.259700 1.789450 
# 
# From -- ./inp_files/112431.got.cif
#   From: 2010.05.17/outbox.cif.g08.bks.cpg/sg2_57_cif.got.tgz:112431.got - 2010.06.03 11:33:40.
