data_PCOD9006265
_publ_section_title
;
Structure prediction by ZEFSAII (Michael W. Deem and Ramdas Pophale) SiO2 
 PCOD9006265
Probable space group: P -1
;
_chemical_formula_sum "Si O2"
_cell_formula_units_Z 16
_cell_length_a 10.147019
_cell_length_b 14.707657
_cell_length_c 9.000110
_cell_angle_alpha 146.889677
_cell_angle_beta 94.315824
_cell_angle_gamma 83.495412
_cell_volume 728.508265
_symmetry_space_group_name_H-M "P -1"
_symmetry_group_IT_number 2
_symmetry_cell_setting 'triclinic'
loop_
_space_group_symop_operation_xyz
x,y,z
-x,-y,-z
loop_
_atom_site_type_symbol
_atom_site_label
_atom_site_fract_x
_atom_site_fract_y
_atom_site_fract_z
Si Si1 0.042524 0.129215 0.303117
Si Si2 0.338262 0.989478 0.212463
Si Si3 0.058577 0.462947 0.618724
Si Si4 0.008736 0.781622 0.235245
Si Si5 0.371252 0.956386 0.773144
Si Si6 0.327280 0.356073 0.354405
Si Si7 0.237036 0.991603 0.510127
Si Si8 0.634312 0.332711 0.389633
O O1 0.200553 0.081781 0.270345
O O2 0.001154 0.299593 0.449931
O O3 0.990610 0.159504 0.510872
O O4 0.000000 0.000000 0.000000
O O5 0.468633 0.045172 0.219667
O O6 0.337140 0.026225 0.436521
O O7 0.340469 0.789123 0.917788
O O8 0.214984 0.421625 0.549197
O O9 0.000000 0.500000 0.500000
O O10 0.032583 0.593716 0.928082
O O11 0.127547 0.867962 0.283657
O O12 0.864238 0.845630 0.245929
O O13 0.316040 0.917901 0.555246
O O14 0.327123 0.810115 0.676858
O O15 0.320631 0.155233 0.058771
O O16 0.475982 0.373092 0.446770
O O17 0.310447 0.488080 0.393259
#
# Coordination Sequence:
#
# PCOD9006265 Si02
#       8
#     2   2   2   2   2   2   2   2
#     4  11  26  42  68  96 131 176 224 272 334 404
#     4  10  21  40  64  91 129 170 218 271 330 390
#     4  12  25  40  66  97 131 175 220 273 333 389
#     4  10  24  42  62  94 138 171 219 277 327 395
#     4  11  21  39  67  98 124 175 221 271 325 396
#     4  10  22  38  61  95 131 164 221 269 323 385
#     4  10  22  39  64  91 133 170 218 264 339 391
#     4  10  21  38  65  92 125 170 216 271 321 386
#
# _framework density 21.962688
#
# number of rings (size 3 to 8) (size 9 to 14) (size 15 to 20)
#    0.000    1.500    0.000    5.250   10.500    0.000 
#    0.000    2.500    0.000   12.000    0.000    0.000 
#    0.000    0.000    0.000    0.000    0.000    0.000 
#
# Total GULP energy -89163.237275 kJ/mol
# GULP energy per Si atom -5572.702330 kJ/mol
# Density = 2.191270 g / cm^3
# Si number density = 21.962688 Si / 1000 Ang^3
#
#
#
# Elastic Constant Matrix: (Units=GPa)
#
#
# Indices 1 2 3 4 5 6 
#
# 1 53.1461 22.9289 31.9962 -10.6282 -17.2347 5.1217
# 2 22.9289 144.6710 47.2850 12.8075 11.2102 8.5153
# 3 31.9962 47.2850 115.2006 14.6280 -3.9859 9.1654
# 4 -10.6282 12.8075 14.6280 36.2187 4.8000 5.9914
# 5 -17.2347 11.2102 -3.9859 4.8000 24.1315 2.5118
# 6 5.1217 8.5153 9.1654 5.9914 2.5118 32.6838
#
#
#
# Elastic Compliance Matrix: (Units=1/GPa)
#
#
# Indices 1 2 3 4 5 6 
#
# 1 0.039324 -0.006430 -0.008669 0.014820 0.027409 -0.006879
# 2 -0.006430 0.009550 -0.002042 -0.003343 -0.008740 0.000377
# 3 -0.008669 -0.002042 0.012738 -0.006678 -0.001777 -0.000321
# 4 0.014820 -0.003343 -0.006678 0.036332 0.004493 -0.006584
# 5 0.027409 -0.008740 -0.001777 0.004493 0.064649 -0.007312
# 6 -0.006879 0.000377 -0.000321 -0.006584 -0.007312 0.033435
#
#
# Mechanical properties :
#
#
# Convention : Reuss Voigt Hill
#
# Bulk Modulus (GPa) = 36.58868 57.49308 47.04088
# Shear Modulus (GPa) = 20.88382 32.66065 26.77223
#
# Velocity S-wave (km/s) = 3.08698 3.86047 3.49519
# Velocity P-wave (km/s) = 5.42232 6.79010 6.14439
#
# Compressibility (1/GPa) = 0.02733086
#
# Stress axis : x y z
#
# Youngs Moduli (GPa) = 25.42958 104.71531 78.50336
#
# Poissons Ratio (x) = 0.67332 0.68054
# Poissons Ratio (y) = 0.16351 0.16028
# Poissons Ratio (z) = 0.22045 0.21380
#
# Static dielectric constant tensor:
#      x y z
#    x 1.823800 0.010340 -0.018170 
#    y 0.010340 1.872850 0.013610 
#    z -0.018170 0.013610 1.838010 
# 
# From -- ./inp_files/274867.got.cif
#   From: 2010.05.17/outbox.cif.g08.bks.cpg/sg2_138_cif.got.tgz:274867.got - 2010.06.03 11:33:40.
