data_PCOD9006912
_publ_section_title
;
Structure prediction by ZEFSAII (Michael W. Deem and Ramdas Pophale) SiO2 
 PCOD9006912
Probable space group: P -1
;
_chemical_formula_sum "Si O2"
_cell_formula_units_Z 16
_cell_length_a 25.088464
_cell_length_b 5.409330
_cell_length_c 8.309612
_cell_angle_alpha 85.955303
_cell_angle_beta 48.661603
_cell_angle_gamma 108.892684
_cell_volume 734.090771
_symmetry_space_group_name_H-M "P -1"
_symmetry_group_IT_number 2
_symmetry_cell_setting 'triclinic'
loop_
_space_group_symop_operation_xyz
x,y,z
-x,-y,-z
loop_
_atom_site_type_symbol
_atom_site_label
_atom_site_fract_x
_atom_site_fract_y
_atom_site_fract_z
Si Si1 0.277960 0.431980 0.942680
Si Si2 0.188947 0.373544 0.787979
Si Si3 0.047315 0.355188 0.271795
Si Si4 0.427177 0.896149 0.776044
Si Si5 0.046329 0.484917 0.752517
Si Si6 0.629217 0.713259 0.012822
Si Si7 0.890059 0.780477 0.560582
Si Si8 0.788628 0.065128 0.464454
O O1 0.244194 0.406753 0.833137
O O2 0.342290 0.751601 0.851494
O O3 0.329014 0.276619 0.896688
O O4 0.202370 0.309714 0.223591
O O5 0.195124 0.144609 0.671929
O O6 0.213230 0.674867 0.639239
O O7 0.099827 0.285970 0.043457
O O8 0.098086 0.433403 0.330234
O O9 0.024129 0.579291 0.235502
O O10 0.957089 0.084039 0.479442
O O11 0.418007 0.626740 0.909258
O O12 0.500000 0.000000 0.500000
O O13 0.428001 0.148014 0.864368
O O14 0.077843 0.261138 0.672184
O O15 0.133407 0.778467 0.577372
O O16 0.000000 0.500000 0.000000
O O17 0.703062 0.886548 0.734918
#
# Coordination Sequence:
#
# PCOD9006912 Si02
#       8
#     2   2   2   2   2   2   2   2
#     4   9  23  39  67  91 121 164 210 254 306 371
#     4  11  25  41  59  90 127 171 207 255 311 360
#     4  10  22  38  55  80 116 164 211 262 306 352
#     4  10  21  40  70 102 123 151 204 256 302 364
#     4  12  23  34  56  81 119 164 210 255 310 355
#     4  10  22  39  67  96 120 164 198 251 305 362
#     4  10  21  39  56  83 115 158 212 262 304 360
#     4  12  25  40  61  90 131 163 208 256 308 370
#
# _framework density 21.795670000000001
#
# number of rings (size 3 to 8) (size 9 to 14) (size 15 to 20)
#    0.750    0.750    1.250    3.750    5.250    1.000 
#    4.500    0.000    0.000    4.500    0.000    0.000 
#    0.000    0.000    0.000    0.000    0.000    0.000 
#
# Total GULP energy -89175.452513 kJ/mol
# GULP energy per Si atom -5573.465782 kJ/mol
# Density = 2.174606 g / cm^3
# Si number density = 21.795670 Si / 1000 Ang^3
#
#
#
# Elastic Constant Matrix: (Units=GPa)
#
#
# Indices 1 2 3 4 5 6 
#
# 1 18.9539 11.0828 -18.8527 -4.7962 20.8665 -16.5328
# 2 11.0828 111.8573 14.9018 13.0765 6.7410 -33.2451
# 3 -18.8527 14.9018 62.2748 -10.0650 10.3428 -28.6773
# 4 -4.7962 13.0765 -10.0650 38.0671 1.1908 -3.0084
# 5 20.8665 6.7410 10.3428 1.1908 14.3662 4.9072
# 6 -16.5328 -33.2451 -28.6773 -3.0084 4.9072 25.4328
#
#
#
# Elastic Compliance Matrix: (Units=1/GPa)
#
#
# Indices 1 2 3 4 5 6 
#
# 1 0.002492 -0.006662 -0.012549 -0.003231 0.017336 -0.024966
# 2 -0.006662 0.012990 -0.002390 -0.005324 0.002739 0.008797
# 3 -0.012549 -0.002390 0.007821 0.000394 0.015535 -0.005414
# 4 -0.003231 -0.005324 0.000394 0.027043 0.006976 -0.006763
# 5 0.017336 0.002739 0.015535 0.006976 0.021456 0.029052
# 6 -0.024966 0.008797 -0.005414 -0.006763 0.029052 0.022078
#
#
# Mechanical properties :
#
#
# Convention : Reuss Voigt Hill
#
# Bulk Modulus (GPa) = -50.25164 23.03886 -13.60639
# Shear Modulus (GPa) = 38.32872 27.97016 33.14944
#
# Velocity S-wave (km/s) = 4.19805 3.58619 3.90413
# Velocity P-wave (km/s) = 0.62639 5.26697 3.75056
#
# Compressibility (1/GPa) = -0.01989985
#
# Stress axis : x y z
#
# Youngs Moduli (GPa) = 401.20406 76.98076 127.86335
#
# Poissons Ratio (x) = 0.51287 1.60461
# Poissons Ratio (y) = 2.67296 0.30559
# Poissons Ratio (z) = 5.03488 0.18398
#
# Static dielectric constant tensor:
#      x y z
#    x 1.904620 -0.053990 0.109780 
#    y -0.053990 1.962920 -0.014080 
#    z 0.109780 -0.014080 1.843810 
# 
# From -- ./inp_files/358227.got.cif
#   From: 2010.05.17/outbox.cif.g08.bks.cpg/sg2_180_cif.got.tgz:358227.got - 2010.06.03 11:33:40.
