data_PCOD9006670
_publ_section_title
;
Structure prediction by ZEFSAII (Michael W. Deem and Ramdas Pophale) SiO2 
 PCOD9006670
Probable space group: P -1
;
_chemical_formula_sum "Si O2"
_cell_formula_units_Z 12
_cell_length_a 10.716024
_cell_length_b 5.303175
_cell_length_c 8.337658
_cell_angle_alpha 104.041573
_cell_angle_beta 90.958695
_cell_angle_gamma 96.705655
_cell_volume 456.018492
_symmetry_space_group_name_H-M "P -1"
_symmetry_group_IT_number 2
_symmetry_cell_setting 'triclinic'
loop_
_space_group_symop_operation_xyz
x,y,z
-x,-y,-z
loop_
_atom_site_type_symbol
_atom_site_label
_atom_site_fract_x
_atom_site_fract_y
_atom_site_fract_z
Si Si1 0.922004 0.400620 0.313768
Si Si2 0.145664 0.951427 0.493770
Si Si3 0.558965 0.043794 0.263383
Si Si4 0.698339 0.978802 0.921767
Si Si5 0.320244 0.390961 0.610985
Si Si6 0.168092 0.538663 0.168498
O O1 0.847971 0.127699 0.331820
O O2 0.806284 0.554439 0.285454
O O3 0.000000 0.500000 0.500000
O O4 0.024490 0.413091 0.179899
O O5 0.188509 0.711654 0.358485
O O6 0.234974 0.195888 0.459463
O O7 0.000000 0.000000 0.500000
O O8 0.602478 0.331763 0.383534
O O9 0.413379 0.021057 0.210750
O O10 0.593065 0.800968 0.332019
O O11 0.630938 0.030007 0.094829
O O12 0.801575 0.226382 0.921909
O O13 0.750620 0.698673 0.888430
#
# Coordination Sequence:
#
# PCOD9006670 Si02
#       6
#     2   2   2   2   2   2
#     4  10  21  38  67  97 130 170 196 252 327 397
#     4  11  21  40  69  99 134 170 199 250 334 399
#     4  11  26  45  68  85 128 177 222 263 312 371
#     4  11  25  48  64  89 124 180 221 262 315 367
#     4  12  22  40  70  99 122 171 214 258 316 392
#     4  11  23  39  73  95 125 168 216 258 315 394
#
# _framework density 26.314720000000001
#
# number of rings (size 3 to 8) (size 9 to 14) (size 15 to 20)
#    0.000    1.000    5.000    3.000    2.333    2.667 
#    0.000   10.000    0.000    0.000    0.000    0.000 
#    0.000    0.000    0.000    0.000    0.000    0.000 
#
# Total GULP energy -66912.337732 kJ/mol
# GULP energy per Si atom -5576.028144 kJ/mol
# Density = 2.625483 g / cm^3
# Si number density = 26.314720 Si / 1000 Ang^3
#
#
#
# Elastic Constant Matrix: (Units=GPa)
#
#
# Indices 1 2 3 4 5 6 
#
# 1 129.0460 54.6156 54.6520 16.0108 4.0036 -10.4248
# 2 54.6156 209.5623 39.4490 4.8448 -4.3618 -24.1373
# 3 54.6520 39.4490 48.6005 6.0326 -17.3174 12.7849
# 4 16.0108 4.8448 6.0326 29.3720 4.5313 -5.4790
# 5 4.0036 -4.3618 -17.3174 4.5313 60.9123 -2.8064
# 6 -10.4248 -24.1373 12.7849 -5.4790 -2.8064 44.4187
#
#
#
# Elastic Compliance Matrix: (Units=1/GPa)
#
#
# Indices 1 2 3 4 5 6 
#
# 1 0.025069 0.002625 -0.039004 -0.000991 -0.011660 0.017678
# 2 0.002625 0.007211 -0.012189 0.001837 -0.002885 0.008087
# 3 -0.039004 -0.012189 0.096651 -0.008884 0.027852 -0.042932
# 4 -0.000991 0.001837 -0.008884 0.038296 -0.004821 0.007742
# 5 -0.011660 -0.002885 0.027852 -0.004821 0.024731 -0.011353
# 6 0.017678 0.008087 -0.042932 0.007742 -0.011353 0.043651
#
#
# Mechanical properties :
#
#
# Convention : Reuss Voigt Hill
#
# Bulk Modulus (GPa) = 31.45028 76.07134 53.76081
# Shear Modulus (GPa) = 14.56270 42.84008 28.70139
#
# Velocity S-wave (km/s) = 2.35501 4.03921 3.30615
# Velocity P-wave (km/s) = 4.40140 7.12213 5.92018
#
# Compressibility (1/GPa) = 0.03179622
#
# Stress axis : x y z
#
# Youngs Moduli (GPa) = 39.88925 138.67428 10.34654
#
# Poissons Ratio (x) = -0.36403 0.40355
# Poissons Ratio (y) = -0.10471 0.12611
# Poissons Ratio (z) = 1.55583 1.69027
#
# Static dielectric constant tensor:
#      x y z
#    x 2.119890 0.072830 0.102360 
#    y 0.072830 2.292020 0.091460 
#    z 0.102360 0.091460 2.222610 
# 
# From -- ./inp_files/229878.got.cif
#   From: 2010.05.17/outbox.cif.g08.bks.cpg/sg2_115_cif.got.tgz:229878.got - 2010.06.03 11:33:40.
