data_PCOD9006664
_publ_section_title
;
Structure prediction by ZEFSAII (Michael W. Deem and Ramdas Pophale) SiO2 
 PCOD9006664
Probable space group: P -1
;
_chemical_formula_sum "Si O2"
_cell_formula_units_Z 14
_cell_length_a 17.263789
_cell_length_b 8.844124
_cell_length_c 11.982191
_cell_angle_alpha 110.968603
_cell_angle_beta 158.743442
_cell_angle_gamma 71.313314
_cell_volume 618.878680
_symmetry_space_group_name_H-M "P -1"
_symmetry_group_IT_number 2
_symmetry_cell_setting 'triclinic'
loop_
_space_group_symop_operation_xyz
x,y,z
-x,-y,-z
loop_
_atom_site_type_symbol
_atom_site_label
_atom_site_fract_x
_atom_site_fract_y
_atom_site_fract_z
Si Si1 0.638992 0.154377 0.358364
Si Si2 0.445076 0.755731 0.304633
Si Si3 0.733286 0.571632 0.365125
Si Si4 0.882146 0.338899 0.349908
Si Si5 0.203332 0.120299 0.634166
Si Si6 0.232097 0.479445 0.357114
Si Si7 0.764702 0.050488 0.740248
O O1 0.676816 0.343514 0.443562
O O2 0.653325 0.115983 0.497366
O O3 0.811400 0.045973 0.497944
O O4 0.409476 0.109327 0.986187
O O5 0.593352 0.611240 0.505710
O O6 0.266041 0.816207 0.167116
O O7 0.617591 0.899850 0.547423
O O8 0.325968 0.695479 0.015333
O O9 0.859178 0.409156 0.460899
O O10 0.767636 0.732137 0.377733
O O11 0.781605 0.614480 0.568324
O O12 0.500000 0.500000 0.000000
O O13 0.000000 0.500000 0.500000
O O14 0.011667 0.178224 0.467992
O O15 0.000000 0.500000 0.000000
O O16 0.000000 0.000000 0.000000
#
# Coordination Sequence:
#
# PCOD9006664 Si02
#       7
#     2   2   2   2   2   2   2
#     4  11  23  40  63  95 136 169 220 284 334 388
#     4  11  24  45  70  97 134 181 228 274 337 419
#     4  11  20  42  69  89 128 178 221 268 336 398
#     4  10  21  38  67  97 123 170 233 270 325 403
#     4  10  22  40  66  94 128 173 224 278 332 399
#     4  12  25  40  65 102 137 174 224 280 338 404
#     4  11  25  45  70  97 134 181 223 278 351 403
#
# _framework density 22.621559000000001
#
# number of rings (size 3 to 8) (size 9 to 14) (size 15 to 20)
#    0.000    1.143    2.857    3.429    0.000    6.286 
#    0.000    1.429    0.000    0.000    0.000    0.000 
#    0.000    0.000    0.000    0.000    0.000    0.000 
#
# Total GULP energy -78143.708586 kJ/mol
# GULP energy per Si atom -5581.693470 kJ/mol
# Density = 2.257007 g / cm^3
# Si number density = 22.621559 Si / 1000 Ang^3
#
#
#
# Elastic Constant Matrix: (Units=GPa)
#
#
# Indices 1 2 3 4 5 6 
#
# 1 93.3038 32.8172 21.2546 -15.9805 -3.7098 -25.3564
# 2 32.8172 85.4847 -5.6065 -10.7879 9.0827 -18.9322
# 3 21.2546 -5.6065 83.7364 -16.5906 -0.2923 -5.5432
# 4 -15.9805 -10.7879 -16.5906 38.6876 -3.0219 2.5432
# 5 -3.7098 9.0827 -0.2923 -3.0219 38.8921 -8.5977
# 6 -25.3564 -18.9322 -5.5432 2.5432 -8.5977 35.9716
#
#
#
# Elastic Compliance Matrix: (Units=1/GPa)
#
#
# Indices 1 2 3 4 5 6 
#
# 1 0.016501 -0.004393 -0.003015 0.004050 0.005053 0.009776
# 2 -0.004393 0.015292 0.003076 0.003258 -0.002709 0.004548
# 3 -0.003015 0.003076 0.014096 0.005561 -0.000197 0.001225
# 4 0.004050 0.003258 0.005561 0.030784 0.002933 0.003951
# 5 0.005053 -0.002709 -0.000197 0.002933 0.029005 0.008831
# 6 0.009776 0.004548 0.001225 0.003951 0.008831 0.039105
#
#
# Mechanical properties :
#
#
# Convention : Reuss Voigt Hill
#
# Bulk Modulus (GPa) = 26.86380 39.93952 33.40166
# Shear Modulus (GPa) = 30.14656 36.98090 33.56373
#
# Velocity S-wave (km/s) = 3.65450 4.04761 3.85607
# Velocity P-wave (km/s) = 5.45053 6.28793 5.88414
#
# Compressibility (1/GPa) = 0.03722481
#
# Stress axis : x y z
#
# Youngs Moduli (GPa) = 60.60193 65.39160 70.94297
#
# Poissons Ratio (x) = 0.28727 0.21392
# Poissons Ratio (y) = 0.26623 -0.21823
# Poissons Ratio (z) = 0.18274 -0.20116
#
# Static dielectric constant tensor:
#      x y z
#    x 1.874230 -0.045090 0.203630 
#    y -0.045090 1.862940 -0.052410 
#    z 0.203630 -0.052410 1.647240 
# 
# From -- ./inp_files/462320.got.cif
#   From: 2010.05.17/outbox.cif.g08.bks.cpg/sg2_232_cif.got.tgz:462320.got - 2010.06.03 11:33:40.
