data_PCOD9006723
_publ_section_title
;
Structure prediction by ZEFSAII (Michael W. Deem and Ramdas Pophale) SiO2 
 PCOD9006723
Probable space group: P -1
;
_chemical_formula_sum "Si O2"
_cell_formula_units_Z 16
_cell_length_a 10.085481
_cell_length_b 7.488702
_cell_length_c 27.345544
_cell_angle_alpha 131.227714
_cell_angle_beta 31.969400
_cell_angle_gamma 110.879893
_cell_volume 707.928476
_symmetry_space_group_name_H-M "P -1"
_symmetry_group_IT_number 2
_symmetry_cell_setting 'triclinic'
loop_
_space_group_symop_operation_xyz
x,y,z
-x,-y,-z
loop_
_atom_site_type_symbol
_atom_site_label
_atom_site_fract_x
_atom_site_fract_y
_atom_site_fract_z
Si Si1 0.254382 0.636589 0.300545
Si Si2 0.689248 0.744355 0.120321
Si Si3 0.232719 0.028637 0.653243
Si Si4 0.346856 0.429273 0.622834
Si Si5 0.281191 0.271406 0.146652
Si Si6 0.602603 0.335259 0.887983
Si Si7 0.361928 0.952443 0.398893
Si Si8 0.331146 0.312224 0.380586
O O1 0.449540 0.710262 0.218993
O O2 0.311837 0.349292 0.207340
O O3 0.910391 0.867043 0.446942
O O4 0.342219 0.693098 0.337223
O O5 0.632762 0.710611 0.074989
O O6 0.573619 0.065450 0.225938
O O7 0.000000 0.500000 0.000000
O O8 0.271089 0.221617 0.636625
O O9 0.914593 0.072435 0.755717
O O10 0.467627 0.720301 0.509731
O O11 0.332082 0.114122 0.686574
O O12 0.537446 0.500203 0.610928
O O13 0.037686 0.686546 0.751855
O O14 0.319662 0.491529 0.142465
O O15 0.500000 0.000000 0.000000
O O16 0.500000 0.500000 0.000000
O O17 0.310308 0.157931 0.407518
O O18 0.000000 0.500000 0.500000
#
# Coordination Sequence:
#
# PCOD9006723 Si02
#       8
#     2   2   2   2   2   2   2   2
#     4   9  20  38  63  87 116 161 216 246 299 385
#     4  10  23  42  66  89 128 176 208 247 322 387
#     4  10  21  40  65  90 123 169 206 259 320 379
#     4  10  22  38  62  89 125 160 207 260 321 371
#     4  10  21  40  60  86 124 165 201 256 315 368
#     4  10  23  40  63  91 123 162 214 259 301 380
#     4  10  21  38  68  91 119 165 211 259 318 385
#     4  11  25  40  61  96 128 157 208 274 318 364
#
# _framework density 22.601153
#
# number of rings (size 3 to 8) (size 9 to 14) (size 15 to 20)
#    0.000    2.000    1.250    0.750   14.000    0.500 
#    4.500    0.000    0.000    3.750    0.000    0.000 
#    0.000    0.000    0.000    0.000    0.000    0.000 
#
# Total GULP energy -89171.291535 kJ/mol
# GULP energy per Si atom -5573.205721 kJ/mol
# Density = 2.254971 g / cm^3
# Si number density = 22.601153 Si / 1000 Ang^3
#
#
#
# Elastic Constant Matrix: (Units=GPa)
#
#
# Indices 1 2 3 4 5 6 
#
# 1 140.1537 4.4782 67.1933 11.8372 8.2596 23.5978
# 2 4.4782 30.6176 10.8491 0.1931 3.2452 3.8366
# 3 67.1933 10.8491 152.1674 13.4985 8.5558 18.7295
# 4 11.8372 0.1931 13.4985 21.5069 -0.4276 7.1902
# 5 8.2596 3.2452 8.5558 -0.4276 30.8122 8.7162
# 6 23.5978 3.8366 18.7295 7.1902 8.7162 35.7709
#
#
#
# Elastic Compliance Matrix: (Units=1/GPa)
#
#
# Indices 1 2 3 4 5 6 
#
# 1 0.009732 0.000446 -0.003645 -0.001715 -0.000510 -0.004090
# 2 0.000446 0.033970 -0.002332 0.001701 -0.002321 -0.002493
# 3 -0.003645 -0.002332 0.008816 -0.003160 -0.000960 -0.001092
# 4 -0.001715 0.001701 -0.003160 0.052518 0.004443 -0.009035
# 5 -0.000510 -0.002321 -0.000960 0.004443 0.035560 -0.008469
# 6 -0.004090 -0.002493 -0.001092 -0.009035 -0.008469 0.035373
#
#
# Mechanical properties :
#
#
# Convention : Reuss Voigt Hill
#
# Bulk Modulus (GPa) = 24.12263 54.22000 39.17131
# Shear Modulus (GPa) = 24.89414 33.64587 29.27000
#
# Velocity S-wave (km/s) = 3.32242 3.86253 3.60261
# Velocity P-wave (km/s) = 5.04126 6.62828 5.88848
#
# Compressibility (1/GPa) = 0.04145486
#
# Stress axis : x y z
#
# Youngs Moduli (GPa) = 102.75556 29.43789 113.42724
#
# Poissons Ratio (x) = -0.01312 0.41342
# Poissons Ratio (y) = -0.04578 0.26454
# Poissons Ratio (z) = 0.37452 0.06866
#
# Static dielectric constant tensor:
#      x y z
#    x 1.900990 0.021760 -0.069930 
#    y 0.021760 1.835300 0.106040 
#    z -0.069930 0.106040 0.917180 
# 
# From -- ./inp_files/312897.got.cif
#   From: 2010.05.17/outbox.cif.g08.bks.cpg/sg2_157_cif.got.tgz:312897.got - 2010.06.03 11:33:40.
