data_PCOD9006961
_publ_section_title
;
Structure prediction by ZEFSAII (Michael W. Deem and Ramdas Pophale) SiO2 
 PCOD9006961
Probable space group: P -1
;
_chemical_formula_sum "Si O2"
_cell_formula_units_Z 16
_cell_length_a 9.033394
_cell_length_b 9.303511
_cell_length_c 17.167870
_cell_angle_alpha 69.216780
_cell_angle_beta 123.890540
_cell_angle_gamma 133.027067
_cell_volume 874.771787
_symmetry_space_group_name_H-M "P -1"
_symmetry_group_IT_number 2
_symmetry_cell_setting 'triclinic'
loop_
_space_group_symop_operation_xyz
x,y,z
-x,-y,-z
loop_
_atom_site_type_symbol
_atom_site_label
_atom_site_fract_x
_atom_site_fract_y
_atom_site_fract_z
Si Si1 0.182200 0.182815 0.604093
Si Si2 0.273958 0.649705 0.056233
Si Si3 0.794877 0.203897 0.845923
Si Si4 0.675311 0.453380 0.066809
Si Si5 0.321235 0.561244 0.336667
Si Si6 0.055419 0.783023 0.604098
Si Si7 0.540802 0.220973 0.231268
Si Si8 0.534078 0.514409 0.751007
O O1 0.408731 0.289194 0.594474
O O2 0.291121 0.315109 0.687897
O O3 0.005839 0.196082 0.505041
O O4 0.087261 0.960245 0.626436
O O5 0.319866 0.806997 0.103211
O O6 0.366755 0.543116 0.142700
O O7 0.362762 0.691060 0.986115
O O8 0.000000 0.500000 0.000000
O O9 0.741440 0.313708 0.748731
O O10 0.067434 0.344462 0.906801
O O11 0.682068 0.989725 0.822052
O O12 0.651108 0.359628 0.160944
O O13 0.500000 0.500000 0.000000
O O14 0.308597 0.426271 0.290274
O O15 0.153529 0.426837 0.381753
O O16 0.281893 0.805204 0.676085
O O17 0.485603 0.325191 0.255658
#
# Coordination Sequence:
#
# PCOD9006961 Si02
#       8
#     2   2   2   2   2   2   2   2
#     4   9  21  37  60  86 113 146 193 238 275 337
#     4   9  18  37  59  77 113 148 186 238 274 328
#     4  10  21  39  58  82 117 149 187 235 278 333
#     4  11  22  38  59  84 114 151 189 232 285 338
#     4   9  18  38  56  81 111 150 182 233 277 331
#     4  11  19  36  66  84 107 151 198 227 282 342
#     4  12  22  37  58  86 117 151 185 236 288 333
#     4   9  20  38  53  80 126 144 181 243 286 323
#
# _framework density 18.290482999999998
#
# number of rings (size 3 to 8) (size 9 to 14) (size 15 to 20)
#    0.750    1.250    3.750    0.375    0.000    1.500 
#    2.250    0.000    0.000    2.250    0.000    0.000 
#    0.000    0.000    0.000    0.000    0.000    0.000 
#
# Total GULP energy -89108.268617 kJ/mol
# GULP energy per Si atom -5569.266789 kJ/mol
# Density = 1.824885 g / cm^3
# Si number density = 18.290483 Si / 1000 Ang^3
#
#
#
# Elastic Constant Matrix: (Units=GPa)
#
#
# Indices 1 2 3 4 5 6 
#
# 1 56.6373 21.7631 24.9699 -3.1856 9.4042 -10.8855
# 2 21.7631 72.4905 13.6871 14.1439 1.8725 -8.5164
# 3 24.9699 13.6871 81.4916 10.0511 24.0802 -13.4246
# 4 -3.1856 14.1439 10.0511 13.1243 3.5593 -0.8389
# 5 9.4042 1.8725 24.0802 3.5593 23.4485 3.1717
# 6 -10.8855 -8.5164 -13.4246 -0.8389 3.1717 26.9901
#
#
#
# Elastic Compliance Matrix: (Units=1/GPa)
#
#
# Indices 1 2 3 4 5 6 
#
# 1 0.029738 -0.012170 -0.006706 0.028426 -0.009302 0.006795
# 2 -0.012170 0.023146 0.002625 -0.031059 0.004757 0.002177
# 3 -0.006706 0.002625 0.024339 -0.016433 -0.021679 0.012266
# 4 0.028426 -0.031059 -0.016433 0.132343 -0.012000 -0.000985
# 5 -0.009302 0.004757 -0.021679 -0.012000 0.073057 -0.021992
# 6 0.006795 0.002177 0.012266 -0.000985 -0.021992 0.049133
#
#
# Mechanical properties :
#
#
# Convention : Reuss Voigt Hill
#
# Bulk Modulus (GPa) = 22.36047 36.82883 29.59465
# Shear Modulus (GPa) = 13.18691 22.72587 17.95639
#
# Velocity S-wave (km/s) = 2.68800 3.52873 3.13666
# Velocity P-wave (km/s) = 4.67820 6.06480 5.41606
#
# Compressibility (1/GPa) = 0.04472178
#
# Stress axis : x y z
#
# Youngs Moduli (GPa) = 33.62650 43.20452 41.08686
#
# Poissons Ratio (x) = 0.52578 0.27553
# Poissons Ratio (y) = 0.40922 -0.10786
# Poissons Ratio (z) = 0.22550 -0.11342
#
# Static dielectric constant tensor:
#      x y z
#    x 1.634600 0.001920 -0.014640 
#    y 0.001920 1.616650 0.015770 
#    z -0.014640 0.015770 1.647970 
# 
# From -- ./inp_files/556149.got.cif
#   From: 2010.05.17/outbox.cif.g08.bks.cpg/sg2_279_cif.got.tgz:556149.got - 2010.06.03 11:33:40.
