data_PCOD9006275
_publ_section_title
;
Structure prediction by ZEFSAII (Michael W. Deem and Ramdas Pophale) SiO2 
 PCOD9006275
Probable space group: P -1
;
_chemical_formula_sum "Si O2"
_cell_formula_units_Z 16
_cell_length_a 23.412712
_cell_length_b 17.045595
_cell_length_c 5.240810
_cell_angle_alpha 62.035624
_cell_angle_beta 121.657548
_cell_angle_gamma 159.736065
_cell_volume 614.648408
_symmetry_space_group_name_H-M "P -1"
_symmetry_group_IT_number 2
_symmetry_cell_setting 'triclinic'
loop_
_space_group_symop_operation_xyz
x,y,z
-x,-y,-z
loop_
_atom_site_type_symbol
_atom_site_label
_atom_site_fract_x
_atom_site_fract_y
_atom_site_fract_z
Si Si1 0.667588 0.694818 0.917025
Si Si2 0.083471 0.890406 0.788079
Si Si3 0.994160 0.641669 0.301127
Si Si4 0.476933 0.865612 0.641649
Si Si5 0.864242 0.770799 0.394133
Si Si6 0.844883 0.310194 0.729891
Si Si7 0.393500 0.660312 0.238464
Si Si8 0.309302 0.106045 0.618786
O O1 0.732891 0.672416 0.072251
O O2 0.828236 0.937280 0.064843
O O3 0.500000 0.500000 0.000000
O O4 0.643179 0.733076 0.568390
O O5 0.979190 0.831199 0.450376
O O6 0.253539 0.041073 0.880289
O O7 0.952403 0.659105 0.951373
O O8 0.110288 0.705463 0.356688
O O9 0.844743 0.406891 0.450523
O O10 0.121439 0.849774 0.464304
O O11 0.436598 0.777522 0.400351
O O12 0.500000 0.000000 0.500000
O O13 0.674049 0.076982 0.830493
O O14 0.365517 0.683645 0.879653
O O15 0.753653 0.584700 0.632088
O O16 0.000000 0.000000 0.500000
O O17 0.000000 0.500000 0.000000
O O18 0.549427 0.784349 0.336964
#
# Coordination Sequence:
#
# PCOD9006275 Si02
#       8
#     2   2   2   2   2   2   2   2
#     4  10  21  42  66  98 140 183 239 304 371 450
#     4  10  23  40  67  98 139 184 239 302 374 441
#     4  10  21  38  65  92 138 174 239 292 367 429
#     4  12  29  49  76 111 153 200 256 310 381 449
#     4  10  24  49  69 109 149 190 250 311 384 450
#     4  11  23  40  68 100 135 186 243 313 362 438
#     4  12  26  50  78 108 155 204 252 313 378 457
#     4  11  22  41  69 103 136 189 250 295 366 451
#
# _framework density 26.031141999999999
#
# number of rings (size 3 to 8) (size 9 to 14) (size 15 to 20)
#    0.000    1.250    2.500    2.625    5.250    3.000 
#    9.000    0.000    0.000    0.000    0.000    0.000 
#    0.000    0.000    0.000    0.000    0.000    0.000 
#
# Total GULP energy -89372.666346 kJ/mol
# GULP energy per Si atom -5585.791647 kJ/mol
# Density = 2.597189 g / cm^3
# Si number density = 26.031142 Si / 1000 Ang^3
#
#
#
# Elastic Constant Matrix: (Units=GPa)
#
#
# Indices 1 2 3 4 5 6 
#
# 1 141.7736 41.4340 54.1597 -10.2576 23.8431 -1.8904
# 2 41.4340 117.6467 17.5280 -32.6860 6.0710 -2.6558
# 3 54.1597 17.5280 91.9210 -32.8648 23.6031 -4.3057
# 4 -10.2576 -32.6860 -32.8648 47.0929 -3.1430 3.9267
# 5 23.8431 6.0710 23.6031 -3.1430 46.4325 -1.8584
# 6 -1.8904 -2.6558 -4.3057 3.9267 -1.8584 35.1801
#
#
#
# Elastic Compliance Matrix: (Units=1/GPa)
#
#
# Indices 1 2 3 4 5 6 
#
# 1 0.010955 -0.004289 -0.007243 -0.005758 -0.001775 -0.000073
# 2 -0.004289 0.012342 0.004114 0.010450 -0.000795 -0.000004
# 3 -0.007243 0.004114 0.021877 0.016052 -0.006835 0.000446
# 4 -0.005758 0.010450 0.016052 0.038336 -0.004056 -0.002049
# 5 -0.001775 -0.000795 -0.006835 -0.004056 0.025785 0.000823
# 6 -0.000073 -0.000004 0.000446 -0.002049 0.000823 0.028748
#
#
# Mechanical properties :
#
#
# Convention : Reuss Voigt Hill
#
# Bulk Modulus (GPa) = 32.96173 64.17609 48.56891
# Shear Modulus (GPa) = 30.67667 41.62240 36.14954
#
# Velocity S-wave (km/s) = 3.43660 4.00302 3.73057
# Velocity P-wave (km/s) = 5.33262 6.78769 6.10367
#
# Compressibility (1/GPa) = 0.03033821
#
# Stress axis : x y z
#
# Youngs Moduli (GPa) = 91.28410 81.02467 45.71053
#
# Poissons Ratio (x) = 0.34749 0.33107
# Poissons Ratio (y) = 0.39149 -0.18805
# Poissons Ratio (z) = 0.66115 -0.33332
#
# Static dielectric constant tensor:
#      x y z
#    x 2.654930 -0.307370 -0.468010 
#    y -0.307370 2.267450 0.349360 
#    z -0.468010 0.349360 2.650230 
# 
# From -- ./inp_files/124347.got.cif
#   From: 2010.05.17/outbox.cif.g08.bks.cpg/sg2_63_cif.got.tgz:124347.got - 2010.06.03 11:33:40.
