data_PCOD9006997
_publ_section_title
;
Structure prediction by ZEFSAII (Michael W. Deem and Ramdas Pophale) SiO2 
 PCOD9006997
Probable space group: P -1
;
_chemical_formula_sum "Si O2"
_cell_formula_units_Z 16
_cell_length_a 11.862186
_cell_length_b 7.631379
_cell_length_c 21.135172
_cell_angle_alpha 44.481030
_cell_angle_beta 38.880822
_cell_angle_gamma 69.512344
_cell_volume 744.069121
_symmetry_space_group_name_H-M "P -1"
_symmetry_group_IT_number 2
_symmetry_cell_setting 'triclinic'
loop_
_space_group_symop_operation_xyz
x,y,z
-x,-y,-z
loop_
_atom_site_type_symbol
_atom_site_label
_atom_site_fract_x
_atom_site_fract_y
_atom_site_fract_z
Si Si1 0.465128 0.354390 0.797683
Si Si2 0.213672 0.101498 0.417920
Si Si3 0.412921 0.667008 0.630485
Si Si4 0.100686 0.561854 0.690797
Si Si5 0.703136 0.142253 0.668911
Si Si6 0.319747 0.796525 0.074558
Si Si7 0.769845 0.011167 0.810327
Si Si8 0.827279 0.688176 0.399836
O O1 0.376542 0.527745 0.751870
O O2 0.515262 0.173301 0.770886
O O3 0.345775 0.107421 0.963593
O O4 0.671578 0.597640 0.675630
O O5 0.187254 0.872542 0.542133
O O6 0.349723 0.083029 0.305585
O O7 0.000000 0.000000 0.500000
O O8 0.207528 0.543524 0.712163
O O9 0.602369 0.638939 0.524461
O O10 0.500000 0.000000 0.500000
O O11 0.149283 0.378390 0.665250
O O12 0.858670 0.432694 0.830093
O O13 0.843073 0.444505 0.497674
O O14 0.800308 0.087520 0.703180
O O15 0.530148 0.782808 0.977757
O O16 0.248240 0.774839 0.184234
O O17 0.979733 0.018715 0.738889
#
# Coordination Sequence:
#
# PCOD9006997 Si02
#       8
#     2   2   2   2   2   2   2   2
#     4  10  22  40  61  85 118 163 198 245 302 353
#     4  11  24  34  60  94 122 148 201 258 297 347
#     4  11  21  37  60  86 116 151 205 255 292 344
#     4  10  21  39  58  90 119 156 202 242 295 359
#     4   9  20  33  57  87 119 155 194 245 299 349
#     4   9  20  35  61  86 120 164 193 236 305 366
#     4   9  17  32  59  83 120 154 193 232 299 360
#     4   9  19  32  59  86 111 155 197 251 292 344
#
# _framework density 21.503378999999999
#
# number of rings (size 3 to 8) (size 9 to 14) (size 15 to 20)
#    0.000    2.250    1.250    0.750   15.750    0.500 
#    0.000    0.625   11.000    3.000    0.000    0.000 
#    0.000    0.000    0.000    0.000    0.000    0.000 
#
# Total GULP energy -89075.007829 kJ/mol
# GULP energy per Si atom -5567.187989 kJ/mol
# Density = 2.145444 g / cm^3
# Si number density = 21.503379 Si / 1000 Ang^3
#
#
#
# Elastic Constant Matrix: (Units=GPa)
#
#
# Indices 1 2 3 4 5 6 
#
# 1 135.0733 6.0106 39.7332 -9.0154 4.3353 -0.4835
# 2 6.0106 27.3327 4.5214 0.9573 4.6385 -1.0670
# 3 39.7332 4.5214 73.4053 -3.8399 -5.0934 1.4345
# 4 -9.0154 0.9573 -3.8399 23.0184 -7.4713 4.5584
# 5 4.3353 4.6385 -5.0934 -7.4713 39.7302 0.0973
# 6 -0.4835 -1.0670 1.4345 4.5584 0.0973 20.0874
#
#
#
# Elastic Compliance Matrix: (Units=1/GPa)
#
#
# Indices 1 2 3 4 5 6 
#
# 1 0.009054 -0.001121 -0.004770 0.002484 -0.001001 -0.000060
# 2 -0.001121 0.038502 -0.002479 -0.004943 -0.005628 0.003344
# 3 -0.004770 -0.002479 0.016770 0.002555 0.003445 -0.002041
# 4 0.002484 -0.004943 0.002555 0.050725 0.010202 -0.011945
# 5 -0.001001 -0.005628 0.003445 0.010202 0.028304 -0.003021
# 6 -0.000060 0.003344 -0.002041 -0.011945 -0.003021 0.052830
#
#
# Mechanical properties :
#
#
# Convention : Reuss Voigt Hill
#
# Bulk Modulus (GPa) = 21.01500 37.37131 29.19315
# Shear Modulus (GPa) = 21.85435 28.93695 25.39565
#
# Velocity S-wave (km/s) = 3.19144 3.67235 3.44031
# Velocity P-wave (km/s) = 4.83472 5.94967 5.42093
#
# Compressibility (1/GPa) = 0.04758507
#
# Stress axis : x y z
#
# Youngs Moduli (GPa) = 110.44597 25.97288 59.62919
#
# Poissons Ratio (x) = 0.02912 0.28444
# Poissons Ratio (y) = 0.12385 0.14782
# Poissons Ratio (z) = 0.52685 0.06439
#
# Static dielectric constant tensor:
#      x y z
#    x 1.855930 -0.031240 -0.012690 
#    y -0.031240 1.841700 0.001170 
#    z -0.012690 0.001170 1.852380 
# 
# From -- ./inp_files/609751.got.cif
#   From: 2010.05.17/outbox.cif.g08.bks.cpg/sg2_305_cif.got.tgz:609751.got - 2010.06.03 11:33:40.
