data_PCOD9006340
_publ_section_title
;
Structure prediction by ZEFSAII (Michael W. Deem and Ramdas Pophale) SiO2 
 PCOD9006340
Probable space group: P -1
;
_chemical_formula_sum "Si O2"
_cell_formula_units_Z 16
_cell_length_a 5.098337
_cell_length_b 20.227189
_cell_length_c 7.696231
_cell_angle_alpha 119.881495
_cell_angle_beta 107.094319
_cell_angle_gamma 103.743930
_cell_volume 582.879554
_symmetry_space_group_name_H-M "P -1"
_symmetry_group_IT_number 2
_symmetry_cell_setting 'triclinic'
loop_
_space_group_symop_operation_xyz
x,y,z
-x,-y,-z
loop_
_atom_site_type_symbol
_atom_site_label
_atom_site_fract_x
_atom_site_fract_y
_atom_site_fract_z
Si Si1 0.792641 0.838156 0.784585
Si Si2 0.238029 0.688417 0.938136
Si Si3 0.959246 0.164334 0.553188
Si Si4 0.301909 0.514516 0.185054
Si Si5 0.660591 0.642225 0.149926
Si Si6 0.396902 0.345426 0.339127
Si Si7 0.435610 0.996380 0.186697
Si Si8 0.395472 0.137639 0.866913
O O1 0.881754 0.849580 0.611187
O O2 0.729657 0.739810 0.675055
O O3 0.547424 0.838903 0.883766
O O4 0.080575 0.924822 0.035850
O O5 0.474995 0.683351 0.838885
O O6 0.893896 0.638849 0.740265
O O7 0.363000 0.659532 0.091069
O O8 0.314063 0.788007 0.081369
O O9 0.046271 0.264953 0.693486
O O10 0.118163 0.144698 0.723925
O O11 0.595784 0.096748 0.397403
O O12 0.605589 0.589828 0.248122
O O13 0.320243 0.564784 0.428716
O O14 0.338415 0.428938 0.074157
O O15 0.000000 0.500000 0.000000
O O16 0.618909 0.954526 0.270452
O O17 0.500000 0.000000 0.000000
#
# Coordination Sequence:
#
# PCOD9006340 Si02
#       8
#     2   2   2   2   2   2   2   2
#     4  10  21  41  64  96 133 179 226 286 344 419
#     4  10  24  42  73 102 137 186 231 291 349 424
#     4  10  21  41  66  95 130 185 223 291 352 412
#     4  11  26  44  69  97 136 181 231 291 351 432
#     4  10  24  46  64  97 140 171 237 291 350 424
#     4  11  23  44  72 100 139 186 228 289 362 410
#     4  10  21  38  65  95 135 174 233 281 343 424
#     4  10  21  41  63  95 140 174 233 283 342 420
#
# _framework density 27.449925
#
# number of rings (size 3 to 8) (size 9 to 14) (size 15 to 20)
#    0.000    1.750    2.500    0.375    5.250    3.500 
#    2.250    3.750    0.000    0.000    0.000    0.000 
#    0.000    0.000    0.000    0.000    0.000    0.000 
#
# Total GULP energy -89342.272681 kJ/mol
# GULP energy per Si atom -5583.892043 kJ/mol
# Density = 2.738745 g / cm^3
# Si number density = 27.449925 Si / 1000 Ang^3
#
#
#
# Elastic Constant Matrix: (Units=GPa)
#
#
# Indices 1 2 3 4 5 6 
#
# 1 75.9786 31.8580 16.6795 6.8403 1.4104 -7.9444
# 2 31.8580 171.9855 43.9278 36.0382 -13.6761 4.0213
# 3 16.6795 43.9278 133.1818 41.8545 7.6171 -2.0527
# 4 6.8403 36.0382 41.8545 60.4345 7.6245 -6.7435
# 5 1.4104 -13.6761 7.6171 7.6245 28.5899 -0.8272
# 6 -7.9444 4.0213 -2.0527 -6.7435 -0.8272 30.1400
#
#
#
# Elastic Compliance Matrix: (Units=1/GPa)
#
#
# Indices 1 2 3 4 5 6 
#
# 1 0.015123 -0.003164 -0.001223 0.001832 -0.002287 0.004672
# 2 -0.003164 0.008210 -0.001184 -0.004747 0.005580 -0.002919
# 3 -0.001223 -0.001184 0.010011 -0.005983 -0.001602 -0.000865
# 4 0.001832 -0.004747 -0.005983 0.024905 -0.007233 0.006083
# 5 -0.002287 0.005580 -0.001602 -0.007233 0.040058 -0.001975
# 6 0.004672 -0.002919 -0.000865 0.006083 -0.001975 0.036047
#
#
# Mechanical properties :
#
#
# Convention : Reuss Voigt Hill
#
# Bulk Modulus (GPa) = 45.04259 62.89739 53.96999
# Shear Modulus (GPa) = 32.70188 43.07824 37.89006
#
# Velocity S-wave (km/s) = 3.45531 3.96579 3.71931
# Velocity P-wave (km/s) = 5.68889 6.62821 6.17643
#
# Compressibility (1/GPa) = 0.02220121
#
# Stress axis : x y z
#
# Youngs Moduli (GPa) = 66.12533 121.80868 99.89229
#
# Poissons Ratio (x) = 0.38538 0.12221
# Poissons Ratio (y) = 0.20921 0.11825
# Poissons Ratio (z) = 0.08090 0.14420
#
# Static dielectric constant tensor:
#      x y z
#    x 2.174560 0.022960 -0.015620 
#    y 0.022960 2.210470 -0.041520 
#    z -0.015620 -0.041520 2.221590 
# 
# From -- ./inp_files/141533.got.cif
#   From: 2010.05.17/outbox.cif.g08.bks.cpg/sg2_71_cif.got.tgz:141533.got - 2010.06.03 11:33:40.
