data_PCOD9006516
_publ_section_title
;
Structure prediction by ZEFSAII (Michael W. Deem and Ramdas Pophale) SiO2 
 PCOD9006516
Probable space group: P -1
;
_chemical_formula_sum "Si O2"
_cell_formula_units_Z 16
_cell_length_a 10.894393
_cell_length_b 17.591532
_cell_length_c 17.022362
_cell_angle_alpha 149.737589
_cell_angle_beta 152.171029
_cell_angle_gamma 45.374001
_cell_volume 740.952979
_symmetry_space_group_name_H-M "P -1"
_symmetry_group_IT_number 2
_symmetry_cell_setting 'triclinic'
loop_
_space_group_symop_operation_xyz
x,y,z
-x,-y,-z
loop_
_atom_site_type_symbol
_atom_site_label
_atom_site_fract_x
_atom_site_fract_y
_atom_site_fract_z
Si Si1 0.112797 0.949924 0.892934
Si Si2 0.090853 0.755449 0.568193
Si Si3 0.652704 0.517317 0.726345
Si Si4 0.277135 0.566155 0.152251
Si Si5 0.734165 0.439806 0.040502
Si Si6 0.549074 0.878404 0.354380
Si Si7 0.615605 0.760047 0.789252
Si Si8 0.565550 0.914704 0.652361
O O1 0.824153 0.906065 0.735812
O O2 0.161104 0.803709 0.741239
O O3 0.156763 0.091911 0.981453
O O4 0.328432 0.021039 0.145734
O O5 0.351915 0.819844 0.718517
O O6 0.006363 0.571405 0.333491
O O7 0.824436 0.820819 0.464825
O O8 0.577865 0.521568 0.780347
O O9 0.683216 0.668704 0.823234
O O10 0.470142 0.370977 0.444517
O O11 0.954205 0.494586 0.891999
O O12 0.356995 0.745624 0.386038
O O13 0.358762 0.575160 0.115698
O O14 0.500000 0.500000 0.000000
O O15 0.706354 0.271574 0.911605
O O16 0.557184 0.960658 0.349484
O O17 0.500000 0.000000 0.500000
#
# Coordination Sequence:
#
# PCOD9006516 Si02
#       8
#     2   2   2   2   2   2   2   2
#     4  11  24  42  62  91 140 171 212 272 327 390
#     4  11  23  43  64  95 132 174 214 270 331 387
#     4  10  24  39  70  93 130 177 223 267 329 389
#     4  11  20  43  67  98 130 166 226 280 316 388
#     4  10  21  38  66  94 133 163 212 278 325 381
#     4  11  21  39  70 100 124 172 223 263 326 398
#     4  11  23  44  63  96 134 179 216 264 333 401
#     4  11  23  40  67  99 127 170 225 273 321 383
#
# _framework density 21.593812
#
# number of rings (size 3 to 8) (size 9 to 14) (size 15 to 20)
#    0.000    1.250    5.000    1.125    3.500    0.000 
#    4.500    1.250    0.000    0.000    0.000    0.000 
#    0.000    0.000    0.000    0.000    0.000    0.000 
#
# Total GULP energy -89212.045173 kJ/mol
# GULP energy per Si atom -5575.752823 kJ/mol
# Density = 2.154466 g / cm^3
# Si number density = 21.593812 Si / 1000 Ang^3
#
#
#
# Elastic Constant Matrix: (Units=GPa)
#
#
# Indices 1 2 3 4 5 6 
#
# 1 53.4019 29.7796 24.8967 -1.8228 -7.6593 10.1268
# 2 29.7796 87.5392 35.8122 10.0273 -4.9770 22.4366
# 3 24.8967 35.8122 131.2219 15.3335 -12.3254 17.1565
# 4 -1.8228 10.0273 15.3335 26.8424 4.6792 6.0403
# 5 -7.6593 -4.9770 -12.3254 4.6792 35.5621 -2.4775
# 6 10.1268 22.4366 17.1565 6.0403 -2.4775 44.1320
#
#
#
# Elastic Compliance Matrix: (Units=1/GPa)
#
#
# Indices 1 2 3 4 5 6 
#
# 1 0.025160 -0.007509 -0.003023 0.006156 0.002407 -0.001488
# 2 -0.007509 0.016653 -0.001863 -0.004504 0.000285 -0.005386
# 3 -0.003023 -0.001863 0.009783 -0.005355 0.003096 -0.001256
# 4 0.006156 -0.004504 -0.005355 0.044475 -0.007259 -0.003535
# 5 0.002407 0.000285 0.003096 -0.007259 0.030763 0.000820
# 6 -0.001488 -0.005386 -0.001256 -0.003535 0.000820 0.026757
#
#
# Mechanical properties :
#
#
# Convention : Reuss Voigt Hill
#
# Bulk Modulus (GPa) = 37.30453 50.34888 43.82671
# Shear Modulus (GPa) = 26.69255 33.41893 30.05574
#
# Velocity S-wave (km/s) = 3.51966 3.93824 3.73482
# Velocity P-wave (km/s) = 5.81640 6.63676 6.24008
#
# Compressibility (1/GPa) = 0.02680639
#
# Stress axis : x y z
#
# Youngs Moduli (GPa) = 39.74500 60.04999 102.21443
#
# Poissons Ratio (x) = 0.45094 0.30899
# Poissons Ratio (y) = 0.29846 0.19039
# Poissons Ratio (z) = 0.12015 0.11185
#
# Static dielectric constant tensor:
#      x y z
#    x 1.896600 0.041360 0.033920 
#    y 0.041360 1.809880 0.003700 
#    z 0.033920 0.003700 1.845840 
# 
# From -- ./inp_files/345092.got.cif
#   From: 2010.05.17/outbox.cif.g08.bks.cpg/sg2_173_cif.got.tgz:345092.got - 2010.06.03 11:33:40.
