data_PCOD9006234
_publ_section_title
;
Structure prediction by ZEFSAII (Michael W. Deem and Ramdas Pophale) SiO2 
 PCOD9006234
Probable space group: P -1
;
_chemical_formula_sum "Si O2"
_cell_formula_units_Z 16
_cell_length_a 24.411037
_cell_length_b 11.597688
_cell_length_c 9.723167
_cell_angle_alpha 130.246641
_cell_angle_beta 39.404863
_cell_angle_gamma 147.988386
_cell_volume 925.957559
_symmetry_space_group_name_H-M "P -1"
_symmetry_group_IT_number 2
_symmetry_cell_setting 'triclinic'
loop_
_space_group_symop_operation_xyz
x,y,z
-x,-y,-z
loop_
_atom_site_type_symbol
_atom_site_label
_atom_site_fract_x
_atom_site_fract_y
_atom_site_fract_z
Si Si1 0.627711 0.612720 0.005105
Si Si2 0.664792 0.714749 0.701904
Si Si3 0.650420 0.318044 0.833862
Si Si4 0.290457 0.178396 0.703804
Si Si5 0.127945 0.460907 0.230122
Si Si6 0.282561 0.459290 0.736273
Si Si7 0.479248 0.149000 0.302618
Si Si8 0.154139 0.853350 0.487628
O O1 0.669838 0.730438 0.868026
O O2 0.638085 0.443795 0.854282
O O3 0.481288 0.467263 0.195624
O O4 0.707029 0.773660 0.104298
O O5 0.726338 0.638399 0.465236
O O6 0.738129 0.940270 0.656586
O O7 0.784935 0.486528 0.774688
O O8 0.614799 0.107336 0.686979
O O9 0.550053 0.218639 0.074048
O O10 0.296377 0.339380 0.727878
O O11 0.408562 0.218059 0.488032
O O12 0.181980 0.945242 0.660133
O O13 0.154202 0.673212 0.334452
O O14 0.981365 0.257431 0.377380
O O15 0.174672 0.430654 0.980637
O O16 0.411533 0.711984 0.690398
#
# Coordination Sequence:
#
# PCOD9006234 Si02
#       8
#     2   2   2   2   2   2   2   2
#     4  11  21  37  52  82 113 143 175 213 269 328
#     4  10  23  36  54  78 117 144 169 217 273 320
#     4  10  19  31  54  79 110 136 180 222 264 312
#     4  11  18  31  56  78 108 135 179 220 265 313
#     4  10  20  36  57  83 105 135 186 227 263 304
#     4  10  19  32  56  82 106 136 181 223 263 315
#     4  10  17  28  52  85 101 136 172 224 272 302
#     4  10  22  36  58  79 108 140 179 225 268 310
#
# _framework density 17.279409999999999
#
# number of rings (size 3 to 8) (size 9 to 14) (size 15 to 20)
#    0.000    1.750    5.000    1.875    3.500    2.000 
#    0.000    2.500    0.000    1.500    0.000    0.000 
#    0.000    0.000    0.000    0.000    0.000    0.000 
#
# Total GULP energy -89158.447818 kJ/mol
# GULP energy per Si atom -5572.402989 kJ/mol
# Density = 1.724008 g / cm^3
# Si number density = 17.279410 Si / 1000 Ang^3
#
#
#
# Elastic Constant Matrix: (Units=GPa)
#
#
# Indices 1 2 3 4 5 6 
#
# 1 51.1985 12.8459 28.8662 -0.1082 4.8868 1.1327
# 2 12.8459 45.0594 33.4444 6.1118 10.0528 -3.1109
# 3 28.8662 33.4444 73.2646 11.5046 -2.9835 1.4194
# 4 -0.1082 6.1118 11.5046 21.2828 0.6619 -4.5096
# 5 4.8868 10.0528 -2.9835 0.6619 32.0133 3.5919
# 6 1.1327 -3.1109 1.4194 -4.5096 3.5919 12.2464
#
#
#
# Elastic Compliance Matrix: (Units=1/GPa)
#
#
# Indices 1 2 3 4 5 6 
#
# 1 0.027098 0.003491 -0.013912 0.007951 -0.007260 0.005050
# 2 0.003491 0.043221 -0.023055 0.005026 -0.018675 0.020657
# 3 -0.013912 -0.023055 0.033089 -0.015730 0.014854 -0.018554
# 4 0.007951 0.005026 -0.015730 0.060070 -0.008528 0.026986
# 5 -0.007260 -0.018675 0.014854 -0.008528 0.042160 -0.021300
# 6 0.005050 0.020657 -0.018554 0.026986 -0.021300 0.104772
#
#
# Mechanical properties :
#
#
# Convention : Reuss Voigt Hill
#
# Bulk Modulus (GPa) = 27.43116 35.53729 31.48423
# Shear Modulus (GPa) = 12.83647 19.39954 16.11801
#
# Velocity S-wave (km/s) = 2.72853 3.35430 3.05747
# Velocity P-wave (km/s) = 5.08292 5.96764 5.54296
#
# Compressibility (1/GPa) = 0.03645489
#
# Stress axis : x y z
#
# Youngs Moduli (GPa) = 36.90331 23.13693 30.22128
#
# Poissons Ratio (x) = -0.08076 0.42044
# Poissons Ratio (y) = -0.12881 0.69675
# Poissons Ratio (z) = 0.51340 0.53342
#
# Static dielectric constant tensor:
#      x y z
#    x 1.578470 0.017370 -0.005150 
#    y 0.017370 1.611120 0.031260 
#    z -0.005150 0.031260 1.599800 
# 
# From -- ./inp_files/239298.got.cif
#   From: 2010.05.17/outbox.cif.g08.bks.cpg/sg2_120_cif.got.tgz:239298.got - 2010.06.03 11:33:40.
