data_PCOD9006921
_publ_section_title
;
Structure prediction by ZEFSAII (Michael W. Deem and Ramdas Pophale) SiO2 
 PCOD9006921
Probable space group: P -1
;
_chemical_formula_sum "Si O2"
_cell_formula_units_Z 16
_cell_length_a 14.217391
_cell_length_b 5.651461
_cell_length_c 13.080027
_cell_angle_alpha 74.144248
_cell_angle_beta 52.567671
_cell_angle_gamma 86.911426
_cell_volume 794.085818
_symmetry_space_group_name_H-M "P -1"
_symmetry_group_IT_number 2
_symmetry_cell_setting 'triclinic'
loop_
_space_group_symop_operation_xyz
x,y,z
-x,-y,-z
loop_
_atom_site_type_symbol
_atom_site_label
_atom_site_fract_x
_atom_site_fract_y
_atom_site_fract_z
Si Si1 0.989329 0.310369 0.643267
Si Si2 0.860023 0.021215 0.101912
Si Si3 0.320464 0.421042 0.712103
Si Si4 0.453522 0.236528 0.450385
Si Si5 0.138033 0.770019 0.716524
Si Si6 0.230386 0.152475 0.460537
Si Si7 0.113669 0.544382 0.107630
Si Si8 0.864158 0.784647 0.696178
O O1 0.937140 0.272907 0.797756
O O2 0.946457 0.581641 0.619702
O O3 0.132495 0.322230 0.545204
O O4 0.932176 0.058225 0.650276
O O5 0.840161 0.018597 0.236997
O O6 0.762076 0.802896 0.149940
O O7 0.835584 0.281266 0.038527
O O8 0.000000 0.000000 0.000000
O O9 0.386463 0.340618 0.577343
O O10 0.428391 0.579094 0.683663
O O11 0.227659 0.587069 0.709847
O O12 0.357769 0.191249 0.427552
O O13 0.500000 0.000000 0.500000
O O14 0.003329 0.637174 0.830350
O O15 0.167683 0.882537 0.572774
O O16 0.227887 0.178994 0.337167
O O17 0.183977 0.367296 0.151721
#
# Coordination Sequence:
#
# PCOD9006921 Si02
#       8
#     2   2   2   2   2   2   2   2
#     4  10  21  39  56  93 125 167 203 252 314 380
#     4  12  23  36  60  94 126 165 206 256 321 374
#     4  11  23  39  60  88 123 168 208 257 317 374
#     4  11  23  41  58  87 125 164 212 259 313 374
#     4  12  22  37  61  90 128 168 204 254 319 386
#     4  12  20  38  61  85 128 160 209 259 314 377
#     4  10  23  35  58  87 131 159 204 246 311 381
#     4  10  24  36  60  91 127 167 207 253 321 378
#
# _framework density 20.148956999999999
#
# number of rings (size 3 to 8) (size 9 to 14) (size 15 to 20)
#    0.750    0.250    5.000    2.625    0.000    1.000 
#    0.000    0.000    0.000    0.750    0.000    4.375 
#    0.000    0.000    0.000    0.000    0.000    0.000 
#
# Total GULP energy -89159.314750 kJ/mol
# GULP energy per Si atom -5572.457172 kJ/mol
# Density = 2.010310 g / cm^3
# Si number density = 20.148957 Si / 1000 Ang^3
#
#
#
# Elastic Constant Matrix: (Units=GPa)
#
#
# Indices 1 2 3 4 5 6 
#
# 1 147.6399 37.3705 36.5279 -24.2555 5.9918 2.6179
# 2 37.3705 80.4978 18.8401 -19.9716 4.7203 7.2220
# 3 36.5279 18.8401 60.2699 -30.2081 -2.1571 -3.2275
# 4 -24.2555 -19.9716 -30.2081 35.9541 10.6835 3.2369
# 5 5.9918 4.7203 -2.1571 10.6835 26.3729 -13.7552
# 6 2.6179 7.2220 -3.2275 3.2369 -13.7552 29.3835
#
#
#
# Elastic Compliance Matrix: (Units=1/GPa)
#
#
# Indices 1 2 3 4 5 6 
#
# 1 0.009040 -0.001506 -0.002927 0.005057 -0.006295 -0.004261
# 2 -0.001506 0.019714 0.002983 0.019404 -0.018792 -0.015319
# 3 -0.002927 0.002983 0.032375 0.031485 -0.013463 -0.006687
# 4 0.005057 0.019404 0.031485 0.089394 -0.058629 -0.039055
# 5 -0.006295 -0.018792 -0.013463 -0.058629 0.093485 0.053922
# 6 -0.004261 -0.015319 -0.006687 -0.039055 0.053922 0.066988
#
#
# Mechanical properties :
#
#
# Convention : Reuss Voigt Hill
#
# Bulk Modulus (GPa) = 17.17369 52.65383 34.91376
# Shear Modulus (GPa) = 15.00124 31.38671 23.19397
#
# Velocity S-wave (km/s) = 2.73154 3.95110 3.39650
# Velocity P-wave (km/s) = 4.30004 6.85594 5.72251
#
# Compressibility (1/GPa) = 0.05822861
#
# Stress axis : x y z
#
# Youngs Moduli (GPa) = 110.61406 50.72496 30.88837
#
# Poissons Ratio (x) = 0.07638 0.09042
# Poissons Ratio (y) = 0.16657 -0.09213
# Poissons Ratio (z) = 0.32379 -0.15130
#
# Static dielectric constant tensor:
#      x y z
#    x 1.634050 0.173720 -0.143620 
#    y 0.173720 1.587660 0.265820 
#    z -0.143620 0.265820 1.482390 
# 
# From -- ./inp_files/524974.got.cif
#   From: 2010.05.17/outbox.cif.g08.bks.cpg/sg2_263_cif.got.tgz:524974.got - 2010.06.03 11:33:40.
