data_PCOD9006368
_publ_section_title
;
Structure prediction by ZEFSAII (Michael W. Deem and Ramdas Pophale) SiO2 
 PCOD9006368
Probable space group: P -1
;
_chemical_formula_sum "Si O2"
_cell_formula_units_Z 14
_cell_length_a 9.303401
_cell_length_b 19.209980
_cell_length_c 8.808220
_cell_angle_alpha 40.583767
_cell_angle_beta 69.903837
_cell_angle_gamma 40.021534
_cell_volume 541.625232
_symmetry_space_group_name_H-M "P -1"
_symmetry_group_IT_number 2
_symmetry_cell_setting 'triclinic'
loop_
_space_group_symop_operation_xyz
x,y,z
-x,-y,-z
loop_
_atom_site_type_symbol
_atom_site_label
_atom_site_fract_x
_atom_site_fract_y
_atom_site_fract_z
Si Si1 0.671376 0.983656 0.865112
Si Si2 0.216150 0.399876 0.312705
Si Si3 0.259608 0.739456 0.443859
Si Si4 0.736716 0.121825 0.094062
Si Si5 0.294626 0.190622 0.129999
Si Si6 0.308549 0.633342 0.202833
Si Si7 0.019576 0.651352 0.718465
O O1 0.659170 0.938237 0.778112
O O2 0.506826 0.189357 0.608924
O O3 0.992566 0.802364 0.076446
O O4 0.500000 0.000000 0.000000
O O5 0.072528 0.377525 0.328960
O O6 0.242267 0.465531 0.052865
O O7 0.983445 0.586550 0.192843
O O8 0.567135 0.517977 0.718884
O O9 0.105930 0.713961 0.516710
O O10 0.266559 0.817332 0.170869
O O11 0.048186 0.907814 0.363582
O O12 0.527973 0.145238 0.122106
O O13 0.657853 0.259653 0.011944
O O14 0.214011 0.203654 0.308210
O O15 0.500000 0.500000 0.500000
#
# Coordination Sequence:
#
# PCOD9006368 Si02
#       7
#     2   2   2   2   2   2   2
#     4  12  28  42  71 106 144 182 239 298 344 407
#     4   9  22  42  69 102 141 172 240 284 344 401
#     4  10  21  38  65  97 135 173 230 278 344 411
#     4  10  22  37  70 102 133 180 232 284 345 415
#     4  10  23  43  72 108 135 183 237 289 343 414
#     4  10  25  44  64  97 141 185 223 288 357 410
#     4   9  20  44  74 100 142 189 225 288 344 434
#
# _framework density 25.848130999999999
#
# number of rings (size 3 to 8) (size 9 to 14) (size 15 to 20)
#    0.857    1.143    0.000    1.714   14.000    4.000 
#    0.000    1.429    0.000    0.000    0.000    0.000 
#    0.000    0.000    0.000    0.000    0.000    0.000 
#
# Total GULP energy -78141.523253 kJ/mol
# GULP energy per Si atom -5581.537375 kJ/mol
# Density = 2.578930 g / cm^3
# Si number density = 25.848131 Si / 1000 Ang^3
#
#
#
# Elastic Constant Matrix: (Units=GPa)
#
#
# Indices 1 2 3 4 5 6 
#
# 1 74.0268 15.0412 35.4595 2.0912 7.1413 -37.8063
# 2 15.0412 114.5100 53.7420 -25.2839 1.3839 -38.1387
# 3 35.4595 53.7420 126.8664 -45.8985 -2.3178 -13.7741
# 4 2.0912 -25.2839 -45.8985 66.1981 -6.3563 -10.8375
# 5 7.1413 1.3839 -2.3178 -6.3563 36.8566 -5.2626
# 6 -37.8063 -38.1387 -13.7741 -10.8375 -5.2626 50.2061
#
#
#
# Elastic Compliance Matrix: (Units=1/GPa)
#
#
# Indices 1 2 3 4 5 6 
#
# 1 0.030398 0.009752 -0.009578 0.000340 -0.002881 0.027442
# 2 0.009752 0.018825 -0.006069 0.006300 0.001173 0.021462
# 3 -0.009578 -0.006069 0.015618 0.008294 0.003731 -0.005357
# 4 0.000340 0.006300 0.008294 0.026129 0.006676 0.013657
# 5 -0.002881 0.001173 0.003731 0.006676 0.029645 0.004293
# 6 0.027442 0.021462 -0.005357 0.013657 0.004293 0.058814
#
#
# Mechanical properties :
#
#
# Convention : Reuss Voigt Hill
#
# Bulk Modulus (GPa) = 18.84986 58.20985 38.52986
# Shear Modulus (GPa) = 23.93433 44.72952 34.33193
#
# Velocity S-wave (km/s) = 3.04626 4.16441 3.64842
# Velocity P-wave (km/s) = 4.43636 6.75958 5.71722
#
# Compressibility (1/GPa) = 0.05305078
#
# Stress axis : x y z
#
# Youngs Moduli (GPa) = 32.89641 53.11980 64.02961
#
# Poissons Ratio (x) = -0.51802 0.61326
# Poissons Ratio (y) = -0.32080 0.38863
# Poissons Ratio (z) = 0.31507 0.32241
#
# Static dielectric constant tensor:
#      x y z
#    x 2.096260 0.043160 0.025310 
#    y 0.043160 2.075640 -0.130880 
#    z 0.025310 -0.130880 2.159740 
# 
# From -- ./inp_files/406496.got.cif
#   From: 2010.05.17/outbox.cif.g08.bks.cpg/sg2_204_cif.got.tgz:406496.got - 2010.06.03 11:33:40.
