data_PCOD9006474
_publ_section_title
;
Structure prediction by ZEFSAII (Michael W. Deem and Ramdas Pophale) SiO2 
 PCOD9006474
Probable space group: P -1
;
_chemical_formula_sum "Si O2"
_cell_formula_units_Z 14
_cell_length_a 9.904023
_cell_length_b 13.286367
_cell_length_c 13.650902
_cell_angle_alpha 136.331963
_cell_angle_beta 31.313858
_cell_angle_gamma 143.794623
_cell_volume 548.060949
_symmetry_space_group_name_H-M "P -1"
_symmetry_group_IT_number 2
_symmetry_cell_setting 'triclinic'
loop_
_space_group_symop_operation_xyz
x,y,z
-x,-y,-z
loop_
_atom_site_type_symbol
_atom_site_label
_atom_site_fract_x
_atom_site_fract_y
_atom_site_fract_z
Si Si1 0.754722 0.341635 0.251581
Si Si2 0.420365 0.316230 0.249496
Si Si3 0.838017 0.055657 0.937043
Si Si4 0.350181 0.207607 0.873635
Si Si5 0.155841 0.851313 0.386260
Si Si6 0.188725 0.209814 0.634283
Si Si7 0.535897 0.489546 0.098105
O O1 0.658123 0.384169 0.238686
O O2 0.536184 0.336372 0.469435
O O3 0.667558 0.144309 0.150576
O O4 0.120664 0.453185 0.111536
O O5 0.516760 0.444833 0.191182
O O6 0.104956 0.272754 0.463037
O O7 0.358951 0.133599 0.117903
O O8 0.060987 0.066118 0.892575
O O9 0.045596 0.188651 0.815487
O O10 0.543593 0.139528 0.756604
O O11 0.518633 0.360470 0.795399
O O12 0.301602 0.314101 0.063192
O O13 0.030514 0.783643 0.307465
O O14 0.162779 0.026711 0.514798
#
# Coordination Sequence:
#
# PCOD9006474 Si02
#       7
#     2   2   2   2   2   2   2
#     4  10  21  41  63  94 122 163 200 260 303 362
#     4  10  21  38  66  92 119 157 210 256 305 356
#     4  10  22  40  65  96 118 160 208 253 310 358
#     4  10  23  43  57  89 127 166 205 239 312 366
#     4   9  20  40  62  93 122 156 203 259 307 355
#     4   9  20  39  65  95 121 150 210 261 300 360
#     4  10  23  42  57  88 130 164 205 243 300 381
#
# _framework density 25.544604
#
# number of rings (size 3 to 8) (size 9 to 14) (size 15 to 20)
#    0.000    2.286    0.000    1.714    4.000    3.429 
#   18.000    1.429    0.000    0.000    0.000    0.000 
#    0.000    0.000    0.000    0.000    0.000    0.000 
#
# Total GULP energy -78352.042851 kJ/mol
# GULP energy per Si atom -5596.574489 kJ/mol
# Density = 2.548646 g / cm^3
# Si number density = 25.544604 Si / 1000 Ang^3
#
#
#
# Elastic Constant Matrix: (Units=GPa)
#
#
# Indices 1 2 3 4 5 6 
#
# 1 132.9824 25.5638 52.6052 -20.1026 -19.0463 -24.5256
# 2 25.5638 129.6510 22.6271 -13.1653 7.5220 -8.2315
# 3 52.6052 22.6271 124.0392 -26.0657 3.9277 -7.8011
# 4 -20.1026 -13.1653 -26.0657 38.6164 -7.7563 6.7713
# 5 -19.0463 7.5220 3.9277 -7.7563 13.5213 4.1102
# 6 -24.5256 -8.2315 -7.8011 6.7713 4.1102 48.2314
#
#
#
# Elastic Compliance Matrix: (Units=1/GPa)
#
#
# Indices 1 2 3 4 5 6 
#
# 1 0.016802 -0.003020 -0.005290 0.009968 0.031668 0.003075
# 2 -0.003020 0.008884 -0.000133 -0.000777 -0.009879 0.000910
# 3 -0.005290 -0.000133 0.011227 0.003147 -0.008650 -0.000601
# 4 0.009968 -0.000777 0.003147 0.041279 0.038338 -0.003617
# 5 0.031668 -0.009879 -0.008650 0.038338 0.150135 -0.005159
# 6 0.003075 0.000910 -0.000601 -0.003617 -0.005159 0.023302
#
#
# Mechanical properties :
#
#
# Convention : Reuss Voigt Hill
#
# Bulk Modulus (GPa) = 49.92968 65.36276 57.64622
# Shear Modulus (GPa) = 18.16924 39.13224 28.65074
#
# Velocity S-wave (km/s) = 2.66987 3.91822 3.35266
# Velocity P-wave (km/s) = 5.39377 6.79067 6.13213
#
# Compressibility (1/GPa) = 0.02002817
#
# Stress axis : x y z
#
# Youngs Moduli (GPa) = 59.51531 112.56571 89.07057
#
# Poissons Ratio (x) = 0.33991 0.47116
# Poissons Ratio (y) = 0.17972 0.01186
# Poissons Ratio (z) = 0.31482 0.01499
#
# Static dielectric constant tensor:
#      x y z
#    x 1.976340 0.031960 0.025060 
#    y 0.031960 2.124000 -0.015740 
#    z 0.025060 -0.015740 1.981550 
# 
# From -- ./inp_files/184230.got.cif
#   From: 2010.05.17/outbox.cif.g08.bks.cpg/sg2_93_cif.got.tgz:184230.got - 2010.06.03 11:33:40.
