data_PCOD9006145
_publ_section_title
;
Structure prediction by ZEFSAII (Michael W. Deem and Ramdas Pophale) SiO2 
 PCOD9006145
Probable space group: P -1
;
_chemical_formula_sum "Si O2"
_cell_formula_units_Z 12
_cell_length_a 5.955568
_cell_length_b 15.363921
_cell_length_c 9.776592
_cell_angle_alpha 40.164499
_cell_angle_beta 94.513963
_cell_angle_gamma 97.298359
_cell_volume 572.070652
_symmetry_space_group_name_H-M "P -1"
_symmetry_group_IT_number 2
_symmetry_cell_setting 'triclinic'
loop_
_space_group_symop_operation_xyz
x,y,z
-x,-y,-z
loop_
_atom_site_type_symbol
_atom_site_label
_atom_site_fract_x
_atom_site_fract_y
_atom_site_fract_z
Si Si1 0.451640 0.584598 0.077710
Si Si2 0.188935 0.563110 0.827536
Si Si3 0.219182 0.077449 0.487254
Si Si4 0.486987 0.139563 0.147688
Si Si5 0.736095 0.930860 0.055550
Si Si6 0.825953 0.707061 0.541181
O O1 0.710833 0.553838 0.113113
O O2 0.322027 0.438494 0.284892
O O3 0.375383 0.622501 0.874684
O O4 0.411361 0.703658 0.036107
O O5 0.085039 0.669813 0.597119
O O6 0.000000 0.500000 0.000000
O O7 0.376900 0.122692 0.312523
O O8 0.180766 0.204060 0.428136
O O9 0.330627 0.968234 0.717160
O O10 0.000000 0.000000 0.500000
O O11 0.306186 0.105385 0.061762
O O12 0.741803 0.797035 0.308873
O O13 0.500000 0.000000 0.000000
O O14 0.000000 0.000000 0.000000
#
# Coordination Sequence:
#
# PCOD9006145 Si02
#       6
#     2   2   2   2   2   2
#     4  10  21  38  64  98 138 170 233 285 358 401
#     4   9  18  35  60  96 134 174 215 278 345 410
#     4  11  22  39  67 100 133 178 236 287 344 410
#     4  11  24  41  66 100 134 179 233 294 342 417
#     4  12  28  50  71 101 141 192 234 289 354 422
#     4  11  23  41  69  97 137 185 227 286 352 419
#
# _framework density 20.976430000000001
#
# number of rings (size 3 to 8) (size 9 to 14) (size 15 to 20)
#    0.000    1.333    1.667    5.000    2.333    4.667 
#    0.000    0.833    0.000    0.000    0.000    0.000 
#    0.000    0.000    0.000    0.000    0.000    0.000 
#
# Total GULP energy -66899.467382 kJ/mol
# GULP energy per Si atom -5574.955615 kJ/mol
# Density = 2.092869 g / cm^3
# Si number density = 20.976430 Si / 1000 Ang^3
#
#
#
# Elastic Constant Matrix: (Units=GPa)
#
#
# Indices 1 2 3 4 5 6 
#
# 1 84.4254 25.4240 44.2909 -14.7874 25.1270 7.9533
# 2 25.4240 110.7635 41.3409 -17.4063 12.3987 18.1950
# 3 44.2909 41.3409 124.4789 -7.8883 35.4725 15.0711
# 4 -14.7874 -17.4063 -7.8883 35.7124 7.5754 2.8202
# 5 25.1270 12.3987 35.4725 7.5754 44.6526 -3.4193
# 6 7.9533 18.1950 15.0711 2.8202 -3.4193 32.7844
#
#
#
# Elastic Compliance Matrix: (Units=1/GPa)
#
#
# Indices 1 2 3 4 5 6 
#
# 1 0.018432 0.000317 -0.002284 0.010007 -0.010771 -0.005581
# 2 0.000317 0.012363 -0.001764 0.007176 -0.003975 -0.007159
# 3 -0.002284 -0.001764 0.013138 0.003619 -0.009722 -0.005832
# 4 0.010007 0.007176 0.003619 0.041454 -0.018571 -0.013577
# 5 -0.010771 -0.003975 -0.009722 -0.018571 0.041600 0.015225
# 6 -0.005581 -0.007159 -0.005832 -0.013577 0.015225 0.041266
#
#
# Mechanical properties :
#
#
# Convention : Reuss Voigt Hill
#
# Bulk Modulus (GPa) = 27.42034 60.19771 43.80903
# Shear Modulus (GPa) = 26.61392 36.53733 31.57563
#
# Velocity S-wave (km/s) = 3.56582 4.17805 3.88402
# Velocity P-wave (km/s) = 5.48213 7.21352 6.40659
#
# Compressibility (1/GPa) = 0.03646928
#
# Stress axis : x y z
#
# Youngs Moduli (GPa) = 54.25368 80.88953 76.11415
#
# Poissons Ratio (x) = -0.02564 0.17387
# Poissons Ratio (y) = -0.01720 0.13429
# Poissons Ratio (z) = 0.12393 0.14271
#
# Static dielectric constant tensor:
#      x y z
#    x 1.884100 0.015510 -0.009370 
#    y 0.015510 1.748870 -0.042680 
#    z -0.009370 -0.042680 1.791830 
# 
# From -- ./inp_files/25845.got.cif
#   From: 2010.05.17/outbox.cif.g08.bks.cpg/sg2_13_cif.got.tgz:25845.got - 2010.06.03 11:33:40.
