data_PCOD9006920
_publ_section_title
;
Structure prediction by ZEFSAII (Michael W. Deem and Ramdas Pophale) SiO2 
 PCOD9006920
Probable space group: P -1
;
_chemical_formula_sum "Si O2"
_cell_formula_units_Z 16
_cell_length_a 7.740021
_cell_length_b 8.284165
_cell_length_c 11.907972
_cell_angle_alpha 66.404138
_cell_angle_beta 82.060819
_cell_angle_gamma 58.573427
_cell_volume 594.619934
_symmetry_space_group_name_H-M "P -1"
_symmetry_group_IT_number 2
_symmetry_cell_setting 'triclinic'
loop_
_space_group_symop_operation_xyz
x,y,z
-x,-y,-z
loop_
_atom_site_type_symbol
_atom_site_label
_atom_site_fract_x
_atom_site_fract_y
_atom_site_fract_z
Si Si1 0.535255 0.731583 0.857946
Si Si2 0.914186 0.970477 0.213207
Si Si3 0.059451 0.441314 0.691118
Si Si4 0.211619 0.905177 0.569696
Si Si5 0.576531 0.569869 0.325113
Si Si6 0.801189 0.612012 0.062279
Si Si7 0.632983 0.643949 0.609383
Si Si8 0.310220 0.996513 0.137972
O O1 0.592130 0.642218 0.751295
O O2 0.614061 0.895652 0.809894
O O3 0.643736 0.595489 0.997091
O O4 0.295318 0.852245 0.869485
O O5 0.976211 0.745876 0.230566
O O6 0.096188 0.014694 0.177676
O O7 0.844309 0.971715 0.345926
O O8 0.857027 0.610601 0.600690
O O9 0.272559 0.384133 0.628964
O O10 0.111366 0.485344 0.798385
O O11 0.280156 0.668644 0.651951
O O12 0.434102 0.849359 0.521376
O O13 0.000000 0.000000 0.500000
O O14 0.384604 0.547757 0.387148
O O15 0.476137 0.754977 0.192577
O O16 0.000000 0.500000 0.000000
O O17 0.723332 0.856454 0.005020
#
# Coordination Sequence:
#
# PCOD9006920 Si02
#       8
#     2   2   2   2   2   2   2   2
#     4   9  20  37  54  85 121 159 197 240 281 341
#     4  11  21  37  66  82 117 168 188 243 313 350
#     4  12  20  39  59  90 122 163 201 234 298 340
#     4   9  22  44  63  89 117 146 199 255 301 370
#     4  10  22  37  64  85 119 160 191 251 300 350
#     4  10  22  35  59  87 130 157 204 251 259 350
#     4   9  20  37  62  80 120 157 189 244 302 353
#     4  10  21  39  56  92 118 163 200 240 291 333
#
# _framework density 26.907941000000001
#
# number of rings (size 3 to 8) (size 9 to 14) (size 15 to 20)
#    1.500    0.500    3.750    0.000    3.500    2.500 
#    2.250    5.000    0.000    0.000    0.000    0.000 
#    0.000    0.000    0.000    0.000    0.000    0.000 
#
# Total GULP energy -89118.854895 kJ/mol
# GULP energy per Si atom -5569.928431 kJ/mol
# Density = 2.684670 g / cm^3
# Si number density = 26.907941 Si / 1000 Ang^3
#
#
#
# Elastic Constant Matrix: (Units=GPa)
#
#
# Indices 1 2 3 4 5 6 
#
# 1 210.2277 27.5165 55.8023 -18.1404 48.3443 0.1428
# 2 27.5165 59.6801 26.9808 -8.8023 10.3729 4.0746
# 3 55.8023 26.9808 110.3779 -5.2641 41.8589 -5.8106
# 4 -18.1404 -8.8023 -5.2641 30.8641 4.1756 1.2508
# 5 48.3443 10.3729 41.8589 4.1756 71.5359 -12.3740
# 6 0.1428 4.0746 -5.8106 1.2508 -12.3740 41.1510
#
#
#
# Elastic Compliance Matrix: (Units=1/GPa)
#
#
# Indices 1 2 3 4 5 6 
#
# 1 0.006498 -0.000996 -0.001469 0.003864 -0.003857 -0.001409
# 2 -0.000996 0.020054 -0.004100 0.004634 -0.000605 -0.002884
# 3 -0.001469 -0.004100 0.013198 0.001031 -0.006126 0.000401
# 4 0.003864 0.004634 0.001031 0.037209 -0.006657 -0.003459
# 5 -0.003857 -0.000605 -0.006126 -0.006657 0.021672 0.005927
# 6 -0.001409 -0.002884 0.000401 -0.003459 0.005927 0.026535
#
#
# Mechanical properties :
#
#
# Convention : Reuss Voigt Hill
#
# Bulk Modulus (GPa) = 37.56399 66.76499 52.16449
# Shear Modulus (GPa) = 33.97428 46.70927 40.34178
#
# Velocity S-wave (km/s) = 3.55718 4.17092 3.87622
# Velocity P-wave (km/s) = 5.55535 6.93266 6.28186
#
# Compressibility (1/GPa) = 0.02662124
#
# Stress axis : x y z
#
# Youngs Moduli (GPa) = 153.88685 49.86499 75.76711
#
# Poissons Ratio (x) = 0.04964 0.11132
# Poissons Ratio (y) = 0.15321 0.31064
# Poissons Ratio (z) = 0.22609 0.20445
#
# Static dielectric constant tensor:
#      x y z
#    x 2.557570 -0.127900 -0.117900 
#    y -0.127900 2.138980 0.073730 
#    z -0.117900 0.073730 2.292510 
# 
# From -- ./inp_files/489309.got.cif
#   From: 2010.05.17/outbox.cif.g08.bks.cpg/sg2_245_cif.got.tgz:489309.got - 2010.06.03 11:33:40.
