data_PCOD9006558
_publ_section_title
;
Structure prediction by ZEFSAII (Michael W. Deem and Ramdas Pophale) SiO2 
 PCOD9006558
Probable space group: P -1
;
_chemical_formula_sum "Si O2"
_cell_formula_units_Z 16
_cell_length_a 8.912404
_cell_length_b 16.507451
_cell_length_c 15.641990
_cell_angle_alpha 151.660866
_cell_angle_beta 99.070408
_cell_angle_gamma 100.115585
_cell_volume 800.131334
_symmetry_space_group_name_H-M "P -1"
_symmetry_group_IT_number 2
_symmetry_cell_setting 'triclinic'
loop_
_space_group_symop_operation_xyz
x,y,z
-x,-y,-z
loop_
_atom_site_type_symbol
_atom_site_label
_atom_site_fract_x
_atom_site_fract_y
_atom_site_fract_z
Si Si1 0.091205 0.066341 0.974962
Si Si2 0.296844 0.229290 0.458398
Si Si3 0.402839 0.694077 0.943940
Si Si4 0.298363 0.994608 0.402364
Si Si5 0.288589 0.559271 0.390562
Si Si6 0.625018 0.044880 0.136832
Si Si7 0.009152 0.525569 0.854711
Si Si8 0.673467 0.024055 0.423733
O O1 0.221692 0.993940 0.905323
O O2 0.228035 0.337560 0.224077
O O3 0.908756 0.932598 0.765414
O O4 0.000000 0.000000 0.000000
O O5 0.369042 0.476871 0.708714
O O6 0.477289 0.271007 0.461783
O O7 0.270381 0.119235 0.445356
O O8 0.194017 0.604637 0.884038
O O9 0.474617 0.864073 0.029687
O O10 0.577582 0.841158 0.169100
O O11 0.304852 0.054766 0.557236
O O12 0.508750 0.052188 0.452619
O O13 0.115638 0.720714 0.117813
O O14 0.262348 0.702741 0.582412
O O15 0.146656 0.481737 0.223163
O O16 0.500000 0.000000 0.000000
O O17 0.882850 0.270981 0.643031
#
# Coordination Sequence:
#
# PCOD9006558 Si02
#       8
#     2   2   2   2   2   2   2   2
#     4  12  29  46  70 104 134 172 227 277 331 403
#     4  12  24  44  67  97 136 176 222 279 332 392
#     4  11  25  41  65  97 136 173 223 278 331 399
#     4  10  21  38  66  98 128 176 224 274 328 396
#     4  12  24  45  73  95 137 181 219 276 333 394
#     4  12  27  47  71 100 136 176 222 277 335 399
#     4  11  20  41  67  95 129 179 221 271 337 391
#     4  10  21  40  64  96 133 172 227 272 329 395
#
# _framework density 19.996717
#
# number of rings (size 3 to 8) (size 9 to 14) (size 15 to 20)
#    0.000    0.750    5.000    2.625    3.500    2.000 
#    0.000    0.625    0.000    0.000    0.000    0.000 
#    0.000    0.000    0.000    0.000    0.000    0.000 
#
# Total GULP energy -89514.188827 kJ/mol
# GULP energy per Si atom -5594.636802 kJ/mol
# Density = 1.995120 g / cm^3
# Si number density = 19.996717 Si / 1000 Ang^3
#
#
#
# Elastic Constant Matrix: (Units=GPa)
#
#
# Indices 1 2 3 4 5 6 
#
# 1 86.0547 46.0753 38.9519 11.1151 3.8057 -6.4135
# 2 46.0753 159.7907 57.4818 -8.9512 9.0761 -11.5483
# 3 38.9519 57.4818 115.2121 7.5216 -1.1923 -2.6554
# 4 11.1151 -8.9512 7.5216 22.4892 -2.6221 3.3767
# 5 3.8057 9.0761 -1.1923 -2.6221 35.9716 2.5754
# 6 -6.4135 -11.5483 -2.6554 3.3767 2.5754 25.1507
#
#
#
# Elastic Compliance Matrix: (Units=1/GPa)
#
#
# Indices 1 2 3 4 5 6 
#
# 1 0.016640 -0.003887 -0.003000 -0.009523 -0.001831 0.003608
# 2 -0.003887 0.009336 -0.003724 0.006342 -0.001765 0.002231
# 3 -0.003000 -0.003724 0.011784 -0.003638 0.001446 -0.000891
# 4 -0.009523 0.006342 -0.003638 0.054499 0.003804 -0.007607
# 5 -0.001831 -0.001765 0.001446 0.003804 0.029094 -0.004615
# 6 0.003608 0.002231 -0.000891 -0.007607 -0.004615 0.043105
#
#
# Mechanical properties :
#
#
# Convention : Reuss Voigt Hill
#
# Bulk Modulus (GPa) = 60.47602 71.78616 66.13109
# Shear Modulus (GPa) = 26.15142 31.29220 28.72181
#
# Velocity S-wave (km/s) = 3.62025 3.96013 3.79400
# Velocity P-wave (km/s) = 6.91257 7.54235 7.23432
#
# Compressibility (1/GPa) = 0.01653548
#
# Stress axis : x y z
#
# Youngs Moduli (GPa) = 60.09654 107.11591 84.85993
#
# Poissons Ratio (x) = 0.41641 0.25460
# Poissons Ratio (y) = 0.23362 0.31605
# Poissons Ratio (z) = 0.18031 0.39893
#
# Static dielectric constant tensor:
#      x y z
#    x 1.700230 0.009030 -0.001070 
#    y 0.009030 1.693260 -0.006000 
#    z -0.001070 -0.006000 1.691990 
# 
# From -- ./inp_files/46817.got.cif
#   From: 2010.05.17/outbox.cif.g08.bks.cpg/sg2_24_cif.got.tgz:46817.got - 2010.06.03 11:33:40.
