data_PCOD9006304
_publ_section_title
;
Structure prediction by ZEFSAII (Michael W. Deem and Ramdas Pophale) SiO2 
 PCOD9006304
Probable space group: P -1
;
_chemical_formula_sum "Si O2"
_cell_formula_units_Z 16
_cell_length_a 10.987203
_cell_length_b 11.489659
_cell_length_c 7.050295
_cell_angle_alpha 124.343738
_cell_angle_beta 91.230858
_cell_angle_gamma 101.379455
_cell_volume 710.657206
_symmetry_space_group_name_H-M "P -1"
_symmetry_group_IT_number 2
_symmetry_cell_setting 'triclinic'
loop_
_space_group_symop_operation_xyz
x,y,z
-x,-y,-z
loop_
_atom_site_type_symbol
_atom_site_label
_atom_site_fract_x
_atom_site_fract_y
_atom_site_fract_z
Si Si1 0.723135 0.843900 0.340416
Si Si2 0.291429 0.684056 0.010427
Si Si3 0.468275 0.761529 0.743069
Si Si4 0.847244 0.073329 0.833232
Si Si5 0.974139 0.521948 0.299142
Si Si6 0.471243 0.629906 0.242610
Si Si7 0.930269 0.700595 0.142374
Si Si8 0.301235 0.985980 0.871658
O O1 0.580108 0.773312 0.323619
O O2 0.791388 0.721818 0.164001
O O3 0.803523 0.918527 0.590689
O O4 0.729551 0.961963 0.285820
O O5 0.404495 0.696408 0.877251
O O6 0.169880 0.566043 0.825200
O O7 0.252228 0.835393 0.150591
O O8 0.338595 0.647268 0.179813
O O9 0.474212 0.637739 0.477217
O O10 0.601656 0.874835 0.897164
O O11 0.376181 0.859889 0.753990
O O12 0.979930 0.162505 0.837732
O O13 0.823212 0.061793 0.046282
O O14 0.983415 0.673894 0.328909
O O15 0.000000 0.500000 0.500000
O O16 0.059660 0.438188 0.107465
O O17 0.500000 0.500000 0.000000
#
# Coordination Sequence:
#
# PCOD9006304 Si02
#       8
#     2   2   2   2   2   2   2   2
#     4  12  23  39  63  95 133 169 203 266 324 377
#     4  10  22  41  65  95 118 166 219 258 314 383
#     4  10  21  40  62  90 131 165 212 260 306 383
#     4  10  22  40  65  91 128 165 217 266 312 373
#     4  10  23  45  69  89 122 170 215 262 313 376
#     4  12  25  39  60  92 133 171 205 260 325 379
#     4  10  24  42  63  96 127 163 219 259 313 384
#     4  10  21  38  65  94 123 170 214 257 320 370
#
# _framework density 22.514371000000001
#
# number of rings (size 3 to 8) (size 9 to 14) (size 15 to 20)
#    0.000    1.500    2.500    1.875    0.000   10.000 
#    2.250    0.000    0.000    0.000    0.000    0.000 
#    0.000    0.000    0.000    0.000    0.000    0.000 
#
# Total GULP energy -89412.688724 kJ/mol
# GULP energy per Si atom -5588.293045 kJ/mol
# Density = 2.246313 g / cm^3
# Si number density = 22.514371 Si / 1000 Ang^3
#
#
#
# Elastic Constant Matrix: (Units=GPa)
#
#
# Indices 1 2 3 4 5 6 
#
# 1 61.1575 7.9751 6.7279 -10.4186 4.1864 15.9780
# 2 7.9751 56.1738 5.9049 -15.5120 -0.2719 18.6713
# 3 6.7279 5.9049 87.6349 -9.5890 -2.7037 3.6268
# 4 -10.4186 -15.5120 -9.5890 35.2227 0.6746 -0.2002
# 5 4.1864 -0.2719 -2.7037 0.6746 17.3107 -0.8749
# 6 15.9780 18.6713 3.6268 -0.2002 -0.8749 28.5791
#
#
#
# Elastic Compliance Matrix: (Units=1/GPa)
#
#
# Indices 1 2 3 4 5 6 
#
# 1 0.021553 0.004118 -0.000633 0.008053 -0.006308 -0.014797
# 2 0.004118 0.027644 0.000057 0.013332 -0.002100 -0.020341
# 3 -0.000633 0.000057 0.011890 0.003033 0.001837 -0.001115
# 4 0.008053 0.013332 0.003033 0.037459 -0.003403 -0.013440
# 5 -0.006308 -0.002100 0.001837 -0.003403 0.060007 0.006479
# 6 -0.014797 -0.020341 -0.001115 -0.013440 0.006479 0.056798
#
#
# Mechanical properties :
#
#
# Convention : Reuss Voigt Hill
#
# Bulk Modulus (GPa) = 14.66886 27.35355 21.01120
# Shear Modulus (GPa) = 21.64578 28.51306 25.07942
#
# Velocity S-wave (km/s) = 3.10404 3.56257 3.34118
# Velocity P-wave (km/s) = 4.40185 5.39428 4.92313
#
# Compressibility (1/GPa) = 0.06817164
#
# Stress axis : x y z
#
# Youngs Moduli (GPa) = 46.39619 36.17459 84.10104
#
# Poissons Ratio (x) = -0.14897 0.05326
# Poissons Ratio (y) = -0.19107 -0.00480
# Poissons Ratio (z) = 0.02938 -0.00206
#
# Static dielectric constant tensor:
#      x y z
#    x 1.814580 -0.008360 -0.022240 
#    y -0.008360 1.869170 0.004740 
#    z -0.022240 0.004740 1.816920 
# 
# From -- ./inp_files/72273.got.cif
#   From: 2010.05.17/outbox.cif.g08.bks.cpg/sg2_37_cif.got.tgz:72273.got - 2010.06.03 11:33:40.
