data_PCOD9006637
_publ_section_title
;
Structure prediction by ZEFSAII (Michael W. Deem and Ramdas Pophale) SiO2 
 PCOD9006637
Probable space group: P -1
;
_chemical_formula_sum "Si O2"
_cell_formula_units_Z 14
_cell_length_a 9.280346
_cell_length_b 11.716556
_cell_length_c 9.151445
_cell_angle_alpha 85.505590
_cell_angle_beta 118.162526
_cell_angle_gamma 52.042328
_cell_volume 586.399855
_symmetry_space_group_name_H-M "P -1"
_symmetry_group_IT_number 2
_symmetry_cell_setting 'triclinic'
loop_
_space_group_symop_operation_xyz
x,y,z
-x,-y,-z
loop_
_atom_site_type_symbol
_atom_site_label
_atom_site_fract_x
_atom_site_fract_y
_atom_site_fract_z
Si Si1 0.306715 0.400569 0.616697
Si Si2 0.692970 0.036968 0.211349
Si Si3 0.224327 0.159344 0.023045
Si Si4 0.213802 0.708427 0.495966
Si Si5 0.032069 0.489211 0.764711
Si Si6 0.841348 0.192744 0.876442
Si Si7 0.448479 0.411111 0.077866
O O1 0.185606 0.587093 0.511200
O O2 0.189100 0.400927 0.698864
O O3 0.579000 0.292677 0.798165
O O4 0.242563 0.361930 0.443791
O O5 0.598312 0.216021 0.131269
O O6 0.721093 0.955455 0.076873
O O7 0.490306 0.070013 0.201355
O O8 0.964451 0.891600 0.420797
O O9 0.083201 0.346999 0.888898
O O10 0.027546 0.193230 0.020919
O O11 0.224673 0.739878 0.329698
O O12 0.455558 0.614907 0.710123
O O13 0.167886 0.520313 0.910235
O O14 0.000000 0.000000 0.000000
O O15 0.500000 0.500000 0.000000
#
# Coordination Sequence:
#
# PCOD9006637 Si02
#       7
#     2   2   2   2   2   2   2
#     4  11  22  39  65  93 122 158 216 254 303 367
#     4   9  19  35  62  89 125 154 206 252 301 356
#     4   9  19  36  63  94 117 160 207 257 304 347
#     4  11  22  39  61  95 124 163 204 253 311 364
#     4  10  21  38  67  94 121 156 209 260 310 354
#     4  11  25  38  61  90 128 165 207 256 304 361
#     4  11  22  38  60  97 129 159 197 257 319 366
#
# _framework density 23.874495
#
# number of rings (size 3 to 8) (size 9 to 14) (size 15 to 20)
#    0.000    1.714    4.286    0.857   10.000    0.000 
#    0.000    0.714    0.000    3.429    0.000    0.000 
#    0.000    0.000    0.000    0.000    0.000    0.000 
#
# Total GULP energy -78073.074945 kJ/mol
# GULP energy per Si atom -5576.648210 kJ/mol
# Density = 2.382016 g / cm^3
# Si number density = 23.874495 Si / 1000 Ang^3
#
#
#
# Elastic Constant Matrix: (Units=GPa)
#
#
# Indices 1 2 3 4 5 6 
#
# 1 118.3335 32.2542 16.9527 -9.5264 17.2934 32.7884
# 2 32.2542 93.1379 31.8321 -0.8566 6.8975 32.1620
# 3 16.9527 31.8321 73.5677 3.5527 10.5735 3.2335
# 4 -9.5264 -0.8566 3.5527 31.9932 8.2928 -0.0235
# 5 17.2934 6.8975 10.5735 8.2928 44.8339 -7.1694
# 6 32.7884 32.1620 3.2335 -0.0235 -7.1694 36.2648
#
#
#
# Elastic Compliance Matrix: (Units=1/GPa)
#
#
# Indices 1 2 3 4 5 6 
#
# 1 0.015007 0.002588 -0.002769 0.007346 -0.009695 -0.017529
# 2 0.002588 0.020130 -0.007671 0.003780 -0.006304 -0.020752
# 3 -0.002769 -0.007671 0.017361 -0.002935 -0.000065 0.007743
# 4 0.007346 0.003780 -0.002935 0.036830 -0.011449 -0.011972
# 5 -0.009695 -0.006304 -0.000065 -0.011449 0.032469 0.020774
# 6 -0.017529 -0.020752 0.007743 -0.011972 0.020774 0.065236
#
#
# Mechanical properties :
#
#
# Convention : Reuss Voigt Hill
#
# Bulk Modulus (GPa) = 27.17819 49.67968 38.42893
# Shear Modulus (GPa) = 23.25568 36.21838 29.73703
#
# Velocity S-wave (km/s) = 3.12441 3.89914 3.53307
# Velocity P-wave (km/s) = 4.94211 6.41287 5.72491
#
# Compressibility (1/GPa) = 0.03679421
#
# Stress axis : x y z
#
# Youngs Moduli (GPa) = 66.63478 49.67748 57.60124
#
# Poissons Ratio (x) = -0.12855 0.15948
# Poissons Ratio (y) = -0.17243 0.44185
# Poissons Ratio (z) = 0.18449 0.38106
#
# Static dielectric constant tensor:
#      x y z
#    x 1.974230 -0.079320 0.063800 
#    y -0.079320 1.971640 0.053310 
#    z 0.063800 0.053310 1.953680 
# 
# From -- ./inp_files/387154.got.cif
#   From: 2010.05.17/outbox.cif.g08.bks.cpg/sg2_194_cif.got.tgz:387154.got - 2010.06.03 11:33:40.
