data_PCOD9006548
_publ_section_title
;
Structure prediction by ZEFSAII (Michael W. Deem and Ramdas Pophale) SiO2 
 PCOD9006548
Probable space group: P -1
;
_chemical_formula_sum "Si O2"
_cell_formula_units_Z 14
_cell_length_a 13.118895
_cell_length_b 9.243546
_cell_length_c 13.722406
_cell_angle_alpha 122.455054
_cell_angle_beta 145.599493
_cell_angle_gamma 81.415057
_cell_volume 625.129785
_symmetry_space_group_name_H-M "P -1"
_symmetry_group_IT_number 2
_symmetry_cell_setting 'triclinic'
loop_
_space_group_symop_operation_xyz
x,y,z
-x,-y,-z
loop_
_atom_site_type_symbol
_atom_site_label
_atom_site_fract_x
_atom_site_fract_y
_atom_site_fract_z
Si Si1 0.683499 0.922700 0.083002
Si Si2 0.029949 0.817202 0.284099
Si Si3 0.900099 0.067438 0.840876
Si Si4 0.909738 0.386718 0.114962
Si Si5 0.499293 0.006890 0.233999
Si Si6 0.819724 0.365865 0.395689
Si Si7 0.389116 0.254947 0.353422
O O1 0.855193 0.867771 0.185398
O O2 0.803434 0.150867 0.313919
O O3 0.606723 0.966363 0.935508
O O4 0.439463 0.727201 0.866149
O O5 0.912996 0.568384 0.127635
O O6 0.108901 0.876684 0.255818
O O7 0.267031 0.958479 0.581096
O O8 0.683121 0.830547 0.623206
O O9 0.929161 0.245461 0.001156
O O10 0.136652 0.099920 0.048859
O O11 0.103808 0.505868 0.395437
O O12 0.682538 0.218726 0.937119
O O13 0.541514 0.192733 0.407420
O O14 0.000000 0.500000 0.500000
O O15 0.500000 0.500000 0.500000
#
# Coordination Sequence:
#
# PCOD9006548 Si02
#       7
#     2   2   2   2   2   2   2
#     4  11  25  47  72 101 135 180 232 285 349 407
#     4  12  25  44  69 106 141 183 223 289 348 411
#     4  10  23  40  66 103 143 178 232 279 337 418
#     4  11  24  43  70 104 139 184 233 283 344 412
#     4  11  23  45  67 102 142 178 232 282 337 420
#     4  11  24  47  77  96 134 185 231 287 348 403
#     4  10  21  38  66  97 136 189 228 271 337 406
#
# _framework density 22.395350000000001
#
# number of rings (size 3 to 8) (size 9 to 14) (size 15 to 20)
#    0.000    1.143    4.286    1.286    0.000    5.143 
#    0.000    1.429    0.000    0.000    0.000    0.000 
#    0.000    0.000    0.000    0.000    0.000    0.000 
#
# Total GULP energy -78259.151940 kJ/mol
# GULP energy per Si atom -5589.939424 kJ/mol
# Density = 2.234438 g / cm^3
# Si number density = 22.395350 Si / 1000 Ang^3
#
#
#
# Elastic Constant Matrix: (Units=GPa)
#
#
# Indices 1 2 3 4 5 6 
#
# 1 117.8053 48.2480 52.3597 -3.5529 21.6396 8.2776
# 2 48.2480 119.0615 54.3425 2.3138 20.1380 7.0496
# 3 52.3597 54.3425 85.4122 9.3366 22.4638 -3.9563
# 4 -3.5529 2.3138 9.3366 42.6905 -0.4786 10.1401
# 5 21.6396 20.1380 22.4638 -0.4786 32.2656 0.5212
# 6 8.2776 7.0496 -3.9563 10.1401 0.5212 47.3259
#
#
#
# Elastic Compliance Matrix: (Units=1/GPa)
#
#
# Indices 1 2 3 4 5 6 
#
# 1 0.012990 -0.001574 -0.006706 0.003381 -0.002958 -0.003290
# 2 -0.001574 0.012579 -0.006745 0.001209 -0.002043 -0.002399
# 3 -0.006706 -0.006745 0.023085 -0.006660 -0.007555 0.005618
# 4 0.003381 0.001209 -0.006660 0.026806 0.002127 -0.007095
# 5 -0.002958 -0.002043 -0.007555 0.002127 0.039554 -0.000701
# 6 -0.003290 -0.002399 0.005618 -0.007095 -0.000701 0.024060
#
#
# Mechanical properties :
#
#
# Convention : Reuss Voigt Hill
#
# Bulk Modulus (GPa) = 53.74668 70.24217 61.99442
# Shear Modulus (GPa) = 28.51817 35.61164 32.06491
#
# Velocity S-wave (km/s) = 3.57234 3.99198 3.78797
# Velocity P-wave (km/s) = 6.40832 7.25814 6.84643
#
# Compressibility (1/GPa) = 0.01860580
#
# Stress axis : x y z
#
# Youngs Moduli (GPa) = 76.98089 79.49552 43.31766
#
# Poissons Ratio (x) = 0.12512 0.29049
# Poissons Ratio (y) = 0.12116 0.29216
# Poissons Ratio (z) = 0.51624 0.53616
#
# Static dielectric constant tensor:
#      x y z
#    x 1.876690 0.043570 -0.014900 
#    y 0.043570 1.826320 -0.001910 
#    z -0.014900 -0.001910 1.875440 
# 
# From -- ./inp_files/529020.got.cif
#   From: 2010.05.17/outbox.cif.g08.bks.cpg/sg2_265_cif.got.tgz:529020.got - 2010.06.03 11:33:40.
