data_PCOD9006567
_publ_section_title
;
Structure prediction by ZEFSAII (Michael W. Deem and Ramdas Pophale) SiO2 
 PCOD9006567
Probable space group: P -1
;
_chemical_formula_sum "Si O2"
_cell_formula_units_Z 16
_cell_length_a 19.831702
_cell_length_b 22.908352
_cell_length_c 9.479866
_cell_angle_alpha 42.042565
_cell_angle_beta 151.376456
_cell_angle_gamma 159.052385
_cell_volume 658.600270
_symmetry_space_group_name_H-M "P -1"
_symmetry_group_IT_number 2
_symmetry_cell_setting 'triclinic'
loop_
_space_group_symop_operation_xyz
x,y,z
-x,-y,-z
loop_
_atom_site_type_symbol
_atom_site_label
_atom_site_fract_x
_atom_site_fract_y
_atom_site_fract_z
Si Si1 0.735693 0.703151 0.604219
Si Si2 0.684376 0.437273 0.717999
Si Si3 0.489212 0.597393 0.813846
Si Si4 0.772340 0.823083 0.181601
Si Si5 0.590256 0.892404 0.259804
Si Si6 0.103717 0.943976 0.184700
Si Si7 0.868350 0.239803 0.816458
Si Si8 0.712418 0.132292 0.434149
O O1 0.500000 0.500000 0.500000
O O2 0.613895 0.674798 0.577193
O O3 0.723874 0.775505 0.341162
O O4 0.028480 0.805202 0.937415
O O5 0.750379 0.502733 0.561111
O O6 0.605163 0.293716 0.820792
O O7 0.919328 0.593619 0.985788
O O8 0.500000 0.500000 0.000000
O O9 0.502738 0.636635 0.928849
O O10 0.801201 0.807225 0.952596
O O11 0.814028 0.945050 0.988873
O O12 0.077724 0.938534 0.496611
O O13 0.639846 0.915433 0.477300
O O14 0.431888 0.891539 0.912648
O O15 0.071982 0.825320 0.299510
O O16 0.847731 0.262450 0.577427
O O17 0.554284 0.065130 0.627235
#
# Coordination Sequence:
#
# PCOD9006567 Si02
#       8
#     2   2   2   2   2   2   2   2
#     4  10  21  38  66  99 129 162 216 271 324 381
#     4  11  22  40  65  96 132 161 220 278 322 382
#     4  11  21  38  68  98 129 168 211 279 328 372
#     4  11  21  41  67  97 133 164 218 272 323 386
#     4  11  22  42  65  97 127 174 215 272 323 387
#     4  11  23  43  67  99 129 171 224 262 329 396
#     4  10  23  41  60  92 131 174 214 262 329 396
#     4  11  24  42  65  88 135 180 216 259 326 396
#
# _framework density 24.293946999999999
#
# number of rings (size 3 to 8) (size 9 to 14) (size 15 to 20)
#    0.000    1.250    3.750    3.375    1.750    4.000 
#    0.000    3.125    0.000    0.000    0.000    0.000 
#    0.000    0.000    0.000    0.000    0.000    0.000 
#
# Total GULP energy -89440.727852 kJ/mol
# GULP energy per Si atom -5590.045491 kJ/mol
# Density = 2.423865 g / cm^3
# Si number density = 24.293947 Si / 1000 Ang^3
#
#
#
# Elastic Constant Matrix: (Units=GPa)
#
#
# Indices 1 2 3 4 5 6 
#
# 1 39.0136 5.9461 20.0242 10.6997 -7.7819 -3.0731
# 2 5.9461 70.6642 25.7452 2.0859 -8.9938 -12.8418
# 3 20.0242 25.7452 127.9648 -7.6443 -24.7163 2.9625
# 4 10.6997 2.0859 -7.6443 43.0811 -12.3017 -9.2691
# 5 -7.7819 -8.9938 -24.7163 -12.3017 39.1289 7.6407
# 6 -3.0731 -12.8418 2.9625 -9.2691 7.6407 37.5821
#
#
#
# Elastic Compliance Matrix: (Units=1/GPa)
#
#
# Indices 1 2 3 4 5 6 
#
# 1 0.030744 -0.000280 -0.005293 -0.008421 -0.000093 0.000777
# 2 -0.000280 0.016495 -0.003297 0.000088 0.000551 0.005783
# 3 -0.005293 -0.003297 0.011064 0.004930 0.007253 -0.002690
# 4 -0.008421 0.000088 0.004930 0.029967 0.010041 0.004302
# 5 -0.000093 0.000551 0.007253 0.010041 0.034360 -0.004900
# 6 0.000777 0.005783 -0.002690 0.004302 -0.004900 0.030917
#
#
# Mechanical properties :
#
#
# Convention : Reuss Voigt Hill
#
# Bulk Modulus (GPa) = 24.65407 37.89708 31.27557
# Shear Modulus (GPa) = 27.05507 36.35355 31.70431
#
# Velocity S-wave (km/s) = 3.34077 3.87253 3.61644
# Velocity P-wave (km/s) = 5.00512 5.96897 5.50817
#
# Compressibility (1/GPa) = 0.04056126
#
# Stress axis : x y z
#
# Youngs Moduli (GPa) = 32.52689 60.62569 90.38298
#
# Poissons Ratio (x) = 0.01700 0.47843
# Poissons Ratio (y) = 0.00912 0.29797
# Poissons Ratio (z) = 0.17218 0.19987
#
# Static dielectric constant tensor:
#      x y z
#    x 2.000270 0.008670 -0.027690 
#    y 0.008670 1.912310 0.055660 
#    z -0.027690 0.055660 2.005940 
# 
# From -- ./inp_files/295528.got.cif
#   From: 2010.05.17/outbox.cif.g08.bks.cpg/sg2_148_cif.got.tgz:295528.got - 2010.06.03 11:33:40.
