data_PCOD9006282
_publ_section_title
;
Structure prediction by ZEFSAII (Michael W. Deem and Ramdas Pophale) SiO2 
 PCOD9006282
Probable space group: P -1
;
_chemical_formula_sum "Si O2"
_cell_formula_units_Z 14
_cell_length_a 8.978190
_cell_length_b 18.022595
_cell_length_c 17.923122
_cell_angle_alpha 19.803678
_cell_angle_beta 135.443038
_cell_angle_gamma 140.871787
_cell_volume 618.020656
_symmetry_space_group_name_H-M "P -1"
_symmetry_group_IT_number 2
_symmetry_cell_setting 'triclinic'
loop_
_space_group_symop_operation_xyz
x,y,z
-x,-y,-z
loop_
_atom_site_type_symbol
_atom_site_label
_atom_site_fract_x
_atom_site_fract_y
_atom_site_fract_z
Si Si1 0.130337 0.453689 0.017850
Si Si2 0.725494 0.796458 0.587426
Si Si3 0.948201 0.388829 0.313914
Si Si4 0.149679 0.253775 0.773290
Si Si5 0.442677 0.866105 0.028502
Si Si6 0.232276 0.667505 0.534075
Si Si7 0.809328 0.910281 0.356814
O O1 0.332010 0.408777 0.175906
O O2 0.176922 0.624668 0.799518
O O3 0.966493 0.184253 0.182303
O O4 0.000000 0.500000 0.000000
O O5 0.509873 0.871032 0.439406
O O6 0.736048 0.719669 0.579123
O O7 0.000000 0.000000 0.500000
O O8 0.818812 0.397844 0.335119
O O9 0.189080 0.636541 0.162554
O O10 0.026798 0.170768 0.557208
O O11 0.370113 0.228915 0.839181
O O12 0.220181 0.457539 0.670770
O O13 0.975906 0.277776 0.626058
O O14 0.000000 0.000000 0.000000
O O15 0.500000 0.000000 0.000000
O O16 0.418272 0.069293 0.774946
#
# Coordination Sequence:
#
# PCOD9006282 Si02
#       7
#     2   2   2   2   2   2   2
#     4  10  21  39  66  92 123 168 220 269 327 390
#     4  10  21  42  67  91 125 172 226 266 326 397
#     4  11  23  40  63  99 135 167 221 277 328 396
#     4  11  24  43  66  96 135 178 219 267 331 400
#     4  11  23  39  66  97 131 174 218 270 331 395
#     4  11  25  42  65  98 136 174 218 276 334 389
#     4  10  21  38  65  93 122 170 221 265 325 395
#
# _framework density 22.652964999999998
#
# number of rings (size 3 to 8) (size 9 to 14) (size 15 to 20)
#    0.000    1.429    1.429    3.429    2.000    6.286 
#    0.000    2.857    0.000    0.000    0.000    0.000 
#    0.000    0.000    0.000    0.000    0.000    0.000 
#
# Total GULP energy -77955.557782 kJ/mol
# GULP energy per Si atom -5568.254127 kJ/mol
# Density = 2.260141 g / cm^3
# Si number density = 22.652965 Si / 1000 Ang^3
#
#
#
# Elastic Constant Matrix: (Units=GPa)
#
#
# Indices 1 2 3 4 5 6 
#
# 1 152.2895 56.5274 46.3196 22.4580 12.4118 -8.9363
# 2 56.5274 82.5129 45.9927 14.6358 13.1169 -8.4960
# 3 46.3196 45.9927 95.8615 28.0875 16.6012 -16.5877
# 4 22.4580 14.6358 28.0875 43.6797 1.9212 0.0821
# 5 12.4118 13.1169 16.6012 1.9212 31.6094 -1.4899
# 6 -8.9363 -8.4960 -16.5877 0.0821 -1.4899 41.4071
#
#
#
# Elastic Compliance Matrix: (Units=1/GPa)
#
#
# Indices 1 2 3 4 5 6 
#
# 1 0.009237 -0.005130 -0.001125 -0.002275 -0.000747 0.000468
# 2 -0.005130 0.019681 -0.006573 0.000389 -0.002715 0.000199
# 3 -0.001125 -0.006573 0.018795 -0.009057 -0.005881 0.005744
# 4 -0.002275 0.000389 -0.009057 0.029611 0.003502 -0.003972
# 5 -0.000747 -0.002715 -0.005881 0.003502 0.035847 -0.001791
# 6 0.000468 0.000199 0.005744 -0.003972 -0.001791 0.026537
#
#
# Mechanical properties :
#
#
# Convention : Reuss Voigt Hill
#
# Bulk Modulus (GPa) = 45.33889 69.81592 57.57741
# Shear Modulus (GPa) = 28.94936 35.46085 32.20510
#
# Velocity S-wave (km/s) = 3.57872 3.96080 3.77460
# Velocity P-wave (km/s) = 6.09379 7.19749 6.66852
#
# Compressibility (1/GPa) = 0.02205612
#
# Stress axis : x y z
#
# Youngs Moduli (GPa) = 108.26411 50.81085 53.20595
#
# Poissons Ratio (x) = 0.26068 0.05985
# Poissons Ratio (y) = 0.55544 0.34972
# Poissons Ratio (z) = 0.12178 0.33397
#
# Static dielectric constant tensor:
#      x y z
#    x 1.813170 0.121540 0.100280 
#    y 0.121540 2.014090 0.055660 
#    z 0.100280 0.055660 1.954580 
# 
# From -- ./inp_files/562035.got.cif
#   From: 2010.05.17/outbox.cif.g08.bks.cpg/sg2_282_cif.got.tgz:562035.got - 2010.06.03 11:33:40.
