data_PCOD9006091
_publ_section_title
;
Structure prediction by ZEFSAII (Michael W. Deem and Ramdas Pophale) SiO2 
 PCOD9006091
Probable space group: P -1
;
_chemical_formula_sum "Si O2"
_cell_formula_units_Z 12
_cell_length_a 8.333193
_cell_length_b 7.512797
_cell_length_c 9.242738
_cell_angle_alpha 84.852160
_cell_angle_beta 127.121025
_cell_angle_gamma 102.516149
_cell_volume 449.799366
_symmetry_space_group_name_H-M "P -1"
_symmetry_group_IT_number 2
_symmetry_cell_setting 'triclinic'
loop_
_space_group_symop_operation_xyz
x,y,z
-x,-y,-z
loop_
_atom_site_type_symbol
_atom_site_label
_atom_site_fract_x
_atom_site_fract_y
_atom_site_fract_z
Si Si1 0.972526 0.350542 0.208458
Si Si2 0.677679 0.785941 0.036228
Si Si3 0.866050 0.986167 0.682581
Si Si4 0.588703 0.411990 0.843290
Si Si5 0.311187 0.699397 0.379484
Si Si6 0.693312 0.166477 0.327900
O O1 0.790853 0.329788 0.995366
O O2 0.861429 0.284501 0.304627
O O3 0.095678 0.556001 0.267157
O O4 0.129903 0.220435 0.267718
O O5 0.595636 0.688380 0.149043
O O6 0.508767 0.892991 0.873830
O O7 0.661526 0.615975 0.929954
O O8 0.900223 0.908627 0.170964
O O9 0.722678 0.095299 0.687176
O O10 0.792414 0.017570 0.476895
O O11 0.548044 0.369476 0.656455
O O12 0.361706 0.714513 0.575577
#
# Coordination Sequence:
#
# PCOD9006091 Si02
#       6
#     2   2   2   2   2   2
#     4  11  20  39  69  93 124 170 210 255 320 376
#     4  10  21  42  67  91 128 168 212 255 318 381
#     4  10  23  40  69  92 125 168 211 260 311 379
#     4  10  21  38  64  96 124 166 213 257 316 374
#     4  10  22  40  64  96 126 162 215 260 312 374
#     4   9  22  40  63  97 125 164 214 257 313 377
#
# _framework density 26.678561999999999
#
# number of rings (size 3 to 8) (size 9 to 14) (size 15 to 20)
#    1.000    1.000    1.667    1.500    0.000    4.000 
#    0.000    1.667    0.000    3.000    0.000    0.000 
#    0.000    0.000    0.000    0.000    0.000    0.000 
#
# Total GULP energy -67210.660458 kJ/mol
# GULP energy per Si atom -5600.888371 kJ/mol
# Density = 2.661784 g / cm^3
# Si number density = 26.678562 Si / 1000 Ang^3
#
#
#
# Elastic Constant Matrix: (Units=GPa)
#
#
# Indices 1 2 3 4 5 6 
#
# 1 97.5324 39.8343 56.2814 11.6713 -23.3768 1.9304
# 2 39.8343 87.4339 38.4934 11.0579 -1.8472 -19.8825
# 3 56.2814 38.4934 92.2293 17.9435 -20.8591 -4.5223
# 4 11.6713 11.0579 17.9435 32.9918 -0.7227 3.2993
# 5 -23.3768 -1.8472 -20.8591 -0.7227 55.1980 7.9940
# 6 1.9304 -19.8825 -4.5223 3.2993 7.9940 45.7187
#
#
#
# Elastic Compliance Matrix: (Units=1/GPa)
#
#
# Indices 1 2 3 4 5 6 
#
# 1 0.018728 -0.006159 -0.007954 0.000410 0.005484 -0.005244
# 2 -0.006159 0.018254 -0.003978 -0.002766 -0.004818 0.008847
# 3 -0.007954 -0.003978 0.019457 -0.006388 0.003718 0.000341
# 4 0.000410 -0.002766 -0.006388 0.034954 -0.001274 -0.004152
# 5 0.005484 -0.004818 0.003718 -0.001274 0.022507 -0.005803
# 6 -0.005244 0.008847 0.000341 -0.004152 -0.005803 0.027290
#
#
# Mechanical properties :
#
#
# Convention : Reuss Voigt Hill
#
# Bulk Modulus (GPa) = 49.36640 60.71266 55.03953
# Shear Modulus (GPa) = 27.15544 36.28747 31.72145
#
# Velocity S-wave (km/s) = 3.19388 3.69205 3.45196
# Velocity P-wave (km/s) = 5.66970 6.40168 6.04677
#
# Compressibility (1/GPa) = 0.02025669
#
# Stress axis : x y z
#
# Youngs Moduli (GPa) = 53.39690 54.78104 51.39462
#
# Poissons Ratio (x) = 0.33739 0.40881
# Poissons Ratio (y) = 0.32886 0.20446
# Poissons Ratio (z) = 0.42474 0.21793
#
# Static dielectric constant tensor:
#      x y z
#    x 2.071550 -0.063110 -0.026080 
#    y -0.063110 2.071780 -0.044450 
#    z -0.026080 -0.044450 2.025170 
# 
# From -- ./inp_files/146249.got.cif
#   From: 2010.05.17/outbox.cif.g08.bks.cpg/sg2_74_cif.got.tgz:146249.got - 2010.06.03 11:33:40.
