data_PCOD9006665
_publ_section_title
;
Structure prediction by ZEFSAII (Michael W. Deem and Ramdas Pophale) SiO2 
 PCOD9006665
Probable space group: P -1
;
_chemical_formula_sum "Si O2"
_cell_formula_units_Z 14
_cell_length_a 8.721168
_cell_length_b 9.142888
_cell_length_c 16.792588
_cell_angle_alpha 64.138739
_cell_angle_beta 129.513612
_cell_angle_gamma 77.048145
_cell_volume 642.521708
_symmetry_space_group_name_H-M "P -1"
_symmetry_group_IT_number 2
_symmetry_cell_setting 'triclinic'
loop_
_space_group_symop_operation_xyz
x,y,z
-x,-y,-z
loop_
_atom_site_type_symbol
_atom_site_label
_atom_site_fract_x
_atom_site_fract_y
_atom_site_fract_z
Si Si1 0.337109 0.285838 0.636002
Si Si2 0.770884 0.928710 0.642181
Si Si3 0.132612 0.237908 0.103571
Si Si4 0.384809 0.403028 0.452557
Si Si5 0.318939 0.763705 0.100088
Si Si6 0.342379 0.467819 0.897607
Si Si7 0.229547 0.180123 0.927745
O O1 0.336983 0.323767 0.533813
O O2 0.502858 0.319588 0.739228
O O3 0.000000 0.500000 0.500000
O O4 0.551688 0.997314 0.775493
O O5 0.847564 0.828596 0.781199
O O6 0.033660 0.729311 0.721902
O O7 0.500000 0.000000 0.500000
O O8 0.655853 0.178079 0.545957
O O9 0.000000 0.500000 0.000000
O O10 0.905042 0.251448 0.981622
O O11 0.500000 0.500000 0.500000
O O12 0.081409 0.595871 0.264148
O O13 0.515981 0.630014 0.118526
O O14 0.189087 0.022146 0.985469
O O15 0.310477 0.306588 0.964295
O O16 0.500000 0.500000 0.000000
O O17 0.500000 0.000000 0.000000
#
# Coordination Sequence:
#
# PCOD9006665 Si02
#       7
#     2   2   2   2   2   2   2
#     4  11  25  45  69  99 140 176 227 285 337 405
#     4  11  23  42  67  94 137 171 219 282 332 396
#     4  11  26  46  68  97 137 182 223 276 342 402
#     4  11  24  43  66  98 132 178 224 272 340 398
#     4  11  24  44  71  98 134 178 228 273 336 409
#     4  11  22  40  67 101 133 169 225 274 337 396
#     4  10  21  38  67  97 126 172 220 267 324 399
#
# _framework density 21.789147
#
# number of rings (size 3 to 8) (size 9 to 14) (size 15 to 20)
#    0.000    1.143    2.857    3.857    6.000    1.143 
#    2.571    0.714    0.000    0.000    0.000    0.000 
#    0.000    0.000    0.000    0.000    0.000    0.000 
#
# Total GULP energy -77957.226306 kJ/mol
# GULP energy per Si atom -5568.373308 kJ/mol
# Density = 2.173955 g / cm^3
# Si number density = 21.789147 Si / 1000 Ang^3
#
#
#
# Elastic Constant Matrix: (Units=GPa)
#
#
# Indices 1 2 3 4 5 6 
#
# 1 46.1313 38.3071 40.8745 -21.5849 27.7241 -4.2866
# 2 38.3071 170.9604 59.2503 -20.8092 22.2161 15.2369
# 3 40.8745 59.2503 132.0494 -18.3761 26.9468 2.4495
# 4 -21.5849 -20.8092 -18.3761 58.2871 -8.4672 6.0470
# 5 27.7241 22.2161 26.9468 -8.4672 28.2706 -1.2282
# 6 -4.2866 15.2369 2.4495 6.0470 -1.2282 55.2314
#
#
#
# Elastic Compliance Matrix: (Units=1/GPa)
#
#
# Indices 1 2 3 4 5 6 
#
# 1 0.073560 -0.005385 -0.006826 0.014421 -0.056878 0.004654
# 2 -0.005385 0.007906 -0.001951 0.000624 0.001004 -0.002558
# 3 -0.006826 -0.001951 0.011043 -0.000026 -0.002330 -0.000530
# 4 0.014421 0.000624 -0.000026 0.021690 -0.008181 -0.001609
# 5 -0.056878 0.001004 -0.002330 -0.008181 0.090059 -0.001690
# 6 0.004654 -0.002558 -0.000530 -0.001609 -0.001690 0.019335
#
#
# Mechanical properties :
#
#
# Convention : Reuss Voigt Hill
#
# Bulk Modulus (GPa) = 15.58006 69.55610 42.56808
# Shear Modulus (GPa) = 18.29421 42.40511 30.34966
#
# Velocity S-wave (km/s) = 2.90073 4.41631 3.73618
# Velocity P-wave (km/s) = 4.28776 7.61556 6.17987
#
# Compressibility (1/GPa) = 0.06418459
#
# Stress axis : x y z
#
# Youngs Moduli (GPa) = 13.59435 126.49210 90.55740
#
# Poissons Ratio (x) = 0.68117 0.61814
# Poissons Ratio (y) = 0.07321 0.17666
# Poissons Ratio (z) = 0.09279 0.24677
#
# Static dielectric constant tensor:
#      x y z
#    x 1.554220 0.143770 0.001190 
#    y 0.143770 1.699760 -0.045400 
#    z 0.001190 -0.045400 1.813960 
# 
# From -- ./inp_files/158800.got.cif
#   From: 2010.05.17/outbox.cif.g08.bks.cpg/sg2_80_cif.got.tgz:158800.got - 2010.06.03 11:33:40.
