data_PCOD9006248
_publ_section_title
;
Structure prediction by ZEFSAII (Michael W. Deem and Ramdas Pophale) SiO2 
 PCOD9006248
Probable space group: P -1
;
_chemical_formula_sum "Si O2"
_cell_formula_units_Z 12
_cell_length_a 5.128569
_cell_length_b 7.998286
_cell_length_c 15.472914
_cell_angle_alpha 97.913356
_cell_angle_beta 60.693609
_cell_angle_gamma 86.147971
_cell_volume 541.498647
_symmetry_space_group_name_H-M "P -1"
_symmetry_group_IT_number 2
_symmetry_cell_setting 'triclinic'
loop_
_space_group_symop_operation_xyz
x,y,z
-x,-y,-z
loop_
_atom_site_type_symbol
_atom_site_label
_atom_site_fract_x
_atom_site_fract_y
_atom_site_fract_z
Si Si1 0.675535 0.511340 0.883220
Si Si2 0.606837 0.914520 0.886687
Si Si3 0.401788 0.668197 0.471552
Si Si4 0.636048 0.528096 0.242101
Si Si5 0.784114 0.862874 0.547015
Si Si6 0.713652 0.115580 0.231778
O O1 0.646480 0.712003 0.881364
O O2 0.542135 0.432768 0.815125
O O3 0.026483 0.437572 0.827348
O O4 0.500000 0.500000 0.000000
O O5 0.938318 0.948876 0.807524
O O6 0.367265 0.957798 0.852472
O O7 0.500000 0.000000 0.000000
O O8 0.500000 0.500000 0.500000
O O9 0.487217 0.630249 0.355581
O O10 0.338298 0.675770 0.753753
O O11 0.604103 0.799064 0.490616
O O12 0.523823 0.926109 0.662316
O O13 0.037730 0.718511 0.538764
O O14 0.000000 0.000000 0.500000
#
# Coordination Sequence:
#
# PCOD9006248 Si02
#       6
#     2   2   2   2   2   2
#     4  10  21  39  60  89 126 155 199 277 326 361
#     4  10  21  39  62  88 116 163 215 253 312 393
#     4  12  24  42  72  96 128 175 231 264 308 415
#     4  10  21  38  65  92 118 165 218 254 317 381
#     4  12  26  44  64  99 142 170 211 277 341 375
#     4  10  21  39  65  86 124 168 207 259 320 382
#
# _framework density 22.160719
#
# number of rings (size 3 to 8) (size 9 to 14) (size 15 to 20)
#    0.000    1.333    1.667    4.000    4.667    0.000 
#    9.000    0.000    0.000    0.000    0.000    0.000 
#    0.000    0.000    0.000    0.000    0.000    0.000 
#
# Total GULP energy -67142.326144 kJ/mol
# GULP energy per Si atom -5595.193845 kJ/mol
# Density = 2.211028 g / cm^3
# Si number density = 22.160719 Si / 1000 Ang^3
#
#
#
# Elastic Constant Matrix: (Units=GPa)
#
#
# Indices 1 2 3 4 5 6 
#
# 1 138.6370 15.3029 44.9160 3.1892 7.8993 23.1700
# 2 15.3029 18.8737 7.8945 -3.3657 8.5130 1.0975
# 3 44.9160 7.8945 146.0077 -0.6359 9.2382 21.7865
# 4 3.1892 -3.3657 -0.6359 31.0677 13.6776 -3.2594
# 5 7.8993 8.5130 9.2382 13.6776 48.8933 9.6907
# 6 23.1700 1.0975 21.7865 -3.2594 9.6907 17.3277
#
#
#
# Elastic Compliance Matrix: (Units=1/GPa)
#
#
# Indices 1 2 3 4 5 6 
#
# 1 0.011736 -0.012249 -0.000525 -0.007244 0.006139 -0.019053
# 2 -0.012249 0.077829 -0.003950 0.023967 -0.024380 0.034559
# 3 -0.000525 -0.003950 0.008838 -0.002350 0.002093 -0.011773
# 4 -0.007244 0.023967 -0.002350 0.049004 -0.022830 0.033109
# 5 0.006139 -0.024380 0.002093 -0.022830 0.036428 -0.033964
# 6 -0.019053 0.034559 -0.011773 0.033109 -0.033964 0.121024
#
#
# Mechanical properties :
#
#
# Convention : Reuss Voigt Hill
#
# Bulk Modulus (GPa) = 15.39519 48.86058 32.12788
# Shear Modulus (GPa) = 13.89045 35.15139 24.52092
#
# Velocity S-wave (km/s) = 2.50632 3.98704 3.33002
# Velocity P-wave (km/s) = 3.91634 6.57962 5.41429
#
# Compressibility (1/GPa) = 0.06495537
#
# Stress axis : x y z
#
# Youngs Moduli (GPa) = 85.20437 12.84873 113.14760
#
# Poissons Ratio (x) = 0.15739 0.05941
# Poissons Ratio (y) = 1.04368 0.44690
# Poissons Ratio (z) = 0.04474 0.05075
#
# Static dielectric constant tensor:
#      x y z
#    x 1.798620 0.017660 0.010250 
#    y 0.017660 1.893190 0.027540 
#    z 0.010250 0.027540 1.750840 
# 
# From -- ./inp_files/363113.got.cif
#   From: 2010.05.17/outbox.cif.g08.bks.cpg/sg2_182_cif.got.tgz:363113.got - 2010.06.03 11:33:40.
