data_PCOD9006137
_publ_section_title
;
Structure prediction by ZEFSAII (Michael W. Deem and Ramdas Pophale) SiO2 
 PCOD9006137
Probable space group: P -1
;
_chemical_formula_sum "Si O2"
_cell_formula_units_Z 12
_cell_length_a 12.718698
_cell_length_b 13.703393
_cell_length_c 5.017224
_cell_angle_alpha 59.281480
_cell_angle_beta 64.785641
_cell_angle_gamma 44.552429
_cell_volume 524.607322
_symmetry_space_group_name_H-M "P -1"
_symmetry_group_IT_number 2
_symmetry_cell_setting 'triclinic'
loop_
_space_group_symop_operation_xyz
x,y,z
-x,-y,-z
loop_
_atom_site_type_symbol
_atom_site_label
_atom_site_fract_x
_atom_site_fract_y
_atom_site_fract_z
Si Si1 0.151932 0.887554 0.159463
Si Si2 0.369860 0.333734 0.748823
Si Si3 0.707988 0.097182 0.510094
Si Si4 0.092398 0.548496 0.436721
Si Si5 0.853490 0.359623 0.254368
Si Si6 0.610040 0.919875 0.741493
O O1 0.177887 0.950554 0.302711
O O2 0.154842 0.760730 0.457906
O O3 0.272364 0.838235 0.864341
O O4 0.000000 0.000000 0.000000
O O5 0.543681 0.222372 0.639563
O O6 0.264843 0.402462 0.504402
O O7 0.312247 0.479500 0.766258
O O8 0.325859 0.246229 0.074996
O O9 0.718191 0.960931 0.588418
O O10 0.049905 0.623202 0.668240
O O11 0.000000 0.500000 0.500000
O O12 0.088392 0.653677 0.084494
O O13 0.500000 0.000000 0.500000
O O14 0.500000 0.000000 0.000000
#
# Coordination Sequence:
#
# PCOD9006137 Si02
#       6
#     2   2   2   2   2   2
#     4  12  27  46  65  91 136 177 226 266 318 401
#     4   9  24  39  70  97 134 156 224 271 325 386
#     4  11  24  43  68  97 127 181 215 268 335 375
#     4  10  22  41  64  97 134 163 209 264 333 386
#     4  10  24  42  65  98 128 169 221 266 323 384
#     4  10  21  38  64  98 132 162 208 266 326 384
#
# _framework density 22.874254000000001
#
# number of rings (size 3 to 8) (size 9 to 14) (size 15 to 20)
#    1.000    0.667    0.000    4.000    7.000    4.000 
#    0.000    0.000    0.000    0.000    0.000    0.000 
#    0.000    0.000    0.000    0.000    0.000    0.000 
#
# Total GULP energy -67021.735447 kJ/mol
# GULP energy per Si atom -5585.144621 kJ/mol
# Density = 2.282219 g / cm^3
# Si number density = 22.874254 Si / 1000 Ang^3
#
#
#
# Elastic Constant Matrix: (Units=GPa)
#
#
# Indices 1 2 3 4 5 6 
#
# 1 119.2698 18.1305 56.2794 -9.8120 14.2818 19.8843
# 2 18.1305 45.4327 18.7989 -15.2606 9.3170 -0.4574
# 3 56.2794 18.7989 172.3738 -20.1731 19.3235 11.1644
# 4 -9.8120 -15.2606 -20.1731 45.0678 13.6119 3.0122
# 5 14.2818 9.3170 19.3235 13.6119 36.5091 9.5157
# 6 19.8843 -0.4574 11.1644 3.0122 9.5157 28.7543
#
#
#
# Elastic Compliance Matrix: (Units=1/GPa)
#
#
# Indices 1 2 3 4 5 6 
#
# 1 0.011444 -0.002998 -0.002770 0.000941 -0.000849 -0.006703
# 2 -0.002998 0.030298 0.000366 0.013381 -0.013139 0.005359
# 3 -0.002770 0.000366 0.007710 0.004402 -0.004741 0.000036
# 4 0.000941 0.013381 0.004402 0.034650 -0.019180 0.000570
# 5 -0.000849 -0.013139 -0.004741 -0.019180 0.043375 -0.010126
# 6 -0.006703 0.005359 0.000036 0.000570 -0.010126 0.042776
#
#
# Mechanical properties :
#
#
# Convention : Reuss Voigt Hill
#
# Bulk Modulus (GPa) = 25.87377 58.16595 42.01986
# Shear Modulus (GPa) = 25.78132 38.32408 32.05270
#
# Velocity S-wave (km/s) = 3.36086 4.09764 3.74740
# Velocity P-wave (km/s) = 5.13774 6.91891 6.09375
#
# Compressibility (1/GPa) = 0.03864917
#
# Stress axis : x y z
#
# Youngs Moduli (GPa) = 87.38378 33.00511 129.70007
#
# Poissons Ratio (x) = 0.09895 0.35926
# Poissons Ratio (y) = 0.26197 -0.04751
# Poissons Ratio (z) = 0.24204 -0.01209
#
# Static dielectric constant tensor:
#      x y z
#    x 1.880690 -0.006960 -0.032510 
#    y -0.006960 1.942480 -0.004670 
#    z -0.032510 -0.004670 1.824990 
# 
# From -- ./inp_files/75258.got.cif
#   From: 2010.05.17/outbox.cif.g08.bks.cpg/sg2_38_cif.got.tgz:75258.got - 2010.06.03 11:33:40.
