data_PCOD9006524
_publ_section_title
;
Structure prediction by ZEFSAII (Michael W. Deem and Ramdas Pophale) SiO2 
 PCOD9006524
Probable space group: P -1
;
_chemical_formula_sum "Si O2"
_cell_formula_units_Z 14
_cell_length_a 14.081055
_cell_length_b 7.606281
_cell_length_c 9.567088
_cell_angle_alpha 47.276557
_cell_angle_beta 68.698484
_cell_angle_gamma 48.068286
_cell_volume 552.351437
_symmetry_space_group_name_H-M "P -1"
_symmetry_group_IT_number 2
_symmetry_cell_setting 'triclinic'
loop_
_space_group_symop_operation_xyz
x,y,z
-x,-y,-z
loop_
_atom_site_type_symbol
_atom_site_label
_atom_site_fract_x
_atom_site_fract_y
_atom_site_fract_z
Si Si1 0.127431 0.190384 0.033586
Si Si2 0.884077 0.935843 0.596329
Si Si3 0.743794 0.629637 0.808119
Si Si4 0.347777 0.246815 0.496054
Si Si5 0.525036 0.734330 0.321338
Si Si6 0.095702 0.368680 0.656147
Si Si7 0.744144 0.500173 0.162057
O O1 0.101952 0.175796 0.890909
O O2 0.233452 0.251203 0.948686
O O3 0.148086 0.979707 0.267029
O O4 0.000000 0.500000 0.000000
O O5 0.827214 0.750875 0.694783
O O6 0.033612 0.686887 0.602664
O O7 0.819207 0.206316 0.376317
O O8 0.720174 0.543633 0.718033
O O9 0.603546 0.929418 0.770507
O O10 0.792140 0.399680 0.032673
O O11 0.369087 0.334481 0.585958
O O12 0.242647 0.190577 0.617955
O O13 0.500000 0.000000 0.500000
O O14 0.500000 0.500000 0.500000
O O15 0.594126 0.652772 0.180482
O O16 0.000000 0.500000 0.500000
#
# Coordination Sequence:
#
# PCOD9006524 Si02
#       7
#     2   2   2   2   2   2   2
#     4   9  21  38  60  91 126 164 211 263 327 380
#     4  10  21  38  66  95 129 163 216 271 321 390
#     4  10  21  40  65  92 134 170 213 269 323 385
#     4  10  22  41  65  94 132 172 214 268 325 389
#     4  11  21  39  67  94 129 174 223 266 320 391
#     4  11  20  38  66  93 128 172 211 266 332 382
#     4  11  21  39  64  95 129 169 219 271 328 376
#
# _framework density 25.34618
#
# number of rings (size 3 to 8) (size 9 to 14) (size 15 to 20)
#    0.000    1.714    4.286    0.429    0.000    2.286 
#    0.000    2.857    3.143    0.000    0.000    0.000 
#    0.000    0.000    0.000    0.000    0.000    0.000 
#
# Total GULP energy -78029.269133 kJ/mol
# GULP energy per Si atom -5573.519224 kJ/mol
# Density = 2.528849 g / cm^3
# Si number density = 25.346180 Si / 1000 Ang^3
#
#
#
# Elastic Constant Matrix: (Units=GPa)
#
#
# Indices 1 2 3 4 5 6 
#
# 1 118.9614 6.0629 52.2457 19.1478 9.0073 -11.8698
# 2 6.0629 85.6958 30.8630 19.7561 -1.6323 -11.5129
# 3 52.2457 30.8630 240.8180 23.6702 23.4925 -0.6302
# 4 19.1478 19.7561 23.6702 41.2363 -3.7097 4.7959
# 5 9.0073 -1.6323 23.4925 -3.7097 52.7593 15.9896
# 6 -11.8698 -11.5129 -0.6302 4.7959 15.9896 34.9057
#
#
#
# Elastic Compliance Matrix: (Units=1/GPa)
#
#
# Indices 1 2 3 4 5 6 
#
# 1 0.011015 0.002143 -0.001672 -0.006315 -0.003619 0.006948
# 2 0.002143 0.014969 -0.001297 -0.008547 -0.002313 0.007877
# 3 -0.001672 -0.001297 0.005075 -0.001760 -0.002249 0.000367
# 4 -0.006315 -0.008547 -0.001760 0.034584 0.008110 -0.013465
# 5 -0.003619 -0.002313 -0.002249 0.008110 0.025577 -0.014865
# 6 0.006948 0.007877 0.000367 -0.013465 -0.014865 0.042276
#
#
# Mechanical properties :
#
#
# Convention : Reuss Voigt Hill
#
# Bulk Modulus (GPa) = 34.00534 69.31315 51.65924
# Shear Modulus (GPa) = 34.49455 49.53383 42.01419
#
# Velocity S-wave (km/s) = 3.69309 4.42553 4.07580
# Velocity P-wave (km/s) = 5.62412 7.31572 6.52497
#
# Compressibility (1/GPa) = 0.02940715
#
# Stress axis : x y z
#
# Youngs Moduli (GPa) = 90.78354 66.80424 197.04400
#
# Poissons Ratio (x) = -0.14319 0.32955
# Poissons Ratio (y) = -0.19459 0.25559
# Poissons Ratio (z) = 0.15183 0.08665
#
# Static dielectric constant tensor:
#      x y z
#    x 2.295650 0.026070 -0.104650 
#    y 0.026070 2.070880 -0.027210 
#    z -0.104650 -0.027210 2.256530 
# 
# From -- ./inp_files/293915.got.cif
#   From: 2010.05.17/outbox.cif.g08.bks.cpg/sg2_147_cif.got.tgz:293915.got - 2010.06.03 11:33:40.
