data_PCOD9006856
_publ_section_title
;
Structure prediction by ZEFSAII (Michael W. Deem and Ramdas Pophale) SiO2 
 PCOD9006856
Probable space group: P -1
;
_chemical_formula_sum "Si O2"
_cell_formula_units_Z 14
_cell_length_a 29.133486
_cell_length_b 5.374425
_cell_length_c 14.854775
_cell_angle_alpha 51.197906
_cell_angle_beta 161.110886
_cell_angle_gamma 126.585476
_cell_volume 586.763780
_symmetry_space_group_name_H-M "P -1"
_symmetry_group_IT_number 2
_symmetry_cell_setting 'triclinic'
loop_
_space_group_symop_operation_xyz
x,y,z
-x,-y,-z
loop_
_atom_site_type_symbol
_atom_site_label
_atom_site_fract_x
_atom_site_fract_y
_atom_site_fract_z
Si Si1 0.334161 0.417251 0.697904
Si Si2 0.167113 0.295775 0.577686
Si Si3 0.921511 0.800322 0.240974
Si Si4 0.413876 0.808610 0.208694
Si Si5 0.249372 0.646930 0.110203
Si Si6 0.620069 0.368069 0.453647
Si Si7 0.664122 0.327948 0.089922
O O1 0.227477 0.509269 0.559081
O O2 0.295978 0.552195 0.499144
O O3 0.326685 0.038914 0.783308
O O4 0.500000 0.500000 0.000000
O O5 0.179046 0.534620 0.629654
O O6 0.032018 0.082534 0.354725
O O7 0.286726 0.051775 0.891387
O O8 0.000000 0.500000 0.500000
O O9 0.841554 0.625104 0.049267
O O10 0.826477 0.010661 0.087533
O O11 0.379557 0.699611 0.269863
O O12 0.560021 0.004929 0.427689
O O13 0.385597 0.579069 0.123921
O O14 0.298247 0.549135 0.322526
O O15 0.473553 0.562017 0.134737
#
# Coordination Sequence:
#
# PCOD9006856 Si02
#       7
#     2   2   2   2   2   2   2
#     4  11  20  39  68 104 131 177 228 281 340 404
#     4  10  23  40  68 101 126 176 236 286 329 393
#     4  12  28  48  72  95 136 184 242 280 326 414
#     4  10  22  39  67  99 138 171 217 285 346 405
#     4  12  29  44  69 103 140 185 222 282 354 402
#     4  11  24  41  64 103 143 173 219 283 353 413
#     4  10  21  38  70  98 140 173 227 277 348 392
#
# _framework density 23.859687999999998
#
# number of rings (size 3 to 8) (size 9 to 14) (size 15 to 20)
#    0.000    1.143    5.714    1.286   10.000    0.571 
#    0.000    1.429    0.000    0.000    0.000    0.000 
#    0.000    0.000    0.000    0.000    0.000    0.000 
#
# Total GULP energy -78070.694379 kJ/mol
# GULP energy per Si atom -5576.478170 kJ/mol
# Density = 2.380538 g / cm^3
# Si number density = 23.859688 Si / 1000 Ang^3
#
#
#
# Elastic Constant Matrix: (Units=GPa)
#
#
# Indices 1 2 3 4 5 6 
#
# 1 178.7813 51.3592 57.4092 25.6438 -41.7906 17.1121
# 2 51.3592 123.9372 52.6803 43.1755 -19.6876 -3.8306
# 3 57.4092 52.6803 79.8584 25.8620 -27.6352 -0.8913
# 4 25.6438 43.1755 25.8620 42.0205 -14.0430 -2.8094
# 5 -41.7906 -19.6876 -27.6352 -14.0430 44.7158 -5.8199
# 6 17.1121 -3.8306 -0.8913 -2.8094 -5.8199 43.0727
#
#
#
# Elastic Compliance Matrix: (Units=1/GPa)
#
#
# Indices 1 2 3 4 5 6 
#
# 1 0.008544 -0.001219 -0.003626 -0.000353 0.004710 -0.002964
# 2 -0.001219 0.014726 -0.005726 -0.011375 -0.001675 0.000707
# 3 -0.003626 -0.005726 0.022468 -0.003158 0.007266 0.002172
# 4 -0.000353 -0.011375 -0.003158 0.039632 0.005467 0.002387
# 5 0.004710 -0.001675 0.007266 0.005467 0.032612 0.002893
# 6 -0.002964 0.000707 0.002172 0.002387 0.002893 0.025049
#
#
# Mechanical properties :
#
#
# Convention : Reuss Voigt Hill
#
# Bulk Modulus (GPa) = 40.65898 78.38604 59.52251
# Shear Modulus (GPa) = 29.00723 40.70369 34.85546
#
# Velocity S-wave (km/s) = 3.49053 4.13481 3.82626
# Velocity P-wave (km/s) = 5.77260 7.46457 6.67243
#
# Compressibility (1/GPa) = 0.02459481
#
# Stress axis : x y z
#
# Youngs Moduli (GPa) = 117.04782 67.90590 44.50844
#
# Poissons Ratio (x) = 0.08281 0.16140
# Poissons Ratio (y) = 0.14273 0.25484
# Poissons Ratio (z) = 0.42444 0.38881
#
# Static dielectric constant tensor:
#      x y z
#    x 2.212270 -0.212470 0.014370 
#    y -0.212470 2.073520 0.002820 
#    z 0.014370 0.002820 1.959630 
# 
# From -- ./inp_files/544686.got.cif
#   From: 2010.05.17/outbox.cif.g08.bks.cpg/sg2_273_cif.got.tgz:544686.got - 2010.06.03 11:33:40.
