data_PCOD9006666
_publ_section_title
;
Structure prediction by ZEFSAII (Michael W. Deem and Ramdas Pophale) SiO2 
 PCOD9006666
Probable space group: P -1
;
_chemical_formula_sum "Si O2"
_cell_formula_units_Z 16
_cell_length_a 27.021253
_cell_length_b 17.602294
_cell_length_c 15.580253
_cell_angle_alpha 154.587906
_cell_angle_beta 15.814465
_cell_angle_gamma 159.788979
_cell_volume 697.703930
_symmetry_space_group_name_H-M "P -1"
_symmetry_group_IT_number 2
_symmetry_cell_setting 'triclinic'
loop_
_space_group_symop_operation_xyz
x,y,z
-x,-y,-z
loop_
_atom_site_type_symbol
_atom_site_label
_atom_site_fract_x
_atom_site_fract_y
_atom_site_fract_z
Si Si1 0.144623 0.693331 0.290535
Si Si2 0.489366 0.980286 0.861344
Si Si3 0.791163 0.749110 0.582726
Si Si4 0.608822 0.407335 0.667303
Si Si5 0.689677 0.961774 0.344059
Si Si6 0.669272 0.332162 0.668735
Si Si7 0.606989 0.661934 0.621384
Si Si8 0.186951 0.303029 0.869882
O O1 0.280432 0.887033 0.330961
O O2 0.881695 0.573064 0.590875
O O3 0.162674 0.500232 0.094282
O O4 0.286147 0.798961 0.075114
O O5 0.526951 0.886847 0.619859
O O6 0.450086 0.164074 0.090096
O O7 0.803733 0.594178 0.470701
O O8 0.752622 0.680228 0.477182
O O9 0.563390 0.718000 0.961719
O O10 0.000000 0.000000 0.500000
O O11 0.682275 0.318721 0.530048
O O12 0.415471 0.226380 0.742678
O O13 0.500000 0.500000 0.000000
O O14 0.692279 0.155263 0.492375
O O15 0.947061 0.079720 0.062928
O O16 0.382408 0.414449 0.728759
O O17 0.728349 0.726172 0.391877
#
# Coordination Sequence:
#
# PCOD9006666 Si02
#       8
#     2   2   2   2   2   2   2   2
#     4   9  21  39  64  95 131 162 201 261 318 375
#     4  10  21  38  67  97 127 161 209 256 317 376
#     4  11  25  41  65  89 124 172 215 257 305 378
#     4  10  25  43  60  87 127 164 212 259 314 364
#     4  11  22  41  69  97 121 162 217 263 313 379
#     4  10  22  42  66  90 124 168 210 259 317 364
#     4  10  21  40  62  91 130 166 209 246 326 363
#     4   9  22  38  66  92 128 166 199 263 313 384
#
# _framework density 22.932362999999999
#
# number of rings (size 3 to 8) (size 9 to 14) (size 15 to 20)
#    0.000    2.000    1.250    0.375    8.750    2.500 
#    0.000    1.875    0.000    0.000    0.000    0.000 
#    0.000    0.000    0.000    0.000    0.000    0.000 
#
# Total GULP energy -89460.406810 kJ/mol
# GULP energy per Si atom -5591.275426 kJ/mol
# Density = 2.288017 g / cm^3
# Si number density = 22.932363 Si / 1000 Ang^3
#
#
#
# Elastic Constant Matrix: (Units=GPa)
#
#
# Indices 1 2 3 4 5 6 
#
# 1 102.9020 15.0251 6.2857 -5.5321 9.5853 4.2539
# 2 15.0251 74.8232 15.6997 -24.2326 3.4940 8.5385
# 3 6.2857 15.6997 50.3283 -11.2424 -4.3846 16.1861
# 4 -5.5321 -24.2326 -11.2424 34.3594 8.0794 1.1799
# 5 9.5853 3.4940 -4.3846 8.0794 21.2604 6.5521
# 6 4.2539 8.5385 16.1861 1.1799 6.5521 33.2135
#
#
#
# Elastic Compliance Matrix: (Units=1/GPa)
#
#
# Indices 1 2 3 4 5 6 
#
# 1 0.010560 -0.001046 -0.001267 0.001879 -0.005750 0.000601
# 2 -0.001046 0.019574 -0.002543 0.014797 -0.008095 -0.002587
# 3 -0.001267 -0.002543 0.027499 0.005357 0.009116 -0.014574
# 4 0.001879 0.014797 0.005357 0.046042 -0.018224 -0.004696
# 5 -0.005750 -0.008095 0.009116 -0.018224 0.063953 -0.013594
# 6 0.000601 -0.002587 -0.014574 -0.004696 -0.013594 0.040647
#
#
# Mechanical properties :
#
#
# Convention : Reuss Voigt Hill
#
# Bulk Modulus (GPa) = 20.86814 33.56383 27.21598
# Shear Modulus (GPa) = 21.37106 30.50288 25.93697
#
# Velocity S-wave (km/s) = 3.05604 3.65104 3.36671
# Velocity P-wave (km/s) = 4.64458 5.69572 5.19680
#
# Compressibility (1/GPa) = 0.04791995
#
# Stress axis : x y z
#
# Youngs Moduli (GPa) = 94.69790 51.08820 36.36499
#
# Poissons Ratio (x) = 0.05345 0.04608
# Poissons Ratio (y) = 0.09907 0.09248
# Poissons Ratio (z) = 0.11999 0.12993
#
# Static dielectric constant tensor:
#      x y z
#    x 1.915150 -0.040290 -0.062100 
#    y -0.040290 1.855410 0.023630 
#    z -0.062100 0.023630 1.874510 
# 
# From -- ./inp_files/222427.got.cif
#   From: 2010.05.17/outbox.cif.g08.bks.cpg/sg2_112_cif.got.tgz:222427.got - 2010.06.03 11:33:40.
