data_PCOD9006924
_publ_section_title
;
Structure prediction by ZEFSAII (Michael W. Deem and Ramdas Pophale) SiO2 
 PCOD9006924
Probable space group: P -1
;
_chemical_formula_sum "Si O2"
_cell_formula_units_Z 16
_cell_length_a 17.269368
_cell_length_b 6.097164
_cell_length_c 14.272879
_cell_angle_alpha 124.830275
_cell_angle_beta 135.575169
_cell_angle_gamma 83.478266
_cell_volume 741.607890
_symmetry_space_group_name_H-M "P -1"
_symmetry_group_IT_number 2
_symmetry_cell_setting 'triclinic'
loop_
_space_group_symop_operation_xyz
x,y,z
-x,-y,-z
loop_
_atom_site_type_symbol
_atom_site_label
_atom_site_fract_x
_atom_site_fract_y
_atom_site_fract_z
Si Si1 0.131797 0.328044 0.212497
Si Si2 0.426527 0.299111 0.769418
Si Si3 0.262499 0.101381 0.391749
Si Si4 0.033811 0.760563 0.239091
Si Si5 0.314563 0.221351 0.995418
Si Si6 0.026062 0.855373 0.584325
Si Si7 0.243741 0.562239 0.160771
Si Si8 0.560981 0.161294 0.993280
O O1 0.089286 0.555277 0.278644
O O2 0.195400 0.427975 0.189483
O O3 0.244182 0.343745 0.376822
O O4 0.000000 0.000000 0.000000
O O5 0.380534 0.478045 0.842686
O O6 0.337822 0.186124 0.574554
O O7 0.568639 0.541680 0.911542
O O8 0.450545 0.071811 0.798991
O O9 0.113326 0.873152 0.238773
O O10 0.313494 0.929603 0.327301
O O11 0.047135 0.050141 0.378882
O O12 0.883964 0.537350 0.034550
O O13 0.178527 0.070295 0.788921
O O14 0.341719 0.947712 0.979299
O O15 0.314278 0.413137 0.131996
O O16 0.000000 0.500000 0.500000
O O17 0.000000 0.000000 0.500000
O O18 0.500000 0.000000 0.000000
#
# Coordination Sequence:
#
# PCOD9006924 Si02
#       8
#     2   2   2   2   2   2   2   2
#     4  11  19  36  67  89 129 176 219 276 335 405
#     4  10  23  40  65  94 124 172 219 280 334 405
#     4  11  22  37  64  94 128 165 229 269 332 404
#     4  10  22  38  61  94 131 169 223 279 337 398
#     4  10  24  42  65  89 136 171 217 275 350 400
#     4  11  28  44  68 103 137 176 229 283 347 413
#     4  10  21  39  56  96 126 168 216 274 335 400
#     4   9  21  43  66  87 123 172 221 267 338 391
#
# _framework density 21.574742000000001
#
# number of rings (size 3 to 8) (size 9 to 14) (size 15 to 20)
#    0.000    1.750    2.500    0.750    5.250    7.500 
#    0.000    1.250    0.000    0.000    0.000    0.000 
#    0.000    0.000    0.000    0.000    0.000    0.000 
#
# Total GULP energy -89098.137674 kJ/mol
# GULP energy per Si atom -5568.633605 kJ/mol
# Density = 2.152564 g / cm^3
# Si number density = 21.574742 Si / 1000 Ang^3
#
#
#
# Elastic Constant Matrix: (Units=GPa)
#
#
# Indices 1 2 3 4 5 6 
#
# 1 87.7685 54.3506 21.9136 3.5147 -22.7499 -36.7018
# 2 54.3506 159.2879 65.8452 -28.6551 -27.2799 -34.2074
# 3 21.9136 65.8452 95.7316 -17.8317 -19.5614 -16.6975
# 4 3.5147 -28.6551 -17.8317 40.5596 2.5352 -5.3121
# 5 -22.7499 -27.2799 -19.5614 2.5352 31.8098 11.6366
# 6 -36.7018 -34.2074 -16.6975 -5.3121 11.6366 44.6773
#
#
#
# Elastic Compliance Matrix: (Units=1/GPa)
#
#
# Indices 1 2 3 4 5 6 
#
# 1 0.020921 -0.004344 0.001288 -0.003255 0.007940 0.011887
# 2 -0.004344 0.012510 -0.004967 0.007464 0.002353 0.004428
# 3 0.001288 -0.004967 0.015595 0.003184 0.005230 0.002100
# 4 -0.003255 0.007464 0.003184 0.032623 0.000513 0.007976
# 5 0.007940 0.002353 0.005230 0.000513 0.042584 -0.000751
# 6 0.011887 0.004428 0.002100 0.007976 -0.000751 0.037467
#
#
# Mechanical properties :
#
#
# Convention : Reuss Voigt Hill
#
# Bulk Modulus (GPa) = 30.32003 69.66741 49.99372
# Shear Modulus (GPa) = 26.49177 36.78790 31.63984
#
# Velocity S-wave (km/s) = 3.50795 4.13381 3.83367
# Velocity P-wave (km/s) = 5.52192 7.42602 6.54360
#
# Compressibility (1/GPa) = 0.03298150
#
# Stress axis : x y z
#
# Youngs Moduli (GPa) = 47.79849 79.93725 64.12223
#
# Poissons Ratio (x) = 0.34725 -0.08261
# Poissons Ratio (y) = 0.20764 0.31847
# Poissons Ratio (z) = -0.06158 0.39702
#
# Static dielectric constant tensor:
#      x y z
#    x 1.762960 0.005520 -0.003240 
#    y 0.005520 1.962890 0.049940 
#    z -0.003240 0.049940 1.830570 
# 
# From -- ./inp_files/409485.got.cif
#   From: 2010.05.17/outbox.cif.g08.bks.cpg/sg2_205_cif.got.tgz:409485.got - 2010.06.03 11:33:40.
