data_PCOD9006203
_publ_section_title
;
Structure prediction by ZEFSAII (Michael W. Deem and Ramdas Pophale) SiO2 
 PCOD9006203
Probable space group: P -1
;
_chemical_formula_sum "Si O2"
_cell_formula_units_Z 16
_cell_length_a 12.766519
_cell_length_b 15.089843
_cell_length_c 14.969033
_cell_angle_alpha 35.562734
_cell_angle_beta 150.906209
_cell_angle_gamma 132.018036
_cell_volume 806.678968
_symmetry_space_group_name_H-M "P -1"
_symmetry_group_IT_number 2
_symmetry_cell_setting 'triclinic'
loop_
_space_group_symop_operation_xyz
x,y,z
-x,-y,-z
loop_
_atom_site_type_symbol
_atom_site_label
_atom_site_fract_x
_atom_site_fract_y
_atom_site_fract_z
Si Si1 0.867166 0.001897 0.308157
Si Si2 0.802482 0.893857 0.871482
Si Si3 0.011689 0.680530 0.362091
Si Si4 0.107826 0.040383 0.837097
Si Si5 0.548112 0.815623 0.311580
Si Si6 0.764906 0.635130 0.779983
Si Si7 0.252504 0.651988 0.118323
Si Si8 0.550901 0.213015 0.431298
O O1 0.979935 0.958773 0.331332
O O2 0.687985 0.889444 0.281558
O O3 0.765358 0.179124 0.076191
O O4 0.000000 0.000000 0.500000
O O5 0.612095 0.826364 0.733827
O O6 0.682175 0.051138 0.698684
O O7 0.962222 0.952471 0.868025
O O8 0.919488 0.770564 0.129373
O O9 0.264844 0.697439 0.543014
O O10 0.000000 0.500000 0.500000
O O11 0.896665 0.788127 0.267792
O O12 0.348546 0.942529 0.090752
O O13 0.712594 0.758649 0.560320
O O14 0.439397 0.669653 0.315195
O O15 0.722459 0.475311 0.835568
O O16 0.593642 0.689555 0.683432
O O17 0.015463 0.632287 0.998941
#
# Coordination Sequence:
#
# PCOD9006203 Si02
#       8
#     2   2   2   2   2   2   2   2
#     4  11  22  40  59  89 123 161 206 246 297 363
#     4  10  21  41  65  90 119 156 216 251 293 370
#     4  11  24  42  61  94 128 152 203 261 312 365
#     4  10  21  41  63  89 119 163 207 249 296 363
#     4  11  21  37  64  83 123 162 204 245 303 357
#     4  11  21  37  60  90 122 160 199 251 306 356
#     4  10  22  37  54  88 124 154 207 248 293 365
#     4  10  21  38  65  88 119 164 205 245 306 364
#
# _framework density 19.834409999999998
#
# number of rings (size 3 to 8) (size 9 to 14) (size 15 to 20)
#    0.000    1.500    1.250    6.375    0.000    2.500 
#    4.500    2.500    0.000    0.000    0.000    0.000 
#    0.000    0.000    0.000    0.000    0.000    0.000 
#
# Total GULP energy -89263.688500 kJ/mol
# GULP energy per Si atom -5578.980531 kJ/mol
# Density = 1.978927 g / cm^3
# Si number density = 19.834410 Si / 1000 Ang^3
#
#
#
# Elastic Constant Matrix: (Units=GPa)
#
#
# Indices 1 2 3 4 5 6 
#
# 1 94.1132 47.9088 33.2023 -9.7833 13.7985 -19.9914
# 2 47.9088 141.3041 43.8420 -13.0778 17.1649 -6.7768
# 3 33.2023 43.8420 48.7691 2.0203 0.1070 -6.6778
# 4 -9.7833 -13.0778 2.0203 38.7862 -6.9437 7.7381
# 5 13.7985 17.1649 0.1070 -6.9437 33.2555 1.4681
# 6 -19.9914 -6.7768 -6.6778 7.7381 1.4681 19.7330
#
#
#
# Elastic Compliance Matrix: (Units=1/GPa)
#
#
# Indices 1 2 3 4 5 6 
#
# 1 0.019576 -0.002038 -0.009209 0.000032 -0.007766 0.016581
# 2 -0.002038 0.011370 -0.009297 0.003537 -0.004149 -0.002385
# 3 -0.009209 -0.009297 0.035580 -0.006330 0.007119 0.001471
# 4 0.000032 0.003537 -0.006330 0.030925 0.005231 -0.013411
# 5 -0.007766 -0.004149 0.007119 0.005231 0.037019 -0.011689
# 6 0.016581 -0.002385 0.001471 -0.013411 -0.011689 0.073282
#
#
# Mechanical properties :
#
#
# Convention : Reuss Voigt Hill
#
# Bulk Modulus (GPa) = 39.31299 59.34365 49.32832
# Shear Modulus (GPa) = 19.43104 28.97048 24.20076
#
# Velocity S-wave (km/s) = 3.13335 3.82595 3.49684
# Velocity P-wave (km/s) = 5.74057 7.03574 6.42090
#
# Compressibility (1/GPa) = 0.02543689
#
# Stress axis : x y z
#
# Youngs Moduli (GPa) = 51.08260 87.95388 28.10562
#
# Poissons Ratio (x) = 0.17929 0.25882
# Poissons Ratio (y) = 0.10413 0.26130
# Poissons Ratio (z) = 0.47041 0.81772
#
# Static dielectric constant tensor:
#      x y z
#    x 1.705200 -0.024190 -0.016080 
#    y -0.024190 1.721980 0.030290 
#    z -0.016080 0.030290 1.747650 
# 
# From -- ./inp_files/521498.got.cif
#   From: 2010.05.17/outbox.cif.g08.bks.cpg/sg2_261_cif.got.tgz:521498.got - 2010.06.03 11:33:40.
