data_PCOD9006135
_publ_section_title
;
Structure prediction by ZEFSAII (Michael W. Deem and Ramdas Pophale) SiO2 
 PCOD9006135
Probable space group: P -1
;
_chemical_formula_sum "Si O2"
_cell_formula_units_Z 16
_cell_length_a 9.436889
_cell_length_b 24.581171
_cell_length_c 17.208062
_cell_angle_alpha 162.759263
_cell_angle_beta 42.079404
_cell_angle_gamma 137.308807
_cell_volume 785.966465
_symmetry_space_group_name_H-M "P -1"
_symmetry_group_IT_number 2
_symmetry_cell_setting 'triclinic'
loop_
_space_group_symop_operation_xyz
x,y,z
-x,-y,-z
loop_
_atom_site_type_symbol
_atom_site_label
_atom_site_fract_x
_atom_site_fract_y
_atom_site_fract_z
Si Si1 0.096627 0.273681 0.050384
Si Si2 0.108100 0.191285 0.750456
Si Si3 0.703756 0.307751 0.475970
Si Si4 0.246849 0.947596 0.024629
Si Si5 0.428061 0.705037 0.320914
Si Si6 0.577474 0.961739 0.330482
Si Si7 0.843824 0.311775 0.902779
Si Si8 0.209782 0.291777 0.602239
O O1 0.179911 0.490320 0.319667
O O2 0.854264 0.207835 0.084801
O O3 0.128066 0.216396 0.869213
O O4 0.233581 0.161448 0.900024
O O5 0.336314 0.196511 0.625505
O O6 0.968586 0.337308 0.968594
O O7 0.000000 0.000000 0.500000
O O8 0.793362 0.146130 0.170845
O O9 0.719998 0.294916 0.544473
O O10 0.449169 0.292630 0.539978
O O11 0.500000 0.000000 0.000000
O O12 0.164174 0.136093 0.342256
O O13 0.357595 0.837553 0.462544
O O14 0.500000 0.500000 0.000000
O O15 0.371205 0.834068 0.203551
O O16 0.500000 0.000000 0.500000
O O17 0.021017 0.253408 0.690375
O O18 0.791201 0.505123 0.155164
#
# Coordination Sequence:
#
# PCOD9006135 Si02
#       8
#     2   2   2   2   2   2   2   2
#     4  12  24  43  66  95 129 173 222 263 328 392
#     4  12  22  37  62  95 135 166 211 263 328 380
#     4  11  22  43  67  93 133 175 218 265 320 389
#     4  10  24  42  69  92 126 175 225 266 315 392
#     4  12  24  38  63 101 134 168 214 269 327 382
#     4  12  22  38  63  97 136 170 206 269 330 384
#     4  11  22  36  65  98 135 167 207 275 323 384
#     4  10  21  38  64  98 130 168 221 260 325 381
#
# _framework density 20.357102999999999
#
# number of rings (size 3 to 8) (size 9 to 14) (size 15 to 20)
#    0.000    0.750    6.250    1.875    1.750    1.000 
#    0.000    0.625    2.750    2.250    0.000    0.000 
#    0.000    0.000    0.000    0.000    0.000    0.000 
#
# Total GULP energy -89201.245328 kJ/mol
# GULP energy per Si atom -5575.077833 kJ/mol
# Density = 2.031077 g / cm^3
# Si number density = 20.357103 Si / 1000 Ang^3
#
#
#
# Elastic Constant Matrix: (Units=GPa)
#
#
# Indices 1 2 3 4 5 6 
#
# 1 70.8630 21.3525 21.2688 4.7631 -10.4552 -8.2207
# 2 21.3525 114.8068 50.2911 10.5901 -1.6134 -4.9777
# 3 21.2688 50.2911 119.4281 5.5500 18.2662 -16.1171
# 4 4.7631 10.5901 5.5500 34.3745 -4.4275 3.0192
# 5 -10.4552 -1.6134 18.2662 -4.4275 25.6219 8.6064
# 6 -8.2207 -4.9777 -16.1171 3.0192 8.6064 43.2695
#
#
#
# Elastic Compliance Matrix: (Units=1/GPa)
#
#
# Indices 1 2 3 4 5 6 
#
# 1 0.017150 -0.001272 -0.004097 -0.000004 0.009972 -0.000397
# 2 -0.001272 0.011466 -0.005403 -0.001783 0.004307 -0.001667
# 3 -0.004097 -0.005403 0.014909 -0.002845 -0.015640 0.007463
# 4 -0.000004 -0.001783 -0.002845 0.031750 0.009184 -0.005308
# 5 0.009972 0.004307 -0.015640 0.009184 0.061590 -0.016327
# 6 -0.000397 -0.001667 0.007463 -0.005308 -0.016327 0.029241
#
#
# Mechanical properties :
#
#
# Convention : Reuss Voigt Hill
#
# Bulk Modulus (GPa) = 45.49154 54.54696 50.01925
# Shear Modulus (GPa) = 25.64395 34.79888 30.22141
#
# Velocity S-wave (km/s) = 3.55308 4.13900 3.85718
# Velocity P-wave (km/s) = 6.26321 7.04947 6.66794
#
# Compressibility (1/GPa) = 0.02198211
#
# Stress axis : x y z
#
# Youngs Moduli (GPa) = 58.30863 87.21315 67.07162
#
# Poissons Ratio (x) = 0.11089 0.27482
# Poissons Ratio (y) = 0.07414 0.36237
# Poissons Ratio (z) = 0.23892 0.47120
#
# Static dielectric constant tensor:
#      x y z
#    x 1.811360 -0.011680 -0.027840 
#    y -0.011680 1.721370 0.000060 
#    z -0.027840 0.000060 1.745570 
# 
# From -- ./inp_files/508164.got.cif
#   From: 2010.05.17/outbox.cif.g08.bks.cpg/sg2_255_cif.got.tgz:508164.got - 2010.06.03 11:33:40.
