data_PCOD9006132
_publ_section_title
;
Structure prediction by ZEFSAII (Michael W. Deem and Ramdas Pophale) SiO2 
 PCOD9006132
Probable space group: P -1
;
_chemical_formula_sum "Si O2"
_cell_formula_units_Z 14
_cell_length_a 7.948169
_cell_length_b 9.333918
_cell_length_c 14.419212
_cell_angle_alpha 148.709047
_cell_angle_beta 99.428691
_cell_angle_gamma 88.644987
_cell_volume 533.775704
_symmetry_space_group_name_H-M "P -1"
_symmetry_group_IT_number 2
_symmetry_cell_setting 'triclinic'
loop_
_space_group_symop_operation_xyz
x,y,z
-x,-y,-z
loop_
_atom_site_type_symbol
_atom_site_label
_atom_site_fract_x
_atom_site_fract_y
_atom_site_fract_z
Si Si1 0.669648 0.569689 0.489857
Si Si2 0.744772 0.390716 0.197372
Si Si3 0.398898 0.267196 0.003208
Si Si4 0.603530 0.868907 0.362056
Si Si5 0.121841 0.914142 0.269522
Si Si6 0.813871 0.203298 0.415218
Si Si7 0.060400 0.385871 0.099878
O O1 0.500000 0.500000 0.500000
O O2 0.692064 0.392569 0.301361
O O3 0.693839 0.888387 0.632458
O O4 0.815405 0.503896 0.537221
O O5 0.574474 0.200899 0.025037
O O6 0.737560 0.700746 0.327685
O O7 0.928781 0.339330 0.149318
O O8 0.469101 0.592325 0.151720
O O9 0.241980 0.285019 0.070639
O O10 0.304743 0.043028 0.795997
O O11 0.711339 0.132889 0.461478
O O12 0.500000 0.000000 0.500000
O O13 0.109677 0.701851 0.235865
O O14 0.000421 0.132266 0.401250
O O15 0.044983 0.767316 0.084845
#
# Coordination Sequence:
#
# PCOD9006132 Si02
#       7
#     2   2   2   2   2   2   2
#     4  12  28  42  64  96 141 182 209 267 345 398
#     4  10  24  44  63 103 128 174 224 275 322 390
#     4   9  23  39  71  96 130 170 221 277 323 390
#     4  10  21  38  64  98 129 167 226 272 319 380
#     4  10  23  44  67 100 129 169 229 270 327 401
#     4  11  22  45  64  94 134 180 213 270 340 386
#     4  10  21  43  75  99 124 171 228 281 323 379
#
# _framework density 26.228245000000001
#
# number of rings (size 3 to 8) (size 9 to 14) (size 15 to 20)
#    0.857    0.857    1.429    1.714    6.000    2.286 
#    2.571    1.429    0.000    0.000    0.000    0.000 
#    0.000    0.000    0.000    0.000    0.000    0.000 
#
# Total GULP energy -78279.771688 kJ/mol
# GULP energy per Si atom -5591.412263 kJ/mol
# Density = 2.616855 g / cm^3
# Si number density = 26.228245 Si / 1000 Ang^3
#
#
#
# Elastic Constant Matrix: (Units=GPa)
#
#
# Indices 1 2 3 4 5 6 
#
# 1 147.4867 48.4631 10.5609 -11.5169 -8.1073 37.7014
# 2 48.4631 101.4791 18.1988 -5.1739 -0.2337 35.6893
# 3 10.5609 18.1988 68.6966 -4.8657 9.9232 13.7267
# 4 -11.5169 -5.1739 -4.8657 37.0720 6.6770 -3.6890
# 5 -8.1073 -0.2337 9.9232 6.6770 41.8484 -5.4492
# 6 37.7014 35.6893 13.7267 -3.6890 -5.4492 51.8191
#
#
#
# Elastic Compliance Matrix: (Units=1/GPa)
#
#
# Indices 1 2 3 4 5 6 
#
# 1 0.008984 -0.002629 0.000250 0.001862 0.000773 -0.004579
# 2 -0.002629 0.014023 -0.001653 0.000379 -0.001062 -0.007392
# 3 0.000250 -0.001653 0.016576 0.002510 -0.004781 -0.003758
# 4 0.001862 0.000379 0.002510 0.028746 -0.004917 -0.000751
# 5 0.000773 -0.001062 -0.004781 -0.004917 0.026461 0.003868
# 6 -0.004579 -0.007392 -0.003758 -0.000751 0.003868 0.029069
#
#
# Mechanical properties :
#
#
# Convention : Reuss Voigt Hill
#
# Bulk Modulus (GPa) = 31.72655 52.45646 42.09151
# Shear Modulus (GPa) = 35.10514 42.17719 38.64117
#
# Velocity S-wave (km/s) = 3.66245 4.01444 3.84248
# Velocity P-wave (km/s) = 5.47789 6.44446 5.98073
#
# Compressibility (1/GPa) = 0.03151934
#
# Stress axis : x y z
#
# Youngs Moduli (GPa) = 111.30354 71.31302 60.32954
#
# Poissons Ratio (x) = 0.18745 -0.01510
# Poissons Ratio (y) = 0.29256 0.09975
# Poissons Ratio (z) = -0.02785 0.11791
#
# Static dielectric constant tensor:
#      x y z
#    x 2.061460 -0.027840 0.064270 
#    y -0.027840 2.054720 -0.012390 
#    z 0.064270 -0.012390 2.134210 
# 
# From -- ./inp_files/495851.got.cif
#   From: 2010.05.17/outbox.cif.g08.bks.cpg/sg2_248_cif.got.tgz:495851.got - 2010.06.03 11:33:40.
