data_PCOD9006336
_publ_section_title
;
Structure prediction by ZEFSAII (Michael W. Deem and Ramdas Pophale) SiO2 
 PCOD9006336
Probable space group: P -1
;
_chemical_formula_sum "Si O2"
_cell_formula_units_Z 16
_cell_length_a 11.043161
_cell_length_b 15.189897
_cell_length_c 9.132396
_cell_angle_alpha 137.354295
_cell_angle_beta 46.199764
_cell_angle_gamma 131.944168
_cell_volume 708.185032
_symmetry_space_group_name_H-M "P -1"
_symmetry_group_IT_number 2
_symmetry_cell_setting 'triclinic'
loop_
_space_group_symop_operation_xyz
x,y,z
-x,-y,-z
loop_
_atom_site_type_symbol
_atom_site_label
_atom_site_fract_x
_atom_site_fract_y
_atom_site_fract_z
Si Si1 0.307280 0.489290 0.586532
Si Si2 0.323729 0.746214 0.426437
Si Si3 0.006428 0.312671 0.156771
Si Si4 0.536684 0.658622 0.371805
Si Si5 0.161536 0.235168 0.192572
Si Si6 0.868863 0.906246 0.377248
Si Si7 0.767027 0.014076 0.300181
Si Si8 0.782074 0.477956 0.982641
O O1 0.500000 0.500000 0.500000
O O2 0.368221 0.607682 0.557965
O O3 0.221129 0.338901 0.404129
O O4 0.201998 0.512557 0.844824
O O5 0.476801 0.702597 0.321806
O O6 0.356817 0.904898 0.562534
O O7 0.163535 0.697915 0.618322
O O8 0.266756 0.671210 0.228013
O O9 0.160188 0.333914 0.176761
O O10 0.015036 0.173416 0.903488
O O11 0.052648 0.427576 0.134184
O O12 0.701291 0.789659 0.447126
O O13 0.624052 0.538322 0.144537
O O14 0.962559 0.127525 0.244646
O O15 0.264621 0.129217 0.935491
O O16 0.786809 0.981629 0.415262
O O17 0.000000 0.000000 0.500000
#
# Coordination Sequence:
#
# PCOD9006336 Si02
#       8
#     2   2   2   2   2   2   2   2
#     4  10  22  38  63  96 125 169 214 274 320 368
#     4  11  21  41  63  98 136 160 220 268 320 385
#     4   9  20  39  64  97 120 175 216 260 318 374
#     4  10  23  42  64  95 126 174 218 264 331 374
#     4   9  18  39  64  90 130 164 221 254 311 397
#     4  10  22  42  70  92 127 172 221 261 317 404
#     4   9  21  37  66  96 122 177 209 261 318 375
#     4  10  21  38  65  95 131 174 214 258 323 385
#
# _framework density 22.592966000000001
#
# number of rings (size 3 to 8) (size 9 to 14) (size 15 to 20)
#    0.000    2.250    0.000    2.250    5.250    6.500 
#    2.250    3.750    0.000    0.000    0.000    0.000 
#    0.000    0.000    0.000    0.000    0.000    0.000 
#
# Total GULP energy -89306.998146 kJ/mol
# GULP energy per Si atom -5581.687384 kJ/mol
# Density = 2.254154 g / cm^3
# Si number density = 22.592966 Si / 1000 Ang^3
#
#
#
# Elastic Constant Matrix: (Units=GPa)
#
#
# Indices 1 2 3 4 5 6 
#
# 1 65.2151 20.1160 49.6436 9.9779 16.3998 -8.3167
# 2 20.1160 119.8835 58.8816 -16.4432 14.6577 -4.9143
# 3 49.6436 58.8816 110.7581 -5.0955 31.0828 8.5865
# 4 9.9779 -16.4432 -5.0955 27.3405 2.3433 -0.4106
# 5 16.3998 14.6577 31.0828 2.3433 44.0897 5.5808
# 6 -8.3167 -4.9143 8.5865 -0.4106 5.5808 32.8447
#
#
#
# Elastic Compliance Matrix: (Units=1/GPa)
#
#
# Indices 1 2 3 4 5 6 
#
# 1 0.030733 0.001444 -0.015583 -0.012915 -0.001786 0.012214
# 2 0.001444 0.012759 -0.007372 0.005876 -0.000444 0.004351
# 3 -0.015583 -0.007372 0.022930 0.005979 -0.006998 -0.009780
# 4 -0.012915 0.005876 0.005979 0.046193 -0.003467 -0.002788
# 5 -0.001786 -0.000444 -0.006998 -0.003467 0.029076 -0.003673
# 6 0.012214 0.004351 -0.009780 -0.002788 -0.003673 0.037336
#
#
# Mechanical properties :
#
#
# Convention : Reuss Voigt Hill
#
# Bulk Modulus (GPa) = 42.73606 61.45991 52.09799
# Shear Modulus (GPa) = 21.75353 32.00268 26.87811
#
# Velocity S-wave (km/s) = 3.10634 3.76771 3.45290
# Velocity P-wave (km/s) = 5.64115 6.79630 6.24549
#
# Compressibility (1/GPa) = 0.02339944
#
# Stress axis : x y z
#
# Youngs Moduli (GPa) = 32.53807 78.37772 43.61162
#
# Poissons Ratio (x) = -0.11320 0.67960
# Poissons Ratio (y) = -0.04699 0.32153
# Poissons Ratio (z) = 0.50704 0.57784
#
# Static dielectric constant tensor:
#      x y z
#    x 1.898630 0.022870 -0.051760 
#    y 0.022870 1.919910 -0.062730 
#    z -0.051760 -0.062730 1.866410 
# 
# From -- ./inp_files/274563.got.cif
#   From: 2010.05.17/outbox.cif.g08.bks.cpg/sg2_138_cif.got.tgz:274563.got - 2010.06.03 11:33:40.
