data_PCOD9006452
_publ_section_title
;
Structure prediction by ZEFSAII (Michael W. Deem and Ramdas Pophale) SiO2 
 PCOD9006452
Probable space group: P -1
;
_chemical_formula_sum "Si O2"
_cell_formula_units_Z 12
_cell_length_a 15.604060
_cell_length_b 14.509854
_cell_length_c 9.857290
_cell_angle_alpha 42.691416
_cell_angle_beta 157.816378
_cell_angle_gamma 146.874615
_cell_volume 451.557685
_symmetry_space_group_name_H-M "P -1"
_symmetry_group_IT_number 2
_symmetry_cell_setting 'triclinic'
loop_
_space_group_symop_operation_xyz
x,y,z
-x,-y,-z
loop_
_atom_site_type_symbol
_atom_site_label
_atom_site_fract_x
_atom_site_fract_y
_atom_site_fract_z
Si Si1 0.391097 0.871078 0.266040
Si Si2 0.168805 0.997805 0.443787
Si Si3 0.037662 0.802155 0.206743
Si Si4 0.160325 0.231010 0.547099
Si Si5 0.150674 0.512171 0.348221
Si Si6 0.321255 0.544948 0.095539
O O1 0.384076 0.717942 0.486861
O O2 0.503033 0.901548 0.238817
O O3 0.621186 0.054957 0.471530
O O4 0.068328 0.803635 0.863593
O O5 0.011963 0.831912 0.294466
O O6 0.030698 0.930555 0.460042
O O7 0.101359 0.123044 0.157401
O O8 0.881276 0.612849 0.132202
O O9 0.254764 0.399140 0.591025
O O10 0.442360 0.285175 0.825960
O O11 0.000000 0.500000 0.000000
O O12 0.894659 0.437647 0.159580
O O13 0.500000 0.500000 0.500000
#
# Coordination Sequence:
#
# PCOD9006452 Si02
#       6
#     2   2   2   2   2   2
#     4   9  18  39  62  92 119 171 205 254 309 373
#     4   9  20  40  66  95 128 166 209 259 319 367
#     4   9  22  39  64  92 129 167 213 252 320 379
#     4  11  22  39  71  95 125 166 214 259 309 376
#     4  10  21  38  66  89 125 164 211 254 311 374
#     4  12  23  41  64  95 126 171 211 255 320 381
#
# _framework density 26.574674999999999
#
# number of rings (size 3 to 8) (size 9 to 14) (size 15 to 20)
#    1.000    1.000    3.333    1.500    2.333    1.333 
#    0.000    3.333    0.000    0.000    0.000    0.000 
#    0.000    0.000    0.000    0.000    0.000    0.000 
#
# Total GULP energy -67099.873146 kJ/mol
# GULP energy per Si atom -5591.656095 kJ/mol
# Density = 2.651419 g / cm^3
# Si number density = 26.574675 Si / 1000 Ang^3
#
#
#
# Elastic Constant Matrix: (Units=GPa)
#
#
# Indices 1 2 3 4 5 6 
#
# 1 106.2722 46.7843 30.1719 23.5761 42.4781 10.9102
# 2 46.7843 115.1270 42.1185 28.5357 11.5069 -3.6345
# 3 30.1719 42.1185 66.8435 38.5744 24.2392 1.0434
# 4 23.5761 28.5357 38.5744 50.5213 7.1585 -3.5518
# 5 42.4781 11.5069 24.2392 7.1585 37.1362 24.4279
# 6 10.9102 -3.6345 1.0434 -3.5518 24.4279 54.3568
#
#
#
# Elastic Compliance Matrix: (Units=1/GPa)
#
#
# Indices 1 2 3 4 5 6 
#
# 1 0.031494 -0.010633 0.020826 -0.015917 -0.053494 0.015568
# 2 -0.010633 0.015003 -0.013680 0.003923 0.018856 -0.004818
# 3 0.020826 -0.013680 0.057109 -0.035252 -0.063140 0.019881
# 4 -0.015917 0.003923 -0.035252 0.045914 0.037561 -0.009746
# 5 -0.053494 0.018856 -0.063140 0.037561 0.150404 -0.051927
# 6 0.015568 -0.004818 0.019881 -0.009746 -0.051927 0.037268
#
#
# Mechanical properties :
#
#
# Convention : Reuss Voigt Hill
#
# Bulk Modulus (GPa) = 10.34876 58.48803 34.41839
# Shear Modulus (GPa) = 13.28459 39.68073 26.48266
#
# Velocity S-wave (km/s) = 2.23826 3.86836 3.16022
# Velocity P-wave (km/s) = 3.25306 6.48143 5.12793
#
# Compressibility (1/GPa) = 0.09662998
#
# Stress axis : x y z
#
# Youngs Moduli (GPa) = 31.75254 66.65397 17.51042
#
# Poissons Ratio (x) = 0.70876 -0.36467
# Poissons Ratio (y) = 0.33764 0.23954
# Poissons Ratio (z) = -0.66127 0.91181
#
# Static dielectric constant tensor:
#      x y z
#    x 2.095130 0.005610 -0.009310 
#    y 0.005610 2.127690 -0.043270 
#    z -0.009310 -0.043270 2.071310 
# 
# From -- ./inp_files/466212.got.cif
#   From: 2010.05.17/outbox.cif.g08.bks.cpg/sg2_234_cif.got.tgz:466212.got - 2010.06.03 11:33:40.
