data_PCOD9006385
_publ_section_title
;
Structure prediction by ZEFSAII (Michael W. Deem and Ramdas Pophale) SiO2 
 PCOD9006385
Probable space group: P -1
;
_chemical_formula_sum "Si O2"
_cell_formula_units_Z 16
_cell_length_a 14.213118
_cell_length_b 8.928437
_cell_length_c 16.082134
_cell_angle_alpha 31.801882
_cell_angle_beta 33.719084
_cell_angle_gamma 41.185669
_cell_volume 589.703365
_symmetry_space_group_name_H-M "P -1"
_symmetry_group_IT_number 2
_symmetry_cell_setting 'triclinic'
loop_
_space_group_symop_operation_xyz
x,y,z
-x,-y,-z
loop_
_atom_site_type_symbol
_atom_site_label
_atom_site_fract_x
_atom_site_fract_y
_atom_site_fract_z
Si Si1 0.638327 0.858669 0.530358
Si Si2 0.169794 0.791623 0.138588
Si Si3 0.922435 0.454614 0.413164
Si Si4 0.384649 0.579509 0.942266
Si Si5 0.737444 0.735820 0.054544
Si Si6 0.063063 0.680764 0.032218
Si Si7 0.331424 0.925020 0.277809
Si Si8 0.320782 0.680395 0.577344
O O1 0.787471 0.691881 0.445440
O O2 0.561171 0.629499 0.751233
O O3 0.500000 0.000000 0.500000
O O4 0.674970 0.103104 0.451579
O O5 0.088768 0.497902 0.326332
O O6 0.350858 0.718313 0.992278
O O7 0.203195 0.956366 0.119882
O O8 0.043706 0.036553 0.064003
O O9 0.821813 0.180876 0.611862
O O10 0.966495 0.542754 0.244332
O O11 0.232487 0.763587 0.913420
O O12 0.348454 0.257777 0.108568
O O13 0.527521 0.771547 0.181520
O O14 0.773675 0.561948 0.197439
O O15 0.849478 0.551306 0.990121
O O16 0.272563 0.853890 0.447500
O O17 0.500000 0.500000 0.500000
#
# Coordination Sequence:
#
# PCOD9006385 Si02
#       8
#     2   2   2   2   2   2   2   2
#     4  12  22  39  68 102 132 173 228 284 338 398
#     4  11  23  41  66 100 135 176 224 278 345 408
#     4  11  24  40  63  96 136 175 224 276 330 405
#     4  11  24  43  70  97 138 181 225 284 340 414
#     4  11  23  42  71 102 137 178 227 285 343 406
#     4  11  23  41  68 100 135 179 226 281 346 406
#     4  11  25  45  68 101 136 181 231 280 347 403
#     4  10  21  38  65  98 133 170 221 282 333 394
#
# _framework density 27.132283999999999
#
# number of rings (size 3 to 8) (size 9 to 14) (size 15 to 20)
#    0.000    1.000    0.000    9.375    0.000    7.000 
#    0.000    0.000    0.000   12.000    0.000    0.000 
#    0.000    0.000    0.000    0.000    0.000    0.000 
#
# Total GULP energy -89574.921403 kJ/mol
# GULP energy per Si atom -5598.432588 kJ/mol
# Density = 2.707053 g / cm^3
# Si number density = 27.132284 Si / 1000 Ang^3
#
#
#
# Elastic Constant Matrix: (Units=GPa)
#
#
# Indices 1 2 3 4 5 6 
#
# 1 75.2684 30.9344 49.1410 0.2920 -0.6255 19.7781
# 2 30.9344 201.6557 58.3135 24.5088 0.4256 28.2028
# 3 49.1410 58.3135 151.5298 -5.0615 -17.2450 18.2755
# 4 0.2920 24.5088 -5.0615 60.4169 10.0491 -3.9415
# 5 -0.6255 0.4256 -17.2450 10.0491 47.7368 -3.9341
# 6 19.7781 28.2028 18.2755 -3.9415 -3.9341 44.8620
#
#
#
# Elastic Compliance Matrix: (Units=1/GPa)
#
#
# Indices 1 2 3 4 5 6 
#
# 1 0.018510 -0.000396 -0.005388 -0.000418 -0.002102 -0.005938
# 2 -0.000396 0.006450 -0.002106 -0.002928 -0.000481 -0.003322
# 3 -0.005388 -0.002106 0.009532 0.001166 0.003162 0.000196
# 4 -0.000418 -0.002928 0.001166 0.018565 -0.003228 0.002898
# 5 -0.002102 -0.000481 0.003162 -0.003228 0.022884 0.001664
# 6 -0.005938 -0.003322 0.000196 0.002898 0.001664 0.027318
#
#
# Mechanical properties :
#
#
# Convention : Reuss Voigt Hill
#
# Bulk Modulus (GPa) = 53.43496 78.35908 65.89702
# Shear Modulus (GPa) = 39.91217 49.94082 44.92649
#
# Velocity S-wave (km/s) = 3.83955 4.29492 4.07361
# Velocity P-wave (km/s) = 6.27640 7.31698 6.81658
#
# Compressibility (1/GPa) = 0.01871434
#
# Stress axis : x y z
#
# Youngs Moduli (GPa) = 54.02391 155.03842 104.90868
#
# Poissons Ratio (x) = 0.06138 0.56520
# Poissons Ratio (y) = 0.02139 0.22090
# Poissons Ratio (z) = 0.29105 0.32646
#
# Static dielectric constant tensor:
#      x y z
#    x 2.143800 0.028280 0.005630 
#    y 0.028280 1.943450 -0.021400 
#    z 0.005630 -0.021400 2.160390 
# 
# From -- ./inp_files/575489.got.cif
#   From: 2010.05.17/outbox.cif.g08.bks.cpg/sg2_288_cif.got.tgz:575489.got - 2010.06.03 11:33:40.
