data_PCOD9006414
_publ_section_title
;
Structure prediction by ZEFSAII (Michael W. Deem and Ramdas Pophale) SiO2 
 PCOD9006414
Probable space group: P -1
;
_chemical_formula_sum "Si O2"
_cell_formula_units_Z 16
_cell_length_a 20.017803
_cell_length_b 23.935898
_cell_length_c 12.922152
_cell_angle_alpha 23.403640
_cell_angle_beta 26.254581
_cell_angle_gamma 16.297080
_cell_volume 683.000389
_symmetry_space_group_name_H-M "P -1"
_symmetry_group_IT_number 2
_symmetry_cell_setting 'triclinic'
loop_
_space_group_symop_operation_xyz
x,y,z
-x,-y,-z
loop_
_atom_site_type_symbol
_atom_site_label
_atom_site_fract_x
_atom_site_fract_y
_atom_site_fract_z
Si Si1 0.182318 0.728803 0.512922
Si Si2 0.902133 0.910814 0.894351
Si Si3 0.261076 0.185978 0.877363
Si Si4 0.973500 0.250496 0.595930
Si Si5 0.596909 0.280686 0.088703
Si Si6 0.094693 0.590707 0.353812
Si Si7 0.815556 0.824122 0.765929
Si Si8 0.622771 0.476714 0.208192
O O1 0.393738 0.557480 0.428498
O O2 0.239725 0.582872 0.776156
O O3 0.927057 0.891359 0.538326
O O4 0.206122 0.867990 0.287639
O O5 0.173820 0.750466 0.752770
O O6 0.774923 0.932579 0.934967
O O7 0.934883 0.776659 0.170452
O O8 0.119647 0.404967 0.635548
O O9 0.545007 0.013274 0.780325
O O10 0.186952 0.251304 0.990663
O O11 0.996115 0.301788 0.589626
O O12 0.008141 0.330498 0.314235
O O13 0.730619 0.333419 0.799352
O O14 0.193973 0.980842 0.733220
O O15 0.370501 0.445121 0.200376
O O16 0.478983 0.332753 0.051528
#
# Coordination Sequence:
#
# PCOD9006414 Si02
#       8
#     2   2   2   2   2   2   2   2
#     4  11  22  43  69 103 129 173 230 284 334 381
#     4  11  24  44  71  98 134 177 222 284 336 389
#     4  11  25  47  64  99 142 185 220 266 340 413
#     4  11  22  41  67 100 136 175 221 282 339 382
#     4  10  21  39  65 101 137 166 220 288 329 389
#     4  11  24  41  68  97 132 183 224 267 335 411
#     4  11  24  45  70  95 140 179 220 281 332 402
#     4  10  21  38  66 101 131 164 222 281 331 390
#
# _framework density 23.426047000000001
#
# number of rings (size 3 to 8) (size 9 to 14) (size 15 to 20)
#    0.000    1.250    3.750    1.875    1.750    2.500 
#    4.500    0.625    0.000    0.000    0.000    0.000 
#    0.000    0.000    0.000    0.000    0.000    0.000 
#
# Total GULP energy -89216.011895 kJ/mol
# GULP energy per Si atom -5576.000743 kJ/mol
# Density = 2.337273 g / cm^3
# Si number density = 23.426047 Si / 1000 Ang^3
#
#
#
# Elastic Constant Matrix: (Units=GPa)
#
#
# Indices 1 2 3 4 5 6 
#
# 1 128.8500 30.1609 41.1722 6.8418 10.0625 6.9611
# 2 30.1609 62.3315 29.0916 18.3010 -0.2150 1.6791
# 3 41.1722 29.0916 78.2147 12.8162 16.6589 4.6459
# 4 6.8418 18.3010 12.8162 29.4694 4.9764 13.7931
# 5 10.0625 -0.2150 16.6589 4.9764 36.9615 10.8191
# 6 6.9611 1.6791 4.6459 13.7931 10.8191 33.8065
#
#
#
# Elastic Compliance Matrix: (Units=1/GPa)
#
#
# Indices 1 2 3 4 5 6 
#
# 1 0.009949 -0.003724 -0.004068 0.002960 -0.000618 -0.002314
# 2 -0.003724 0.025033 -0.006119 -0.015174 0.004459 0.005128
# 3 -0.004068 -0.006119 0.019300 -0.003451 -0.007870 0.002416
# 4 0.002960 -0.015174 -0.003451 0.054248 -0.000380 -0.021393
# 5 -0.000618 0.004459 -0.007870 -0.000380 0.033667 -0.009632
# 6 -0.002314 0.005128 0.002416 -0.021393 -0.009632 0.041281
#
#
# Mechanical properties :
#
#
# Convention : Reuss Voigt Hill
#
# Bulk Modulus (GPa) = 37.79066 52.24950 45.02008
# Shear Modulus (GPa) = 22.71499 31.31226 27.01363
#
# Velocity S-wave (km/s) = 3.11729 3.65998 3.39948
# Velocity P-wave (km/s) = 5.39663 6.34137 5.88798
#
# Compressibility (1/GPa) = 0.02646156
#
# Stress axis : x y z
#
# Youngs Moduli (GPa) = 100.51665 39.94667 51.81218
#
# Poissons Ratio (x) = 0.14877 0.21075
# Poissons Ratio (y) = 0.37435 0.31702
# Poissons Ratio (z) = 0.40887 0.24442
#
# Static dielectric constant tensor:
#      x y z
#    x 1.884410 -0.009410 0.038950 
#    y -0.009410 1.867520 0.023190 
#    z 0.038950 0.023190 1.949040 
# 
# From -- ./inp_files/467025.got.cif
#   From: 2010.05.17/outbox.cif.g08.bks.cpg/sg2_234_cif.got.tgz:467025.got - 2010.06.03 11:33:40.
