data_PCOD9006674
_publ_section_title
;
Structure prediction by ZEFSAII (Michael W. Deem and Ramdas Pophale) SiO2 
 PCOD9006674
Probable space group: P -1
;
_chemical_formula_sum "Si O2"
_cell_formula_units_Z 12
_cell_length_a 15.501818
_cell_length_b 8.601277
_cell_length_c 8.918394
_cell_angle_alpha 73.575957
_cell_angle_beta 32.905614
_cell_angle_gamma 53.888721
_cell_volume 456.927889
_symmetry_space_group_name_H-M "P -1"
_symmetry_group_IT_number 2
_symmetry_cell_setting 'triclinic'
loop_
_space_group_symop_operation_xyz
x,y,z
-x,-y,-z
loop_
_atom_site_type_symbol
_atom_site_label
_atom_site_fract_x
_atom_site_fract_y
_atom_site_fract_z
Si Si1 0.725678 0.162746 0.371567
Si Si2 0.594448 0.870753 0.237925
Si Si3 0.130642 0.566070 0.909110
Si Si4 0.267180 0.616417 0.231279
Si Si5 0.038345 0.971916 0.225538
Si Si6 0.716273 0.696932 0.548946
O O1 0.833992 0.030447 0.093249
O O2 0.504251 0.223651 0.667035
O O3 0.756243 0.337552 0.256305
O O4 0.163264 0.951601 0.599929
O O5 0.526870 0.066056 0.177481
O O6 0.500000 0.000000 0.500000
O O7 0.817150 0.637888 0.022045
O O8 0.220154 0.462003 0.641310
O O9 0.877283 0.735010 0.272896
O O10 0.259897 0.427789 0.305221
O O11 0.070729 0.828803 0.555800
O O12 0.205107 0.736763 0.128914
O O13 0.500000 0.500000 0.000000
#
# Coordination Sequence:
#
# PCOD9006674 Si02
#       6
#     2   2   2   2   2   2
#     4  11  21  43  70 100 134 172 228 276 338 384
#     4  10  23  35  64 101 133 167 218 283 330 391
#     4  10  21  38  67  97 134 171 218 282 325 386
#     4  11  25  42  66  98 139 183 221 263 338 406
#     4  10  24  41  67  98 133 180 221 276 324 399
#     4  10  21  40  61  99 131 172 227 266 330 393
#
# _framework density 26.262349
#
# number of rings (size 3 to 8) (size 9 to 14) (size 15 to 20)
#    0.000    1.667    1.667    2.500    9.333    2.667 
#    0.000    5.833    0.000    6.000    0.000    0.000 
#    0.000    0.000    0.000    0.000    0.000    0.000 
#
# Total GULP energy -66823.939245 kJ/mol
# GULP energy per Si atom -5568.661604 kJ/mol
# Density = 2.620258 g / cm^3
# Si number density = 26.262349 Si / 1000 Ang^3
#
#
#
# Elastic Constant Matrix: (Units=GPa)
#
#
# Indices 1 2 3 4 5 6 
#
# 1 86.4198 57.9669 19.2809 -14.5729 -6.7499 -16.9879
# 2 57.9669 181.3473 29.8521 -21.6864 -7.1152 -45.5467
# 3 19.2809 29.8521 37.1317 -8.5711 -2.6394 -0.7620
# 4 -14.5729 -21.6864 -8.5711 33.2786 3.9840 -4.9482
# 5 -6.7499 -7.1152 -2.6394 3.9840 27.1919 -3.8504
# 6 -16.9879 -45.5467 -0.7620 -4.9482 -3.8504 60.0251
#
#
#
# Elastic Compliance Matrix: (Units=1/GPa)
#
#
# Indices 1 2 3 4 5 6 
#
# 1 0.016094 -0.003167 -0.004689 0.003858 0.002510 0.002571
# 2 -0.003167 0.009628 -0.004811 0.004473 0.001576 0.006818
# 3 -0.004689 -0.004811 0.033801 0.002896 -0.000178 -0.004322
# 4 0.003858 0.004473 0.002896 0.036734 -0.001921 0.007428
# 5 0.002510 0.001576 -0.000178 -0.001921 0.038674 0.004227
# 6 0.002571 0.006818 -0.004322 0.007428 0.004227 0.023389
#
#
# Mechanical properties :
#
#
# Convention : Reuss Voigt Hill
#
# Bulk Modulus (GPa) = 29.24991 57.67762 43.46377
# Shear Modulus (GPa) = 25.63438 37.28570 31.46004
#
# Velocity S-wave (km/s) = 3.12763 3.77203 3.46484
# Velocity P-wave (km/s) = 4.91981 6.40162 5.70900
#
# Compressibility (1/GPa) = 0.03418814
#
# Stress axis : x y z
#
# Youngs Moduli (GPa) = 62.13557 103.86733 29.58479
#
# Poissons Ratio (x) = 0.32892 0.13873
# Poissons Ratio (y) = 0.19677 0.14234
# Poissons Ratio (z) = 0.29136 0.49974
#
# Static dielectric constant tensor:
#      x y z
#    x 2.123900 -0.042480 -0.121370 
#    y -0.042480 2.189790 0.113910 
#    z -0.121370 0.113910 2.189790 
# 
# From -- ./inp_files/460470.got.cif
#   From: 2010.05.17/outbox.cif.g08.bks.cpg/sg2_231_cif.got.tgz:460470.got - 2010.06.03 11:33:40.
