data_PCOD9006987
_publ_section_title
;
Structure prediction by ZEFSAII (Michael W. Deem and Ramdas Pophale) SiO2 
 PCOD9006987
Probable space group: P -1
;
_chemical_formula_sum "Si O2"
_cell_formula_units_Z 16
_cell_length_a 17.138886
_cell_length_b 11.938834
_cell_length_c 14.265705
_cell_angle_alpha 30.684214
_cell_angle_beta 145.841598
_cell_angle_gamma 128.689096
_cell_volume 797.321913
_symmetry_space_group_name_H-M "P -1"
_symmetry_group_IT_number 2
_symmetry_cell_setting 'triclinic'
loop_
_space_group_symop_operation_xyz
x,y,z
-x,-y,-z
loop_
_atom_site_type_symbol
_atom_site_label
_atom_site_fract_x
_atom_site_fract_y
_atom_site_fract_z
Si Si1 0.280029 0.399463 0.721005
Si Si2 0.928585 0.196041 0.091820
Si Si3 0.601916 0.381166 0.600084
Si Si4 0.358310 0.173489 0.777104
Si Si5 0.401983 0.775234 0.490609
Si Si6 0.673301 0.690127 0.958084
Si Si7 0.033810 0.672647 0.561692
Si Si8 0.037605 0.333402 0.295139
O O1 0.362842 0.199547 0.874418
O O2 0.294426 0.631460 0.520226
O O3 0.113895 0.390085 0.566569
O O4 0.350625 0.363953 0.918693
O O5 0.972664 0.239883 0.209359
O O6 0.757595 0.218526 0.905593
O O7 0.012285 0.940222 0.323235
O O8 0.956154 0.408039 0.908577
O O9 0.500000 0.500000 0.500000
O O10 0.639129 0.589740 0.436400
O O11 0.549953 0.264858 0.542407
O O12 0.200256 0.161705 0.598984
O O13 0.500000 0.000000 0.000000
O O14 0.543409 0.686763 0.761158
O O15 0.325358 0.045758 0.233809
O O16 0.824624 0.506002 0.212255
O O17 0.045867 0.656677 0.697989
#
# Coordination Sequence:
#
# PCOD9006987 Si02
#       8
#     2   2   2   2   2   2   2   2
#     4  10  22  41  61  87 126 160 204 257 306 367
#     4  10  21  39  58  87 128 159 203 254 306 368
#     4  10  22  35  61  87 116 161 198 249 312 359
#     4   9  20  36  58  90 118 158 199 244 308 367
#     4  10  24  44  59  89 131 155 211 259 303 377
#     4  11  24  41  65  91 120 170 206 256 311 361
#     4  11  23  37  65  92 118 163 211 253 307 364
#     4   9  21  39  57  89 130 160 198 259 306 365
#
# _framework density 20.067177999999998
#
# number of rings (size 3 to 8) (size 9 to 14) (size 15 to 20)
#    0.000    2.000    0.000    2.625    7.000    3.500 
#    0.000    0.000    0.000    0.000    0.000    0.000 
#    0.000    0.000    0.000    0.000    0.000    0.000 
#
# Total GULP energy -89262.112365 kJ/mol
# GULP energy per Si atom -5578.882023 kJ/mol
# Density = 2.002150 g / cm^3
# Si number density = 20.067178 Si / 1000 Ang^3
#
#
#
# Elastic Constant Matrix: (Units=GPa)
#
#
# Indices 1 2 3 4 5 6 
#
# 1 105.2250 41.6718 63.3487 7.8677 5.5150 -24.3505
# 2 41.6718 96.9073 53.2579 -5.6228 0.9552 -10.0509
# 3 63.3487 53.2579 123.5231 -11.4112 17.2506 -23.8296
# 4 7.8677 -5.6228 -11.4112 28.2389 -7.8075 -15.6401
# 5 5.5150 0.9552 17.2506 -7.8075 31.2991 -5.3155
# 6 -24.3505 -10.0509 -23.8296 -15.6401 -5.3155 32.9803
#
#
#
# Elastic Compliance Matrix: (Units=1/GPa)
#
#
# Indices 1 2 3 4 5 6 
#
# 1 0.016047 -0.003184 -0.006861 -0.006238 -0.000002 0.002962
# 2 -0.003184 0.014496 -0.004630 0.003452 0.003693 0.000954
# 3 -0.006861 -0.004630 0.017816 0.014602 -0.002636 0.012895
# 4 -0.006238 0.003452 0.014602 0.074042 0.019090 0.045186
# 5 -0.000002 0.003693 -0.002636 0.019090 0.040568 0.014811
# 6 0.002962 0.000954 0.012895 0.045186 0.014811 0.065931
#
#
# Mechanical properties :
#
#
# Convention : Reuss Voigt Hill
#
# Bulk Modulus (GPa) = 52.61186 71.35693 61.98439
# Shear Modulus (GPa) = 18.89739 29.66211 24.27975
#
# Velocity S-wave (km/s) = 3.07205 3.84883 3.48217
# Velocity P-wave (km/s) = 6.23363 7.44228 6.86461
#
# Compressibility (1/GPa) = 0.01900712
#
# Stress axis : x y z
#
# Youngs Moduli (GPa) = 62.31589 68.98605 56.13079
#
# Poissons Ratio (x) = 0.21968 0.38514
# Poissons Ratio (y) = 0.19844 0.25987
# Poissons Ratio (z) = 0.42758 0.31939
#
# Static dielectric constant tensor:
#      x y z
#    x 1.635930 0.033020 -0.131740 
#    y 0.033020 1.734480 0.049750 
#    z -0.131740 0.049750 1.571900 
# 
# From -- ./inp_files/538399.got.cif
#   From: 2010.05.17/outbox.cif.g08.bks.cpg/sg2_270_cif.got.tgz:538399.got - 2010.06.03 11:33:40.
