data_PCOD9006306
_publ_section_title
;
Structure prediction by ZEFSAII (Michael W. Deem and Ramdas Pophale) SiO2 
 PCOD9006306
Probable space group: P -1
;
_chemical_formula_sum "Si O2"
_cell_formula_units_Z 16
_cell_length_a 6.365608
_cell_length_b 12.884348
_cell_length_c 10.954636
_cell_angle_alpha 82.611246
_cell_angle_beta 116.548388
_cell_angle_gamma 66.509909
_cell_volume 683.658569
_symmetry_space_group_name_H-M "P -1"
_symmetry_group_IT_number 2
_symmetry_cell_setting 'triclinic'
loop_
_space_group_symop_operation_xyz
x,y,z
-x,-y,-z
loop_
_atom_site_type_symbol
_atom_site_label
_atom_site_fract_x
_atom_site_fract_y
_atom_site_fract_z
Si Si1 0.119517 0.485772 0.231696
Si Si2 0.722808 0.055734 0.839380
Si Si3 0.820397 0.739808 0.212186
Si Si4 0.753537 0.019212 0.583951
Si Si5 0.236343 0.190484 0.091519
Si Si6 0.280148 0.799304 0.663417
Si Si7 0.629888 0.363914 0.491493
Si Si8 0.247721 0.576478 0.014056
O O1 0.333183 0.377246 0.391151
O O2 0.896069 0.600715 0.233079
O O3 0.970537 0.444930 0.108158
O O4 0.268263 0.533839 0.167749
O O5 0.460592 0.176722 0.803429
O O6 0.765141 0.074770 0.707529
O O7 0.648109 0.949626 0.828665
O O8 0.000000 0.000000 0.000000
O O9 0.097934 0.720114 0.348539
O O10 0.780683 0.796178 0.059985
O O11 0.743703 0.110950 0.465645
O O12 0.500000 0.000000 0.500000
O O13 0.020276 0.885078 0.664713
O O14 0.445770 0.231495 0.187878
O O15 0.923781 0.276118 0.045518
O O16 0.265271 0.688881 0.612018
O O17 0.500000 0.500000 0.500000
O O18 0.500000 0.500000 0.000000
#
# Coordination Sequence:
#
# PCOD9006306 Si02
#       8
#     2   2   2   2   2   2   2   2
#     4   9  20  41  63  91 126 167 209 264 323 378
#     4  12  26  41  62  98 136 169 221 272 325 394
#     4  10  23  41  65  89 134 172 213 264 331 386
#     4  11  24  43  65  98 129 174 223 269 324 391
#     4  11  23  42  65  96 126 179 218 262 333 388
#     4  11  23  42  70  91 135 170 217 276 323 387
#     4  10  21  41  67  95 125 172 215 262 330 390
#     4  10  21  38  65  94 125 159 219 266 312 382
#
# _framework density 23.403494999999999
#
# number of rings (size 3 to 8) (size 9 to 14) (size 15 to 20)
#    0.000    1.500    2.500    1.875    5.250    1.000 
#    2.250    0.000    0.000    6.750    0.000    0.000 
#    0.000    0.000    0.000    0.000    0.000    0.000 
#
# Total GULP energy -89125.831240 kJ/mol
# GULP energy per Si atom -5570.364452 kJ/mol
# Density = 2.335023 g / cm^3
# Si number density = 23.403495 Si / 1000 Ang^3
#
#
#
# Elastic Constant Matrix: (Units=GPa)
#
#
# Indices 1 2 3 4 5 6 
#
# 1 51.7577 38.9749 35.8921 -3.1867 10.6251 -35.8519
# 2 38.9749 157.2988 42.2600 -3.8345 12.3551 -58.7109
# 3 35.8921 42.2600 167.5510 5.4294 18.6473 -21.0473
# 4 -3.1867 -3.8345 5.4294 40.8440 -6.9471 9.6525
# 5 10.6251 12.3551 18.6473 -6.9471 24.5540 -1.1839
# 6 -35.8519 -58.7109 -21.0473 9.6525 -1.1839 50.9519
#
#
#
# Elastic Compliance Matrix: (Units=1/GPa)
#
#
# Indices 1 2 3 4 5 6 
#
# 1 0.050897 0.005579 -0.004383 -0.008460 -0.021894 0.041525
# 2 0.005579 0.012863 -0.000996 -0.004123 -0.008385 0.018923
# 3 -0.004383 -0.000996 0.007550 -0.001906 -0.003916 -0.000842
# 4 -0.008460 -0.004123 -0.001906 0.030213 0.014918 -0.016868
# 5 -0.021894 -0.008385 -0.003916 0.014918 0.060259 -0.028111
# 6 0.041525 0.018923 -0.000842 -0.016868 -0.028111 0.072844
#
#
# Mechanical properties :
#
#
# Convention : Reuss Voigt Hill
#
# Bulk Modulus (GPa) = 13.94490 67.87350 40.90920
# Shear Modulus (GPa) = 19.37013 40.56869 29.96941
#
# Velocity S-wave (km/s) = 2.88003 4.16798 3.58236
# Velocity P-wave (km/s) = 4.12684 7.22684 5.88464
#
# Compressibility (1/GPa) = 0.07171081
#
# Stress axis : x y z
#
# Youngs Moduli (GPa) = 19.64766 77.74008 132.44755
#
# Poissons Ratio (x) = -0.43371 0.58051
# Poissons Ratio (y) = -0.10961 0.13189
# Poissons Ratio (z) = 0.08611 0.07741
#
# Static dielectric constant tensor:
#      x y z
#    x 2.012650 0.021650 -0.053510 
#    y 0.021650 1.995980 -0.014550 
#    z -0.053510 -0.014550 1.920420 
# 
# From -- ./inp_files/367791.got.cif
#   From: 2010.05.17/outbox.cif.g08.bks.cpg/sg2_184_cif.got.tgz:367791.got - 2010.06.03 11:33:40.
