data_PCOD9006189
_publ_section_title
;
Structure prediction by ZEFSAII (Michael W. Deem and Ramdas Pophale) SiO2 
 PCOD9006189
Probable space group: P -1
;
_chemical_formula_sum "Si O2"
_cell_formula_units_Z 14
_cell_length_a 11.979995
_cell_length_b 18.128994
_cell_length_c 8.219075
_cell_angle_alpha 128.055841
_cell_angle_beta 51.415936
_cell_angle_gamma 154.065695
_cell_volume 602.135765
_symmetry_space_group_name_H-M "P -1"
_symmetry_group_IT_number 2
_symmetry_cell_setting 'triclinic'
loop_
_space_group_symop_operation_xyz
x,y,z
-x,-y,-z
loop_
_atom_site_type_symbol
_atom_site_label
_atom_site_fract_x
_atom_site_fract_y
_atom_site_fract_z
Si Si1 0.009341 0.149480 0.859830
Si Si2 0.271387 0.409374 0.463166
Si Si3 0.077090 0.388645 0.181658
Si Si4 0.500276 0.694386 0.407311
Si Si5 0.108943 0.953708 0.833763
Si Si6 0.846149 0.199256 0.819177
Si Si7 0.547031 0.137172 0.420984
O O1 0.200335 0.167738 0.695256
O O2 0.913423 0.134942 0.754816
O O3 0.163610 0.327843 0.020510
O O4 0.820020 0.026894 0.015651
O O5 0.500000 0.500000 0.500000
O O6 0.384525 0.553222 0.441957
O O7 0.131181 0.245241 0.276269
O O8 0.040703 0.324330 0.666832
O O9 0.853040 0.288113 0.381310
O O10 0.330750 0.587582 0.251663
O O11 0.924273 0.311879 0.045455
O O12 0.466354 0.784789 0.589656
O O13 0.350491 0.060047 0.639814
O O14 0.000000 0.000000 0.000000
O O15 0.560940 0.019847 0.768501
#
# Coordination Sequence:
#
# PCOD9006189 Si02
#       7
#     2   2   2   2   2   2   2
#     4  10  21  38  65  84 120 157 204 239 305 346
#     4  11  21  37  60  92 119 157 197 250 300 352
#     4  10  22  42  63  85 122 166 199 239 307 358
#     4  12  22  39  63  92 122 156 203 252 297 353
#     4  11  23  39  61  91 119 157 202 248 295 356
#     4   9  22  39  62  84 122 158 203 239 303 351
#     4  11  24  40  62  91 125 154 203 251 296 360
#
# _framework density 23.250571999999998
#
# number of rings (size 3 to 8) (size 9 to 14) (size 15 to 20)
#    0.857    0.571    4.286    1.286    2.000    2.286 
#    0.000    0.714    0.000    0.000    0.000    0.000 
#    0.000    0.000    0.000    0.000    0.000    0.000 
#
# Total GULP energy -78004.205636 kJ/mol
# GULP energy per Si atom -5571.728974 kJ/mol
# Density = 2.319765 g / cm^3
# Si number density = 23.250572 Si / 1000 Ang^3
#
#
#
# Elastic Constant Matrix: (Units=GPa)
#
#
# Indices 1 2 3 4 5 6 
#
# 1 68.1986 14.7574 21.2679 -11.8340 -10.3998 -1.3313
# 2 14.7574 45.3728 5.3869 8.9544 8.2260 -10.6443
# 3 21.2679 5.3869 69.8470 -4.7534 -1.0108 -10.7327
# 4 -11.8340 8.9544 -4.7534 25.9419 -5.7829 1.8480
# 5 -10.3998 8.2260 -1.0108 -5.7829 26.3308 -9.6701
# 6 -1.3313 -10.6443 -10.7327 1.8480 -9.6701 33.1950
#
#
#
# Elastic Compliance Matrix: (Units=1/GPa)
#
#
# Indices 1 2 3 4 5 6 
#
# 1 0.026248 -0.015806 -0.005275 0.020836 0.019206 -0.001286
# 2 -0.015806 0.037440 0.000995 -0.025096 -0.020834 0.007021
# 3 -0.005275 0.000995 0.016710 -0.000020 0.000299 0.005598
# 4 0.020836 -0.025096 -0.000020 0.063372 0.029160 -0.002251
# 5 0.019206 -0.020834 0.000299 0.029160 0.062437 0.010751
# 6 -0.001286 0.007021 0.005598 -0.002251 0.010751 0.037392
#
#
# Mechanical properties :
#
#
# Convention : Reuss Voigt Hill
#
# Bulk Modulus (GPa) = 24.86086 29.58252 27.22169
# Shear Modulus (GPa) = 16.82489 26.56063 21.69276
#
# Velocity S-wave (km/s) = 2.69296 3.38356 3.05782
# Velocity P-wave (km/s) = 4.51500 5.29297 4.91939
#
# Compressibility (1/GPa) = 0.04022387
#
# Stress axis : x y z
#
# Youngs Moduli (GPa) = 38.09870 26.70976 59.84572
#
# Poissons Ratio (x) = 0.42219 0.31568
# Poissons Ratio (y) = 0.60221 -0.05954
# Poissons Ratio (z) = 0.20097 -0.02657
#
# Static dielectric constant tensor:
#      x y z
#    x 1.877940 -0.001760 0.069690 
#    y -0.001760 1.871080 -0.014650 
#    z 0.069690 -0.014650 1.901480 
# 
# From -- ./inp_files/278213.got.cif
#   From: 2010.05.17/outbox.cif.g08.bks.cpg/sg2_140_cif.got.tgz:278213.got - 2010.06.03 11:33:40.
