data_PCOD9006744
_publ_section_title
;
Structure prediction by ZEFSAII (Michael W. Deem and Ramdas Pophale) SiO2 
 PCOD9006744
Probable space group: P -1
;
_chemical_formula_sum "Si O2"
_cell_formula_units_Z 16
_cell_length_a 26.727823
_cell_length_b 10.367093
_cell_length_c 5.798075
_cell_angle_alpha 126.954065
_cell_angle_beta 124.418899
_cell_angle_gamma 31.611211
_cell_volume 667.471485
_symmetry_space_group_name_H-M "P -1"
_symmetry_group_IT_number 2
_symmetry_cell_setting 'triclinic'
loop_
_space_group_symop_operation_xyz
x,y,z
-x,-y,-z
loop_
_atom_site_type_symbol
_atom_site_label
_atom_site_fract_x
_atom_site_fract_y
_atom_site_fract_z
Si Si1 0.114423 0.165963 0.193589
Si Si2 0.407003 0.292668 0.148890
Si Si3 0.706012 0.963683 0.456737
Si Si4 0.053847 0.248211 0.628848
Si Si5 0.330542 0.189499 0.192636
Si Si6 0.528729 0.306048 0.680143
Si Si7 0.956687 0.132014 0.277425
Si Si8 0.242725 0.491941 0.687289
O O1 0.207242 0.091684 0.355606
O O2 0.111350 0.107063 0.387664
O O3 0.003117 0.464674 0.216221
O O4 0.116555 0.092211 0.855982
O O5 0.364656 0.266857 0.210101
O O6 0.438661 0.404269 0.428917
O O7 0.326225 0.447449 0.906751
O O8 0.500000 0.000000 0.000000
O O9 0.732643 0.735158 0.390420
O O10 0.606357 0.211462 0.594702
O O11 0.690709 0.934603 0.124841
O O12 0.964945 0.307418 0.478321
O O13 0.238500 0.453198 0.367827
O O14 0.417301 0.955823 0.334284
O O15 0.500000 0.500000 0.000000
O O16 0.853110 0.266003 0.172730
O O17 0.000000 0.000000 0.500000
O O18 0.000000 0.000000 0.000000
#
# Coordination Sequence:
#
# PCOD9006744 Si02
#       8
#     2   2   2   2   2   2   2   2
#     4  10  21  38  68  95 127 166 227 284 330 399
#     4  11  20  42  68  99 129 175 242 278 338 431
#     4  10  21  39  66  97 127 173 232 279 339 423
#     4  10  22  40  64  95 127 173 219 282 344 402
#     4  10  21  38  73  92 125 182 231 282 338 418
#     4  11  24  41  61 101 139 174 215 288 360 414
#     4  12  27  46  68  98 145 184 232 292 360 416
#     4  10  23  40  69  97 126 176 241 286 335 420
#
# _framework density 23.971060999999999
#
# number of rings (size 3 to 8) (size 9 to 14) (size 15 to 20)
#    0.000    1.500    5.000    1.125    7.000    1.500 
#    2.250    2.500    0.000    0.000    0.000    0.000 
#    0.000    0.000    0.000    0.000    0.000    0.000 
#
# Total GULP energy -89169.528911 kJ/mol
# GULP energy per Si atom -5573.095557 kJ/mol
# Density = 2.391650 g / cm^3
# Si number density = 23.971061 Si / 1000 Ang^3
#
#
#
# Elastic Constant Matrix: (Units=GPa)
#
#
# Indices 1 2 3 4 5 6 
#
# 1 97.4644 32.5642 63.0795 0.7131 -10.9288 -21.0132
# 2 32.5642 49.4861 56.4152 5.5601 -10.0824 -33.0793
# 3 63.0795 56.4152 185.0719 5.4328 -11.5314 -36.1822
# 4 0.7131 5.5601 5.4328 33.4096 -13.5407 -1.9294
# 5 -10.9288 -10.0824 -11.5314 -13.5407 47.2256 -6.0452
# 6 -21.0132 -33.0793 -36.1822 -1.9294 -6.0452 46.0333
#
#
#
# Elastic Compliance Matrix: (Units=1/GPa)
#
#
# Indices 1 2 3 4 5 6 
#
# 1 0.014394 -0.005258 -0.003088 0.001968 0.002111 0.000725
# 2 -0.005258 0.060837 -0.008771 -0.000805 0.014037 0.036233
# 3 -0.003088 -0.008771 0.008953 -0.000199 -0.000555 -0.000756
# 4 0.001968 -0.000805 -0.000199 0.034486 0.010506 0.002989
# 5 0.002111 0.014037 -0.000555 0.010506 0.029447 0.014922
# 6 0.000725 0.036233 -0.000756 0.002989 0.014922 0.049581
#
#
# Mechanical properties :
#
#
# Convention : Reuss Voigt Hill
#
# Bulk Modulus (GPa) = 20.01989 70.68225 45.35107
# Shear Modulus (GPa) = 20.11404 37.33128 28.72266
#
# Velocity S-wave (km/s) = 2.89986 3.95061 3.46529
# Velocity P-wave (km/s) = 4.42516 7.09649 5.91364
#
# Compressibility (1/GPa) = 0.04995033
#
# Stress axis : x y z
#
# Youngs Moduli (GPa) = 69.47346 16.43725 111.69888
#
# Poissons Ratio (x) = 0.08643 0.34488
# Poissons Ratio (y) = 0.36532 0.97969
# Poissons Ratio (z) = 0.21451 0.14417
#
# Static dielectric constant tensor:
#      x y z
#    x 1.939930 0.037870 -0.075200 
#    y 0.037870 2.011530 0.031980 
#    z -0.075200 0.031980 2.052940 
# 
# From -- ./inp_files/126959.got.cif
#   From: 2010.05.17/outbox.cif.g08.bks.cpg/sg2_64_cif.got.tgz:126959.got - 2010.06.03 11:33:40.
