data_PCOD9006982
_publ_section_title
;
Structure prediction by ZEFSAII (Michael W. Deem and Ramdas Pophale) SiO2 
 PCOD9006982
Probable space group: P -1
;
_chemical_formula_sum "Si O2"
_cell_formula_units_Z 16
_cell_length_a 16.524092
_cell_length_b 21.491079
_cell_length_c 6.843463
_cell_angle_alpha 99.296801
_cell_angle_beta 97.139775
_cell_angle_gamma 155.811439
_cell_volume 727.898518
_symmetry_space_group_name_H-M "P -1"
_symmetry_group_IT_number 2
_symmetry_cell_setting 'triclinic'
loop_
_space_group_symop_operation_xyz
x,y,z
-x,-y,-z
loop_
_atom_site_type_symbol
_atom_site_label
_atom_site_fract_x
_atom_site_fract_y
_atom_site_fract_z
Si Si1 0.793032 0.582334 0.973785
Si Si2 0.120840 0.187009 0.579567
Si Si3 0.282006 0.199813 0.358794
Si Si4 0.126286 0.949659 0.213074
Si Si5 0.475861 0.561878 0.830329
Si Si6 0.582729 0.206085 0.270365
Si Si7 0.886308 0.393263 0.118623
Si Si8 0.322842 0.893122 0.210759
O O1 0.544706 0.379758 0.662320
O O2 0.699043 0.517968 0.136811
O O3 0.051127 0.728769 0.108173
O O4 0.884421 0.721085 0.009166
O O5 0.100382 0.113066 0.391493
O O6 0.282537 0.361839 0.613143
O O7 0.312041 0.306053 0.877258
O O8 0.870346 0.032511 0.541709
O O9 0.135892 0.027499 0.174041
O O10 0.392462 0.313079 0.256169
O O11 0.365119 0.091003 0.244613
O O12 0.660350 0.268632 0.097098
O O13 0.855236 0.418765 0.573489
O O14 0.484401 0.062881 0.218122
O O15 0.764507 0.234427 0.986191
O O16 0.000000 0.500000 0.000000
O O17 0.500000 0.000000 0.500000
#
# Coordination Sequence:
#
# PCOD9006982 Si02
#       8
#     2   2   2   2   2   2   2   2
#     4   9  22  41  56  85 124 153 194 250 291 352
#     4   9  19  37  59  86 124 152 194 247 289 350
#     4  11  20  37  63  86 114 164 198 235 301 350
#     4  10  21  39  58  87 121 153 194 248 291 346
#     4   9  19  37  60  86 119 157 196 238 294 354
#     4  10  23  42  60  87 127 158 201 252 300 363
#     4  11  22  40  63  88 116 161 201 248 304 362
#     4  11  21  41  65  89 121 162 203 252 310 361
#
# _framework density 21.981086000000001
#
# number of rings (size 3 to 8) (size 9 to 14) (size 15 to 20)
#    0.000    2.000    1.250    2.625    0.000    1.500 
#    6.750    6.250    0.000    0.000    0.000    0.000 
#    0.000    0.000    0.000    0.000    0.000    0.000 
#
# Total GULP energy -89313.204206 kJ/mol
# GULP energy per Si atom -5582.075263 kJ/mol
# Density = 2.193106 g / cm^3
# Si number density = 21.981086 Si / 1000 Ang^3
#
#
#
# Elastic Constant Matrix: (Units=GPa)
#
#
# Indices 1 2 3 4 5 6 
#
# 1 101.6389 61.1670 42.8458 -8.2880 -25.8838 10.1533
# 2 61.1670 150.9773 44.1196 -21.9352 -16.6796 9.6951
# 3 42.8458 44.1196 54.2927 1.8272 -11.7705 8.7766
# 4 -8.2880 -21.9352 1.8272 38.6983 -1.4184 -4.1488
# 5 -25.8838 -16.6796 -11.7705 -1.4184 22.1899 1.1526
# 6 10.1533 9.6951 8.7766 -4.1488 1.1526 48.2257
#
#
#
# Elastic Compliance Matrix: (Units=1/GPa)
#
#
# Indices 1 2 3 4 5 6 
#
# 1 0.020615 -0.002886 -0.010061 0.003656 0.016879 -0.002018
# 2 -0.002886 0.010623 -0.006189 0.005764 0.001701 0.000054
# 3 -0.010061 -0.006189 0.032237 -0.007509 0.000397 -0.003160
# 4 0.003656 0.005764 -0.007509 0.030689 0.006476 0.001923
# 5 0.016879 0.001701 0.000397 0.006476 0.066918 -0.005010
# 6 -0.002018 0.000054 -0.003160 0.001923 -0.005010 0.022010
#
#
# Mechanical properties :
#
#
# Convention : Reuss Voigt Hill
#
# Bulk Modulus (GPa) = 39.67663 67.01930 53.34796
# Shear Modulus (GPa) = 21.76130 32.40787 27.08458
#
# Velocity S-wave (km/s) = 3.14984 3.84390 3.51405
# Velocity P-wave (km/s) = 5.59627 7.08918 6.38649
#
# Compressibility (1/GPa) = 0.02520376
#
# Stress axis : x y z
#
# Youngs Moduli (GPa) = 48.50793 94.13220 31.02043
#
# Poissons Ratio (x) = 0.27171 0.31208
# Poissons Ratio (y) = 0.14002 0.19198
# Poissons Ratio (z) = 0.48802 0.58256
#
# Static dielectric constant tensor:
#      x y z
#    x 1.835180 0.035900 0.001490 
#    y 0.035900 1.852190 0.002460 
#    z 0.001490 0.002460 1.829750 
# 
# From -- ./inp_files/112916.got.cif
#   From: 2010.05.17/outbox.cif.g08.bks.cpg/sg2_57_cif.got.tgz:112916.got - 2010.06.03 11:33:40.
