data_PCOD9006249
_publ_section_title
;
Structure prediction by ZEFSAII (Michael W. Deem and Ramdas Pophale) SiO2 
 PCOD9006249
Probable space group: P -1
;
_chemical_formula_sum "Si O2"
_cell_formula_units_Z 16
_cell_length_a 7.817311
_cell_length_b 15.594145
_cell_length_c 7.257215
_cell_angle_alpha 70.576578
_cell_angle_beta 124.604550
_cell_angle_gamma 109.277343
_cell_volume 675.263315
_symmetry_space_group_name_H-M "P -1"
_symmetry_group_IT_number 2
_symmetry_cell_setting 'triclinic'
loop_
_space_group_symop_operation_xyz
x,y,z
-x,-y,-z
loop_
_atom_site_type_symbol
_atom_site_label
_atom_site_fract_x
_atom_site_fract_y
_atom_site_fract_z
Si Si1 0.905010 0.988317 0.653804
Si Si2 0.147972 0.772797 0.282398
Si Si3 0.716687 0.158886 0.322036
Si Si4 0.300851 0.927357 0.008473
Si Si5 0.343777 0.381634 0.309360
Si Si6 0.273802 0.447955 0.590991
Si Si7 0.990882 0.585947 0.191060
Si Si8 0.703375 0.800351 0.824645
O O1 0.765367 0.889418 0.670589
O O2 0.119092 0.987054 0.902579
O O3 0.763842 0.066697 0.519878
O O4 0.000000 0.000000 0.500000
O O5 0.160916 0.765432 0.516399
O O6 0.167788 0.676405 0.269570
O O7 0.313231 0.857441 0.233471
O O8 0.916981 0.790553 0.069061
O O9 0.775136 0.143452 0.158127
O O10 0.479814 0.177272 0.171587
O O11 0.500000 0.000000 0.000000
O O12 0.328309 0.375667 0.525748
O O13 0.524473 0.470581 0.316560
O O14 0.371587 0.289927 0.282106
O O15 0.126376 0.405296 0.076566
O O16 0.815724 0.588916 0.241576
O O17 0.906300 0.502621 0.645569
#
# Coordination Sequence:
#
# PCOD9006249 Si02
#       8
#     2   2   2   2   2   2   2   2
#     4   9  21  37  57  86 118 159 201 247 300 353
#     4  10  24  40  60  90 124 161 204 251 302 362
#     4  11  23  40  64  86 122 166 203 252 306 354
#     4  10  24  40  60  90 121 160 213 252 301 365
#     4  10  21  40  61  90 126 155 200 251 304 360
#     4  10  21  38  65  92 119 163 198 246 310 368
#     4  10  21  40  62  92 123 159 202 248 304 364
#     4  10  22  39  60  89 122 159 205 253 296 367
#
# _framework density 23.694462000000001
#
# number of rings (size 3 to 8) (size 9 to 14) (size 15 to 20)
#    0.000    2.000    0.000    1.875    7.000    5.000 
#    0.000    8.750    0.000    0.000    0.000    0.000 
#    0.000    0.000    0.000    0.000    0.000    0.000 
#
# Total GULP energy -89350.422964 kJ/mol
# GULP energy per Si atom -5584.401435 kJ/mol
# Density = 2.364053 g / cm^3
# Si number density = 23.694462 Si / 1000 Ang^3
#
#
#
# Elastic Constant Matrix: (Units=GPa)
#
#
# Indices 1 2 3 4 5 6 
#
# 1 67.2572 20.6182 18.2130 14.3945 -1.9301 -16.5502
# 2 20.6182 40.9802 0.4789 0.7735 -4.1779 -7.2394
# 3 18.2130 0.4789 62.0945 22.5128 0.1550 -3.3661
# 4 14.3945 0.7735 22.5128 30.8651 -7.3578 4.2116
# 5 -1.9301 -4.1779 0.1550 -7.3578 40.5173 1.9619
# 6 -16.5502 -7.2394 -3.3661 4.2116 1.9619 32.1385
#
#
#
# Elastic Compliance Matrix: (Units=1/GPa)
#
#
# Indices 1 2 3 4 5 6 
#
# 1 0.023635 -0.009899 -0.002105 -0.011387 -0.002505 0.011366
# 2 -0.009899 0.029825 0.001508 0.003365 0.003154 0.001145
# 3 -0.002105 0.001508 0.023252 -0.017395 -0.003395 0.004178
# 4 -0.011387 0.003365 -0.017395 0.054841 0.010545 -0.014758
# 5 -0.002505 0.003154 -0.003395 0.010545 0.027007 -0.003966
# 6 0.011366 0.001145 0.004178 -0.014758 -0.003966 0.039840
#
#
# Mechanical properties :
#
#
# Convention : Reuss Voigt Hill
#
# Bulk Modulus (GPa) = 17.94729 27.66134 22.80431
# Shear Modulus (GPa) = 21.01132 29.43897 25.22515
#
# Velocity S-wave (km/s) = 2.98108 3.52865 3.26636
# Velocity P-wave (km/s) = 4.40909 5.31990 4.88577
#
# Compressibility (1/GPa) = 0.05571872
#
# Stress axis : x y z
#
# Youngs Moduli (GPa) = 42.30969 33.52857 43.00689
#
# Poissons Ratio (x) = 0.33191 0.09054
# Poissons Ratio (y) = 0.41884 -0.06484
# Poissons Ratio (z) = 0.08907 -0.05055
#
# Static dielectric constant tensor:
#      x y z
#    x 1.923720 -0.027430 0.046610 
#    y -0.027430 1.925780 0.030660 
#    z 0.046610 0.030660 1.955430 
# 
# From -- ./inp_files/212857.got.cif
#   From: 2010.05.17/outbox.cif.g08.bks.cpg/sg2_107_cif.got.tgz:212857.got - 2010.06.03 11:33:40.
