data_PCOD9006441
_publ_section_title
;
Structure prediction by ZEFSAII (Michael W. Deem and Ramdas Pophale) SiO2 
 PCOD9006441
Probable space group: P -1
;
_chemical_formula_sum "Si O2"
_cell_formula_units_Z 16
_cell_length_a 9.599853
_cell_length_b 9.256502
_cell_length_c 15.974471
_cell_angle_alpha 107.301677
_cell_angle_beta 141.907876
_cell_angle_gamma 82.905022
_cell_volume 821.251055
_symmetry_space_group_name_H-M "P -1"
_symmetry_group_IT_number 2
_symmetry_cell_setting 'triclinic'
loop_
_space_group_symop_operation_xyz
x,y,z
-x,-y,-z
loop_
_atom_site_type_symbol
_atom_site_label
_atom_site_fract_x
_atom_site_fract_y
_atom_site_fract_z
Si Si1 0.958745 0.732671 0.060413
Si Si2 0.388157 0.149677 0.984228
Si Si3 0.358576 0.826875 0.399515
Si Si4 0.206602 0.265757 0.473466
Si Si5 0.995642 0.906253 0.348298
Si Si6 0.715895 0.694831 0.293626
Si Si7 0.819350 0.387393 0.007478
Si Si8 0.161349 0.597901 0.784520
O O1 0.765165 0.834936 0.003443
O O2 0.185375 0.800745 0.233964
O O3 0.031481 0.706521 0.995692
O O4 0.861963 0.562391 0.022924
O O5 0.207569 0.147622 0.823750
O O6 0.594621 0.292961 0.100250
O O7 0.500000 0.000000 0.000000
O O8 0.552663 0.725886 0.460069
O O9 0.198778 0.814616 0.403816
O O10 0.500000 0.000000 0.500000
O O11 0.258641 0.338092 0.602228
O O12 0.032223 0.341998 0.350135
O O13 0.092932 0.086121 0.407212
O O14 0.874688 0.855886 0.369945
O O15 0.448772 0.685963 0.144502
O O16 0.808662 0.569101 0.260147
O O17 0.881313 0.393568 0.135271
#
# Coordination Sequence:
#
# PCOD9006441 Si02
#       8
#     2   2   2   2   2   2   2   2
#     4  10  21  40  64  93 117 164 215 250 300 367
#     4  11  20  37  64  91 127 160 198 260 314 361
#     4   9  19  37  61  86 117 164 201 244 299 368
#     4  11  23  40  61  89 131 158 199 256 316 364
#     4  10  21  38  66  88 119 164 211 244 302 373
#     4  12  22  40  62  95 120 162 212 254 300 375
#     4  11  22  39  67  89 122 161 214 256 296 372
#     4  12  23  39  61  96 123 160 200 261 320 353
#
# _framework density 19.482472000000001
#
# number of rings (size 3 to 8) (size 9 to 14) (size 15 to 20)
#    0.000    1.250    5.000    2.625    0.000    0.000 
#    0.000    4.375    5.500    0.000    0.000    0.000 
#    0.000    0.000    0.000    0.000    0.000    0.000 
#
# Total GULP energy -89315.628747 kJ/mol
# GULP energy per Si atom -5582.226797 kJ/mol
# Density = 1.943813 g / cm^3
# Si number density = 19.482472 Si / 1000 Ang^3
#
#
#
# Elastic Constant Matrix: (Units=GPa)
#
#
# Indices 1 2 3 4 5 6 
#
# 1 135.9104 42.8746 39.5208 -20.2394 3.8511 -18.3821
# 2 42.8746 58.9512 17.9156 3.0767 8.1517 -11.3860
# 3 39.5208 17.9156 63.9077 -2.7983 2.0978 -3.5107
# 4 -20.2394 3.0767 -2.7983 30.3953 2.9767 1.3654
# 5 3.8511 8.1517 2.0978 2.9767 37.3225 1.0969
# 6 -18.3821 -11.3860 -3.5107 1.3654 1.0969 29.2535
#
#
#
# Elastic Compliance Matrix: (Units=1/GPa)
#
#
# Indices 1 2 3 4 5 6 
#
# 1 0.013248 -0.007583 -0.005431 0.008919 -0.000244 0.004314
# 2 -0.007583 0.025155 -0.002272 -0.007637 -0.004130 0.005264
# 3 -0.005431 -0.002272 0.019468 -0.001523 0.000140 -0.001895
# 4 0.008919 -0.007637 -0.001523 0.039671 -0.002351 0.000686
# 5 -0.000244 -0.004130 0.000140 -0.002351 0.027979 -0.002683
# 6 0.004314 0.005264 -0.001895 0.000686 -0.002683 0.038785
#
#
# Mechanical properties :
#
#
# Convention : Reuss Voigt Hill
#
# Bulk Modulus (GPa) = 36.63253 51.04348 43.83800
# Shear Modulus (GPa) = 24.51243 29.95816 27.23529
#
# Velocity S-wave (km/s) = 3.55093 3.92560 3.74296
# Velocity P-wave (km/s) = 5.97124 6.84132 6.42104
#
# Compressibility (1/GPa) = 0.02729814
#
# Stress axis : x y z
#
# Youngs Moduli (GPa) = 75.48390 39.75325 51.36672
#
# Poissons Ratio (x) = 0.30145 0.27898
# Poissons Ratio (y) = 0.57240 0.11671
# Poissons Ratio (z) = 0.40997 0.09032
#
# Static dielectric constant tensor:
#      x y z
#    x 1.720850 -0.006810 -0.001110 
#    y -0.006810 1.696930 0.030060 
#    z -0.001110 0.030060 1.656870 
# 
# From -- ./inp_files/190158.got.cif
#   From: 2010.05.17/outbox.cif.g08.bks.cpg/sg2_96_cif.got.tgz:190158.got - 2010.06.03 11:33:40.
