data_PCOD9006472
_publ_section_title
;
Structure prediction by ZEFSAII (Michael W. Deem and Ramdas Pophale) SiO2 
 PCOD9006472
Probable space group: P -1
;
_chemical_formula_sum "Si O2"
_cell_formula_units_Z 14
_cell_length_a 23.206183
_cell_length_b 5.226083
_cell_length_c 5.457046
_cell_angle_alpha 60.132313
_cell_angle_beta 103.944890
_cell_angle_gamma 102.189262
_cell_volume 553.723388
_symmetry_space_group_name_H-M "P -1"
_symmetry_group_IT_number 2
_symmetry_cell_setting 'triclinic'
loop_
_space_group_symop_operation_xyz
x,y,z
-x,-y,-z
loop_
_atom_site_type_symbol
_atom_site_label
_atom_site_fract_x
_atom_site_fract_y
_atom_site_fract_z
Si Si1 0.678734 0.049045 0.384824
Si Si2 0.136784 0.094376 0.681146
Si Si3 0.547561 0.904184 0.904871
Si Si4 0.719623 0.396359 0.759751
Si Si5 0.170344 0.530330 0.856579
Si Si6 0.570922 0.308857 0.346530
Si Si7 0.070417 0.509775 0.077990
O O1 0.707641 0.219006 0.577279
O O2 0.609084 0.107537 0.316720
O O3 0.691070 0.707718 0.574104
O O4 0.700199 0.205204 0.077186
O O5 0.186878 0.308758 0.771896
O O6 0.166540 0.875126 0.627512
O O7 0.102050 0.847758 0.943768
O O8 0.092494 0.299009 0.409135
O O9 0.501244 0.740897 0.732305
O O10 0.581773 0.194567 0.683090
O O11 0.587421 0.650884 0.141835
O O12 0.500000 0.000000 0.000000
O O13 0.789627 0.476080 0.858389
O O14 0.101989 0.409644 0.910468
O O15 0.000000 0.500000 0.000000
#
# Coordination Sequence:
#
# PCOD9006472 Si02
#       7
#     2   2   2   2   2   2   2
#     4  12  28  47  74 105 143 187 237 300 352 415
#     4  10  24  39  68  92 132 171 215 279 332 414
#     4  10  21  38  66  91 131 174 223 275 346 414
#     4  12  28  46  74 102 140 189 240 293 356 415
#     4  10  26  42  69  94 134 174 230 278 341 415
#     4  10  23  39  61  98 129 174 227 281 343 412
#     4  10  24  42  66 100 132 173 218 278 342 407
#
# _framework density 25.283380999999999
#
# number of rings (size 3 to 8) (size 9 to 14) (size 15 to 20)
#    0.857    0.571    0.000    3.429   10.000    1.143 
#    0.000    0.000    0.000    0.000    0.000    0.000 
#    0.000    0.000    0.000    0.000    0.000    0.000 
#
# Total GULP energy -78176.972530 kJ/mol
# GULP energy per Si atom -5584.069466 kJ/mol
# Density = 2.522583 g / cm^3
# Si number density = 25.283381 Si / 1000 Ang^3
#
#
#
# Elastic Constant Matrix: (Units=GPa)
#
#
# Indices 1 2 3 4 5 6 
#
# 1 96.7648 10.3175 42.9652 -13.0512 13.2476 4.1112
# 2 10.3175 163.3885 76.0166 -13.8674 17.1084 -14.8532
# 3 42.9652 76.0166 199.6784 -39.6550 16.6457 -10.6537
# 4 -13.0512 -13.8674 -39.6550 46.9792 -6.7713 4.6120
# 5 13.2476 17.1084 16.6457 -6.7713 49.1408 -0.5700
# 6 4.1112 -14.8532 -10.6537 4.6120 -0.5700 20.9788
#
#
#
# Elastic Compliance Matrix: (Units=1/GPa)
#
#
# Indices 1 2 3 4 5 6 
#
# 1 0.012064 0.000426 -0.002475 0.001403 -0.002412 -0.003694
# 2 0.000426 0.007955 -0.002861 -0.000641 -0.001955 0.004184
# 3 -0.002475 -0.002861 0.007670 0.004777 -0.000261 0.001297
# 4 0.001403 -0.000641 0.004777 0.026169 0.001787 -0.004008
# 5 -0.002412 -0.001955 -0.000261 0.001787 0.022005 -0.000839
# 6 -0.003694 0.004184 0.001297 -0.004008 -0.000839 0.052870
#
#
# Mechanical properties :
#
#
# Convention : Reuss Voigt Hill
#
# Bulk Modulus (GPa) = 55.96866 79.82557 67.89711
# Shear Modulus (GPa) = 34.59921 45.45527 40.02724
#
# Velocity S-wave (km/s) = 3.70328 4.24468 3.98319
# Velocity P-wave (km/s) = 6.36163 7.46083 6.93305
#
# Compressibility (1/GPa) = 0.01786714
#
# Stress axis : x y z
#
# Youngs Moduli (GPa) = 82.88865 125.70157 130.38590
#
# Poissons Ratio (x) = -0.05350 0.32276
# Poissons Ratio (y) = -0.03528 0.37307
# Poissons Ratio (z) = 0.20518 0.35967
#
# Static dielectric constant tensor:
#      x y z
#    x 2.066030 0.043310 -0.005540 
#    y 0.043310 2.093250 0.054120 
#    z -0.005540 0.054120 2.074200 
# 
# From -- ./inp_files/125484.got.cif
#   From: 2010.05.17/outbox.cif.g08.bks.cpg/sg2_63_cif.got.tgz:125484.got - 2010.06.03 11:33:40.
