data_PCOD9006823
_publ_section_title
;
Structure prediction by ZEFSAII (Michael W. Deem and Ramdas Pophale) SiO2 
 PCOD9006823
Probable space group: P -1
;
_chemical_formula_sum "Si O2"
_cell_formula_units_Z 14
_cell_length_a 16.364464
_cell_length_b 10.252659
_cell_length_c 8.815151
_cell_angle_alpha 119.546431
_cell_angle_beta 148.427741
_cell_angle_gamma 58.103597
_cell_volume 654.362833
_symmetry_space_group_name_H-M "P -1"
_symmetry_group_IT_number 2
_symmetry_cell_setting 'triclinic'
loop_
_space_group_symop_operation_xyz
x,y,z
-x,-y,-z
loop_
_atom_site_type_symbol
_atom_site_label
_atom_site_fract_x
_atom_site_fract_y
_atom_site_fract_z
Si Si1 0.008763 0.872876 0.756467
Si Si2 0.176836 0.942548 0.672571
Si Si3 0.472919 0.057036 0.316038
Si Si4 0.177537 0.427606 0.297139
Si Si5 0.800725 0.889490 0.715235
Si Si6 0.518482 0.593965 0.432344
Si Si7 0.772294 0.361368 0.240057
O O1 0.938226 0.826765 0.773744
O O2 0.074613 0.727453 0.668725
O O3 0.866396 0.008809 0.540289
O O4 0.153302 0.958187 0.057366
O O5 0.243989 0.767832 0.733915
O O6 0.000000 0.000000 0.500000
O O7 0.303032 0.035782 0.980829
O O8 0.487704 0.230881 0.429107
O O9 0.500000 0.000000 0.500000
O O10 0.621071 0.944524 0.398678
O O11 0.197534 0.244432 0.238499
O O12 0.311298 0.463218 0.416432
O O13 0.202960 0.494926 0.541639
O O14 0.000000 0.500000 0.000000
O O15 0.500000 0.500000 0.500000
O O16 0.378366 0.597137 0.088223
#
# Coordination Sequence:
#
# PCOD9006823 Si02
#       7
#     2   2   2   2   2   2   2
#     4  10  23  40  71 106 140 183 238 306 346 426
#     4  10  21  38  70 100 132 180 239 285 353 422
#     4  12  21  43  73  95 133 187 239 287 350 425
#     4  12  28  43  73 105 146 194 241 292 371 435
#     4  11  23  44  70 103 143 187 245 289 361 427
#     4  12  28  46  72 108 146 192 242 301 363 423
#     4  11  23  46  69  99 152 188 229 299 359 425
#
# _framework density 21.394856999999998
#
# number of rings (size 3 to 8) (size 9 to 14) (size 15 to 20)
#    0.000    0.857    4.286    2.143    6.000    3.429 
#    0.000    0.000    0.000    0.000    0.000    0.000 
#    0.000    0.000    0.000    0.000    0.000    0.000 
#
# Total GULP energy -78234.522954 kJ/mol
# GULP energy per Si atom -5588.180211 kJ/mol
# Density = 2.134616 g / cm^3
# Si number density = 21.394857 Si / 1000 Ang^3
#
#
#
# Elastic Constant Matrix: (Units=GPa)
#
#
# Indices 1 2 3 4 5 6 
#
# 1 103.9841 35.3639 23.1682 -2.9538 17.2920 2.7448
# 2 35.3639 87.4907 30.5820 -7.0407 17.5896 8.6332
# 3 23.1682 30.5820 133.3409 -20.4489 29.5503 3.6365
# 4 -2.9538 -7.0407 -20.4489 35.3700 0.1082 -1.9719
# 5 17.2920 17.5896 29.5503 0.1082 18.9479 -2.4194
# 6 2.7448 8.6332 3.6365 -1.9719 -2.4194 39.4099
#
#
#
# Elastic Compliance Matrix: (Units=1/GPa)
#
#
# Indices 1 2 3 4 5 6 
#
# 1 0.012137 -0.003121 0.000924 0.000912 -0.009728 -0.000799
# 2 -0.003121 0.015772 0.000306 0.002877 -0.012786 -0.003907
# 3 0.000924 0.000306 0.013562 0.007916 -0.022627 -0.002376
# 4 0.000912 0.002877 0.007916 0.033506 -0.016134 -0.000738
# 5 -0.009728 -0.012786 -0.022627 -0.016134 0.110377 0.011535
# 6 -0.000799 -0.003907 -0.002376 -0.000738 0.011535 0.027176
#
#
# Mechanical properties :
#
#
# Convention : Reuss Voigt Hill
#
# Bulk Modulus (GPa) = 26.53190 55.89376 41.21283
# Shear Modulus (GPa) = 21.84612 34.45900 28.15256
#
# Velocity S-wave (km/s) = 3.19892 4.01761 3.63141
# Velocity P-wave (km/s) = 5.10608 6.90675 6.07352
#
# Compressibility (1/GPa) = 0.03769048
#
# Stress axis : x y z
#
# Youngs Moduli (GPa) = 82.39283 63.40410 73.73590
#
# Poissons Ratio (x) = 0.19788 -0.06817
# Poissons Ratio (y) = 0.25715 -0.02259
# Poissons Ratio (z) = -0.07617 -0.01943
#
# Static dielectric constant tensor:
#      x y z
#    x 1.859750 -0.011850 0.000300 
#    y -0.011850 1.770000 -0.020120 
#    z 0.000300 -0.020120 1.771260 
# 
# From -- ./inp_files/207135.got.cif
#   From: 2010.05.17/outbox.cif.g08.bks.cpg/sg2_104_cif.got.tgz:207135.got - 2010.06.03 11:33:40.
