data_PCOD9006995
_publ_section_title
;
Structure prediction by ZEFSAII (Michael W. Deem and Ramdas Pophale) SiO2 
 PCOD9006995
Probable space group: P -1
;
_chemical_formula_sum "Si O2"
_cell_formula_units_Z 16
_cell_length_a 7.563958
_cell_length_b 11.970742
_cell_length_c 8.878553
_cell_angle_alpha 96.615663
_cell_angle_beta 60.447638
_cell_angle_gamma 100.724895
_cell_volume 686.859513
_symmetry_space_group_name_H-M "P -1"
_symmetry_group_IT_number 2
_symmetry_cell_setting 'triclinic'
loop_
_space_group_symop_operation_xyz
x,y,z
-x,-y,-z
loop_
_atom_site_type_symbol
_atom_site_label
_atom_site_fract_x
_atom_site_fract_y
_atom_site_fract_z
Si Si1 0.304787 0.062831 0.591876
Si Si2 0.449285 0.637630 0.172434
Si Si3 0.053154 0.130920 0.936202
Si Si4 0.005200 0.830277 0.707740
Si Si5 0.710878 0.149181 0.872523
Si Si6 0.866110 0.393057 0.459077
Si Si7 0.135725 0.458917 0.072324
Si Si8 0.620684 0.897947 0.754875
O O1 0.119602 0.956646 0.640889
O O2 0.500000 0.000000 0.500000
O O3 0.276347 0.128150 0.768502
O O4 0.340598 0.135477 0.436851
O O5 0.390017 0.756297 0.155991
O O6 0.360141 0.612335 0.375473
O O7 0.295803 0.553111 0.112292
O O8 0.689627 0.620475 0.060232
O O9 0.942365 0.171008 0.839854
O O10 0.984522 0.191862 0.121664
O O11 0.000000 0.000000 0.000000
O O12 0.767013 0.833000 0.782194
O O13 0.080419 0.734440 0.558808
O O14 0.684783 0.032971 0.771200
O O15 0.598103 0.125661 0.078615
O O16 0.000000 0.500000 0.500000
O O17 0.950649 0.413904 0.258204
O O18 0.000000 0.500000 0.000000
#
# Coordination Sequence:
#
# PCOD9006995 Si02
#       8
#     2   2   2   2   2   2   2   2
#     4  11  23  38  57  94 137 173 225 270 319 404
#     4  10  23  44  69  97 135 174 224 287 343 407
#     4  10  21  39  58  89 134 176 215 273 324 394
#     4  11  22  40  65  91 130 179 218 268 338 396
#     4  11  22  38  63  94 132 175 221 268 333 395
#     4  10  23  44  71  98 132 171 230 289 343 406
#     4  10  23  46  71 100 130 171 226 288 350 411
#     4  11  22  36  63  92 131 176 220 260 326 405
#
# _framework density 23.294429000000001
#
# number of rings (size 3 to 8) (size 9 to 14) (size 15 to 20)
#    0.000    1.500    2.500    3.375    5.250    0.500 
#    2.250    0.000    5.500    0.000    0.000    0.000 
#    0.000    0.000    0.000    0.000    0.000    0.000 
#
# Total GULP energy -89096.077990 kJ/mol
# GULP energy per Si atom -5568.504874 kJ/mol
# Density = 2.324141 g / cm^3
# Si number density = 23.294429 Si / 1000 Ang^3
#
#
#
# Elastic Constant Matrix: (Units=GPa)
#
#
# Indices 1 2 3 4 5 6 
#
# 1 98.4435 14.4975 29.7807 -3.1335 -5.2784 -30.4765
# 2 14.4975 70.1885 34.5698 17.5712 4.5951 -13.4901
# 3 29.7807 34.5698 170.6059 1.3274 -10.4794 -11.3643
# 4 -3.1335 17.5712 1.3274 39.0325 -3.7680 -0.5999
# 5 -5.2784 4.5951 -10.4794 -3.7680 29.2125 -0.1378
# 6 -30.4765 -13.4901 -11.3643 -0.5999 -0.1378 27.0599
#
#
#
# Elastic Compliance Matrix: (Units=1/GPa)
#
#
# Indices 1 2 3 4 5 6 
#
# 1 0.016344 0.000202 -0.001550 0.001808 0.002683 0.017910
# 2 0.000202 0.020544 -0.003907 -0.009526 -0.005785 0.008587
# 3 -0.001550 -0.003907 0.007055 0.001681 0.003079 -0.000678
# 4 0.001808 -0.009526 0.001681 0.030591 0.006368 -0.001296
# 5 0.002683 -0.005785 0.003079 0.006368 0.037561 0.001763
# 6 0.017910 0.008587 -0.000678 -0.001296 0.001763 0.061103
#
#
# Mechanical properties :
#
#
# Convention : Reuss Voigt Hill
#
# Bulk Modulus (GPa) = 29.91236 55.21490 42.56363
# Shear Modulus (GPa) = 25.66054 36.42032 31.04043
#
# Velocity S-wave (km/s) = 3.32260 3.95837 3.65434
# Velocity P-wave (km/s) = 5.25247 6.68178 6.00976
#
# Compressibility (1/GPa) = 0.03343099
#
# Stress axis : x y z
#
# Youngs Moduli (GPa) = 61.18640 48.67606 141.75091
#
# Poissons Ratio (x) = -0.00982 0.21971
# Poissons Ratio (y) = -0.01234 0.55385
# Poissons Ratio (z) = 0.09484 0.19019
#
# Static dielectric constant tensor:
#      x y z
#    x 1.909890 0.079960 -0.089940 
#    y 0.079960 1.963970 0.060780 
#    z -0.089940 0.060780 1.673500 
# 
# From -- ./inp_files/178705.got.cif
#   From: 2010.05.17/outbox.cif.g08.bks.cpg/sg2_90_cif.got.tgz:178705.got - 2010.06.03 11:33:40.
