data_PCOD9006541
_publ_section_title
;
Structure prediction by ZEFSAII (Michael W. Deem and Ramdas Pophale) SiO2 
 PCOD9006541
Probable space group: P -1
;
_chemical_formula_sum "Si O2"
_cell_formula_units_Z 16
_cell_length_a 21.237833
_cell_length_b 9.164657
_cell_length_c 9.164656
_cell_angle_alpha 148.014177
_cell_angle_beta 125.878229
_cell_angle_gamma 54.121772
_cell_volume 748.976990
_symmetry_space_group_name_H-M "P -1"
_symmetry_group_IT_number 2
_symmetry_cell_setting 'triclinic'
loop_
_space_group_symop_operation_xyz
x,y,z
-x,-y,-z
loop_
_atom_site_type_symbol
_atom_site_label
_atom_site_fract_x
_atom_site_fract_y
_atom_site_fract_z
Si Si1 0.924927 0.864851 0.114484
Si Si2 0.944951 0.775048 0.729099
Si Si3 0.607905 0.676731 0.302643
Si Si4 0.424927 0.885515 0.135149
Si Si5 0.702407 0.613672 0.085427
Si Si6 0.797593 0.085427 0.613673
Si Si7 0.892095 0.302643 0.676731
Si Si8 0.444951 0.270901 0.224952
O O1 0.019528 0.810606 0.231563
O O2 0.891399 0.166370 0.398830
O O3 0.916093 0.787899 0.868589
O O4 0.885778 0.635845 0.950465
O O5 0.000000 0.500000 0.500000
O O6 0.870896 0.873745 0.607114
O O7 0.000000 0.000000 0.000000
O O8 0.519528 0.768437 0.189394
O O9 0.671980 0.610114 0.206048
O O10 0.614222 0.950465 0.635845
O O11 0.608601 0.398830 0.166370
O O12 0.416093 0.131411 0.212101
O O13 0.731047 0.904371 0.344693
O O14 0.768953 0.344693 0.904371
O O15 0.629104 0.607114 0.873745
O O16 0.828020 0.206048 0.610114
O O17 0.500000 0.500000 0.500000
O O18 0.500000 0.000000 0.000000
#
# Coordination Sequence:
#
# PCOD9006541 Si02
#       8
#     2   2   2   2   2   2   2   2
#     4  10  21  38  66  97 122 163 224 278 310 377
#     4  12  24  42  68  99 128 169 230 274 315 390
#     4  10  21  39  64  94 129 167 213 269 330 382
#     4  10  21  38  66  97 122 163 224 278 310 377
#     4  12  26  44  64  96 138 177 209 269 346 404
#     4  12  26  44  64  96 138 177 209 269 346 404
#     4  10  21  39  64  94 129 167 213 269 330 382
#     4  12  24  42  68  99 128 169 230 274 315 390
#
# _framework density 21.362470999999999
#
# number of rings (size 3 to 8) (size 9 to 14) (size 15 to 20)
#    0.000    1.000    2.500    4.500    7.000    0.000 
#    0.000    7.500    0.000    0.000    0.000    0.000 
#    0.000    0.000    0.000    0.000    0.000    0.000 
#
# Total GULP energy -89366.671160 kJ/mol
# GULP energy per Si atom -5585.416947 kJ/mol
# Density = 2.131385 g / cm^3
# Si number density = 21.362471 Si / 1000 Ang^3
#
#
#
# Elastic Constant Matrix: (Units=GPa)
#
#
# Indices 1 2 3 4 5 6 
#
# 1 99.4246 13.5874 41.2662 9.6108 -6.9112 22.0685
# 2 13.5874 33.3590 -4.4647 4.3422 -3.3563 7.5555
# 3 41.2662 -4.4647 118.5572 25.2408 -0.0446 3.3040
# 4 9.6108 4.3422 25.2408 32.4211 -0.7747 -2.0789
# 5 -6.9112 -3.3563 -0.0446 -0.7747 48.7580 8.7589
# 6 22.0685 7.5555 3.3040 -2.0789 8.7589 23.5325
#
#
#
# Elastic Compliance Matrix: (Units=1/GPa)
#
#
# Indices 1 2 3 4 5 6 
#
# 1 0.016627 -0.003212 -0.005176 -0.001364 0.004947 -0.015796
# 2 -0.003212 0.035877 0.004483 -0.007974 0.003922 -0.011300
# 3 -0.005176 0.004483 0.012177 -0.008485 -0.000772 0.001243
# 4 -0.001364 -0.007974 -0.008485 0.039468 -0.001771 0.009176
# 5 0.004947 0.003922 -0.000772 -0.001771 0.024134 -0.014929
# 6 -0.015796 -0.011300 0.001243 0.009176 -0.014929 0.067129
#
#
# Mechanical properties :
#
#
# Convention : Reuss Voigt Hill
#
# Bulk Modulus (GPa) = 17.58357 39.12428 28.35392
# Shear Modulus (GPa) = 22.50446 34.33911 28.42179
#
# Velocity S-wave (km/s) = 3.24922 4.01365 3.65150
# Velocity P-wave (km/s) = 4.72499 6.31137 5.57490
#
# Compressibility (1/GPa) = 0.05687127
#
# Stress axis : x y z
#
# Youngs Moduli (GPa) = 60.14330 27.87283 82.12448
#
# Poissons Ratio (x) = 0.08953 0.42507
# Poissons Ratio (y) = 0.19319 -0.36818
# Poissons Ratio (z) = 0.31129 -0.12496
#
# Static dielectric constant tensor:
#      x y z
#    x 1.788630 0.046920 -0.014690 
#    y 0.046920 1.749130 0.005590 
#    z -0.014690 0.005590 1.765240 
# 
# From -- ./inp_files/343994.got.cif
#   From: 2010.05.17/outbox.cif.g08.bks.cpg/sg2_172_cif.got.tgz:343994.got - 2010.06.03 11:33:40.
