data_PCOD9006650
_publ_section_title
;
Structure prediction by ZEFSAII (Michael W. Deem and Ramdas Pophale) SiO2 
 PCOD9006650
Probable space group: P -1
;
_chemical_formula_sum "Si O2"
_cell_formula_units_Z 16
_cell_length_a 5.585933
_cell_length_b 12.771353
_cell_length_c 17.922561
_cell_angle_alpha 51.594600
_cell_angle_beta 60.810752
_cell_angle_gamma 91.322937
_cell_volume 768.980409
_symmetry_space_group_name_H-M "P -1"
_symmetry_group_IT_number 2
_symmetry_cell_setting 'triclinic'
loop_
_space_group_symop_operation_xyz
x,y,z
-x,-y,-z
loop_
_atom_site_type_symbol
_atom_site_label
_atom_site_fract_x
_atom_site_fract_y
_atom_site_fract_z
Si Si1 0.349276 0.097109 0.134643
Si Si2 0.152680 0.389535 0.521195
Si Si3 0.742291 0.012186 0.347077
Si Si4 0.672436 0.865269 0.581321
Si Si5 0.479094 0.532172 0.720213
Si Si6 0.939599 0.787009 0.241833
Si Si7 0.484870 0.886282 0.286243
Si Si8 0.218968 0.639018 0.152658
O O1 0.102447 0.098303 0.230695
O O2 0.572705 0.050349 0.167752
O O3 0.525681 0.247774 0.994100
O O4 0.169748 0.950442 0.171910
O O5 0.407305 0.449240 0.391563
O O6 0.214092 0.345437 0.613642
O O7 0.000000 0.500000 0.500000
O O8 0.880412 0.224688 0.609638
O O9 0.594802 0.121936 0.336923
O O10 0.661180 0.908644 0.477971
O O11 0.584056 0.904678 0.348254
O O12 0.628456 0.697436 0.662746
O O13 0.000000 0.000000 0.500000
O O14 0.623763 0.440459 0.785000
O O15 0.104284 0.464213 0.797925
O O16 0.655912 0.812372 0.244840
O O17 0.120699 0.738729 0.177643
#
# Coordination Sequence:
#
# PCOD9006650 Si02
#       8
#     2   2   2   2   2   2   2   2
#     4  10  23  43  65  95 132 182 231 272 318 395
#     4  11  21  37  61  94 137 172 216 276 340 395
#     4  10  22  41  73  97 122 168 222 285 334 393
#     4  11  24  44  74 101 128 164 223 284 348 410
#     4  12  28  43  66 102 138 178 219 278 350 399
#     4  10  22  39  67  96 129 189 226 276 325 394
#     4  10  21  38  67  95 127 171 232 273 335 391
#     4  12  28  44  64  98 145 183 225 274 328 400
#
# _framework density 20.806771000000001
#
# number of rings (size 3 to 8) (size 9 to 14) (size 15 to 20)
#    0.000    1.250    1.250    4.875   12.250    1.500 
#    0.000    1.250    0.000    0.000    0.000    0.000 
#    0.000    0.000    0.000    0.000    0.000    0.000 
#
# Total GULP energy -89354.431676 kJ/mol
# GULP energy per Si atom -5584.651980 kJ/mol
# Density = 2.075941 g / cm^3
# Si number density = 20.806771 Si / 1000 Ang^3
#
#
#
# Elastic Constant Matrix: (Units=GPa)
#
#
# Indices 1 2 3 4 5 6 
#
# 1 79.1558 21.1196 27.9794 -0.0977 3.3288 -14.5485
# 2 21.1196 96.1846 23.3326 0.5169 -1.8239 -26.5588
# 3 27.9794 23.3326 101.7115 0.2044 -1.4746 -21.9774
# 4 -0.0977 0.5169 0.2044 21.9292 2.1077 -8.7191
# 5 3.3288 -1.8239 -1.4746 2.1077 22.8045 -1.6465
# 6 -14.5485 -26.5588 -21.9774 -8.7191 -1.6465 42.0053
#
#
#
# Elastic Compliance Matrix: (Units=1/GPa)
#
#
# Indices 1 2 3 4 5 6 
#
# 1 0.014804 -0.001851 -0.003146 0.001368 -0.002459 0.002498
# 2 -0.001851 0.013194 -0.000791 0.002678 0.001598 0.007905
# 3 -0.003146 -0.000791 0.012000 0.001794 0.001375 0.005115
# 4 0.001368 0.002678 0.001794 0.051287 -0.003627 0.013609
# 5 -0.002459 0.001598 0.001375 -0.003627 0.044898 0.001885
# 6 0.002498 0.007905 0.005115 0.013609 0.001885 0.035245
#
#
# Mechanical properties :
#
#
# Convention : Reuss Voigt Hill
#
# Bulk Modulus (GPa) = 35.18683 46.87946 41.03314
# Shear Modulus (GPa) = 25.97682 30.98917 28.48299
#
# Velocity S-wave (km/s) = 3.53722 3.86343 3.70392
# Velocity P-wave (km/s) = 5.79918 6.51777 6.16894
#
# Compressibility (1/GPa) = 0.02841973
#
# Stress axis : x y z
#
# Youngs Moduli (GPa) = 67.55111 75.79255 83.33139
#
# Poissons Ratio (x) = 0.14033 0.26217
# Poissons Ratio (y) = 0.12507 0.06595
# Poissons Ratio (z) = 0.21252 0.05999
#
# Static dielectric constant tensor:
#      x y z
#    x 1.863060 0.007720 -0.004000 
#    y 0.007720 1.771840 -0.009210 
#    z -0.004000 -0.009210 1.727790 
# 
# From -- ./inp_files/83523.got.cif
#   From: 2010.05.17/outbox.cif.g08.bks.cpg/sg2_42_cif.got.tgz:83523.got - 2010.06.03 11:33:40.
