data_PCOD9006808
_publ_section_title
;
Structure prediction by ZEFSAII (Michael W. Deem and Ramdas Pophale) SiO2 
 PCOD9006808
Probable space group: P -1
;
_chemical_formula_sum "Si O2"
_cell_formula_units_Z 15
_cell_length_a 9.570942
_cell_length_b 8.995733
_cell_length_c 21.795372
_cell_angle_alpha 56.067322
_cell_angle_beta 45.938290
_cell_angle_gamma 94.421189
_cell_volume 699.549583
_symmetry_space_group_name_H-M "P -1"
_symmetry_group_IT_number 2
_symmetry_cell_setting 'triclinic'
loop_
_space_group_symop_operation_xyz
x,y,z
-x,-y,-z
loop_
_atom_site_type_symbol
_atom_site_label
_atom_site_fract_x
_atom_site_fract_y
_atom_site_fract_z
Si Si1 0.855518 0.889379 0.736849
Si Si2 0.482480 0.711883 0.013461
Si Si3 0.525782 0.840235 0.488772
Si Si4 0.032244 0.203733 0.812169
Si Si5 0.779285 0.048572 0.227854
Si Si6 0.695296 0.162152 0.679088
Si Si7 0.000000 0.500000 0.000000
Si Si8 0.846968 0.231599 0.979753
O O1 0.693278 0.587181 0.838364
O O2 0.780961 0.017322 0.694975
O O3 0.735521 0.835133 0.855973
O O4 0.220542 0.112785 0.571567
O O5 0.241887 0.666136 0.061520
O O6 0.685710 0.947329 0.949957
O O7 0.209876 0.500826 0.660764
O O8 0.655820 0.975734 0.350433
O O9 0.500000 0.000000 0.500000
O O10 0.200908 0.140968 0.755687
O O11 0.017575 0.216596 0.886734
O O12 0.551978 0.002697 0.263408
O O13 0.091064 0.379247 0.039468
O O14 0.000000 0.500000 0.500000
O O15 0.487760 0.071927 0.821476
O O16 0.032930 0.420474 0.940316
#
# Coordination Sequence:
#
# PCOD9006808 Si02
#       8
#     2   2   2   2   2   2   1   2
#     4  10  21  41  65  95 129 182 218 271 335 398
#     4  10  21  38  69  97 134 166 227 280 334 391
#     4  12  25  43  68  99 134 173 229 283 336 397
#     4  12  24  39  71 102 134 168 230 288 334 394
#     4  11  24  40  68  96 131 178 220 273 338 392
#     4  10  23  41  65  90 137 174 216 265 335 404
#     4  10  22  42  62  88 134 178 220 262 324 404
#     4  10  23  41  66  98 131 177 222 274 335 400
#
# _framework density 21.442367000000001
#
# number of rings (size 3 to 8) (size 9 to 14) (size 15 to 20)
#    0.000    1.333    1.333    4.000    9.333    2.133 
#    0.000    2.000    0.000    0.000    0.000    0.000 
#    0.000    0.000    0.000    0.000    0.000    0.000 
#
# Total GULP energy -83572.009469 kJ/mol
# GULP energy per Si atom -5571.467298 kJ/mol
# Density = 2.139356 g / cm^3
# Si number density = 21.442367 Si / 1000 Ang^3
#
#
#
# Elastic Constant Matrix: (Units=GPa)
#
#
# Indices 1 2 3 4 5 6 
#
# 1 94.8938 32.6503 23.1279 9.5786 19.3646 5.2949
# 2 32.6503 133.7693 35.2508 18.7317 28.5226 10.5067
# 3 23.1279 35.2508 79.6675 -4.9410 25.3538 -4.0587
# 4 9.5786 18.7317 -4.9410 41.6226 -2.5099 2.8142
# 5 19.3646 28.5226 25.3538 -2.5099 33.6646 -2.8115
# 6 5.2949 10.5067 -4.0587 2.8142 -2.8115 29.2904
#
#
#
# Elastic Compliance Matrix: (Units=1/GPa)
#
#
# Indices 1 2 3 4 5 6 
#
# 1 0.012893 -0.000803 -0.001870 -0.003002 -0.005766 -0.002567
# 2 -0.000803 0.011135 -0.002829 -0.005320 -0.007611 -0.004461
# 3 -0.001870 -0.002829 0.017653 0.003057 -0.009378 0.002605
# 4 -0.003002 -0.005320 0.003057 0.027786 0.006069 0.000787
# 5 -0.005766 -0.007611 -0.009378 0.006069 0.047524 0.006452
# 6 -0.002567 -0.004461 0.002605 0.000787 0.006452 0.037110
#
#
# Mechanical properties :
#
#
# Convention : Reuss Voigt Hill
#
# Bulk Modulus (GPa) = 32.59571 54.48762 43.54166
# Shear Modulus (GPa) = 28.51773 35.40229 31.96001
#
# Velocity S-wave (km/s) = 3.65083 4.06771 3.86490
# Velocity P-wave (km/s) = 5.74508 6.89406 6.34563
#
# Compressibility (1/GPa) = 0.03067889
#
# Stress axis : x y z
#
# Youngs Moduli (GPa) = 77.56211 89.80620 56.64660
#
# Poissons Ratio (x) = 0.07209 0.10590
# Poissons Ratio (y) = 0.06226 0.16025
# Poissons Ratio (z) = 0.14500 0.25405
#
# Static dielectric constant tensor:
#      x y z
#    x 1.805150 -0.018010 0.005270 
#    y -0.018010 1.761630 0.040850 
#    z 0.005270 0.040850 1.627050 
# 
# From -- ./inp_files/587219.got.cif
#   From: 2010.05.17/outbox.cif.g08.bks.cpg/sg2_294_cif.got.tgz:587219.got - 2010.06.03 11:33:40.
