data_PCOD9006756
_publ_section_title
;
Structure prediction by ZEFSAII (Michael W. Deem and Ramdas Pophale) SiO2 
 PCOD9006756
Probable space group: P -1
;
_chemical_formula_sum "Si O2"
_cell_formula_units_Z 16
_cell_length_a 5.100003
_cell_length_b 23.020019
_cell_length_c 18.299472
_cell_angle_alpha 21.123151
_cell_angle_beta 59.685288
_cell_angle_gamma 66.825143
_cell_volume 647.404554
_symmetry_space_group_name_H-M "P -1"
_symmetry_group_IT_number 2
_symmetry_cell_setting 'triclinic'
loop_
_space_group_symop_operation_xyz
x,y,z
-x,-y,-z
loop_
_atom_site_type_symbol
_atom_site_label
_atom_site_fract_x
_atom_site_fract_y
_atom_site_fract_z
Si Si1 0.665390 0.888112 0.154954
Si Si2 0.519202 0.770380 0.636352
Si Si3 0.356082 0.073292 0.227040
Si Si4 0.090274 0.841829 0.709999
Si Si5 0.646137 0.492095 0.141968
Si Si6 0.183992 0.591653 0.203122
Si Si7 0.224763 0.828091 0.423117
Si Si8 0.543733 0.530367 0.545141
O O1 0.411670 0.818155 0.335354
O O2 0.698134 0.726136 0.298308
O O3 0.500000 0.000000 0.000000
O O4 0.000000 0.000000 0.000000
O O5 0.440910 0.817034 0.675860
O O6 0.412916 0.579801 0.847594
O O7 0.863167 0.827603 0.486171
O O8 0.336457 0.894146 0.477567
O O9 0.052391 0.141572 0.209271
O O10 0.390714 0.015413 0.208290
O O11 0.648880 0.212472 0.051115
O O12 0.000000 0.000000 0.500000
O O13 0.887997 0.669501 0.906348
O O14 0.351748 0.509261 0.212372
O O15 0.759552 0.342383 0.339068
O O16 0.264459 0.541035 0.334463
O O17 0.819083 0.535497 0.302912
O O18 0.500000 0.500000 0.500000
#
# Coordination Sequence:
#
# PCOD9006756 Si02
#       8
#     2   2   2   2   2   2   2   2
#     4  12  29  47  73 103 144 186 240 302 357 425
#     4  10  21  38  68  97 136 180 234 285 344 426
#     4   9  23  39  65  95 137 184 223 291 337 427
#     4   9  19  41  63 100 136 180 228 287 353 413
#     4  10  21  41  65  94 138 181 230 286 345 422
#     4  11  24  44  69  98 143 181 237 284 356 427
#     4  11  24  41  67  97 134 182 239 280 362 416
#     4  12  27  45  70 104 138 180 236 299 366 425
#
# _framework density 24.714068999999999
#
# number of rings (size 3 to 8) (size 9 to 14) (size 15 to 20)
#    0.000    1.500    1.250    2.250    8.750    1.000 
#    0.000    0.000    0.000    0.000    0.000    0.000 
#    0.000    0.000    0.000    0.000    0.000    0.000 
#
# Total GULP energy -89226.152021 kJ/mol
# GULP energy per Si atom -5576.634501 kJ/mol
# Density = 2.465782 g / cm^3
# Si number density = 24.714069 Si / 1000 Ang^3
#
#
#
# Elastic Constant Matrix: (Units=GPa)
#
#
# Indices 1 2 3 4 5 6 
#
# 1 85.0604 18.1428 38.1571 1.1297 -6.1828 2.6957
# 2 18.1428 108.7642 40.3482 -24.3356 -0.6561 -5.7771
# 3 38.1571 40.3482 144.4589 -29.3570 -5.1977 3.5243
# 4 1.1297 -24.3356 -29.3570 49.0864 1.9106 -7.9973
# 5 -6.1828 -0.6561 -5.1977 1.9106 35.0209 9.6887
# 6 2.6957 -5.7771 3.5243 -7.9973 9.6887 29.4574
#
#
#
# Elastic Compliance Matrix: (Units=1/GPa)
#
#
# Indices 1 2 3 4 5 6 
#
# 1 0.014347 -0.002094 -0.003900 -0.004388 0.003115 -0.003473
# 2 -0.002094 0.011719 -0.001759 0.005691 -0.002086 0.004931
# 3 -0.003900 -0.001759 0.009444 0.004862 0.000395 0.000072
# 4 -0.004388 0.005691 0.004862 0.027983 -0.004217 0.009920
# 5 0.003115 -0.002086 0.000395 -0.004217 0.032866 -0.012696
# 6 -0.003473 0.004931 0.000072 0.009920 -0.012696 0.042093
#
#
# Mechanical properties :
#
#
# Convention : Reuss Voigt Hill
#
# Bulk Modulus (GPa) = 49.98738 59.06441 54.52589
# Shear Modulus (GPa) = 31.12841 38.82198 34.97520
#
# Velocity S-wave (km/s) = 3.55285 3.96769 3.76599
# Velocity P-wave (km/s) = 6.09102 6.70381 6.40475
#
# Compressibility (1/GPa) = 0.02000505
#
# Stress axis : x y z
#
# Youngs Moduli (GPa) = 69.70083 85.33467 105.88420
#
# Poissons Ratio (x) = 0.17869 0.41290
# Poissons Ratio (y) = 0.14595 0.18624
# Poissons Ratio (z) = 0.27180 0.15009
#
# Static dielectric constant tensor:
#      x y z
#    x 2.043140 0.106330 -0.012330 
#    y 0.106330 2.163370 0.088230 
#    z -0.012330 0.088230 1.964200 
# 
# From -- ./inp_files/139068.got.cif
#   From: 2010.05.17/outbox.cif.g08.bks.cpg/sg2_70_cif.got.tgz:139068.got - 2010.06.03 11:33:40.
