data_PCOD9006873
_publ_section_title
;
Structure prediction by ZEFSAII (Michael W. Deem and Ramdas Pophale) SiO2 
 PCOD9006873
Probable space group: P -1
;
_chemical_formula_sum "Si O2"
_cell_formula_units_Z 14
_cell_length_a 5.908952
_cell_length_b 8.159577
_cell_length_c 11.901984
_cell_angle_alpha 81.646473
_cell_angle_beta 81.195671
_cell_angle_gamma 85.290548
_cell_volume 560.017779
_symmetry_space_group_name_H-M "P -1"
_symmetry_group_IT_number 2
_symmetry_cell_setting 'triclinic'
loop_
_space_group_symop_operation_xyz
x,y,z
-x,-y,-z
loop_
_atom_site_type_symbol
_atom_site_label
_atom_site_fract_x
_atom_site_fract_y
_atom_site_fract_z
Si Si1 0.811464 0.576173 0.424247
Si Si2 0.535014 0.121875 0.088334
Si Si3 0.458955 0.608896 0.117252
Si Si4 0.725959 0.111248 0.718356
Si Si5 0.857204 0.116442 0.256835
Si Si6 0.580390 0.233470 0.472779
Si Si7 0.955688 0.487917 0.191766
O O1 0.652905 0.421869 0.427683
O O2 0.684980 0.731197 0.480300
O O3 0.919094 0.602513 0.293124
O O4 0.000000 0.500000 0.500000
O O5 0.777266 0.112407 0.133732
O O6 0.382017 0.054075 0.206332
O O7 0.497706 0.296554 0.012165
O O8 0.500000 0.000000 0.000000
O O9 0.393350 0.741674 0.210438
O O10 0.708726 0.520777 0.142431
O O11 0.209973 0.529706 0.127805
O O12 0.687480 0.159496 0.586954
O O13 0.989069 0.049437 0.718039
O O14 0.662759 0.132749 0.367395
O O15 0.972043 0.293029 0.240768
#
# Coordination Sequence:
#
# PCOD9006873 Si02
#       7
#     2   2   2   2   2   2   2
#     4  10  21  38  72 104 149 190 242 299 369 451
#     4  10  27  47  71 104 146 197 253 306 369 443
#     4  11  26  48  79 104 148 202 256 298 371 442
#     4  11  24  45  73 105 150 198 246 300 378 448
#     4  11  27  43  73 108 152 189 248 314 373 438
#     4  10  22  42  66 110 144 188 244 299 378 439
#     4  11  26  46  77 113 147 194 250 310 371 436
#
# _framework density 24.999203999999999
#
# number of rings (size 3 to 8) (size 9 to 14) (size 15 to 20)
#    0.000    1.429    1.429    1.286   12.000    5.143 
#    0.000    0.000    0.000    0.000    0.000    0.000 
#    0.000    0.000    0.000    0.000    0.000    0.000 
#
# Total GULP energy -78102.408787 kJ/mol
# GULP energy per Si atom -5578.743485 kJ/mol
# Density = 2.494230 g / cm^3
# Si number density = 24.999204 Si / 1000 Ang^3
#
#
#
# Elastic Constant Matrix: (Units=GPa)
#
#
# Indices 1 2 3 4 5 6 
#
# 1 98.6154 72.2850 36.7050 1.0350 -3.3044 -16.5014
# 2 72.2850 118.1426 49.3294 -3.0626 -6.3392 -20.8215
# 3 36.7050 49.3294 154.5006 -0.3536 4.0200 -11.3903
# 4 1.0350 -3.0626 -0.3536 41.1203 7.3924 -0.0967
# 5 -3.3044 -6.3392 4.0200 7.3924 43.2306 -23.2370
# 6 -16.5014 -20.8215 -11.3903 -0.0967 -23.2370 42.1410
#
#
#
# Elastic Compliance Matrix: (Units=1/GPa)
#
#
# Indices 1 2 3 4 5 6 
#
# 1 0.018763 -0.010527 -0.000935 -0.001580 0.001796 0.002880
# 2 -0.010527 0.017601 -0.002752 0.000547 0.005683 0.006965
# 3 -0.000935 -0.002752 0.007576 0.000146 -0.001465 -0.000486
# 4 -0.001580 0.000547 0.000146 0.025556 -0.006479 -0.003823
# 5 0.001796 0.005683 -0.001465 -0.006479 0.038392 0.024269
# 6 0.002880 0.006965 -0.000486 -0.003823 0.024269 0.041541
#
#
# Mechanical properties :
#
#
# Convention : Reuss Voigt Hill
#
# Bulk Modulus (GPa) = 64.46201 76.43304 70.44753
# Shear Modulus (GPa) = 27.31833 39.49431 33.40632
#
# Velocity S-wave (km/s) = 3.30929 3.97901 3.65950
# Velocity P-wave (km/s) = 6.35952 7.19379 6.78948
#
# Compressibility (1/GPa) = 0.01551301
#
# Stress axis : x y z
#
# Youngs Moduli (GPa) = 53.29590 56.81524 131.99988
#
# Poissons Ratio (x) = 0.59810 0.12336
# Poissons Ratio (y) = 0.56105 0.36324
# Poissons Ratio (z) = 0.04981 0.15635
#
# Static dielectric constant tensor:
#      x y z
#    x 2.153210 0.067890 -0.065640 
#    y 0.067890 2.013720 -0.007630 
#    z -0.065640 -0.007630 1.924320 
# 
# From -- ./inp_files/106795.got.cif
#   From: 2010.05.17/outbox.cif.g08.bks.cpg/sg2_54_cif.got.tgz:106795.got - 2010.06.03 11:33:40.
