data_PCOD9006364
_publ_section_title
;
Structure prediction by ZEFSAII (Michael W. Deem and Ramdas Pophale) SiO2 
 PCOD9006364
Probable space group: P -1
;
_chemical_formula_sum "Si O2"
_cell_formula_units_Z 16
_cell_length_a 8.985459
_cell_length_b 15.576220
_cell_length_c 5.951983
_cell_angle_alpha 77.905549
_cell_angle_beta 81.523574
_cell_angle_gamma 109.847412
_cell_volume 744.218873
_symmetry_space_group_name_H-M "P -1"
_symmetry_group_IT_number 2
_symmetry_cell_setting 'triclinic'
loop_
_space_group_symop_operation_xyz
x,y,z
-x,-y,-z
loop_
_atom_site_type_symbol
_atom_site_label
_atom_site_fract_x
_atom_site_fract_y
_atom_site_fract_z
Si Si1 0.222493 0.605947 0.041597
Si Si2 0.587320 0.212020 0.368523
Si Si3 0.870427 0.039124 0.402941
Si Si4 0.898088 0.604846 0.862025
Si Si5 0.958845 0.780720 0.018158
Si Si6 0.866305 0.291283 0.620734
Si Si7 0.429464 0.052363 0.165877
Si Si8 0.282173 0.132729 0.787013
O O1 0.228496 0.502632 0.075004
O O2 0.196887 0.634295 0.284763
O O3 0.363354 0.694410 0.847026
O O4 0.058941 0.600694 0.950298
O O5 0.728415 0.231399 0.510514
O O6 0.560654 0.119251 0.275306
O O7 0.418673 0.190241 0.546835
O O8 0.724616 0.018135 0.623437
O O9 0.800557 0.973148 0.236762
O O10 0.957955 0.146026 0.240823
O O11 0.000000 0.000000 0.500000
O O12 0.967497 0.652007 0.581374
O O13 0.856339 0.679029 0.983516
O O14 0.093607 0.768479 0.158920
O O15 0.848631 0.822237 0.160827
O O16 0.367331 0.123042 0.003479
O O17 0.500000 0.000000 0.000000
#
# Coordination Sequence:
#
# PCOD9006364 Si02
#       8
#     2   2   2   2   2   2   2   2
#     4   9  18  38  62  95 129 166 209 262 321 375
#     4  10  23  42  66  90 130 172 207 264 323 384
#     4  11  25  45  67  91 126 175 217 262 320 390
#     4   9  20  35  63  97 129 162 213 264 314 384
#     4  11  24  40  66  97 128 169 216 270 318 383
#     4  10  21  38  65  97 128 166 212 261 326 377
#     4  11  26  45  66  96 130 167 222 271 320 379
#     4  11  25  43  63  92 129 169 215 265 322 380
#
# _framework density 21.499051000000001
#
# number of rings (size 3 to 8) (size 9 to 14) (size 15 to 20)
#    0.000    1.750    1.250    1.500    1.750   11.000 
#    0.000    2.500    0.000    3.750    0.000    0.000 
#    0.000    0.000    0.000    0.000    0.000    0.000 
#
# Total GULP energy -89527.271007 kJ/mol
# GULP energy per Si atom -5595.454438 kJ/mol
# Density = 2.145012 g / cm^3
# Si number density = 21.499051 Si / 1000 Ang^3
#
#
#
# Elastic Constant Matrix: (Units=GPa)
#
#
# Indices 1 2 3 4 5 6 
#
# 1 51.1137 44.6257 25.6474 5.0130 -6.5380 -1.4118
# 2 44.6257 145.0406 59.2488 4.8812 -19.3630 -7.5081
# 3 25.6474 59.2488 97.7311 10.1070 -11.9190 -1.0570
# 4 5.0130 4.8812 10.1070 29.5703 1.6351 -4.4351
# 5 -6.5380 -19.3630 -11.9190 1.6351 39.4886 9.2843
# 6 -1.4118 -7.5081 -1.0570 -4.4351 9.2843 23.2766
#
#
#
# Elastic Compliance Matrix: (Units=1/GPa)
#
#
# Indices 1 2 3 4 5 6 
#
# 1 0.027547 -0.007398 -0.002370 -0.002930 0.000733 -0.001674
# 2 -0.007398 0.011561 -0.004881 0.001236 0.002367 0.002350
# 3 -0.002370 -0.004881 0.014528 -0.004323 0.002451 -0.002859
# 4 -0.002930 0.001236 -0.004323 0.037214 -0.004853 0.009051
# 5 0.000733 0.002367 0.002451 -0.004853 0.030398 -0.012130
# 6 -0.001674 0.002350 -0.002859 0.009051 -0.012130 0.050051
#
#
# Mechanical properties :
#
#
# Convention : Reuss Voigt Hill
#
# Bulk Modulus (GPa) = 41.08700 61.43658 51.26179
# Shear Modulus (GPa) = 23.95683 29.42466 26.69074
#
# Velocity S-wave (km/s) = 3.34177 3.70354 3.52729
# Velocity P-wave (km/s) = 5.83459 6.85031 6.36275
#
# Compressibility (1/GPa) = 0.02433860
#
# Stress axis : x y z
#
# Youngs Moduli (GPa) = 36.30170 86.50093 68.83213
#
# Poissons Ratio (x) = 0.63990 0.16314
# Poissons Ratio (y) = 0.26854 0.33596
# Poissons Ratio (z) = 0.08604 0.42220
#
# Static dielectric constant tensor:
#      x y z
#    x 1.795740 0.004530 0.019340 
#    y 0.004530 1.798950 0.008250 
#    z 0.019340 0.008250 1.806310 
# 
# From -- ./inp_files/37944.got.cif
#   From: 2010.05.17/outbox.cif.g08.bks.cpg/sg2_19_cif.got.tgz:37944.got - 2010.06.03 11:33:40.
