data_PCOD9006991
_publ_section_title
;
Structure prediction by ZEFSAII (Michael W. Deem and Ramdas Pophale) SiO2 
 PCOD9006991
Probable space group: P -1
;
_chemical_formula_sum "Si O2"
_cell_formula_units_Z 13
_cell_length_a 13.751838
_cell_length_b 17.598437
_cell_length_c 21.577026
_cell_angle_alpha 19.135634
_cell_angle_beta 159.010644
_cell_angle_gamma 158.601615
_cell_volume 557.183495
_symmetry_space_group_name_H-M "P -1"
_symmetry_group_IT_number 2
_symmetry_cell_setting 'triclinic'
loop_
_space_group_symop_operation_xyz
x,y,z
-x,-y,-z
loop_
_atom_site_type_symbol
_atom_site_label
_atom_site_fract_x
_atom_site_fract_y
_atom_site_fract_z
Si Si1 0.219695 0.475191 0.096836
Si Si2 0.356643 0.731301 0.156763
Si Si3 0.000000 0.500000 0.500000
Si Si4 0.445029 0.645452 0.512161
Si Si5 0.388857 0.941910 0.142628
Si Si6 0.236902 0.109423 0.152003
Si Si7 0.754801 0.503413 0.235110
O O1 0.366622 0.311139 0.346410
O O2 0.000000 0.500000 0.000000
O O3 0.999920 0.373095 0.986589
O O4 0.466940 0.760726 0.015480
O O5 0.481563 0.547965 0.338645
O O6 0.441757 0.788417 0.235066
O O7 0.500000 0.000000 0.000000
O O8 0.705164 0.456149 0.314400
O O9 0.865999 0.190134 0.674413
O O10 0.512433 0.887653 0.322495
O O11 0.095381 0.525337 0.415246
O O12 0.035020 0.843248 0.015981
O O13 0.535557 0.271360 0.242435
O O14 0.267365 0.243504 0.999497
#
# Coordination Sequence:
#
# PCOD9006991 Si02
#       7
#     2   2   1   2   2   2   2
#     4  10  21  39  58  89 125 162 203 263 300 367
#     4  11  22  41  64  89 127 163 205 257 310 375
#     4  12  22  38  66  92 120 170 214 258 320 368
#     4  10  22  42  64  92 128 166 209 256 312 373
#     4  11  22  42  64  92 128 166 210 255 310 376
#     4  10  24  43  65  94 134 165 214 265 315 376
#     4  10  23  45  64  95 130 170 212 265 313 380
#
# _framework density 23.331631000000002
#
# number of rings (size 3 to 8) (size 9 to 14) (size 15 to 20)
#    0.000    1.538    3.077    2.308    0.000    4.923 
#    8.308    3.077    0.000    0.000    0.000    0.000 
#    0.000    0.000    0.000    0.000    0.000    0.000 
#
# Total GULP energy -72444.955386 kJ/mol
# GULP energy per Si atom -5572.688876 kJ/mol
# Density = 2.327853 g / cm^3
# Si number density = 23.331631 Si / 1000 Ang^3
#
#
#
# Elastic Constant Matrix: (Units=GPa)
#
#
# Indices 1 2 3 4 5 6 
#
# 1 41.6604 7.5639 -18.6611 -29.2891 22.6737 -13.8027
# 2 7.5639 69.1910 48.9453 23.5608 -18.5368 -9.3032
# 3 -18.6611 48.9453 58.3827 -33.1776 13.2545 -17.1119
# 4 -29.2891 23.5608 -33.1776 17.6022 18.5928 -4.1275
# 5 22.6737 -18.5368 13.2545 18.5928 17.4727 4.3778
# 6 -13.8027 -9.3032 -17.1119 -4.1275 4.3778 26.9654
#
#
#
# Elastic Compliance Matrix: (Units=1/GPa)
#
#
# Indices 1 2 3 4 5 6 
#
# 1 0.012477 0.007818 -0.007092 -0.007449 0.004739 0.002674
# 2 0.007818 0.011691 -0.000169 0.005301 -0.005676 0.009661
# 3 -0.007092 -0.000169 0.008383 -0.006948 0.010335 -0.001110
# 4 -0.007449 0.005301 -0.006948 0.008717 0.013086 -0.007184
# 5 0.004739 -0.005676 0.010335 0.013086 0.021925 0.005470
# 6 0.002674 0.009661 -0.001110 -0.007184 0.005470 0.039095
#
#
# Mechanical properties :
#
#
# Convention : Reuss Voigt Hill
#
# Bulk Modulus (GPa) = 29.70334 27.21448 28.45891
# Shear Modulus (GPa) = 44.48560 21.16714 32.82637
#
# Velocity S-wave (km/s) = 4.37127 3.01529 3.75500
# Velocity P-wave (km/s) = 6.18352 4.87977 5.56992
#
# Compressibility (1/GPa) = 0.03366625
#
# Stress axis : x y z
#
# Youngs Moduli (GPa) = 80.14603 85.53506 119.28262
#
# Poissons Ratio (x) = -0.66874 0.84590
# Poissons Ratio (y) = -0.62661 0.02022
# Poissons Ratio (z) = 0.56836 0.01450
#
# Static dielectric constant tensor:
#      x y z
#    x 1.830680 -0.136020 -0.029610 
#    y -0.136020 1.814930 0.099970 
#    z -0.029610 0.099970 1.925800 
# 
# From -- ./inp_files/454162.got.cif
#   From: 2010.05.17/outbox.cif.g08.bks.cpg/sg2_228_cif.got.tgz:454162.got - 2010.06.03 11:33:40.
