data_PCOD9006392
_publ_section_title
;
Structure prediction by ZEFSAII (Michael W. Deem and Ramdas Pophale) SiO2 
 PCOD9006392
Probable space group: P -1
;
_chemical_formula_sum "Si O2"
_cell_formula_units_Z 16
_cell_length_a 15.910314
_cell_length_b 12.329466
_cell_length_c 13.779506
_cell_angle_alpha 125.474011
_cell_angle_beta 142.086422
_cell_angle_gamma 27.333216
_cell_volume 689.572809
_symmetry_space_group_name_H-M "P -1"
_symmetry_group_IT_number 2
_symmetry_cell_setting 'triclinic'
loop_
_space_group_symop_operation_xyz
x,y,z
-x,-y,-z
loop_
_atom_site_type_symbol
_atom_site_label
_atom_site_fract_x
_atom_site_fract_y
_atom_site_fract_z
Si Si1 0.827904 0.138017 0.511084
Si Si2 0.480075 0.245956 0.138878
Si Si3 0.662721 0.574328 0.564142
Si Si4 0.886697 0.369308 0.147134
Si Si5 0.673072 0.792483 0.287273
Si Si6 0.925046 0.864001 0.609818
Si Si7 0.187735 0.241174 0.932958
Si Si8 0.490472 0.861778 0.371137
O O1 0.585861 0.239523 0.321663
O O2 0.726425 0.371533 0.550282
O O3 0.000596 0.917064 0.633010
O O4 0.000000 0.000000 0.500000
O O5 0.709060 0.957388 0.153546
O O6 0.361179 0.443741 0.052943
O O7 0.246445 0.339735 0.001077
O O8 0.661779 0.618936 0.471764
O O9 0.871463 0.486573 0.771126
O O10 0.359792 0.855224 0.460418
O O11 0.845294 0.555268 0.247627
O O12 0.877113 0.302339 0.205516
O O13 0.169250 0.101813 0.212669
O O14 0.843916 0.784823 0.454815
O O15 0.598215 0.788846 0.321416
O O16 0.388486 0.053127 0.108483
O O17 0.500000 0.000000 0.500000
#
# Coordination Sequence:
#
# PCOD9006392 Si02
#       8
#     2   2   2   2   2   2   2   2
#     4  12  25  43  66  91 130 179 218 258 328 394
#     4  10  21  40  64  98 128 168 220 267 325 379
#     4  11  24  42  66  95 136 168 216 269 321 397
#     4  10  23  39  65  95 135 164 215 276 322 385
#     4  11  22  39  66  99 134 163 216 269 336 370
#     4  11  24  42  61  98 129 176 212 265 330 389
#     4  10  21  38  65  99 129 166 215 275 319 378
#     4  11  22  39  64 102 129 171 213 267 332 384
#
# _framework density 23.202770000000001
#
# number of rings (size 3 to 8) (size 9 to 14) (size 15 to 20)
#    0.000    1.250    5.000    1.500    1.750    1.500 
#    0.000    4.375    0.000    0.000    0.000    0.000 
#    0.000    0.000    0.000    0.000    0.000    0.000 
#
# Total GULP energy -89346.181020 kJ/mol
# GULP energy per Si atom -5584.136314 kJ/mol
# Density = 2.314996 g / cm^3
# Si number density = 23.202770 Si / 1000 Ang^3
#
#
#
# Elastic Constant Matrix: (Units=GPa)
#
#
# Indices 1 2 3 4 5 6 
#
# 1 140.1490 25.1148 26.3896 -6.1523 -26.4239 22.3870
# 2 25.1148 59.1387 -0.7879 -2.9662 0.7796 3.8227
# 3 26.3896 -0.7879 40.6394 -5.2460 -17.9445 11.8507
# 4 -6.1523 -2.9662 -5.2460 24.2491 6.9510 -4.4986
# 5 -26.4239 0.7796 -17.9445 6.9510 38.2248 -9.7262
# 6 22.3870 3.8227 11.8507 -4.4986 -9.7262 34.6521
#
#
#
# Elastic Compliance Matrix: (Units=1/GPa)
#
#
# Indices 1 2 3 4 5 6 
#
# 1 0.009939 -0.004133 -0.003606 -0.000711 0.004484 -0.003565
# 2 -0.004133 0.018898 0.002344 0.002435 -0.002756 -0.000674
# 3 -0.003606 0.002344 0.034154 0.002331 0.011524 -0.006072
# 4 -0.000711 0.002435 0.002331 0.044385 -0.006684 0.003280
# 5 0.004484 -0.002756 0.011524 -0.006684 0.036678 0.002894
# 6 -0.003565 -0.000674 -0.006072 0.003280 0.002894 0.034551
#
#
# Mechanical properties :
#
#
# Convention : Reuss Voigt Hill
#
# Bulk Modulus (GPa) = 19.15719 37.92889 28.54304
# Shear Modulus (GPa) = 24.17866 32.03925 28.10895
#
# Velocity S-wave (km/s) = 3.23160 3.71999 3.48436
# Velocity P-wave (km/s) = 4.71154 5.90198 5.34004
#
# Compressibility (1/GPa) = 0.05219972
#
# Stress axis : x y z
#
# Youngs Moduli (GPa) = 100.61753 52.91602 29.27946
#
# Poissons Ratio (x) = 0.21870 0.10558
# Poissons Ratio (y) = 0.41586 -0.06863
# Poissons Ratio (z) = 0.36283 -0.12403
#
# Static dielectric constant tensor:
#      x y z
#    x 2.210050 0.187610 0.131220 
#    y 0.187610 2.048800 0.059240 
#    z 0.131220 0.059240 2.035480 
# 
# From -- ./inp_files/532620.got.cif
#   From: 2010.05.17/outbox.cif.g08.bks.cpg/sg2_267_cif.got.tgz:532620.got - 2010.06.03 11:33:40.
