data_PCOD9006498
_publ_section_title
;
Structure prediction by ZEFSAII (Michael W. Deem and Ramdas Pophale) SiO2 
 PCOD9006498
Probable space group: P -1
;
_chemical_formula_sum "Si O2"
_cell_formula_units_Z 16
_cell_length_a 17.591698
_cell_length_b 7.234620
_cell_length_c 6.515416
_cell_angle_alpha 66.374869
_cell_angle_beta 124.141558
_cell_angle_gamma 99.641227
_cell_volume 626.972907
_symmetry_space_group_name_H-M "P -1"
_symmetry_group_IT_number 2
_symmetry_cell_setting 'triclinic'
loop_
_space_group_symop_operation_xyz
x,y,z
-x,-y,-z
loop_
_atom_site_type_symbol
_atom_site_label
_atom_site_fract_x
_atom_site_fract_y
_atom_site_fract_z
Si Si1 0.369440 0.540528 0.722101
Si Si2 0.666583 0.231594 0.062533
Si Si3 0.016799 0.714975 0.329150
Si Si4 0.516395 0.292544 0.490434
Si Si5 0.357521 0.166909 0.557615
Si Si6 0.167238 0.712818 0.208298
Si Si7 0.150230 0.278269 0.218145
Si Si8 0.135354 0.950269 0.674300
O O1 0.358629 0.560573 0.942596
O O2 0.456373 0.655313 0.721242
O O3 0.373042 0.330223 0.692630
O O4 0.273548 0.661461 0.450380
O O5 0.774264 0.188764 0.206095
O O6 0.635347 0.053426 0.237412
O O7 0.610582 0.206949 0.780715
O O8 0.104110 0.711789 0.312046
O O9 0.044208 0.861006 0.487014
O O10 0.000000 0.500000 0.500000
O O11 0.930961 0.779640 0.025131
O O12 0.500000 0.500000 0.500000
O O13 0.430358 0.173851 0.480744
O O14 0.251711 0.218625 0.310162
O O15 0.139949 0.518460 0.124284
O O16 0.146953 0.910445 0.950652
O O17 0.144668 0.165428 0.481176
#
# Coordination Sequence:
#
# PCOD9006498 Si02
#       8
#     2   2   2   2   2   2   2   2
#     4  10  21  40  66  92 126 170 214 265 328 387
#     4  11  21  41  67  91 129 171 213 265 329 387
#     4  12  24  41  68  96 126 174 215 262 334 391
#     4  10  21  38  66  93 127 170 210 265 328 384
#     4   9  22  40  62  94 129 166 216 269 316 386
#     4  11  22  44  65  92 132 168 214 269 330 386
#     4  10  23  42  63  94 131 166 219 266 318 389
#     4  11  23  42  68  92 128 174 211 270 329 384
#
# _framework density 25.519442000000002
#
# number of rings (size 3 to 8) (size 9 to 14) (size 15 to 20)
#    0.000    1.500    3.750    1.125    0.000    3.000 
#    2.250    2.500    0.000    0.000    0.000    0.000 
#    0.000    0.000    0.000    0.000    0.000    0.000 
#
# Total GULP energy -89580.964487 kJ/mol
# GULP energy per Si atom -5598.810280 kJ/mol
# Density = 2.546136 g / cm^3
# Si number density = 25.519442 Si / 1000 Ang^3
#
#
#
# Elastic Constant Matrix: (Units=GPa)
#
#
# Indices 1 2 3 4 5 6 
#
# 1 125.1949 36.3277 35.9837 5.6417 -17.7382 11.4178
# 2 36.3277 65.9465 18.0632 -4.9865 -7.4902 1.7751
# 3 35.9837 18.0632 106.3380 -0.9378 -1.9912 9.2855
# 4 5.6417 -4.9865 -0.9378 19.0259 7.3765 -0.7318
# 5 -17.7382 -7.4902 -1.9912 7.3765 42.3921 1.0648
# 6 11.4178 1.7751 9.2855 -0.7318 1.0648 35.6152
#
#
#
# Elastic Compliance Matrix: (Units=1/GPa)
#
#
# Indices 1 2 3 4 5 6 
#
# 1 0.011718 -0.005590 -0.002715 -0.007174 0.005113 -0.003070
# 2 -0.005590 0.019075 -0.001412 0.006733 -0.000241 0.001355
# 3 -0.002715 -0.001412 0.010711 0.001307 -0.001065 -0.001793
# 4 -0.007174 0.006733 0.001307 0.061502 -0.012534 0.003262
# 5 0.005113 -0.000241 -0.001065 -0.012534 0.027879 -0.002441
# 6 -0.003070 0.001355 -0.001793 0.003262 -0.002441 0.029602
#
#
# Mechanical properties :
#
#
# Convention : Reuss Voigt Hill
#
# Bulk Modulus (GPa) = 45.31194 53.13650 49.22422
# Shear Modulus (GPa) = 26.69833 33.21362 29.95597
#
# Velocity S-wave (km/s) = 3.23800 3.61155 3.42987
# Velocity P-wave (km/s) = 5.63684 6.18532 5.91744
#
# Compressibility (1/GPa) = 0.02206924
#
# Stress axis : x y z
#
# Youngs Moduli (GPa) = 85.33988 52.42351 93.36452
#
# Poissons Ratio (x) = 0.29307 0.25348
# Poissons Ratio (y) = 0.47708 0.13183
# Poissons Ratio (z) = 0.23170 0.07402
#
# Static dielectric constant tensor:
#      x y z
#    x 2.046310 -0.033840 -0.008890 
#    y -0.033840 2.018910 0.058640 
#    z -0.008890 0.058640 2.112760 
# 
# From -- ./inp_files/52583.got.cif
#   From: 2010.05.17/outbox.cif.g08.bks.cpg/sg2_27_cif.got.tgz:52583.got - 2010.06.03 11:33:40.
