data_PCOD9006615
_publ_section_title
;
Structure prediction by ZEFSAII (Michael W. Deem and Ramdas Pophale) SiO2 
 PCOD9006615
Probable space group: P -1
;
_chemical_formula_sum "Si O2"
_cell_formula_units_Z 15
_cell_length_a 8.995738
_cell_length_b 11.589654
_cell_length_c 13.356051
_cell_angle_alpha 36.402604
_cell_angle_beta 130.227525
_cell_angle_gamma 120.455635
_cell_volume 630.663237
_symmetry_space_group_name_H-M "P -1"
_symmetry_group_IT_number 2
_symmetry_cell_setting 'triclinic'
loop_
_space_group_symop_operation_xyz
x,y,z
-x,-y,-z
loop_
_atom_site_type_symbol
_atom_site_label
_atom_site_fract_x
_atom_site_fract_y
_atom_site_fract_z
Si Si1 0.917026 0.997588 0.109787
Si Si2 0.993861 0.952936 0.404946
Si Si3 0.316203 0.088567 0.109766
Si Si4 0.421191 0.839155 0.654449
Si Si5 0.822572 0.378371 0.057217
Si Si6 0.381654 0.666747 0.201429
Si Si7 0.374883 0.241998 0.585316
Si Si8 0.500000 0.500000 0.000000
O O1 0.964351 0.933126 0.286748
O O2 0.776093 0.869092 0.068613
O O3 0.802877 0.207100 0.922750
O O4 0.126869 0.021004 0.133781
O O5 0.780209 0.070859 0.461026
O O6 0.914076 0.162628 0.256561
O O7 0.848542 0.801758 0.492272
O O8 0.477806 0.915893 0.289976
O O9 0.433998 0.230602 0.137438
O O10 0.399886 0.616748 0.772054
O O11 0.500000 0.000000 0.500000
O O12 0.655493 0.344910 0.923616
O O13 0.717737 0.460593 0.052841
O O14 0.000000 0.500000 0.000000
O O15 0.398990 0.449448 0.401792
O O16 0.563665 0.765534 0.265210
#
# Coordination Sequence:
#
# PCOD9006615 Si02
#       8
#     2   2   2   2   2   2   2   1
#     4   9  20  41  66  93 126 182 224 281 345 419
#     4  11  24  43  70 101 137 182 235 289 358 424
#     4  10  21  38  67  91 133 176 229 278 351 411
#     4  12  26  45  69 104 144 188 234 301 354 429
#     4  11  26  46  70 102 145 190 234 299 354 431
#     4   9  22  42  69  94 136 181 224 290 358 409
#     4  10  22  40  69  99 130 177 233 286 351 429
#     4  12  30  44  68 108 140 192 242 284 364 430
#
# _framework density 23.784486000000001
#
# number of rings (size 3 to 8) (size 9 to 14) (size 15 to 20)
#    0.000    1.600    1.333    1.600    7.467    6.933 
#    0.000    0.000    0.000    6.400    0.000    0.000 
#    0.000    0.000    0.000    0.000    0.000    0.000 
#
# Total GULP energy -83527.474511 kJ/mol
# GULP energy per Si atom -5568.498301 kJ/mol
# Density = 2.373035 g / cm^3
# Si number density = 23.784486 Si / 1000 Ang^3
#
#
#
# Elastic Constant Matrix: (Units=GPa)
#
#
# Indices 1 2 3 4 5 6 
#
# 1 149.4121 51.7648 41.9509 5.3606 1.7502 -0.8239
# 2 51.7648 113.1566 35.8661 31.4996 5.3982 -6.6764
# 3 41.9509 35.8661 107.6547 16.1589 5.1349 -8.1056
# 4 5.3606 31.4996 16.1589 52.9995 5.1752 4.5387
# 5 1.7502 5.3982 5.1349 5.1752 27.0783 1.8777
# 6 -0.8239 -6.6764 -8.1056 4.5387 1.8777 38.4761
#
#
#
# Elastic Compliance Matrix: (Units=1/GPa)
#
#
# Indices 1 2 3 4 5 6 
#
# 1 0.008659 -0.003887 -0.002538 0.002286 0.000350 -0.001310
# 2 -0.003887 0.013331 -0.001593 -0.007193 -0.000923 0.002788
# 3 -0.002538 -0.001593 0.011410 -0.002345 -0.001401 0.002418
# 4 0.002286 -0.007193 -0.002345 0.024260 -0.002599 -0.004428
# 5 0.000350 -0.000923 -0.001401 -0.002599 0.037992 -0.001995
# 6 -0.001310 0.002788 0.002418 -0.004428 -0.001995 0.027575
#
#
# Mechanical properties :
#
#
# Convention : Reuss Voigt Hill
#
# Bulk Modulus (GPa) = 57.59102 69.93189 63.76145
# Shear Modulus (GPa) = 34.47075 39.75355 37.11215
#
# Velocity S-wave (km/s) = 3.81109 4.09272 3.95441
# Velocity P-wave (km/s) = 6.60546 7.19722 6.90768
#
# Compressibility (1/GPa) = 0.01736382
#
# Stress axis : x y z
#
# Youngs Moduli (GPa) = 115.48957 75.01112 87.64613
#
# Poissons Ratio (x) = 0.29158 0.22242
# Poissons Ratio (y) = 0.44893 0.13963
# Poissons Ratio (z) = 0.29307 0.11950
#
# Static dielectric constant tensor:
#      x y z
#    x 1.888880 -0.014960 -0.035040 
#    y -0.014960 2.193840 -0.003130 
#    z -0.035040 -0.003130 1.988990 
# 
# From -- ./inp_files/388924.got.cif
#   From: 2010.05.17/outbox.cif.g08.bks.cpg/sg2_195_cif.got.tgz:388924.got - 2010.06.03 11:33:40.
