data_PCOD9006956
_publ_section_title
;
Structure prediction by ZEFSAII (Michael W. Deem and Ramdas Pophale) SiO2 
 PCOD9006956
Probable space group: P -1
;
_chemical_formula_sum "Si O2"
_cell_formula_units_Z 16
_cell_length_a 20.246189
_cell_length_b 5.371981
_cell_length_c 9.820222
_cell_angle_alpha 46.470647
_cell_angle_beta 61.461374
_cell_angle_gamma 72.345531
_cell_volume 679.725942
_symmetry_space_group_name_H-M "P -1"
_symmetry_group_IT_number 2
_symmetry_cell_setting 'triclinic'
loop_
_space_group_symop_operation_xyz
x,y,z
-x,-y,-z
loop_
_atom_site_type_symbol
_atom_site_label
_atom_site_fract_x
_atom_site_fract_y
_atom_site_fract_z
Si Si1 0.949801 0.434952 0.939055
Si Si2 0.910025 0.624996 0.311238
Si Si3 0.190151 0.485610 0.816231
Si Si4 0.319510 0.221603 0.661070
Si Si5 0.608534 0.519925 0.865558
Si Si6 0.434556 0.724873 0.711374
Si Si7 0.556048 0.266271 0.712692
Si Si8 0.234659 0.290075 0.453062
O O1 0.006839 0.525198 0.724596
O O2 0.868562 0.597450 0.972151
O O3 0.000000 0.500000 0.000000
O O4 0.927230 0.031349 0.121451
O O5 0.863394 0.525364 0.259614
O O6 0.850164 0.573905 0.512384
O O7 0.257151 0.221060 0.839556
O O8 0.224052 0.876221 0.631130
O O9 0.390939 0.472658 0.526399
O O10 0.274141 0.390854 0.519377
O O11 0.354743 0.878870 0.695301
O O12 0.582189 0.353694 0.810406
O O13 0.699484 0.583482 0.761261
O O14 0.574561 0.894028 0.781593
O O15 0.577391 0.305850 0.103932
O O16 0.469693 0.375327 0.756252
O O17 0.500000 0.000000 0.500000
#
# Coordination Sequence:
#
# PCOD9006956 Si02
#       8
#     2   2   2   2   2   2   2   2
#     4   8  13  21  38  68 102 136 165 209 258 304
#     4   8  14  23  40  68 103 132 171 212 257 300
#     4   9  14  26  44  67 101 137 173 210 264 306
#     4   9  18  34  48  76 105 138 175 221 270 320
#     4  11  21  39  58  79 103 141 180 223 272 322
#     4  10  22  39  55  79 106 136 176 225 274 324
#     4  10  21  39  58  78 103 138 178 225 271 323
#     4   9  17  29  50  70 101 141 174 218 261 316
#
# _framework density 23.538899000000001
#
# number of rings (size 3 to 8) (size 9 to 14) (size 15 to 20)
#    0.000    2.750    1.250    0.750    0.000    0.000 
#    4.500    4.375    0.000    0.000    0.000    0.875 
#    0.000   90.000    0.000   15.000    0.000    1.000 
#
# Total GULP energy -89082.402094 kJ/mol
# GULP energy per Si atom -5567.650131 kJ/mol
# Density = 2.348532 g / cm^3
# Si number density = 23.538899 Si / 1000 Ang^3
#
#
#
# Elastic Constant Matrix: (Units=GPa)
#
#
# Indices 1 2 3 4 5 6 
#
# 1 55.1637 34.1658 50.0189 19.4775 -27.6315 -7.7772
# 2 34.1658 125.8534 57.4624 34.8368 -28.0214 -36.2592
# 3 50.0189 57.4624 94.0833 28.4227 -30.8258 -20.0642
# 4 19.4775 34.8368 28.4227 40.5157 -15.5851 -28.2645
# 5 -27.6315 -28.0214 -30.8258 -15.5851 30.4027 18.3337
# 6 -7.7772 -36.2592 -20.0642 -28.2645 18.3337 53.3219
#
#
#
# Elastic Compliance Matrix: (Units=1/GPa)
#
#
# Indices 1 2 3 4 5 6 
#
# 1 0.052424 -0.000826 -0.016005 -0.011833 0.034987 -0.017239
# 2 -0.000826 0.013095 -0.004927 -0.003664 0.001813 0.004365
# 3 -0.016005 -0.004927 0.024530 -0.003594 0.003725 0.000360
# 4 -0.011833 -0.003664 -0.003594 0.049621 -0.006106 0.022833
# 5 0.034987 0.001813 0.003725 -0.006106 0.081110 -0.023388
# 6 -0.017239 0.004365 0.000360 0.022833 -0.023388 0.039488
#
#
# Mechanical properties :
#
#
# Convention : Reuss Voigt Hill
#
# Bulk Modulus (GPa) = 21.49037 62.04385 41.76711
# Shear Modulus (GPa) = 15.65948 33.74494 24.70221
#
# Velocity S-wave (km/s) = 2.58206 3.79037 3.24299
# Velocity P-wave (km/s) = 4.24723 6.75064 5.63960
#
# Compressibility (1/GPa) = 0.04653248
#
# Stress axis : x y z
#
# Youngs Moduli (GPa) = 19.07517 76.36590 40.76599
#
# Poissons Ratio (x) = 0.06305 0.65248
# Poissons Ratio (y) = 0.01575 0.20087
# Poissons Ratio (z) = 0.30531 0.37628
#
# Static dielectric constant tensor:
#      x y z
#    x 2.037860 -0.034140 -0.038400 
#    y -0.034140 2.077030 0.059480 
#    z -0.038400 0.059480 1.939520 
# 
# From -- ./inp_files/44522.got.cif
#   From: 2010.05.17/outbox.cif.g08.bks.cpg/sg2_23_cif.got.tgz:44522.got - 2010.06.03 11:33:40.
