data_PCOD9006484
_publ_section_title
;
Structure prediction by ZEFSAII (Michael W. Deem and Ramdas Pophale) SiO2 
 PCOD9006484
Probable space group: P -1
;
_chemical_formula_sum "Si O2"
_cell_formula_units_Z 14
_cell_length_a 10.616031
_cell_length_b 12.935497
_cell_length_c 11.050926
_cell_angle_alpha 130.853103
_cell_angle_beta 58.063003
_cell_angle_gamma 143.103193
_cell_volume 689.090077
_symmetry_space_group_name_H-M "P -1"
_symmetry_group_IT_number 2
_symmetry_cell_setting 'triclinic'
loop_
_space_group_symop_operation_xyz
x,y,z
-x,-y,-z
loop_
_atom_site_type_symbol
_atom_site_label
_atom_site_fract_x
_atom_site_fract_y
_atom_site_fract_z
Si Si1 0.268382 0.105772 0.188365
Si Si2 0.602881 0.521293 0.590677
Si Si3 0.969534 0.316824 0.023373
Si Si4 0.663859 0.091925 0.593965
Si Si5 0.336883 0.729517 0.044062
Si Si6 0.756807 0.874915 0.505414
Si Si7 0.068214 0.506418 0.605675
O O1 0.248683 0.254276 0.279719
O O2 0.314099 0.127079 0.324956
O O3 0.470565 0.193266 0.075927
O O4 0.078688 0.875816 0.088744
O O5 0.500000 0.500000 0.500000
O O6 0.388811 0.344482 0.634706
O O7 0.735479 0.468664 0.477942
O O8 0.909964 0.349985 0.206392
O O9 0.197078 0.517307 0.013906
O O10 0.814308 0.279595 0.972514
O O11 0.585646 0.122963 0.774728
O O12 0.880484 0.300816 0.604625
O O13 0.500000 0.000000 0.500000
O O14 0.716812 0.972804 0.511825
O O15 0.000000 0.000000 0.500000
O O16 0.000000 0.500000 0.500000
#
# Coordination Sequence:
#
# PCOD9006484 Si02
#       7
#     2   2   2   2   2   2   2
#     4  11  22  37  66  93 129 168 212 274 325 375
#     4  10  22  39  63  96 128 169 218 263 324 390
#     4  10  21  38  66  92 129 168 221 273 318 384
#     4  11  23  39  65  97 129 172 219 268 325 392
#     4  10  22  37  62  97 129 166 224 267 324 386
#     4  11  23  39  65  95 133 172 216 270 326 389
#     4  11  24  43  67  95 131 175 220 269 327 399
#
# _framework density 20.316648000000001
#
# number of rings (size 3 to 8) (size 9 to 14) (size 15 to 20)
#    0.000    1.429    1.429    4.714    6.000    0.000 
#    0.000    0.714    3.143    2.571    0.000    0.000 
#    0.000    0.000    0.000    0.000    0.000    0.000 
#
# Total GULP energy -78101.120861 kJ/mol
# GULP energy per Si atom -5578.651490 kJ/mol
# Density = 2.027041 g / cm^3
# Si number density = 20.316648 Si / 1000 Ang^3
#
#
#
# Elastic Constant Matrix: (Units=GPa)
#
#
# Indices 1 2 3 4 5 6 
#
# 1 106.1130 28.4220 47.2174 1.1297 3.3549 -4.4615
# 2 28.4220 106.8745 37.9883 15.0092 -14.9511 -11.9192
# 3 47.2174 37.9883 93.5581 10.5511 11.6978 -11.9918
# 4 1.1297 15.0092 10.5511 49.0805 -7.3745 -9.0676
# 5 3.3549 -14.9511 11.6978 -7.3745 28.1094 2.7172
# 6 -4.4615 -11.9192 -11.9918 -9.0676 2.7172 34.4217
#
#
#
# Elastic Compliance Matrix: (Units=1/GPa)
#
#
# Indices 1 2 3 4 5 6 
#
# 1 0.012409 -0.001301 -0.006076 0.001417 0.000790 -0.000648
# 2 -0.001301 0.013273 -0.005543 -0.001205 0.009064 0.001464
# 3 -0.006076 -0.005543 0.018190 -0.003038 -0.010947 0.003694
# 4 0.001417 -0.001205 -0.003038 0.023074 0.006091 0.004306
# 5 0.000790 0.009064 -0.010947 0.006091 0.046713 -0.002655
# 6 -0.000648 0.001464 0.003694 0.004306 -0.002655 0.032105
#
#
# Mechanical properties :
#
#
# Convention : Reuss Voigt Hill
#
# Bulk Modulus (GPa) = 55.45331 59.31122 57.38227
# Shear Modulus (GPa) = 28.15076 35.18350 31.66713
#
# Velocity S-wave (km/s) = 3.72640 4.16595 3.95229
# Velocity P-wave (km/s) = 6.77263 7.23858 7.00948
#
# Compressibility (1/GPa) = 0.01803319
#
# Stress axis : x y z
#
# Youngs Moduli (GPa) = 80.58861 75.33831 54.97415
#
# Poissons Ratio (x) = 0.09802 0.33402
# Poissons Ratio (y) = 0.10485 0.30471
# Poissons Ratio (z) = 0.48965 0.41758
#
# Static dielectric constant tensor:
#      x y z
#    x 1.641210 -0.030540 -0.041130 
#    y -0.030540 1.804120 0.042870 
#    z -0.041130 0.042870 1.785100 
# 
# From -- ./inp_files/343685.got.cif
#   From: 2010.05.17/outbox.cif.g08.bks.cpg/sg2_172_cif.got.tgz:343685.got - 2010.06.03 11:33:40.
