data_PCOD9006457
_publ_section_title
;
Structure prediction by ZEFSAII (Michael W. Deem and Ramdas Pophale) SiO2 
 PCOD9006457
Probable space group: P -1
;
_chemical_formula_sum "Si O2"
_cell_formula_units_Z 16
_cell_length_a 14.636817
_cell_length_b 11.749019
_cell_length_c 8.802466
_cell_angle_alpha 94.379065
_cell_angle_beta 30.776749
_cell_angle_gamma 104.796686
_cell_volume 716.890179
_symmetry_space_group_name_H-M "P -1"
_symmetry_group_IT_number 2
_symmetry_cell_setting 'triclinic'
loop_
_space_group_symop_operation_xyz
x,y,z
-x,-y,-z
loop_
_atom_site_type_symbol
_atom_site_label
_atom_site_fract_x
_atom_site_fract_y
_atom_site_fract_z
Si Si1 0.212575 0.969674 0.025056
Si Si2 0.380769 0.633212 0.609323
Si Si3 0.111015 0.190518 0.298744
Si Si4 0.983666 0.524833 0.348349
Si Si5 0.927317 0.276144 0.299683
Si Si6 0.333954 0.366547 0.227465
Si Si7 0.641580 0.121223 0.482415
Si Si8 0.687793 0.636785 0.413129
O O1 0.055456 0.872297 0.346084
O O2 0.150210 0.086752 0.134263
O O3 0.235529 0.921357 0.820757
O O4 0.429871 0.017419 0.784750
O O5 0.373411 0.752379 0.547579
O O6 0.565651 0.666161 0.457515
O O7 0.372542 0.512181 0.514567
O O8 0.193117 0.581807 0.980424
O O9 0.303779 0.273259 0.121833
O O10 0.033178 0.265107 0.301065
O O11 0.872430 0.394428 0.412587
O O12 0.863779 0.608959 0.497514
O O13 0.000000 0.500000 0.500000
O O14 0.751447 0.156950 0.488081
O O15 0.088583 0.307398 0.942181
O O16 0.349230 0.315641 0.366614
O O17 0.500000 0.500000 0.000000
#
# Coordination Sequence:
#
# PCOD9006457 Si02
#       8
#     2   2   2   2   2   2   2   2
#     4  10  25  45  66  88 125 175 224 270 316 369
#     4  10  21  38  66  89 135 163 214 261 308 393
#     4  11  24  45  64  94 134 167 214 273 320 380
#     4  11  21  37  58 100 132 167 202 253 332 389
#     4  11  23  38  69  93 130 167 207 270 319 390
#     4  12  25  39  66  96 135 170 205 260 328 394
#     4  11  23  43  67  93 120 175 224 268 316 373
#     4  10  22  38  61 101 126 172 204 250 332 388
#
# _framework density 22.318619999999999
#
# number of rings (size 3 to 8) (size 9 to 14) (size 15 to 20)
#    0.000    1.250    1.250    4.500    7.000    3.000 
#    0.000    5.000    0.000    0.000    0.000    0.000 
#    0.000    0.000    0.000    0.000    0.000    0.000 
#
# Total GULP energy -89493.123915 kJ/mol
# GULP energy per Si atom -5593.320245 kJ/mol
# Density = 2.226782 g / cm^3
# Si number density = 22.318620 Si / 1000 Ang^3
#
#
#
# Elastic Constant Matrix: (Units=GPa)
#
#
# Indices 1 2 3 4 5 6 
#
# 1 77.9391 21.5151 -0.3911 -1.6556 -1.8813 21.4250
# 2 21.5151 92.3059 21.7705 6.3019 -1.8197 15.8060
# 3 -0.3911 21.7705 75.5562 0.1970 2.3053 8.5564
# 4 -1.6556 6.3019 0.1970 37.1515 -0.7159 -6.7866
# 5 -1.8813 -1.8197 2.3053 -0.7159 20.9165 -5.6299
# 6 21.4250 15.8060 8.5564 -6.7866 -5.6299 32.8514
#
#
#
# Elastic Compliance Matrix: (Units=1/GPa)
#
#
# Indices 1 2 3 4 5 6 
#
# 1 0.016344 -0.002477 0.002043 -0.000811 -0.001819 -0.010479
# 2 -0.002477 0.013176 -0.003287 -0.003156 -0.000041 -0.004526
# 3 0.002043 -0.003287 0.014748 -0.000239 -0.002847 -0.004129
# 4 -0.000811 -0.003156 -0.000239 0.029050 0.002994 0.008624
# 5 -0.001819 -0.000041 -0.002847 0.002994 0.051106 0.011324
# 6 -0.010479 -0.004526 -0.004129 0.008624 0.011324 0.044250
#
#
# Mechanical properties :
#
#
# Convention : Reuss Voigt Hill
#
# Bulk Modulus (GPa) = 27.15618 36.84334 31.99976
# Shear Modulus (GPa) = 26.54026 31.71100 29.12563
#
# Velocity S-wave (km/s) = 3.45215 3.77348 3.61639
# Velocity P-wave (km/s) = 5.29941 5.96064 5.63972
#
# Compressibility (1/GPa) = 0.03682403
#
# Stress axis : x y z
#
# Youngs Moduli (GPa) = 61.18434 75.89542 67.80567
#
# Poissons Ratio (x) = 0.18803 -0.13851
# Poissons Ratio (y) = 0.15158 0.22289
# Poissons Ratio (z) = -0.12498 0.24949
#
# Static dielectric constant tensor:
#      x y z
#    x 1.804070 0.040810 0.019550 
#    y 0.040810 1.852760 0.010600 
#    z 0.019550 0.010600 1.816440 
# 
# From -- ./inp_files/179919.got.cif
#   From: 2010.05.17/outbox.cif.g08.bks.cpg/sg2_90_cif.got.tgz:179919.got - 2010.06.03 11:33:40.
