data_PCOD9006639
_publ_section_title
;
Structure prediction by ZEFSAII (Michael W. Deem and Ramdas Pophale) SiO2 
 PCOD9006639
Probable space group: P -1
;
_chemical_formula_sum "Si O2"
_cell_formula_units_Z 16
_cell_length_a 13.592959
_cell_length_b 11.533116
_cell_length_c 13.649820
_cell_angle_alpha 137.327484
_cell_angle_beta 149.894224
_cell_angle_gamma 55.336606
_cell_volume 713.130401
_symmetry_space_group_name_H-M "P -1"
_symmetry_group_IT_number 2
_symmetry_cell_setting 'triclinic'
loop_
_space_group_symop_operation_xyz
x,y,z
-x,-y,-z
loop_
_atom_site_type_symbol
_atom_site_label
_atom_site_fract_x
_atom_site_fract_y
_atom_site_fract_z
Si Si1 0.976188 0.236813 0.713573
Si Si2 0.746472 0.194850 0.684381
Si Si3 0.720380 0.863062 0.786031
Si Si4 0.848312 0.211696 0.238921
Si Si5 0.735684 0.003357 0.206898
Si Si6 0.781436 0.561991 0.412849
Si Si7 0.965535 0.584966 0.803212
Si Si8 0.664815 0.889006 0.542762
O O1 0.892756 0.264771 0.765710
O O2 0.824467 0.075151 0.432300
O O3 0.963772 0.402020 0.739275
O O4 0.190225 0.177629 0.861989
O O5 0.519643 0.195890 0.460049
O O6 0.763660 0.996604 0.601774
O O7 0.818643 0.300763 0.911397
O O8 0.817057 0.699388 0.795777
O O9 0.791290 0.902865 0.759730
O O10 0.779695 0.040049 0.007596
O O11 0.836137 0.136689 0.291391
O O12 0.711109 0.358910 0.201313
O O13 0.058793 0.327465 0.456059
O O14 0.500000 0.000000 0.000000
O O15 0.898378 0.562864 0.618611
O O16 0.616415 0.682728 0.354258
O O17 0.500000 0.000000 0.500000
#
# Coordination Sequence:
#
# PCOD9006639 Si02
#       8
#     2   2   2   2   2   2   2   2
#     4  11  24  40  61  93 122 166 217 252 311 377
#     4  11  22  38  64  91 126 165 212 257 309 373
#     4  10  22  38  65  94 127 164 206 260 319 372
#     4  11  21  40  66  92 123 166 211 257 319 369
#     4  11  24  43  64  87 129 168 205 261 315 372
#     4  10  21  38  67  94 123 167 209 259 315 377
#     4  11  22  41  62  94 128 164 208 260 314 372
#     4   9  19  38  59  90 126 158 204 257 310 367
#
# _framework density 22.436288000000001
#
# number of rings (size 3 to 8) (size 9 to 14) (size 15 to 20)
#    0.000    1.500    1.250    4.125    0.000    3.500 
#    2.250    2.500    0.000    0.000    0.000    0.000 
#    0.000    0.000    0.000    0.000    0.000    0.000 
#
# Total GULP energy -89256.890441 kJ/mol
# GULP energy per Si atom -5578.555653 kJ/mol
# Density = 2.238522 g / cm^3
# Si number density = 22.436288 Si / 1000 Ang^3
#
#
#
# Elastic Constant Matrix: (Units=GPa)
#
#
# Indices 1 2 3 4 5 6 
#
# 1 76.5210 53.2239 10.5825 -5.2582 5.2590 7.0150
# 2 53.2239 193.6270 30.0532 13.0170 13.0762 -13.5217
# 3 10.5825 30.0532 57.0318 -6.8560 6.0250 -21.1256
# 4 -5.2582 13.0170 -6.8560 33.8074 -10.5301 -3.0356
# 5 5.2590 13.0762 6.0250 -10.5301 18.7169 -1.4549
# 6 7.0150 -13.5217 -21.1256 -3.0356 -1.4549 43.6509
#
#
#
# Elastic Compliance Matrix: (Units=1/GPa)
#
#
# Indices 1 2 3 4 5 6 
#
# 1 0.017705 -0.005304 -0.002008 0.004380 0.001444 -0.005107
# 2 -0.005304 0.008048 -0.002843 -0.006492 -0.006769 0.001292
# 3 -0.002008 -0.002843 0.024652 0.006609 -0.000749 0.011808
# 4 0.004380 -0.006492 0.006609 0.042381 0.025354 0.004276
# 5 0.001444 -0.006769 -0.000749 0.025354 0.072372 0.001484
# 6 -0.005107 0.001292 0.011808 0.004276 0.001484 0.030191
#
#
# Mechanical properties :
#
#
# Convention : Reuss Voigt Hill
#
# Bulk Modulus (GPa) = 33.22926 57.21101 45.22014
# Shear Modulus (GPa) = 22.15414 34.78972 28.47193
#
# Velocity S-wave (km/s) = 3.14574 3.94204 3.56618
# Velocity P-wave (km/s) = 5.29499 6.80252 6.09554
#
# Compressibility (1/GPa) = 0.03009396
#
# Stress axis : x y z
#
# Youngs Moduli (GPa) = 56.48156 124.26115 40.56401
#
# Poissons Ratio (x) = 0.65903 0.08147
# Poissons Ratio (y) = 0.29956 0.11534
# Poissons Ratio (z) = 0.11344 0.35333
#
# Static dielectric constant tensor:
#      x y z
#    x 1.896390 -0.047690 -0.006730 
#    y -0.047690 1.896750 0.001060 
#    z -0.006730 0.001060 1.866710 
# 
# From -- ./inp_files/532080.got.cif
#   From: 2010.05.17/outbox.cif.g08.bks.cpg/sg2_267_cif.got.tgz:532080.got - 2010.06.03 11:33:40.
