data_PCOD9006303
_publ_section_title
;
Structure prediction by ZEFSAII (Michael W. Deem and Ramdas Pophale) SiO2 
 PCOD9006303
Probable space group: P -1
;
_chemical_formula_sum "Si O2"
_cell_formula_units_Z 16
_cell_length_a 16.475572
_cell_length_b 15.959197
_cell_length_c 10.020331
_cell_angle_alpha 143.252975
_cell_angle_beta 148.999149
_cell_angle_gamma 33.616822
_cell_volume 715.064580
_symmetry_space_group_name_H-M "P -1"
_symmetry_group_IT_number 2
_symmetry_cell_setting 'triclinic'
loop_
_space_group_symop_operation_xyz
x,y,z
-x,-y,-z
loop_
_atom_site_type_symbol
_atom_site_label
_atom_site_fract_x
_atom_site_fract_y
_atom_site_fract_z
Si Si1 0.723016 0.199382 0.231104
Si Si2 0.261172 0.006400 0.771623
Si Si3 0.115397 0.337684 0.094788
Si Si4 0.649312 0.956721 0.344823
Si Si5 0.347113 0.351292 0.994317
Si Si6 0.020893 0.632755 0.781809
Si Si7 0.875736 0.979529 0.908848
Si Si8 0.725817 0.526909 0.689778
O O1 0.725727 0.365695 0.448257
O O2 0.781322 0.106855 0.337838
O O3 0.510102 0.256381 0.002733
O O4 0.828392 0.086690 0.112313
O O5 0.279941 0.989664 0.617321
O O6 0.121607 0.187807 0.836828
O O7 0.446587 0.997666 0.076792
O O8 0.269771 0.373506 0.303187
O O9 0.119764 0.312401 0.225038
O O10 0.918099 0.481151 0.970596
O O11 0.739943 0.764631 0.248302
O O12 0.693522 0.018937 0.621672
O O13 0.220751 0.527422 0.986657
O O14 0.412768 0.373299 0.262435
O O15 0.000000 0.500000 0.500000
O O16 0.980012 0.793817 0.857552
O O17 0.000000 0.000000 0.000000
#
# Coordination Sequence:
#
# PCOD9006303 Si02
#       8
#     2   2   2   2   2   2   2   2
#     4  11  25  42  65  99 133 173 209 270 335 383
#     4  10  21  41  68  96 122 172 217 271 317 378
#     4  10  21  38  65  94 122 172 225 262 318 380
#     4  10  22  41  67  95 131 167 219 264 323 383
#     4  10  21  42  69  93 126 172 221 270 314 383
#     4  11  23  42  66  92 125 176 219 262 316 394
#     4  12  28  44  64  98 139 171 209 272 335 384
#     4  10  22  38  66  95 132 164 219 274 320 380
#
# _framework density 22.375601
#
# number of rings (size 3 to 8) (size 9 to 14) (size 15 to 20)
#    0.000    1.500    3.750    0.375    3.500    5.500 
#    2.250    0.625    0.000    0.000    0.000    0.000 
#    0.000    0.000    0.000    0.000    0.000    0.000 
#
# Total GULP energy -89272.742871 kJ/mol
# GULP energy per Si atom -5579.546429 kJ/mol
# Density = 2.232467 g / cm^3
# Si number density = 22.375601 Si / 1000 Ang^3
#
#
#
# Elastic Constant Matrix: (Units=GPa)
#
#
# Indices 1 2 3 4 5 6 
#
# 1 139.6555 52.1880 29.4235 17.9629 -7.5442 26.0384
# 2 52.1880 75.5331 6.0596 14.2584 2.0687 14.7879
# 3 29.4235 6.0596 54.5305 19.0894 -6.0711 12.2178
# 4 17.9629 14.2584 19.0894 38.1380 -0.6217 5.8450
# 5 -7.5442 2.0687 -6.0711 -0.6217 19.5612 9.4474
# 6 26.0384 14.7879 12.2178 5.8450 9.4474 44.6645
#
#
#
# Elastic Compliance Matrix: (Units=1/GPa)
#
#
# Indices 1 2 3 4 5 6 
#
# 1 0.011897 -0.007093 -0.003717 -0.000229 0.006557 -0.004927
# 2 -0.007093 0.019343 0.003727 -0.005501 -0.002850 -0.001966
# 3 -0.003717 0.003727 0.026607 -0.011770 0.009330 -0.006779
# 4 -0.000229 -0.005501 -0.011770 0.034034 -0.002702 0.001292
# 5 0.006557 -0.002850 0.009330 -0.002702 0.065951 -0.019028
# 6 -0.004927 -0.001966 -0.006779 0.001292 -0.019028 0.031622
#
#
# Mechanical properties :
#
#
# Convention : Reuss Voigt Hill
#
# Bulk Modulus (GPa) = 22.89365 49.45125 36.17245
# Shear Modulus (GPa) = 22.91676 32.60928 27.76302
#
# Velocity S-wave (km/s) = 3.20376 3.82168 3.52628
# Velocity P-wave (km/s) = 4.89277 6.45152 5.72544
#
# Compressibility (1/GPa) = 0.04368024
#
# Stress axis : x y z
#
# Youngs Moduli (GPa) = 84.05791 51.69962 37.58347
#
# Poissons Ratio (x) = 0.36672 0.13969
# Poissons Ratio (y) = 0.59624 -0.14007
# Poissons Ratio (z) = 0.31242 -0.19268
#
# Static dielectric constant tensor:
#      x y z
#    x 1.948540 0.016270 0.016530 
#    y 0.016270 1.926190 -0.078090 
#    z 0.016530 -0.078090 1.855440 
# 
# From -- ./inp_files/316141.got.cif
#   From: 2010.05.17/outbox.cif.g08.bks.cpg/sg2_159_cif.got.tgz:316141.got - 2010.06.03 11:33:40.
