data_PCOD9006267
_publ_section_title
;
Structure prediction by ZEFSAII (Michael W. Deem and Ramdas Pophale) SiO2 
 PCOD9006267
Probable space group: P -1
;
_chemical_formula_sum "Si O2"
_cell_formula_units_Z 14
_cell_length_a 11.805224
_cell_length_b 11.106075
_cell_length_c 11.367677
_cell_angle_alpha 124.861521
_cell_angle_beta 38.162436
_cell_angle_gamma 144.446230
_cell_volume 525.779225
_symmetry_space_group_name_H-M "P -1"
_symmetry_group_IT_number 2
_symmetry_cell_setting 'triclinic'
loop_
_space_group_symop_operation_xyz
x,y,z
-x,-y,-z
loop_
_atom_site_type_symbol
_atom_site_label
_atom_site_fract_x
_atom_site_fract_y
_atom_site_fract_z
Si Si1 0.522691 0.259215 0.161460
Si Si2 0.672578 0.396905 0.532241
Si Si3 0.258628 0.227363 0.583343
Si Si4 0.495787 0.130808 0.740485
Si Si5 0.813975 0.155295 0.960833
Si Si6 0.162042 0.459302 0.145721
Si Si7 0.011088 0.802766 0.647301
O O1 0.329919 0.223363 0.391376
O O2 0.362556 0.053479 0.094250
O O3 0.716726 0.262863 0.076603
O O4 0.686229 0.460899 0.055877
O O5 0.513276 0.361680 0.532173
O O6 0.473253 0.194591 0.668763
O O7 0.814310 0.604739 0.608847
O O8 0.904227 0.414743 0.321721
O O9 0.107702 0.292642 0.756329
O O10 0.058600 0.992234 0.669815
O O11 0.640648 0.334440 0.816595
O O12 0.711447 0.124921 0.549722
O O13 0.248351 0.927611 0.900475
O O14 0.093355 0.279130 0.180450
#
# Coordination Sequence:
#
# PCOD9006267 Si02
#       7
#     2   2   2   2   2   2   2
#     4  10  21  41  65  88 129 173 206 259 310 381
#     4   9  20  36  63  95 132 155 210 268 311 368
#     4  12  23  37  70  98 119 168 214 255 319 378
#     4   8  15  36  61  87 124 166 199 257 311 361
#     4  10  21  38  65  92 126 168 214 252 316 376
#     4   8  17  36  65  85 128 172 200 257 321 362
#     4   9  18  39  67  94 123 165 210 262 313 369
#
# _framework density 26.627147999999998
#
# number of rings (size 3 to 8) (size 9 to 14) (size 15 to 20)
#    0.000    2.571    1.429    2.143    2.000    3.429 
#    0.000    7.143   12.571    0.000    0.000    0.000 
#    0.000    0.000    0.000    0.000    0.000    0.000 
#
# Total GULP energy -78586.007228 kJ/mol
# GULP energy per Si atom -5613.286231 kJ/mol
# Density = 2.656654 g / cm^3
# Si number density = 26.627148 Si / 1000 Ang^3
#
#
#
# Elastic Constant Matrix: (Units=GPa)
#
#
# Indices 1 2 3 4 5 6 
#
# 1 70.5336 44.0924 67.7796 -23.2995 18.7964 -14.5029
# 2 44.0924 118.1251 39.4232 -7.1690 15.1552 -4.9372
# 3 67.7796 39.4232 156.6761 -23.0740 27.6323 -22.8858
# 4 -23.2995 -7.1690 -23.0740 35.9272 -6.0230 7.6282
# 5 18.7964 15.1552 27.6323 -6.0230 41.8637 -0.4081
# 6 -14.5029 -4.9372 -22.8858 7.6282 -0.4081 40.0563
#
#
#
# Elastic Compliance Matrix: (Units=1/GPa)
#
#
# Indices 1 2 3 4 5 6 
#
# 1 0.035120 -0.008309 -0.009878 0.013318 -0.004291 0.003468
# 2 -0.008309 0.011368 0.000371 -0.002876 -0.001051 -0.000858
# 3 -0.009878 0.000371 0.011584 -0.000103 -0.003330 0.003073
# 4 0.013318 -0.002876 -0.000103 0.036425 0.000345 -0.002525
# 5 -0.004291 -0.001051 -0.003330 0.000345 0.028409 -0.003362
# 6 0.003468 -0.000858 0.003073 -0.002525 -0.003362 0.028317
#
#
# Mechanical properties :
#
#
# Convention : Reuss Voigt Hill
#
# Bulk Modulus (GPa) = 44.56502 71.99168 58.27835
# Shear Modulus (GPa) = 25.72896 36.50542 31.11719
#
# Velocity S-wave (km/s) = 3.11186 3.70670 3.42223
# Velocity P-wave (km/s) = 5.44835 6.73907 6.12779
#
# Compressibility (1/GPa) = 0.02243912
#
# Stress axis : x y z
#
# Youngs Moduli (GPa) = 28.47404 87.96769 86.32960
#
# Poissons Ratio (x) = 0.73090 0.85274
# Poissons Ratio (y) = 0.23658 -0.03199
# Poissons Ratio (z) = 0.28126 -0.03260
#
# Static dielectric constant tensor:
#      x y z
#    x 2.051780 0.026940 -0.000300 
#    y 0.026940 2.101560 -0.020600 
#    z -0.000300 -0.020600 1.990170 
# 
# From -- ./inp_files/426458.got.cif
#   From: 2010.05.17/outbox.cif.g08.bks.cpg/sg2_214_cif.got.tgz:426458.got - 2010.06.03 11:33:40.
