data_PCOD9006694
_publ_section_title
;
Structure prediction by ZEFSAII (Michael W. Deem and Ramdas Pophale) SiO2 
 PCOD9006694
Probable space group: P -1
;
_chemical_formula_sum "Si O2"
_cell_formula_units_Z 14
_cell_length_a 7.482764
_cell_length_b 13.861101
_cell_length_c 9.265727
_cell_angle_alpha 123.457216
_cell_angle_beta 112.682936
_cell_angle_gamma 95.315917
_cell_volume 679.121735
_symmetry_space_group_name_H-M "P -1"
_symmetry_group_IT_number 2
_symmetry_cell_setting 'triclinic'
loop_
_space_group_symop_operation_xyz
x,y,z
-x,-y,-z
loop_
_atom_site_type_symbol
_atom_site_label
_atom_site_fract_x
_atom_site_fract_y
_atom_site_fract_z
Si Si1 0.440633 0.802327 0.282135
Si Si2 0.524426 0.982284 0.715679
Si Si3 0.916778 0.037839 0.360323
Si Si4 0.209986 0.100083 0.071406
Si Si5 0.104376 0.622465 0.230767
Si Si6 0.526547 0.617860 0.503699
Si Si7 0.237834 0.306400 0.649888
O O1 0.565714 0.909280 0.530128
O O2 0.224641 0.726472 0.233626
O O3 0.575878 0.718542 0.227376
O O4 0.407589 0.874024 0.192718
O O5 0.278611 0.931379 0.626674
O O6 0.625251 0.955796 0.867415
O O7 0.081036 0.163960 0.442555
O O8 0.000000 0.000000 0.500000
O O9 0.839048 0.922480 0.130690
O O10 0.318626 0.247389 0.268329
O O11 0.000000 0.000000 0.000000
O O12 0.297760 0.620169 0.390555
O O13 0.000000 0.500000 0.000000
O O14 0.914542 0.641906 0.271105
O O15 0.500000 0.500000 0.500000
O O16 0.643507 0.614207 0.386422
#
# Coordination Sequence:
#
# PCOD9006694 Si02
#       7
#     2   2   2   2   2   2   2
#     4  10  21  38  68 100 138 177 229 294 353 420
#     4  11  21  40  65 102 143 176 231 294 357 423
#     4  12  23  39  71 105 142 187 229 292 373 425
#     4  12  24  43  69 104 143 187 239 299 357 424
#     4  11  25  45  71  99 141 191 241 292 353 439
#     4  11  26  49  69 101 145 189 244 301 350 424
#     4  11  21  45  69  99 140 186 234 295 357 422
#
# _framework density 20.614858999999999
#
# number of rings (size 3 to 8) (size 9 to 14) (size 15 to 20)
#    0.000    0.857    7.143    0.429    2.000    5.143 
#    2.571    0.000    0.000    0.000    0.000    0.000 
#    0.000    0.000    0.000    0.000    0.000    0.000 
#
# Total GULP energy -78089.987905 kJ/mol
# GULP energy per Si atom -5577.856279 kJ/mol
# Density = 2.056794 g / cm^3
# Si number density = 20.614859 Si / 1000 Ang^3
#
#
#
# Elastic Constant Matrix: (Units=GPa)
#
#
# Indices 1 2 3 4 5 6 
#
# 1 169.9007 48.6891 37.2191 4.3949 4.6834 7.5189
# 2 48.6891 157.8103 35.0439 -4.4651 3.0507 7.8374
# 3 37.2191 35.0439 106.7736 6.3519 -5.8351 -9.9682
# 4 4.3949 -4.4651 6.3519 30.9486 -6.6183 -0.7436
# 5 4.6834 3.0507 -5.8351 -6.6183 26.3964 2.0630
# 6 7.5189 7.8374 -9.9682 -0.7436 2.0630 16.3797
#
#
#
# Elastic Compliance Matrix: (Units=1/GPa)
#
#
# Indices 1 2 3 4 5 6 
#
# 1 0.007067 -0.001469 -0.002356 -0.001165 -0.001598 -0.003827
# 2 -0.001469 0.007621 -0.002518 0.001629 -0.000426 -0.004377
# 3 -0.002356 -0.002518 0.012110 -0.001820 0.002203 0.009296
# 4 -0.001165 0.001629 -0.001820 0.034867 0.008423 -0.000829
# 5 -0.001598 -0.000426 0.002203 0.008423 0.041012 -0.002504
# 6 -0.003827 -0.004377 0.009296 -0.000829 -0.002504 0.070837
#
#
# Mechanical properties :
#
#
# Convention : Reuss Voigt Hill
#
# Bulk Modulus (GPa) = 70.86846 75.15430 73.01138
# Shear Modulus (GPa) = 26.19136 35.64710 30.91923
#
# Velocity S-wave (km/s) = 3.56829 4.16287 3.87699
# Velocity P-wave (km/s) = 7.17139 7.72279 7.45219
#
# Compressibility (1/GPa) = 0.01411065
#
# Stress axis : x y z
#
# Youngs Moduli (GPa) = 141.51275 131.22019 82.57715
#
# Poissons Ratio (x) = 0.19276 0.19458
# Poissons Ratio (y) = 0.20788 0.20792
# Poissons Ratio (z) = 0.33345 0.33040
#
# Static dielectric constant tensor:
#      x y z
#    x 1.768600 0.005350 -0.000330 
#    y 0.005350 1.833340 0.144070 
#    z -0.000330 0.144070 1.917470 
# 
# From -- ./inp_files/198138.got.cif
#   From: 2010.05.17/outbox.cif.g08.bks.cpg/sg2_100_cif.got.tgz:198138.got - 2010.06.03 11:33:40.
