data_PCOD9006319
_publ_section_title
;
Structure prediction by ZEFSAII (Michael W. Deem and Ramdas Pophale) SiO2 
 PCOD9006319
Probable space group: P -1
;
_chemical_formula_sum "Si O2"
_cell_formula_units_Z 16
_cell_length_a 9.123452
_cell_length_b 19.259754
_cell_length_c 12.671824
_cell_angle_alpha 27.303339
_cell_angle_beta 126.816702
_cell_angle_gamma 115.201990
_cell_volume 782.390846
_symmetry_space_group_name_H-M "P -1"
_symmetry_group_IT_number 2
_symmetry_cell_setting 'triclinic'
loop_
_space_group_symop_operation_xyz
x,y,z
-x,-y,-z
loop_
_atom_site_type_symbol
_atom_site_label
_atom_site_fract_x
_atom_site_fract_y
_atom_site_fract_z
Si Si1 0.882013 0.632441 0.491410
Si Si2 0.827149 0.651884 0.093967
Si Si3 0.710113 0.888779 0.913338
Si Si4 0.536192 0.435061 0.984392
Si Si5 0.270246 0.073214 0.471947
Si Si6 0.125568 0.834611 0.421888
Si Si7 0.822357 0.475808 0.891748
Si Si8 0.993656 0.886552 0.514887
O O1 0.807076 0.569331 0.649822
O O2 0.976254 0.483414 0.657331
O O3 0.050716 0.712127 0.486520
O O4 0.727951 0.769505 0.179068
O O5 0.811316 0.779618 0.006336
O O6 0.656662 0.573767 0.141363
O O7 0.771282 0.749923 0.828530
O O8 0.488357 0.975937 0.676293
O O9 0.820213 0.020460 0.804116
O O10 0.683763 0.262101 0.302079
O O11 0.500000 0.500000 0.000000
O O12 0.644679 0.520467 0.835474
O O13 0.207134 0.072360 0.566989
O O14 0.119149 0.001604 0.444027
O O15 0.973513 0.888639 0.377784
O O16 0.000000 0.500000 0.000000
O O17 0.883511 0.286642 0.156222
#
# Coordination Sequence:
#
# PCOD9006319 Si02
#       8
#     2   2   2   2   2   2   2   2
#     4  12  25  42  61  93 134 167 199 258 323 371
#     4  12  22  42  65  92 121 172 214 256 304 373
#     4  12  25  41  62  95 129 165 208 257 318 370
#     4  11  21  36  67  99 118 152 222 266 297 357
#     4  11  22  39  67  91 123 161 214 261 302 369
#     4  11  21  40  64  93 125 163 207 262 306 370
#     4  11  20  37  63  88 122 162 206 252 308 370
#     4  10  21  38  65  95 115 156 220 259 302 359
#
# _framework density 20.450137999999999
#
# number of rings (size 3 to 8) (size 9 to 14) (size 15 to 20)
#    0.000    0.750    7.500    2.625    0.000    0.000 
#    0.000    4.375    0.000    0.000    0.000    0.000 
#    0.000    0.000    0.000    0.000    0.000    0.000 
#
# Total GULP energy -89335.065368 kJ/mol
# GULP energy per Si atom -5583.441586 kJ/mol
# Density = 2.040359 g / cm^3
# Si number density = 20.450138 Si / 1000 Ang^3
#
#
#
# Elastic Constant Matrix: (Units=GPa)
#
#
# Indices 1 2 3 4 5 6 
#
# 1 111.6728 22.6356 27.1214 -17.6384 -20.3721 -3.4802
# 2 22.6356 31.3722 -9.5825 -16.8569 -0.1541 0.9530
# 3 27.1214 -9.5825 78.8424 -7.9914 -16.9842 1.1259
# 4 -17.6384 -16.8569 -7.9914 21.5666 0.0250 0.1611
# 5 -20.3721 -0.1541 -16.9842 0.0250 27.7617 -6.0075
# 6 -3.4802 0.9530 1.1259 0.1611 -6.0075 28.7779
#
#
#
# Elastic Compliance Matrix: (Units=1/GPa)
#
#
# Indices 1 2 3 4 5 6 
#
# 1 0.014070 -0.010657 -0.004186 0.001587 0.008569 0.003998
# 2 -0.010657 0.077886 0.020086 0.059631 0.003946 -0.004164
# 3 -0.004186 0.020086 0.020663 0.019922 0.009647 -0.000078
# 4 0.001587 0.059631 0.019922 0.101643 0.013526 -0.000308
# 5 0.008569 0.003946 0.009647 0.013526 0.050604 0.011016
# 6 0.003998 -0.004164 -0.000078 -0.000308 0.011016 0.037675
#
#
# Mechanical properties :
#
#
# Convention : Reuss Voigt Hill
#
# Bulk Modulus (GPa) = 8.12310 33.58183 20.85247
# Shear Modulus (GPa) = 15.01099 27.73542 21.37321
#
# Velocity S-wave (km/s) = 2.71224 3.68672 3.23637
# Velocity P-wave (km/s) = 3.71336 5.88043 4.91775
#
# Compressibility (1/GPa) = 0.12310572
#
# Stress axis : x y z
#
# Youngs Moduli (GPa) = 71.07484 12.83925 48.39553
#
# Poissons Ratio (x) = 0.13683 0.20256
# Poissons Ratio (y) = 0.75743 -0.97206
# Poissons Ratio (z) = 0.29749 -0.25789
#
# Static dielectric constant tensor:
#      x y z
#    x 1.791060 -0.021660 -0.022450 
#    y -0.021660 1.783180 -0.046370 
#    z -0.022450 -0.046370 1.749820 
# 
# From -- ./inp_files/205656.got.cif
#   From: 2010.05.17/outbox.cif.g08.bks.cpg/sg2_103_cif.got.tgz:205656.got - 2010.06.03 11:33:40.
