data_PCOD9006357
_publ_section_title
;
Structure prediction by ZEFSAII (Michael W. Deem and Ramdas Pophale) SiO2 
 PCOD9006357
Probable space group: P -1
;
_chemical_formula_sum "Si O2"
_cell_formula_units_Z 14
_cell_length_a 5.623371
_cell_length_b 11.824347
_cell_length_c 22.801775
_cell_angle_alpha 146.170827
_cell_angle_beta 43.543446
_cell_angle_gamma 128.736588
_cell_volume 580.380936
_symmetry_space_group_name_H-M "P -1"
_symmetry_group_IT_number 2
_symmetry_cell_setting 'triclinic'
loop_
_space_group_symop_operation_xyz
x,y,z
-x,-y,-z
loop_
_atom_site_type_symbol
_atom_site_label
_atom_site_fract_x
_atom_site_fract_y
_atom_site_fract_z
Si Si1 0.230455 0.849380 0.784484
Si Si2 0.573189 0.859851 0.980743
Si Si3 0.518138 0.229165 0.837726
Si Si4 0.015749 0.007047 0.430390
Si Si5 0.801005 0.571614 0.130177
Si Si6 0.326992 0.247654 0.249816
Si Si7 0.559135 0.334806 0.652470
O O1 0.576059 0.738441 0.692996
O O2 0.950437 0.795387 0.864356
O O3 0.043083 0.774007 0.725110
O O4 0.301720 0.090686 0.863387
O O5 0.316965 0.665347 0.948530
O O6 0.500000 0.000000 0.000000
O O7 0.488072 0.025886 0.115999
O O8 0.290216 0.357155 0.888795
O O9 0.833718 0.354448 0.870789
O O10 0.671683 0.064295 0.695056
O O11 0.915254 0.235079 0.530941
O O12 0.000000 0.000000 0.500000
O O13 0.724215 0.832356 0.391036
O O14 0.511793 0.657814 0.262363
O O15 0.491089 0.446154 0.272439
#
# Coordination Sequence:
#
# PCOD9006357 Si02
#       7
#     2   2   2   2   2   2   2
#     4  11  24  43  64  97 137 168 206 272 325 375
#     4  10  22  42  69  96 126 172 227 253 307 391
#     4  11  25  43  65  96 139 163 211 273 329 366
#     4  10  21  38  66  93 124 165 221 260 315 385
#     4  11  22  40  69  93 127 175 217 257 313 386
#     4  11  24  42  69  91 131 170 220 258 315 384
#     4  10  21  38  65  97 117 166 223 264 303 376
#
# _framework density 24.122088999999999
#
# number of rings (size 3 to 8) (size 9 to 14) (size 15 to 20)
#    0.000    1.429    4.286    1.286    6.000    2.286 
#    0.000   11.429    0.000    0.000    0.000    0.000 
#    0.000    0.000    0.000    0.000    0.000    0.000 
#
# Total GULP energy -77944.469585 kJ/mol
# GULP energy per Si atom -5567.462113 kJ/mol
# Density = 2.406719 g / cm^3
# Si number density = 24.122089 Si / 1000 Ang^3
#
#
#
# Elastic Constant Matrix: (Units=GPa)
#
#
# Indices 1 2 3 4 5 6 
#
# 1 166.7061 63.0534 41.6702 20.8771 -9.8557 -18.9293
# 2 63.0534 141.9755 51.9396 31.4625 -1.4819 -5.1351
# 3 41.6702 51.9396 95.6749 6.2772 10.0750 -2.7183
# 4 20.8771 31.4625 6.2772 35.9211 -2.1938 -0.8993
# 5 -9.8557 -1.4819 10.0750 -2.1938 28.1417 4.1473
# 6 -18.9293 -5.1351 -2.7183 -0.8993 4.1473 40.7607
#
#
#
# Elastic Compliance Matrix: (Units=1/GPa)
#
#
# Indices 1 2 3 4 5 6 
#
# 1 0.008229 -0.002085 -0.002541 -0.002250 0.003060 0.003028
# 2 -0.002085 0.011559 -0.004957 -0.007985 0.001049 -0.000126
# 3 -0.002541 -0.004957 0.014708 0.002868 -0.006173 -0.000132
# 4 -0.002250 -0.007985 0.002868 0.035654 0.000713 -0.001145
# 5 0.003060 0.001049 -0.006173 0.000713 0.039346 -0.002846
# 6 0.003028 -0.000126 -0.000132 -0.001145 -0.002846 0.026179
#
#
# Mechanical properties :
#
#
# Convention : Reuss Voigt Hill
#
# Bulk Modulus (GPa) = 65.23156 79.74255 72.48706
# Shear Modulus (GPa) = 31.25959 37.47761 34.36860
#
# Velocity S-wave (km/s) = 3.60375 3.94593 3.77872
# Velocity P-wave (km/s) = 6.66461 7.34099 7.01096
#
# Compressibility (1/GPa) = 0.01533000
#
# Stress axis : x y z
#
# Youngs Moduli (GPa) = 121.52489 86.51322 67.99100
#
# Poissons Ratio (x) = 0.18039 0.17274
# Poissons Ratio (y) = 0.25339 0.33704
# Poissons Ratio (z) = 0.30875 0.42885
#
# Static dielectric constant tensor:
#      x y z
#    x 1.856540 -0.002560 -0.176570 
#    y -0.002560 1.944780 -0.129700 
#    z -0.176570 -0.129700 1.946810 
# 
# From -- ./inp_files/615520.got.cif
#   From: 2010.05.17/outbox.cif.g08.bks.cpg/sg2_308_cif.got.tgz:615520.got - 2010.06.03 11:33:40.
