data_PCOD9006269
_publ_section_title
;
Structure prediction by ZEFSAII (Michael W. Deem and Ramdas Pophale) SiO2 
 PCOD9006269
Probable space group: P -1
;
_chemical_formula_sum "Si O2"
_cell_formula_units_Z 16
_cell_length_a 17.178572
_cell_length_b 12.976930
_cell_length_c 8.399767
_cell_angle_alpha 96.195069
_cell_angle_beta 70.748241
_cell_angle_gamma 154.749278
_cell_volume 664.607616
_symmetry_space_group_name_H-M "P -1"
_symmetry_group_IT_number 2
_symmetry_cell_setting 'triclinic'
loop_
_space_group_symop_operation_xyz
x,y,z
-x,-y,-z
loop_
_atom_site_type_symbol
_atom_site_label
_atom_site_fract_x
_atom_site_fract_y
_atom_site_fract_z
Si Si1 0.571392 0.686673 0.854278
Si Si2 0.891953 0.390479 0.726483
Si Si3 0.090288 0.131965 0.134931
Si Si4 0.333653 0.364179 0.464398
Si Si5 0.103780 0.383495 0.098393
Si Si6 0.663368 0.098399 0.359974
Si Si7 0.526469 0.841145 0.730534
Si Si8 0.640036 0.877951 0.166686
O O1 0.706531 0.761446 0.675463
O O2 0.526951 0.722522 0.756346
O O3 0.332053 0.364595 0.011835
O O4 0.655983 0.848659 0.975529
O O5 0.000000 0.500000 0.500000
O O6 0.855181 0.468727 0.796598
O O7 0.080969 0.573524 0.751936
O O8 0.669545 0.069103 0.803182
O O9 0.125764 0.297743 0.154503
O O10 0.894368 0.873876 0.339812
O O11 0.000000 0.000000 0.000000
O O12 0.500000 0.500000 0.500000
O O13 0.450440 0.598014 0.343902
O O14 0.864556 0.112661 0.142886
O O15 0.280138 0.592654 0.873089
O O16 0.500000 0.000000 0.500000
O O17 0.625215 0.975924 0.514065
O O18 0.611321 0.968843 0.218989
#
# Coordination Sequence:
#
# PCOD9006269 Si02
#       8
#     2   2   2   2   2   2   2   2
#     4  11  25  42  65 102 135 166 221 268 324 397
#     4   9  20  37  63  91 126 163 216 262 314 384
#     4  11  23  40  67  99 126 171 223 263 323 395
#     4  12  22  42  74  91 132 177 213 268 333 381
#     4  10  21  38  65  92 128 166 210 267 322 387
#     4  10  23  42  65  92 132 171 217 266 323 386
#     4  10  22  41  66  94 126 169 219 261 325 382
#     4  11  24  43  62  98 135 167 214 271 326 387
#
# _framework density 24.074355000000001
#
# number of rings (size 3 to 8) (size 9 to 14) (size 15 to 20)
#    0.000    1.500    2.500    1.500    5.250    6.500 
#    2.250    2.500    0.000    0.000    0.000    0.000 
#    0.000    0.000    0.000    0.000    0.000    0.000 
#
# Total GULP energy -89510.460953 kJ/mol
# GULP energy per Si atom -5594.403810 kJ/mol
# Density = 2.401956 g / cm^3
# Si number density = 24.074355 Si / 1000 Ang^3
#
#
#
# Elastic Constant Matrix: (Units=GPa)
#
#
# Indices 1 2 3 4 5 6 
#
# 1 47.2689 13.7303 13.2929 7.4926 -18.8714 -1.8548
# 2 13.7303 105.2084 52.6751 7.3793 -22.0098 -10.9871
# 3 13.2929 52.6751 136.1572 0.4414 -13.0805 5.8561
# 4 7.4926 7.3793 0.4414 54.9228 -1.3082 -10.2943
# 5 -18.8714 -22.0098 -13.0805 -1.3082 40.9266 5.9970
# 6 -1.8548 -10.9871 5.8561 -10.2943 5.9970 24.7096
#
#
#
# Elastic Compliance Matrix: (Units=1/GPa)
#
#
# Indices 1 2 3 4 5 6 
#
# 1 0.026920 -0.000364 -0.001216 -0.003767 0.012052 -0.002347
# 2 -0.000364 0.013737 -0.005079 -0.000534 0.004712 0.005918
# 3 -0.001216 -0.005079 0.009684 -0.000120 0.000505 -0.004817
# 4 -0.003767 -0.000534 -0.000120 0.020349 -0.002677 0.008636
# 5 0.012052 0.004712 0.000505 -0.002677 0.033535 -0.006374
# 6 -0.002347 0.005918 -0.004817 0.008636 -0.006374 0.049212
#
#
# Mechanical properties :
#
#
# Convention : Reuss Voigt Hill
#
# Bulk Modulus (GPa) = 27.01074 49.78124 38.39599
# Shear Modulus (GPa) = 27.91810 38.04087 32.97949
#
# Velocity S-wave (km/s) = 3.40907 3.97941 3.70523
# Velocity P-wave (km/s) = 5.17105 6.46818 5.85564
#
# Compressibility (1/GPa) = 0.03702231
#
# Stress axis : x y z
#
# Youngs Moduli (GPa) = 37.14736 72.79847 103.26125
#
# Poissons Ratio (x) = 0.02648 0.12561
# Poissons Ratio (y) = 0.01351 0.52445
# Poissons Ratio (z) = 0.04519 0.36973
#
# Static dielectric constant tensor:
#      x y z
#    x 1.994490 0.019190 0.005590 
#    y 0.019190 1.938880 0.010240 
#    z 0.005590 0.010240 1.884600 
# 
# From -- ./inp_files/221736.got.cif
#   From: 2010.05.17/outbox.cif.g08.bks.cpg/sg2_111_cif.got.tgz:221736.got - 2010.06.03 11:33:40.
