data_PCOD9006828
_publ_section_title
;
Structure prediction by ZEFSAII (Michael W. Deem and Ramdas Pophale) SiO2 
 PCOD9006828
Probable space group: P -1
;
_chemical_formula_sum "Si O2"
_cell_formula_units_Z 16
_cell_length_a 8.633907
_cell_length_b 12.299441
_cell_length_c 8.864481
_cell_angle_alpha 103.781899
_cell_angle_beta 79.179174
_cell_angle_gamma 129.575297
_cell_volume 703.869486
_symmetry_space_group_name_H-M "P -1"
_symmetry_group_IT_number 2
_symmetry_cell_setting 'triclinic'
loop_
_space_group_symop_operation_xyz
x,y,z
-x,-y,-z
loop_
_atom_site_type_symbol
_atom_site_label
_atom_site_fract_x
_atom_site_fract_y
_atom_site_fract_z
Si Si1 0.372430 0.223262 0.299985
Si Si2 0.224480 0.946306 0.404618
Si Si3 0.218829 0.544830 0.368588
Si Si4 0.787965 0.647098 0.435089
Si Si5 0.780214 0.857189 0.020484
Si Si6 0.408332 0.398046 0.839383
Si Si7 0.381141 0.013974 0.728748
Si Si8 0.788398 0.300592 0.318630
O O1 0.340673 0.310318 0.450128
O O2 0.598833 0.276692 0.269260
O O3 0.237491 0.060378 0.332918
O O4 0.299080 0.225567 0.149896
O O5 0.301206 0.017189 0.580480
O O6 0.007835 0.794607 0.410092
O O7 0.393855 0.934258 0.311180
O O8 0.201273 0.447032 0.476385
O O9 0.413287 0.601006 0.257079
O O10 0.232730 0.669537 0.492016
O O11 0.010908 0.439146 0.280353
O O12 0.679153 0.569431 0.272421
O O13 0.768598 0.758157 0.117110
O O14 0.644919 0.900783 0.117040
O O15 0.000000 0.000000 0.000000
O O16 0.500000 0.500000 0.000000
O O17 0.242919 0.845309 0.738562
#
# Coordination Sequence:
#
# PCOD9006828 Si02
#       8
#     2   2   2   2   2   2   2   2
#     4  11  23  42  69 101 133 178 230 277 335 400
#     4  10  21  38  70 102 129 172 225 276 334 398
#     4  11  24  44  70  97 134 181 226 280 337 404
#     4  12  22  43  74  98 133 177 231 272 337 408
#     4  12  27  45  69 100 142 180 222 284 343 395
#     4  12  28  44  67 103 140 173 225 285 339 401
#     4  10  22  41  68  99 139 170 226 281 337 396
#     4  10  23  42  71  98 134 177 231 274 337 399
#
# _framework density 22.731487000000001
#
# number of rings (size 3 to 8) (size 9 to 14) (size 15 to 20)
#    0.000    1.000    2.500    3.750    7.000    2.000 
#    2.250    0.625    0.000    0.000    0.000    0.000 
#    0.000    0.000    0.000    0.000    0.000    0.000 
#
# Total GULP energy -89607.139758 kJ/mol
# GULP energy per Si atom -5600.446235 kJ/mol
# Density = 2.267975 g / cm^3
# Si number density = 22.731487 Si / 1000 Ang^3
#
#
#
# Elastic Constant Matrix: (Units=GPa)
#
#
# Indices 1 2 3 4 5 6 
#
# 1 51.5645 13.8949 21.6668 -6.3445 10.4568 12.3321
# 2 13.8949 96.5357 17.4476 -13.7606 7.8002 8.8877
# 3 21.6668 17.4476 90.2191 4.1661 2.5748 1.5875
# 4 -6.3445 -13.7606 4.1661 35.6604 -0.9123 -2.6338
# 5 10.4568 7.8002 2.5748 -0.9123 24.8019 3.2031
# 6 12.3321 8.8877 1.5875 -2.6338 3.2031 45.8596
#
#
#
# Elastic Compliance Matrix: (Units=1/GPa)
#
#
# Indices 1 2 3 4 5 6 
#
# 1 0.025827 -0.000772 -0.005892 0.004331 -0.009139 -0.005705
# 2 -0.000772 0.011886 -0.002214 0.004520 -0.002815 -0.001563
# 3 -0.005892 -0.002214 0.013013 -0.003290 0.001545 0.001266
# 4 0.004331 0.004520 -0.003290 0.030894 -0.001766 -0.000029
# 5 -0.009139 -0.002815 0.001545 -0.001766 0.044869 -0.000286
# 6 -0.005705 -0.001563 0.001266 -0.000029 -0.000286 0.023617
#
#
# Mechanical properties :
#
#
# Convention : Reuss Voigt Hill
#
# Bulk Modulus (GPa) = 30.33051 38.25975 34.29513
# Shear Modulus (GPa) = 27.95595 33.61839 30.78717
#
# Velocity S-wave (km/s) = 3.51070 3.84986 3.68419
# Velocity P-wave (km/s) = 5.45942 6.05224 5.76346
#
# Compressibility (1/GPa) = 0.03297010
#
# Stress axis : x y z
#
# Youngs Moduli (GPa) = 38.71862 84.13388 76.84655
#
# Poissons Ratio (x) = 0.06492 0.45280
# Poissons Ratio (y) = 0.02987 0.17016
# Poissons Ratio (z) = 0.22814 0.18629
#
# Static dielectric constant tensor:
#      x y z
#    x 1.835200 0.002110 0.003300 
#    y 0.002110 1.882760 0.001670 
#    z 0.003300 0.001670 1.801290 
# 
# From -- ./inp_files/188464.got.cif
#   From: 2010.05.17/outbox.cif.g08.bks.cpg/sg2_95_cif.got.tgz:188464.got - 2010.06.03 11:33:40.
