data_PCOD9006966
_publ_section_title
;
Structure prediction by ZEFSAII (Michael W. Deem and Ramdas Pophale) SiO2 
 PCOD9006966
Probable space group: P -1
;
_chemical_formula_sum "Si O2"
_cell_formula_units_Z 16
_cell_length_a 15.489264
_cell_length_b 8.986847
_cell_length_c 12.339532
_cell_angle_alpha 141.994919
_cell_angle_beta 57.757209
_cell_angle_gamma 107.297077
_cell_volume 869.196112
_symmetry_space_group_name_H-M "P -1"
_symmetry_group_IT_number 2
_symmetry_cell_setting 'triclinic'
loop_
_space_group_symop_operation_xyz
x,y,z
-x,-y,-z
loop_
_atom_site_type_symbol
_atom_site_label
_atom_site_fract_x
_atom_site_fract_y
_atom_site_fract_z
Si Si1 0.521613 0.260343 0.597686
Si Si2 0.570862 0.116480 0.237625
Si Si3 0.122213 0.940813 0.908576
Si Si4 0.254548 0.602614 0.795611
Si Si5 0.248213 0.352980 0.099048
Si Si6 0.269548 0.588394 0.437028
Si Si7 0.655276 0.828267 0.672825
Si Si8 0.306301 0.632396 0.014668
O O1 0.533795 0.251367 0.454064
O O2 0.631231 0.297633 0.591237
O O3 0.500000 0.000000 0.500000
O O4 0.425404 0.476889 0.824667
O O5 0.650093 0.261063 0.212400
O O6 0.469461 0.114408 0.233213
O O7 0.640564 0.843873 0.063930
O O8 0.155873 0.772060 0.896240
O O9 0.189032 0.781168 0.675651
O O10 0.165916 0.186747 0.034930
O O11 0.000000 0.000000 0.000000
O O12 0.288807 0.337334 0.560933
O O13 0.243831 0.592455 0.925159
O O14 0.220295 0.512376 0.317656
O O15 0.262792 0.519712 0.083603
O O16 0.314463 0.345263 0.341652
O O17 0.691963 0.081416 0.806832
#
# Coordination Sequence:
#
# PCOD9006966 Si02
#       8
#     2   2   2   2   2   2   2   2
#     4  12  21  35  58  86 127 167 200 234 279 337
#     4  11  19  37  55  81 122 164 203 235 272 340
#     4  10  22  45  71  86 105 147 200 256 305 346
#     4  10  21  39  58  84 116 150 199 248 286 345
#     4  11  24  39  57  89 122 154 198 239 290 352
#     4  11  23  40  61  87 121 155 198 244 288 349
#     4  11  21  34  55  85 117 162 195 230 283 338
#     4  12  24  34  58  89 126 162 189 230 286 351
#
# _framework density 18.407813999999998
#
# number of rings (size 3 to 8) (size 9 to 14) (size 15 to 20)
#    0.000    1.000    6.250    3.375    1.750    4.000 
#    0.000    0.625    0.000    3.750    0.000    0.000 
#    0.000    0.000    0.000    0.000    0.000    0.000 
#
# Total GULP energy -89485.635841 kJ/mol
# GULP energy per Si atom -5592.852240 kJ/mol
# Density = 1.836592 g / cm^3
# Si number density = 18.407814 Si / 1000 Ang^3
#
#
#
# Elastic Constant Matrix: (Units=GPa)
#
#
# Indices 1 2 3 4 5 6 
#
# 1 126.5614 53.6552 64.0740 -3.6449 -2.7112 -6.1713
# 2 53.6552 91.5014 48.4671 9.4709 18.3218 -5.0667
# 3 64.0740 48.4671 68.2880 13.0475 23.0328 1.6650
# 4 -3.6449 9.4709 13.0475 27.0131 -5.5309 11.1620
# 5 -2.7112 18.3218 23.0328 -5.5309 34.8983 -4.9843
# 6 -6.1713 -5.0667 1.6650 11.1620 -4.9843 20.6223
#
#
#
# Elastic Compliance Matrix: (Units=1/GPa)
#
#
# Indices 1 2 3 4 5 6 
#
# 1 0.077000 -0.014380 -0.114425 0.089821 0.104041 0.005277
# 2 -0.014380 0.021054 0.009329 -0.020670 -0.020704 0.006300
# 3 -0.114425 0.009329 0.201605 -0.147042 -0.171595 -0.010112
# 4 0.089821 -0.020670 -0.147042 0.164809 0.137824 -0.022221
# 5 0.104041 -0.020704 -0.171595 0.137824 0.184102 0.009799
# 6 0.005277 0.006300 -0.010112 -0.022221 0.009799 0.066831
#
#
# Mechanical properties :
#
#
# Convention : Reuss Voigt Hill
#
# Bulk Modulus (GPa) = 16.47267 68.74928 42.61098
# Shear Modulus (GPa) = 5.13037 24.51704 14.82370
#
# Velocity S-wave (km/s) = 1.67126 3.65346 2.84085
# Velocity P-wave (km/s) = 3.56263 7.43142 5.82745
#
# Compressibility (1/GPa) = 0.06070661
#
# Stress axis : x y z
#
# Youngs Moduli (GPa) = 12.98697 47.49767 4.96019
#
# Poissons Ratio (x) = 0.68302 0.56757
# Poissons Ratio (y) = 0.18675 -0.04627
# Poissons Ratio (z) = 1.48603 -0.44309
#
# Static dielectric constant tensor:
#      x y z
#    x 1.619630 -0.028070 0.020230 
#    y -0.028070 1.631800 0.008250 
#    z 0.020230 0.008250 1.641510 
# 
# From -- ./inp_files/226354.got.cif
#   From: 2010.05.17/outbox.cif.g08.bks.cpg/sg2_114_cif.got.tgz:226354.got - 2010.06.03 11:33:40.
