data_PCOD9006710
_publ_section_title
;
Structure prediction by ZEFSAII (Michael W. Deem and Ramdas Pophale) SiO2 
 PCOD9006710
Probable space group: P -1
;
_chemical_formula_sum "Si O2"
_cell_formula_units_Z 12
_cell_length_a 8.744398
_cell_length_b 8.418114
_cell_length_c 8.871012
_cell_angle_alpha 128.974057
_cell_angle_beta 97.398790
_cell_angle_gamma 77.652280
_cell_volume 495.910265
_symmetry_space_group_name_H-M "P -1"
_symmetry_group_IT_number 2
_symmetry_cell_setting 'triclinic'
loop_
_space_group_symop_operation_xyz
x,y,z
-x,-y,-z
loop_
_atom_site_type_symbol
_atom_site_label
_atom_site_fract_x
_atom_site_fract_y
_atom_site_fract_z
Si Si1 0.891568 0.421432 0.567669
Si Si2 0.916699 0.081347 0.879765
Si Si3 0.649788 0.492283 0.120631
Si Si4 0.914639 0.705811 0.199664
Si Si5 0.371932 0.755838 0.747095
Si Si6 0.305136 0.158294 0.195815
O O1 0.766879 0.300039 0.403835
O O2 0.795276 0.631406 0.755361
O O3 0.000000 0.500000 0.500000
O O4 0.993929 0.296277 0.633835
O O5 0.045545 0.113984 0.794683
O O6 0.800766 0.919535 0.734828
O O7 0.794408 0.297466 0.005569
O O8 0.000000 0.000000 0.000000
O O9 0.736819 0.683782 0.204016
O O10 0.593537 0.438085 0.247270
O O11 0.500000 0.500000 0.000000
O O12 0.000000 0.500000 0.000000
O O13 0.529518 0.788006 0.702773
O O14 0.331811 0.968660 0.967043
#
# Coordination Sequence:
#
# PCOD9006710 Si02
#       6
#     2   2   2   2   2   2
#     4  12  24  44  75 108 144 187 250 299 363 435
#     4  10  22  40  68  97 138 192 236 288 357 428
#     4  10  21  38  68 106 138 181 247 294 362 430
#     4  10  22  42  68 103 136 193 242 293 359 432
#     4  10  23  43  72 107 141 197 234 296 373 433
#     4  10  23  43  70 101 144 191 236 290 368 431
#
# _framework density 24.197925000000001
#
# number of rings (size 3 to 8) (size 9 to 14) (size 15 to 20)
#    0.000    1.667    1.667    2.500    9.333    0.000 
#    0.000    1.667    7.333    0.000    0.000    0.000 
#    0.000    0.000    0.000    0.000    0.000    0.000 
#
# Total GULP energy -67048.884557 kJ/mol
# GULP energy per Si atom -5587.407046 kJ/mol
# Density = 2.414285 g / cm^3
# Si number density = 24.197925 Si / 1000 Ang^3
#
#
#
# Elastic Constant Matrix: (Units=GPa)
#
#
# Indices 1 2 3 4 5 6 
#
# 1 207.7689 91.7989 69.2914 -14.3999 68.4546 44.0350
# 2 91.7989 137.3393 51.6474 -28.0438 15.7648 22.2343
# 3 69.2914 51.6474 114.0041 -13.9084 23.0168 10.0396
# 4 -14.3999 -28.0438 -13.9084 45.3728 -20.3194 2.6337
# 5 68.4546 15.7648 23.0168 -20.3194 46.6565 11.8647
# 6 44.0350 22.2343 10.0396 2.6337 11.8647 49.9456
#
#
#
# Elastic Compliance Matrix: (Units=1/GPa)
#
#
# Indices 1 2 3 4 5 6 
#
# 1 0.021100 -0.011896 -0.002600 -0.015094 -0.031056 -0.004611
# 2 -0.011896 0.017429 -0.002657 0.015342 0.020150 -0.002332
# 3 -0.002600 -0.002657 0.011740 0.000512 -0.001206 0.001375
# 4 -0.015094 0.015342 0.000512 0.043704 0.036939 -0.004705
# 5 -0.031056 0.020150 -0.001206 0.036939 0.077293 -0.001656
# 6 -0.004611 -0.002332 0.001375 -0.004705 -0.001656 0.025491
#
#
# Mechanical properties :
#
#
# Convention : Reuss Voigt Hill
#
# Bulk Modulus (GPa) = 62.64451 98.28754 80.46602
# Shear Modulus (GPa) = 21.15202 44.81994 32.98598
#
# Velocity S-wave (km/s) = 2.95977 4.30841 3.69612
# Velocity P-wave (km/s) = 6.13391 8.09050 7.17918
#
# Compressibility (1/GPa) = 0.01596309
#
# Stress axis : x y z
#
# Youngs Moduli (GPa) = 47.39441 57.37562 85.17582
#
# Poissons Ratio (x) = 0.68254 0.22149
# Poissons Ratio (y) = 0.56380 0.22628
# Poissons Ratio (z) = 0.12324 0.15243
#
# Static dielectric constant tensor:
#      x y z
#    x 2.027790 -0.012080 -0.053410 
#    y -0.012080 2.007740 0.071660 
#    z -0.053410 0.071660 1.985540 
# 
# From -- ./inp_files/160357.got.cif
#   From: 2010.05.17/outbox.cif.g08.bks.cpg/sg2_81_cif.got.tgz:160357.got - 2010.06.03 11:33:40.
