data_PCOD9006178
_publ_section_title
;
Structure prediction by ZEFSAII (Michael W. Deem and Ramdas Pophale) SiO2 
 PCOD9006178
Probable space group: P -1
;
_chemical_formula_sum "Si O2"
_cell_formula_units_Z 16
_cell_length_a 7.875877
_cell_length_b 19.633393
_cell_length_c 11.398564
_cell_angle_alpha 22.287373
_cell_angle_beta 103.395369
_cell_angle_gamma 102.763435
_cell_volume 650.167111
_symmetry_space_group_name_H-M "P -1"
_symmetry_group_IT_number 2
_symmetry_cell_setting 'triclinic'
loop_
_space_group_symop_operation_xyz
x,y,z
-x,-y,-z
loop_
_atom_site_type_symbol
_atom_site_label
_atom_site_fract_x
_atom_site_fract_y
_atom_site_fract_z
Si Si1 0.211205 0.477064 0.050540
Si Si2 0.908241 0.848418 0.103131
Si Si3 0.607730 0.222766 0.242939
Si Si4 0.762598 0.910883 0.220991
Si Si5 0.086612 0.813041 0.842511
Si Si6 0.345299 0.766403 0.168076
Si Si7 0.379979 0.188922 0.048475
Si Si8 0.838477 0.475782 0.297792
O O1 0.261936 0.282347 0.417267
O O2 0.327945 0.626544 0.897377
O O3 0.242540 0.494022 0.890274
O O4 0.000000 0.500000 0.000000
O O5 0.766989 0.895470 0.105241
O O6 0.023091 0.687335 0.427917
O O7 0.814737 0.789468 0.062781
O O8 0.038264 0.017052 0.837128
O O9 0.763921 0.213720 0.188089
O O10 0.437367 0.245407 0.097797
O O11 0.587143 0.026026 0.609876
O O12 0.641295 0.061370 0.018437
O O13 0.185043 0.811085 0.984920
O O14 0.000000 0.000000 0.500000
O O15 0.949416 0.650920 0.069505
O O16 0.294318 0.599238 0.507072
O O17 0.499699 0.724429 0.170971
#
# Coordination Sequence:
#
# PCOD9006178 Si02
#       8
#     2   2   2   2   2   2   2   2
#     4  12  20  38  69  95 129 164 222 279 311 377
#     4  10  21  38  69  97 125 171 212 275 318 378
#     4  10  23  41  66  97 124 178 218 262 320 395
#     4  10  21  38  65 103 122 164 226 269 323 368
#     4  11  22  39  69  95 130 166 216 274 322 373
#     4  10  24  41  60  97 135 169 209 266 326 388
#     4  10  23  44  66  89 137 177 211 256 331 398
#     4  11  23  39  67 103 126 163 223 274 316 373
#
# _framework density 24.609058000000001
#
# number of rings (size 3 to 8) (size 9 to 14) (size 15 to 20)
#    0.000    1.500    2.500    1.875    7.000    0.500 
#    0.000    6.250   13.750    0.000    0.000    0.000 
#    0.000    0.000    0.000    0.000    0.000    0.000 
#
# Total GULP energy -89695.508509 kJ/mol
# GULP energy per Si atom -5605.969282 kJ/mol
# Density = 2.455305 g / cm^3
# Si number density = 24.609058 Si / 1000 Ang^3
#
#
#
# Elastic Constant Matrix: (Units=GPa)
#
#
# Indices 1 2 3 4 5 6 
#
# 1 58.8675 12.3720 4.6558 5.1047 -13.9326 5.4333
# 2 12.3720 157.3389 35.5041 -0.5982 -16.8549 26.0716
# 3 4.6558 35.5041 116.0466 -22.4519 -24.8582 2.1935
# 4 5.1047 -0.5982 -22.4519 41.3081 -7.9874 -7.7616
# 5 -13.9326 -16.8549 -24.8582 -7.9874 34.5926 4.3635
# 6 5.4333 26.0716 2.1935 -7.7616 4.3635 38.5972
#
#
#
# Elastic Compliance Matrix: (Units=1/GPa)
#
#
# Indices 1 2 3 4 5 6 
#
# 1 0.019453 -0.000198 0.001075 -0.000841 0.008800 -0.003829
# 2 -0.000198 0.008119 -0.002072 -0.001568 0.002778 -0.005968
# 3 0.001075 -0.002072 0.013397 0.009478 0.011095 0.001138
# 4 -0.000841 -0.001568 0.009478 0.032973 0.012584 0.005847
# 5 0.008800 0.002778 0.011095 0.012584 0.045487 -0.006358
# 6 -0.003829 -0.005968 0.001138 0.005847 -0.006358 0.032309
#
#
# Mechanical properties :
#
#
# Convention : Reuss Voigt Hill
#
# Bulk Modulus (GPa) = 25.92046 48.59076 37.25561
# Shear Modulus (GPa) = 29.94243 41.54766 35.74504
#
# Velocity S-wave (km/s) = 3.49194 4.11336 3.81532
# Velocity P-wave (km/s) = 5.17822 6.50750 5.88054
#
# Compressibility (1/GPa) = 0.03857957
#
# Stress axis : x y z
#
# Youngs Moduli (GPa) = 51.40607 123.16206 74.64440
#
# Poissons Ratio (x) = 0.02441 -0.08024
# Poissons Ratio (y) = 0.01019 0.15463
# Poissons Ratio (z) = -0.05526 0.25514
#
# Static dielectric constant tensor:
#      x y z
#    x 2.020040 0.014760 0.005810 
#    y 0.014760 1.979230 -0.029830 
#    z 0.005810 -0.029830 1.882670 
# 
# From -- ./inp_files/392602.got.cif
#   From: 2010.05.17/outbox.cif.g08.bks.cpg/sg2_197_cif.got.tgz:392602.got - 2010.06.03 11:33:40.
