data_PCOD9006350
_publ_section_title
;
Structure prediction by ZEFSAII (Michael W. Deem and Ramdas Pophale) SiO2 
 PCOD9006350
Probable space group: P -1
;
_chemical_formula_sum "Si O2"
_cell_formula_units_Z 16
_cell_length_a 9.375709
_cell_length_b 8.475584
_cell_length_c 11.867704
_cell_angle_alpha 88.202369
_cell_angle_beta 53.557477
_cell_angle_gamma 72.708045
_cell_volume 711.300624
_symmetry_space_group_name_H-M "P -1"
_symmetry_group_IT_number 2
_symmetry_cell_setting 'triclinic'
loop_
_space_group_symop_operation_xyz
x,y,z
-x,-y,-z
loop_
_atom_site_type_symbol
_atom_site_label
_atom_site_fract_x
_atom_site_fract_y
_atom_site_fract_z
Si Si1 0.877564 0.393740 0.607136
Si Si2 0.804332 0.490949 0.277684
Si Si3 0.555343 0.424293 0.196838
Si Si4 0.849989 0.409718 0.889092
Si Si5 0.513305 0.857563 0.405005
Si Si6 0.030900 0.984532 0.150732
Si Si7 0.111728 0.815821 0.581081
Si Si8 0.683698 0.042535 0.159057
O O1 0.656860 0.465075 0.676503
O O2 0.866931 0.406943 0.746238
O O3 0.957003 0.215693 0.508999
O O4 0.000000 0.500000 0.500000
O O5 0.691737 0.436563 0.233501
O O6 0.666981 0.678502 0.373279
O O7 0.852357 0.354727 0.357894
O O8 0.999793 0.507353 0.142835
O O9 0.557614 0.233637 0.185348
O O10 0.645755 0.480543 0.042694
O O11 0.918417 0.212560 0.891097
O O12 0.310588 0.843417 0.483483
O O13 0.500000 0.000000 0.500000
O O14 0.580325 0.922672 0.258122
O O15 0.181561 0.036715 0.007538
O O16 0.026416 0.037335 0.280272
O O17 0.824534 0.061634 0.190973
#
# Coordination Sequence:
#
# PCOD9006350 Si02
#       8
#     2   2   2   2   2   2   2   2
#     4  12  27  45  64  95 139 184 218 269 332 400
#     4  12  22  39  69 103 130 165 230 281 333 381
#     4  11  24  43  71  99 130 172 229 280 325 394
#     4  11  24  44  68  96 137 180 215 270 339 399
#     4  12  22  36  63 100 135 169 208 278 336 389
#     4  10  21  41  62  96 131 172 216 270 330 397
#     4  12  24  40  65  96 133 173 221 272 324 398
#     4  10  21  38  65  96 135 165 212 278 341 380
#
# _framework density 22.494005999999999
#
# number of rings (size 3 to 8) (size 9 to 14) (size 15 to 20)
#    0.000    0.750    6.250    1.125    1.750    2.500 
#    0.000    0.000    0.000    3.000    0.000    0.000 
#    0.000    0.000    0.000    0.000    0.000    0.000 
#
# Total GULP energy -89473.067881 kJ/mol
# GULP energy per Si atom -5592.066743 kJ/mol
# Density = 2.244281 g / cm^3
# Si number density = 22.494006 Si / 1000 Ang^3
#
#
#
# Elastic Constant Matrix: (Units=GPa)
#
#
# Indices 1 2 3 4 5 6 
#
# 1 55.1828 0.5920 27.3511 -6.7554 4.0794 19.8973
# 2 0.5920 66.2799 24.8114 -14.6641 -12.9126 19.5937
# 3 27.3511 24.8114 140.5818 -24.3199 -7.9371 15.1267
# 4 -6.7554 -14.6641 -24.3199 38.5240 7.0444 3.1436
# 5 4.0794 -12.9126 -7.9371 7.0444 34.5902 -7.1323
# 6 19.8973 19.5937 15.1267 3.1436 -7.1323 22.5870
#
#
#
# Elastic Compliance Matrix: (Units=1/GPa)
#
#
# Indices 1 2 3 4 5 6 
#
# 1 0.049076 0.023650 -0.002796 0.024769 -0.017236 -0.070765
# 2 0.023650 0.035765 -0.001318 0.022572 -0.005879 -0.055974
# 3 -0.002796 -0.001318 0.009094 0.004949 0.000281 -0.003084
# 4 0.024769 0.022572 0.004949 0.049362 -0.015027 -0.056330
# 5 -0.017236 -0.005879 0.000281 -0.015027 0.038986 0.034497
# 6 -0.070765 -0.055974 -0.003084 -0.056330 0.034497 0.175966
#
#
# Mechanical properties :
#
#
# Convention : Reuss Voigt Hill
#
# Bulk Modulus (GPa) = 7.51836 40.83930 24.17883
# Shear Modulus (GPa) = 13.75469 33.09291 23.42380
#
# Velocity S-wave (km/s) = 2.47550 3.83977 3.23047
# Velocity P-wave (km/s) = 3.39418 6.15252 4.96860
#
# Compressibility (1/GPa) = 0.13300770
#
# Stress axis : x y z
#
# Youngs Moduli (GPa) = 20.37663 27.96001 109.96565
#
# Poissons Ratio (x) = -0.66125 0.30745
# Poissons Ratio (y) = -0.48191 0.14490
# Poissons Ratio (z) = 0.05697 0.03684
#
# Static dielectric constant tensor:
#      x y z
#    x 1.818370 -0.011910 0.044050 
#    y -0.011910 1.848470 0.005590 
#    z 0.044050 0.005590 1.878000 
# 
# From -- ./inp_files/238699.got.cif
#   From: 2010.05.17/outbox.cif.g08.bks.cpg/sg2_120_cif.got.tgz:238699.got - 2010.06.03 11:33:40.
