data_PCOD9006050
_publ_section_title
;
Structure prediction by ZEFSAII (Michael W. Deem and Ramdas Pophale) SiO2 
 PCOD9006050
Probable space group: P -1
;
_chemical_formula_sum "Si O2"
_cell_formula_units_Z 16
_cell_length_a 15.418960
_cell_length_b 9.354857
_cell_length_c 7.861107
_cell_angle_alpha 49.509212
_cell_angle_beta 120.158821
_cell_angle_gamma 127.659635
_cell_volume 672.079716
_symmetry_space_group_name_H-M "P -1"
_symmetry_group_IT_number 2
_symmetry_cell_setting 'triclinic'
loop_
_space_group_symop_operation_xyz
x,y,z
-x,-y,-z
loop_
_atom_site_type_symbol
_atom_site_label
_atom_site_fract_x
_atom_site_fract_y
_atom_site_fract_z
Si Si1 0.682958 0.237578 0.734427
Si Si2 0.815180 0.842786 0.171282
Si Si3 0.637367 0.592047 0.479373
Si Si4 0.738755 0.819435 0.737460
Si Si5 0.111233 0.709711 0.934869
Si Si6 0.960140 0.084084 0.565310
Si Si7 0.514364 0.833268 0.021529
Si Si8 0.380206 0.881309 0.573837
O O1 0.604390 0.351656 0.597526
O O2 0.785850 0.339754 0.881989
O O3 0.624905 0.992101 0.906430
O O4 0.706922 0.264009 0.538345
O O5 0.747168 0.780372 0.976330
O O6 0.865604 0.095189 0.063402
O O7 0.740900 0.723513 0.352802
O O8 0.924631 0.799298 0.311543
O O9 0.677130 0.645367 0.670093
O O10 0.546119 0.667443 0.271054
O O11 0.866576 0.922661 0.718622
O O12 0.672083 0.963872 0.540890
O O13 0.103317 0.791431 0.677263
O O14 0.000000 0.500000 0.000000
O O15 0.000000 0.000000 0.500000
O O16 0.411193 0.763535 0.845334
O O17 0.500000 0.000000 0.000000
O O18 0.500000 0.000000 0.500000
#
# Coordination Sequence:
#
# PCOD9006050 Si02
#       8
#     2   2   2   2   2   2   2   2
#     4  11  24  44  68 102 140 179 237 293 345 421
#     4  11  22  43  66  98 140 183 234 285 347 416
#     4  12  24  44  73 102 140 184 232 292 351 418
#     4  12  21  42  73  96 138 190 227 285 359 413
#     4  11  21  39  68  93 141 188 223 286 349 406
#     4  10  21  38  64  93 132 180 232 280 341 409
#     4  11  22  43  70  99 139 182 229 293 355 408
#     4  10  22  43  69  96 138 185 226 288 354 407
#
# _framework density 23.806701
#
# number of rings (size 3 to 8) (size 9 to 14) (size 15 to 20)
#    0.000    1.000    6.250    1.875    1.750    1.000 
#    2.250    0.625    0.000    0.000    0.000    0.000 
#    0.000    0.000    0.000    0.000    0.000    0.000 
#
# Total GULP energy -89314.445515 kJ/mol
# GULP energy per Si atom -5582.152845 kJ/mol
# Density = 2.375252 g / cm^3
# Si number density = 23.806701 Si / 1000 Ang^3
#
#
#
# Elastic Constant Matrix: (Units=GPa)
#
#
# Indices 1 2 3 4 5 6 
#
# 1 98.8100 18.3155 14.7151 7.8590 4.2862 9.5566
# 2 18.3155 78.8720 46.0009 7.3703 -9.4052 -2.2341
# 3 14.7151 46.0009 167.7384 29.1678 17.7546 -1.6820
# 4 7.8590 7.3703 29.1678 34.5531 0.9004 6.7083
# 5 4.2862 -9.4052 17.7546 0.9004 41.9150 2.1231
# 6 9.5566 -2.2341 -1.6820 6.7083 2.1231 39.9060
#
#
#
# Elastic Compliance Matrix: (Units=1/GPa)
#
#
# Indices 1 2 3 4 5 6 
#
# 1 0.011045 -0.002829 0.000241 -0.001595 -0.001709 -0.002434
# 2 -0.002829 0.017094 -0.005294 0.001130 0.006298 0.000886
# 3 0.000241 -0.005294 0.009112 -0.006766 -0.005000 0.001433
# 4 -0.001595 0.001130 -0.006766 0.035869 0.002817 -0.006020
# 5 -0.001709 0.006298 -0.005000 0.002817 0.027573 -0.001389
# 6 -0.002434 0.000886 0.001433 -0.006020 -0.001389 0.026838
#
#
# Mechanical properties :
#
#
# Convention : Reuss Voigt Hill
#
# Bulk Modulus (GPa) = 46.53945 55.94261 51.24103
# Shear Modulus (GPa) = 33.23166 41.03407 37.13286
#
# Velocity S-wave (km/s) = 3.74022 4.15617 3.95367
# Velocity P-wave (km/s) = 6.18415 6.82506 6.51249
#
# Compressibility (1/GPa) = 0.02148715
#
# Stress axis : x y z
#
# Youngs Moduli (GPa) = 90.53556 58.50058 109.74021
#
# Poissons Ratio (x) = 0.16549 -0.02640
# Poissons Ratio (y) = 0.25612 0.58096
# Poissons Ratio (z) = -0.02178 0.30970
#
# Static dielectric constant tensor:
#      x y z
#    x 2.032980 0.022430 -0.032410 
#    y 0.022430 1.926130 -0.015140 
#    z -0.032410 -0.015140 2.034550 
# 
# From -- ./inp_files/294579.got.cif
#   From: 2010.05.17/outbox.cif.g08.bks.cpg/sg2_148_cif.got.tgz:294579.got - 2010.06.03 11:33:40.
