data_PCOD9006693
_publ_section_title
;
Structure prediction by ZEFSAII (Michael W. Deem and Ramdas Pophale) SiO2 
 PCOD9006693
Probable space group: P -1
;
_chemical_formula_sum "Si O2"
_cell_formula_units_Z 16
_cell_length_a 23.185837
_cell_length_b 17.247847
_cell_length_c 11.334572
_cell_angle_alpha 27.561683
_cell_angle_beta 28.742260
_cell_angle_gamma 21.157701
_cell_volume 722.222983
_symmetry_space_group_name_H-M "P -1"
_symmetry_group_IT_number 2
_symmetry_cell_setting 'triclinic'
loop_
_space_group_symop_operation_xyz
x,y,z
-x,-y,-z
loop_
_atom_site_type_symbol
_atom_site_label
_atom_site_fract_x
_atom_site_fract_y
_atom_site_fract_z
Si Si1 0.866169 0.038844 0.447159
Si Si2 0.062629 0.760042 0.261048
Si Si3 0.453412 0.777958 0.338624
Si Si4 0.144547 0.307598 0.414038
Si Si5 0.059188 0.306151 0.057203
Si Si6 0.817615 0.392765 0.196707
Si Si7 0.668877 0.751625 0.474602
Si Si8 0.501019 0.929414 0.291450
O O1 0.705386 0.183314 0.455076
O O2 0.910876 0.174398 0.237855
O O3 0.829863 0.944419 0.743417
O O4 0.022239 0.813903 0.398836
O O5 0.246823 0.493287 0.281201
O O6 0.928914 0.766958 0.432356
O O7 0.000000 0.000000 0.000000
O O8 0.628453 0.510270 0.374060
O O9 0.470675 0.836659 0.359897
O O10 0.449233 0.942689 0.033922
O O11 0.000000 0.500000 0.500000
O O12 0.317494 0.108680 0.438474
O O13 0.190060 0.416744 0.101653
O O14 0.905409 0.348532 0.221775
O O15 0.169862 0.282106 0.787175
O O16 0.000000 0.500000 0.000000
O O17 0.622880 0.762137 0.404787
O O18 0.500000 0.000000 0.500000
#
# Coordination Sequence:
#
# PCOD9006693 Si02
#       8
#     2   2   2   2   2   2   2   2
#     4  12  23  43  68 102 142 179 241 303 362 430
#     4  12  26  47  71 102 142 191 240 299 366 439
#     4  10  21  39  67 103 138 179 239 293 354 424
#     4  11  21  41  66  93 133 188 237 278 351 436
#     4  12  23  45  73  99 139 189 246 298 363 433
#     4  11  24  39  66 103 138 182 235 300 353 429
#     4  12  25  45  74 108 148 189 243 303 368 432
#     4  10  21  38  68 100 131 183 238 289 350 426
#
# _framework density 22.153822000000002
#
# number of rings (size 3 to 8) (size 9 to 14) (size 15 to 20)
#    0.000    0.750    5.000    3.000    1.750    1.000 
#    2.250    0.625    0.000    0.000    0.000    0.000 
#    0.000    0.000    0.000    0.000    0.000    0.000 
#
# Total GULP energy -89203.856392 kJ/mol
# GULP energy per Si atom -5575.241024 kJ/mol
# Density = 2.210340 g / cm^3
# Si number density = 22.153822 Si / 1000 Ang^3
#
#
#
# Elastic Constant Matrix: (Units=GPa)
#
#
# Indices 1 2 3 4 5 6 
#
# 1 121.5228 32.1111 19.8770 -15.0814 -20.4267 -9.8702
# 2 32.1111 112.1850 25.4458 -0.9935 -6.7975 -6.5339
# 3 19.8770 25.4458 62.0243 -18.0449 -4.5305 -1.0033
# 4 -15.0814 -0.9935 -18.0449 32.0208 3.9595 3.6370
# 5 -20.4267 -6.7975 -4.5305 3.9595 33.6565 -7.3806
# 6 -9.8702 -6.5339 -1.0033 3.6370 -7.3806 43.3997
#
#
#
# Elastic Compliance Matrix: (Units=1/GPa)
#
#
# Indices 1 2 3 4 5 6 
#
# 1 0.010658 -0.002250 -0.001045 0.003285 0.006106 0.002824
# 2 -0.002250 0.010718 -0.004639 -0.003620 0.000920 0.001455
# 3 -0.001045 -0.004639 0.021754 0.011836 -0.000361 -0.001487
# 4 0.003285 -0.003620 0.011836 0.040031 -0.002581 -0.003318
# 5 0.006106 0.000920 -0.000361 -0.002581 0.035565 0.007783
# 6 0.002824 0.001455 -0.001487 -0.003318 0.007783 0.025470
#
#
# Mechanical properties :
#
#
# Convention : Reuss Voigt Hill
#
# Bulk Modulus (GPa) = 36.68034 50.06666 43.37350
# Shear Modulus (GPa) = 29.55924 36.36861 32.96393
#
# Velocity S-wave (km/s) = 3.65673 4.05611 3.86159
# Velocity P-wave (km/s) = 5.86703 6.67718 6.28517
#
# Compressibility (1/GPa) = 0.02726256
#
# Stress axis : x y z
#
# Youngs Moduli (GPa) = 93.82771 93.29725 45.96885
#
# Poissons Ratio (x) = 0.20992 0.04804
# Poissons Ratio (y) = 0.21112 0.21324
# Poissons Ratio (z) = 0.09805 0.43278
#
# Static dielectric constant tensor:
#      x y z
#    x 1.875550 0.023190 0.026640 
#    y 0.023190 1.973640 0.015330 
#    z 0.026640 0.015330 1.841960 
# 
# From -- ./inp_files/217008.got.cif
#   From: 2010.05.17/outbox.cif.g08.bks.cpg/sg2_109_cif.got.tgz:217008.got - 2010.06.03 11:33:40.
