data_PCOD9006582
_publ_section_title
;
Structure prediction by ZEFSAII (Michael W. Deem and Ramdas Pophale) SiO2 
 PCOD9006582
Probable space group: P -1
;
_chemical_formula_sum "Si O2"
_cell_formula_units_Z 14
_cell_length_a 14.201074
_cell_length_b 11.087565
_cell_length_c 11.042595
_cell_angle_alpha 106.167443
_cell_angle_beta 42.196167
_cell_angle_gamma 136.595214
_cell_volume 663.277609
_symmetry_space_group_name_H-M "P -1"
_symmetry_group_IT_number 2
_symmetry_cell_setting 'triclinic'
loop_
_space_group_symop_operation_xyz
x,y,z
-x,-y,-z
loop_
_atom_site_type_symbol
_atom_site_label
_atom_site_fract_x
_atom_site_fract_y
_atom_site_fract_z
Si Si1 0.490169 0.407703 0.862037
Si Si2 0.374077 0.437101 0.727936
Si Si3 0.338276 0.879613 0.893570
Si Si4 0.342668 0.982719 0.570753
Si Si5 0.267136 0.641413 0.270795
Si Si6 0.831591 0.482261 0.931936
Si Si7 0.849647 0.018892 0.043460
O O1 0.507070 0.488572 0.738453
O O2 0.677054 0.429103 0.707225
O O3 0.241187 0.152804 0.009669
O O4 0.500000 0.500000 0.000000
O O5 0.500000 0.500000 0.500000
O O6 0.308395 0.533982 0.844198
O O7 0.112147 0.190521 0.889329
O O8 0.168410 0.662877 0.067864
O O9 0.186413 0.870936 0.957679
O O10 0.512905 0.913401 0.661054
O O11 0.531915 0.106854 0.839141
O O12 0.316141 0.085748 0.708256
O O13 0.500000 0.000000 0.500000
O O14 0.085640 0.731516 0.737190
O O15 0.000000 0.500000 0.500000
O O16 0.293356 0.603173 0.102273
#
# Coordination Sequence:
#
# PCOD9006582 Si02
#       7
#     2   2   2   2   2   2   2
#     4  11  23  45  70  90 137 181 220 274 339 411
#     4  11  25  44  65 100 132 178 231 278 336 401
#     4  10  21  38  67 100 134 170 218 285 341 395
#     4   9  19  36  59  97 128 172 218 268 341 398
#     4  11  22  42  68 100 133 178 225 273 348 405
#     4  11  22  40  66  98 139 171 228 281 334 406
#     4   9  22  41  66  95 132 172 225 273 339 399
#
# _framework density 21.107302000000001
#
# number of rings (size 3 to 8) (size 9 to 14) (size 15 to 20)
#    0.000    1.714    2.857    0.857    2.000    6.286 
#    2.571    0.714    0.000    0.000    0.000    0.000 
#    0.000    0.000    0.000    0.000    0.000    0.000 
#
# Total GULP energy -78010.970426 kJ/mol
# GULP energy per Si atom -5572.212173 kJ/mol
# Density = 2.105926 g / cm^3
# Si number density = 21.107302 Si / 1000 Ang^3
#
#
#
# Elastic Constant Matrix: (Units=GPa)
#
#
# Indices 1 2 3 4 5 6 
#
# 1 107.7599 55.9842 24.4299 0.2996 -4.8693 4.9956
# 2 55.9842 123.5901 27.3431 15.9311 3.5250 15.2877
# 3 24.4299 27.3431 69.4976 19.0727 1.1495 9.3309
# 4 0.2996 15.9311 19.0727 22.5500 0.4844 9.0111
# 5 -4.8693 3.5250 1.1495 0.4844 29.0814 0.4637
# 6 4.9956 15.2877 9.3309 9.0111 0.4637 40.7556
#
#
#
# Elastic Compliance Matrix: (Units=1/GPa)
#
#
# Indices 1 2 3 4 5 6 
#
# 1 0.013739 -0.006332 -0.004619 0.008168 0.003116 -0.000093
# 2 -0.006332 0.012308 -0.000230 -0.007528 -0.002384 -0.002097
# 3 -0.004619 -0.000230 0.020918 -0.017324 -0.001279 -0.000292
# 4 0.008168 -0.007528 -0.017324 0.067857 0.001982 -0.009237
# 5 0.003116 -0.002384 -0.001279 0.001982 0.035215 -0.000034
# 6 -0.000093 -0.002097 -0.000292 -0.009237 -0.000034 0.027444
#
#
# Mechanical properties :
#
#
# Convention : Reuss Voigt Hill
#
# Bulk Modulus (GPa) = 40.64438 57.37356 49.00897
# Shear Modulus (GPa) = 24.03347 31.35008 27.69177
#
# Velocity S-wave (km/s) = 3.37802 3.85810 3.62602
# Velocity P-wave (km/s) = 5.87474 6.86203 6.38749
#
# Compressibility (1/GPa) = 0.02460365
#
# Stress axis : x y z
#
# Youngs Moduli (GPa) = 72.78546 81.24762 47.80605
#
# Poissons Ratio (x) = 0.51445 0.22081
# Poissons Ratio (y) = 0.46087 0.01099
# Poissons Ratio (z) = 0.33619 0.01867
#
# Static dielectric constant tensor:
#      x y z
#    x 1.819450 -0.018230 0.041510 
#    y -0.018230 1.744100 0.050430 
#    z 0.041510 0.050430 1.798030 
# 
# From -- ./inp_files/451504.got.cif
#   From: 2010.05.17/outbox.cif.g08.bks.cpg/sg2_226_cif.got.tgz:451504.got - 2010.06.03 11:33:40.
