data_PCOD9006405
_publ_section_title
;
Structure prediction by ZEFSAII (Michael W. Deem and Ramdas Pophale) SiO2 
 PCOD9006405
Probable space group: P -1
;
_chemical_formula_sum "Si O2"
_cell_formula_units_Z 16
_cell_length_a 9.043292
_cell_length_b 9.714187
_cell_length_c 13.580458
_cell_angle_alpha 132.762665
_cell_angle_beta 90.916935
_cell_angle_gamma 116.723085
_cell_volume 681.975241
_symmetry_space_group_name_H-M "P -1"
_symmetry_group_IT_number 2
_symmetry_cell_setting 'triclinic'
loop_
_space_group_symop_operation_xyz
x,y,z
-x,-y,-z
loop_
_atom_site_type_symbol
_atom_site_label
_atom_site_fract_x
_atom_site_fract_y
_atom_site_fract_z
Si Si1 0.298709 0.999957 0.895441
Si Si2 0.349468 0.474683 0.608504
Si Si3 0.383038 0.115289 0.336381
Si Si4 0.937816 0.155409 0.380344
Si Si5 0.405342 0.012325 0.599541
Si Si6 0.953602 0.720656 0.145867
Si Si7 0.623643 0.533108 0.921812
Si Si8 0.276495 0.672131 0.889003
O O1 0.306133 0.229724 0.021028
O O2 0.169544 0.871654 0.734561
O O3 0.489582 0.286197 0.744033
O O4 0.226383 0.815031 0.894019
O O5 0.368023 0.265814 0.493873
O O6 0.528636 0.710304 0.671607
O O7 0.322085 0.542988 0.747931
O O8 0.158977 0.378070 0.498258
O O9 0.516560 0.056854 0.346210
O O10 0.172618 0.874435 0.197688
O O11 0.819908 0.149493 0.466653
O O12 0.925869 0.919014 0.270045
O O13 0.500000 0.000000 0.500000
O O14 0.809349 0.576571 0.984762
O O15 0.883674 0.533284 0.141423
O O16 0.524720 0.131179 0.955852
O O17 0.500000 0.500000 0.000000
#
# Coordination Sequence:
#
# PCOD9006405 Si02
#       8
#     2   2   2   2   2   2   2   2
#     4  10  21  38  66 100 130 167 242 277 321 402
#     4  10  24  42  70  90 143 182 224 276 354 410
#     4  10  25  43  59 102 140 178 214 288 351 403
#     4  10  21  44  69  94 130 195 227 263 345 431
#     4  12  25  37  65 104 141 166 227 289 335 397
#     4  10  21  41  75  96 130 177 239 272 336 411
#     4  11  20  43  70  95 133 192 227 268 340 430
#     4  11  21  35  68 107 125 169 233 293 320 400
#
# _framework density 23.461261
#
# number of rings (size 3 to 8) (size 9 to 14) (size 15 to 20)
#    0.000    1.500    3.750    0.750    5.250    3.500 
#    0.000    0.000    0.000    3.750    0.000    0.000 
#    0.000    0.000    0.000    0.000    0.000    0.000 
#
# Total GULP energy -89552.160389 kJ/mol
# GULP energy per Si atom -5597.010024 kJ/mol
# Density = 2.340786 g / cm^3
# Si number density = 23.461261 Si / 1000 Ang^3
#
#
#
# Elastic Constant Matrix: (Units=GPa)
#
#
# Indices 1 2 3 4 5 6 
#
# 1 100.3873 47.0153 22.5393 0.4733 6.2263 -0.0700
# 2 47.0153 152.2622 28.2293 13.1569 20.0416 -6.8552
# 3 22.5393 28.2293 82.2312 -0.7281 -1.9593 3.0025
# 4 0.4733 13.1569 -0.7281 20.8663 7.2734 5.2466
# 5 6.2263 20.0416 -1.9593 7.2734 34.4359 11.0873
# 6 -0.0700 -6.8552 3.0025 5.2466 11.0873 45.1685
#
#
#
# Elastic Compliance Matrix: (Units=1/GPa)
#
#
# Indices 1 2 3 4 5 6 
#
# 1 0.012085 -0.003474 -0.002097 0.002168 -0.000587 -0.000477
# 2 -0.003474 0.009357 -0.002547 -0.005022 -0.004994 0.003393
# 3 -0.002097 -0.002547 0.013778 0.001645 0.003019 -0.002238
# 4 0.002168 -0.005022 0.001645 0.054996 -0.007226 -0.005482
# 5 -0.000587 -0.004994 0.003019 -0.007226 0.036688 -0.009126
# 6 -0.000477 0.003393 -0.002238 -0.005482 -0.009126 0.025679
#
#
# Mechanical properties :
#
#
# Convention : Reuss Voigt Hill
#
# Bulk Modulus (GPa) = 52.67906 58.93872 55.80889
# Shear Modulus (GPa) = 28.54702 35.90060 32.22381
#
# Velocity S-wave (km/s) = 3.49201 3.91603 3.71008
# Velocity P-wave (km/s) = 6.22585 6.75450 6.49556
#
# Compressibility (1/GPa) = 0.01898288
#
# Stress axis : x y z
#
# Youngs Moduli (GPa) = 82.74482 106.87427 72.57811
#
# Poissons Ratio (x) = 0.37133 0.15221
# Poissons Ratio (y) = 0.28749 0.18487
# Poissons Ratio (z) = 0.17353 0.27222
#
# Static dielectric constant tensor:
#      x y z
#    x 1.907780 -0.001870 -0.020970 
#    y -0.001870 1.869190 -0.013810 
#    z -0.020970 -0.013810 1.921560 
# 
# From -- ./inp_files/496792.got.cif
#   From: 2010.05.17/outbox.cif.g08.bks.cpg/sg2_249_cif.got.tgz:496792.got - 2010.06.03 11:33:40.
