data_PCOD9006451
_publ_section_title
;
Structure prediction by ZEFSAII (Michael W. Deem and Ramdas Pophale) SiO2 
 PCOD9006451
Probable space group: P -1
;
_chemical_formula_sum "Si O2"
_cell_formula_units_Z 14
_cell_length_a 15.217502
_cell_length_b 14.759875
_cell_length_c 14.600424
_cell_angle_alpha 37.405076
_cell_angle_beta 159.726268
_cell_angle_gamma 132.321339
_cell_volume 648.781532
_symmetry_space_group_name_H-M "P -1"
_symmetry_group_IT_number 2
_symmetry_cell_setting 'triclinic'
loop_
_space_group_symop_operation_xyz
x,y,z
-x,-y,-z
loop_
_atom_site_type_symbol
_atom_site_label
_atom_site_fract_x
_atom_site_fract_y
_atom_site_fract_z
Si Si1 0.590679 0.065496 0.222779
Si Si2 0.783042 0.722606 0.785564
Si Si3 0.556820 0.815426 0.687745
Si Si4 0.751189 0.371665 0.397550
Si Si5 0.200748 0.314085 0.773987
Si Si6 0.644116 0.363992 0.675864
Si Si7 0.145188 0.988150 0.748917
O O1 0.671832 0.899618 0.490624
O O2 0.395631 0.207918 0.976071
O O3 0.878284 0.083509 0.469903
O O4 0.397263 0.048827 0.962954
O O5 0.734602 0.751082 0.823579
O O6 0.583253 0.637419 0.618435
O O7 0.086570 0.634518 0.115542
O O8 0.300874 0.754155 0.484221
O O9 0.500000 0.000000 0.500000
O O10 0.675680 0.740882 0.960712
O O11 0.861587 0.499233 0.452875
O O12 0.921178 0.286556 0.543222
O O13 0.500000 0.500000 0.000000
O O14 0.500000 0.500000 0.500000
O O15 0.745736 0.194642 0.964255
O O16 0.000000 0.000000 0.500000
#
# Coordination Sequence:
#
# PCOD9006451 Si02
#       7
#     2   2   2   2   2   2   2
#     4  10  21  38  66  89 123 165 207 266 326 385
#     4  10  22  39  63  98 125 164 214 263 323 394
#     4  11  22  37  63  95 132 165 217 260 317 389
#     4   9  22  39  56  81 132 167 211 260 308 377
#     4  10  21  40  60  88 127 176 208 258 329 373
#     4  10  22  43  65  88 131 167 207 274 340 379
#     4  10  22  41  63  93 121 156 220 273 321 393
#
# _framework density 21.578913
#
# number of rings (size 3 to 8) (size 9 to 14) (size 15 to 20)
#    0.000    2.000    1.429    0.857    6.000    1.714 
#    2.571    0.000    0.000    0.000    0.000    0.000 
#    0.000    0.000    0.000    0.000    0.000    0.000 
#
# Total GULP energy -77937.680979 kJ/mol
# GULP energy per Si atom -5566.977213 kJ/mol
# Density = 2.152980 g / cm^3
# Si number density = 21.578913 Si / 1000 Ang^3
#
#
#
# Elastic Constant Matrix: (Units=GPa)
#
#
# Indices 1 2 3 4 5 6 
#
# 1 106.2484 52.0830 42.3271 -8.6963 21.3189 -21.7788
# 2 52.0830 88.7842 50.0331 -5.3764 17.2591 -5.4645
# 3 42.3271 50.0331 99.2608 1.6566 28.7061 -7.1971
# 4 -8.6963 -5.3764 1.6566 31.7375 -11.6607 6.4274
# 5 21.3189 17.2591 28.7061 -11.6607 50.7329 -0.1205
# 6 -21.7788 -5.4645 -7.1971 6.4274 -0.1205 35.5266
#
#
#
# Elastic Compliance Matrix: (Units=1/GPa)
#
#
# Indices 1 2 3 4 5 6 
#
# 1 0.016025 -0.007335 -0.001609 0.000369 -0.003224 0.008292
# 2 -0.007335 0.019400 -0.007319 0.002833 0.001266 -0.003503
# 3 -0.001609 -0.007319 0.016973 -0.005909 -0.007790 0.002369
# 4 0.000369 0.002833 -0.005909 0.037899 0.010918 -0.007355
# 5 -0.003224 0.001266 -0.007790 0.010918 0.027540 -0.005242
# 6 0.008292 -0.003503 0.002369 -0.007355 -0.005242 0.034485
#
#
# Mechanical properties :
#
#
# Convention : Reuss Voigt Hill
#
# Bulk Modulus (GPa) = 50.31780 64.79775 57.55777
# Shear Modulus (GPa) = 26.11368 33.58940 29.85154
#
# Velocity S-wave (km/s) = 3.48249 3.94964 3.72340
# Velocity P-wave (km/s) = 6.28800 7.13393 6.72428
#
# Compressibility (1/GPa) = 0.01987368
#
# Stress axis : x y z
#
# Youngs Moduli (GPa) = 62.40211 51.54635 58.91766
#
# Poissons Ratio (x) = 0.37807 0.09480
# Poissons Ratio (y) = 0.45770 0.43119
# Poissons Ratio (z) = 0.10040 0.37725
#
# Static dielectric constant tensor:
#      x y z
#    x 1.812940 0.053260 0.076340 
#    y 0.053260 2.170090 0.391500 
#    z 0.076340 0.391500 2.136690 
# 
# From -- ./inp_files/44715.got.cif
#   From: 2010.05.17/outbox.cif.g08.bks.cpg/sg2_23_cif.got.tgz:44715.got - 2010.06.03 11:33:40.
