data_PCOD9006148
_publ_section_title
;
Structure prediction by ZEFSAII (Michael W. Deem and Ramdas Pophale) SiO2 
 PCOD9006148
Probable space group: P -1
;
_chemical_formula_sum "Si O2"
_cell_formula_units_Z 16
_cell_length_a 9.613565
_cell_length_b 10.889887
_cell_length_c 13.332362
_cell_angle_alpha 143.311834
_cell_angle_beta 84.494334
_cell_angle_gamma 115.081671
_cell_volume 674.148929
_symmetry_space_group_name_H-M "P -1"
_symmetry_group_IT_number 2
_symmetry_cell_setting 'triclinic'
loop_
_space_group_symop_operation_xyz
x,y,z
-x,-y,-z
loop_
_atom_site_type_symbol
_atom_site_label
_atom_site_fract_x
_atom_site_fract_y
_atom_site_fract_z
Si Si1 0.562750 0.317448 0.365081
Si Si2 0.401752 0.726388 0.904029
Si Si3 0.910178 0.786435 0.644874
Si Si4 0.179735 0.159296 0.537316
Si Si5 0.896358 0.197543 0.039966
Si Si6 0.571318 0.986230 0.625150
Si Si7 0.716880 0.424161 0.770760
Si Si8 0.762296 0.951256 0.100404
O O1 0.500000 0.500000 0.500000
O O2 0.547840 0.254439 0.205699
O O3 0.459417 0.110078 0.322567
O O4 0.766257 0.497308 0.496095
O O5 0.313466 0.438360 0.754866
O O6 0.252773 0.767698 0.949889
O O7 0.579932 0.903860 0.067767
O O8 0.864516 0.798717 0.542842
O O9 0.107819 0.891897 0.715398
O O10 0.884690 0.976577 0.832944
O O11 0.276618 0.027129 0.437023
O O12 0.000000 0.000000 0.500000
O O13 0.081821 0.455477 0.175304
O O14 0.872895 0.107787 0.097582
O O15 0.399582 0.779799 0.440374
O O16 0.633628 0.268543 0.778081
O O17 0.717948 0.671217 0.921303
#
# Coordination Sequence:
#
# PCOD9006148 Si02
#       8
#     2   2   2   2   2   2   2   2
#     4  11  19  39  69  99 125 176 228 267 321 391
#     4  11  23  40  70 100 133 171 222 273 327 389
#     4  10  22  40  72  97 129 173 222 267 334 387
#     4  11  23  43  68  96 132 173 222 276 322 390
#     4  11  22  40  69  99 138 169 218 270 336 391
#     4  11  20  38  68  90 135 170 228 264 328 391
#     4  10  21  38  64  99 123 183 217 273 325 392
#     4  11  21  41  66  98 137 172 216 271 331 392
#
# _framework density 23.733626000000001
#
# number of rings (size 3 to 8) (size 9 to 14) (size 15 to 20)
#    0.000    1.250    3.750    4.875    0.000    0.000 
#    0.000   14.375    0.000    0.000    0.000    0.000 
#    0.000    0.000    0.000    0.000    0.000    0.000 
#
# Total GULP energy -89559.946370 kJ/mol
# GULP energy per Si atom -5597.496648 kJ/mol
# Density = 2.367961 g / cm^3
# Si number density = 23.733626 Si / 1000 Ang^3
#
#
#
# Elastic Constant Matrix: (Units=GPa)
#
#
# Indices 1 2 3 4 5 6 
#
# 1 134.8687 17.4989 34.1580 -0.4197 19.6259 17.6014
# 2 17.4989 106.2899 18.7333 26.5581 -0.6015 7.5913
# 3 34.1580 18.7333 71.4152 10.7538 24.1156 14.0332
# 4 -0.4197 26.5581 10.7538 35.0529 5.5537 -0.6636
# 5 19.6259 -0.6015 24.1156 5.5537 47.5123 8.4793
# 6 17.6014 7.5913 14.0332 -0.6636 8.4793 39.5468
#
#
#
# Elastic Compliance Matrix: (Units=1/GPa)
#
#
# Indices 1 2 3 4 5 6 
#
# 1 0.008981 -0.001376 -0.003203 0.002410 -0.002003 -0.002126
# 2 -0.001376 0.012476 -0.001867 -0.009428 0.003124 -0.001948
# 3 -0.003203 -0.001867 0.019893 -0.003573 -0.007723 -0.003679
# 4 0.002410 -0.009428 -0.003573 0.037550 -0.004326 0.003563
# 5 -0.002003 0.003124 -0.007723 -0.004326 0.026839 -0.002794
# 6 -0.002126 -0.001948 -0.003679 0.003563 -0.002794 0.028571
#
#
# Mechanical properties :
#
#
# Convention : Reuss Voigt Hill
#
# Bulk Modulus (GPa) = 35.13803 50.37270 42.75536
# Shear Modulus (GPa) = 31.91044 40.56798 36.23921
#
# Velocity S-wave (km/s) = 3.67075 4.13886 3.91181
# Velocity P-wave (km/s) = 5.72741 6.64157 6.20136
#
# Compressibility (1/GPa) = 0.02845920
#
# Stress axis : x y z
#
# Youngs Moduli (GPa) = 111.34707 80.15159 50.26772
#
# Poissons Ratio (x) = 0.11025 0.16102
# Poissons Ratio (y) = 0.15316 0.09385
# Poissons Ratio (z) = 0.35667 0.14965
#
# Static dielectric constant tensor:
#      x y z
#    x 1.928830 -0.004370 -0.012820 
#    y -0.004370 1.903290 0.030040 
#    z -0.012820 0.030040 1.971100 
# 
# From -- ./inp_files/500983.got.cif
#   From: 2010.05.17/outbox.cif.g08.bks.cpg/sg2_251_cif.got.tgz:500983.got - 2010.06.03 11:33:40.
