data_PCOD9006866
_publ_section_title
;
Structure prediction by ZEFSAII (Michael W. Deem and Ramdas Pophale) SiO2 
 PCOD9006866
Probable space group: P -1
;
_chemical_formula_sum "Si O2"
_cell_formula_units_Z 16
_cell_length_a 11.450321
_cell_length_b 11.926324
_cell_length_c 8.700383
_cell_angle_alpha 54.901654
_cell_angle_beta 49.772563
_cell_angle_gamma 77.292089
_cell_volume 720.058113
_symmetry_space_group_name_H-M "P -1"
_symmetry_group_IT_number 2
_symmetry_cell_setting 'triclinic'
loop_
_space_group_symop_operation_xyz
x,y,z
-x,-y,-z
loop_
_atom_site_type_symbol
_atom_site_label
_atom_site_fract_x
_atom_site_fract_y
_atom_site_fract_z
Si Si1 0.048575 0.633129 0.671514
Si Si2 0.367182 0.691285 0.516410
Si Si3 0.300795 0.511180 0.998294
Si Si4 0.097994 0.137822 0.226094
Si Si5 0.575203 0.750098 0.996301
Si Si6 0.593102 0.010162 0.575570
Si Si7 0.937830 0.105380 0.077953
Si Si8 0.139227 0.642527 0.254628
O O1 0.187485 0.615637 0.678807
O O2 0.139075 0.693890 0.389729
O O3 0.973355 0.743731 0.732340
O O4 0.887142 0.516889 0.861959
O O5 0.398972 0.604168 0.706551
O O6 0.398565 0.851896 0.431015
O O7 0.460255 0.685200 0.284551
O O8 0.359419 0.367263 0.062852
O O9 0.293362 0.595800 0.096575
O O10 0.276057 0.160088 0.105769
O O11 0.069568 0.147396 0.063120
O O12 0.000000 0.000000 0.500000
O O13 0.525342 0.865632 0.840063
O O14 0.775492 0.026276 0.360807
O O15 0.500000 0.000000 0.500000
O O16 0.903162 0.238704 0.911672
O O17 0.000000 0.000000 0.000000
O O18 0.000000 0.500000 0.500000
#
# Coordination Sequence:
#
# PCOD9006866 Si02
#       8
#     2   2   2   2   2   2   2   2
#     4  10  21  38  71  95 134 174 224 270 336 396
#     4  12  23  45  67  98 135 182 223 273 342 399
#     4  10  22  44  68 100 137 171 226 280 333 399
#     4  11  20  42  66 100 130 172 225 284 322 393
#     4  11  26  42  69 100 135 178 228 274 335 401
#     4  12  28  47  66  95 141 179 223 278 341 401
#     4  12  25  41  72  99 133 173 229 276 336 392
#     4  10  22  40  66 103 135 172 216 278 337 391
#
# _framework density 22.220428999999999
#
# number of rings (size 3 to 8) (size 9 to 14) (size 15 to 20)
#    0.000    1.000    3.750    1.875    7.000    3.000 
#    0.000    3.750    0.000    0.000    0.000    0.000 
#    0.000    0.000    0.000    0.000    0.000    0.000 
#
# Total GULP energy -89263.179711 kJ/mol
# GULP energy per Si atom -5578.948732 kJ/mol
# Density = 2.216985 g / cm^3
# Si number density = 22.220429 Si / 1000 Ang^3
#
#
#
# Elastic Constant Matrix: (Units=GPa)
#
#
# Indices 1 2 3 4 5 6 
#
# 1 73.7667 8.2575 6.3789 10.9186 10.4323 5.1813
# 2 8.2575 113.8786 28.6518 13.0892 18.2344 13.5651
# 3 6.3789 28.6518 104.4160 8.8209 21.0739 -6.3183
# 4 10.9186 13.0892 8.8209 34.8805 4.3730 7.3566
# 5 10.4323 18.2344 21.0739 4.3730 47.7595 6.3947
# 6 5.1813 13.5651 -6.3183 7.3566 6.3947 20.3246
#
#
#
# Elastic Compliance Matrix: (Units=1/GPa)
#
#
# Indices 1 2 3 4 5 6 
#
# 1 0.014616 0.000023 -0.000146 -0.003894 -0.002570 -0.001569
# 2 0.000023 0.010810 -0.002893 -0.001640 -0.001772 -0.006969
# 3 -0.000146 -0.002893 0.012182 -0.003099 -0.005090 0.008479
# 4 -0.003894 -0.001640 -0.003099 0.033533 0.001303 -0.011424
# 5 -0.002570 -0.001772 -0.005090 0.001303 0.025402 -0.008208
# 6 -0.001569 -0.006969 0.008479 -0.011424 -0.008208 0.063606
#
#
# Mechanical properties :
#
#
# Convention : Reuss Voigt Hill
#
# Bulk Modulus (GPa) = 31.67032 42.07084 36.87058
# Shear Modulus (GPa) = 28.29530 37.17779 32.73655
#
# Velocity S-wave (km/s) = 3.57233 4.09484 3.84248
# Velocity P-wave (km/s) = 5.59456 6.42895 6.02622
#
# Compressibility (1/GPa) = 0.03157530
#
# Stress axis : x y z
#
# Youngs Moduli (GPa) = 68.41640 92.50752 82.08765
#
# Poissons Ratio (x) = -0.00213 0.01202
# Poissons Ratio (y) = -0.00157 0.23748
# Poissons Ratio (z) = 0.01002 0.26763
#
# Static dielectric constant tensor:
#      x y z
#    x 2.355410 0.240180 -0.066500 
#    y 0.240180 1.887580 -0.021750 
#    z -0.066500 -0.021750 1.831230 
# 
# From -- ./inp_files/243738.got.cif
#   From: 2010.05.17/outbox.cif.g08.bks.cpg/sg2_122_cif.got.tgz:243738.got - 2010.06.03 11:33:40.
