data_PCOD9006147
_publ_section_title
;
Structure prediction by ZEFSAII (Michael W. Deem and Ramdas Pophale) SiO2 
 PCOD9006147
Probable space group: P -1
;
_chemical_formula_sum "Si O2"
_cell_formula_units_Z 14
_cell_length_a 6.814420
_cell_length_b 20.893091
_cell_length_c 9.507450
_cell_angle_alpha 142.074222
_cell_angle_beta 128.549764
_cell_angle_gamma 42.366286
_cell_volume 557.978196
_symmetry_space_group_name_H-M "P -1"
_symmetry_group_IT_number 2
_symmetry_cell_setting 'triclinic'
loop_
_space_group_symop_operation_xyz
x,y,z
-x,-y,-z
loop_
_atom_site_type_symbol
_atom_site_label
_atom_site_fract_x
_atom_site_fract_y
_atom_site_fract_z
Si Si1 0.574374 0.500533 0.840021
Si Si2 0.693723 0.265533 0.009788
Si Si3 0.574587 0.649307 0.662940
Si Si4 0.314916 0.203050 0.548544
Si Si5 0.849885 0.122259 0.237427
Si Si6 0.255295 0.002830 0.793668
Si Si7 0.050493 0.448898 0.716285
O O1 0.494678 0.400910 0.595984
O O2 0.805981 0.479079 0.780207
O O3 0.308369 0.634411 0.918887
O O4 0.741633 0.501863 0.054294
O O5 0.422638 0.251485 0.810114
O O6 0.633752 0.314549 0.227652
O O7 0.986466 0.138184 0.902228
O O8 0.478757 0.784953 0.806220
O O9 0.867591 0.532647 0.649768
O O10 0.581258 0.069862 0.397866
O O11 0.234935 0.302004 0.558317
O O12 0.042888 0.185411 0.422487
O O13 0.850177 0.079542 0.319895
O O14 0.000000 0.000000 0.000000
O O15 0.500000 0.000000 0.000000
#
# Coordination Sequence:
#
# PCOD9006147 Si02
#       7
#     2   2   2   2   2   2   2
#     4   9  18  32  61  97 124 158 217 256 313 387
#     4  10  21  38  64  99 123 172 215 258 323 374
#     4  11  20  35  65  96 128 163 214 261 314 383
#     4  11  23  42  67  93 133 165 216 266 313 384
#     4  12  24  42  61  97 126 170 220 256 316 385
#     4  12  25  42  65  89 132 173 212 265 318 376
#     4   9  18  34  61  96 123 166 206 261 321 369
#
# _framework density 25.090588
#
# number of rings (size 3 to 8) (size 9 to 14) (size 15 to 20)
#    0.000    1.429    4.286    3.000    2.000    0.571 
#    0.000    0.714    0.000    1.714    0.000    0.000 
#    0.000    0.000    0.000    0.000    0.000    0.000 
#
# Total GULP energy -78245.006509 kJ/mol
# GULP energy per Si atom -5588.929036 kJ/mol
# Density = 2.503348 g / cm^3
# Si number density = 25.090588 Si / 1000 Ang^3
#
#
#
# Elastic Constant Matrix: (Units=GPa)
#
#
# Indices 1 2 3 4 5 6 
#
# 1 57.7883 19.0494 15.0580 2.3786 7.5815 -8.4796
# 2 19.0494 181.7654 46.8688 34.3211 1.2608 -4.3747
# 3 15.0580 46.8688 136.0141 -0.1765 3.3611 -3.8953
# 4 2.3786 34.3211 -0.1765 41.0600 2.7834 -5.6600
# 5 7.5815 1.2608 3.3611 2.7834 35.8717 5.1626
# 6 -8.4796 -4.3747 -3.8953 -5.6600 5.1626 25.3583
#
#
#
# Elastic Compliance Matrix: (Units=1/GPa)
#
#
# Indices 1 2 3 4 5 6 
#
# 1 0.019990 -0.001914 -0.001201 0.001851 -0.005291 0.007660
# 2 -0.001914 0.007509 -0.002450 -0.006438 0.001068 -0.001375
# 3 -0.001201 -0.002450 0.008385 0.002366 -0.000795 0.001154
# 4 0.001851 -0.006438 0.002366 0.030945 -0.003877 0.007568
# 5 -0.005291 0.001068 -0.000795 -0.003877 0.030600 -0.008803
# 6 0.007660 -0.001375 0.001154 0.007568 -0.008803 0.045418
#
#
# Mechanical properties :
#
#
# Convention : Reuss Voigt Hill
#
# Bulk Modulus (GPa) = 40.39554 59.72445 50.05999
# Shear Modulus (GPa) = 30.82071 40.09744 35.45907
#
# Velocity S-wave (km/s) = 3.50862 4.00197 3.76339
# Velocity P-wave (km/s) = 5.70515 6.72380 6.23531
#
# Compressibility (1/GPa) = 0.02475521
#
# Stress axis : x y z
#
# Youngs Moduli (GPa) = 50.02392 133.17330 119.25939
#
# Poissons Ratio (x) = 0.25487 0.14324
# Poissons Ratio (y) = 0.09574 0.29216
# Poissons Ratio (z) = 0.06008 0.32624
#
# Static dielectric constant tensor:
#      x y z
#    x 2.073550 -0.040930 0.006160 
#    y -0.040930 2.025940 -0.013540 
#    z 0.006160 -0.013540 1.985590 
# 
# From -- ./inp_files/407359.got.cif
#   From: 2010.05.17/outbox.cif.g08.bks.cpg/sg2_204_cif.got.tgz:407359.got - 2010.06.03 11:33:40.
