data_PCOD9006807
_publ_section_title
;
Structure prediction by ZEFSAII (Michael W. Deem and Ramdas Pophale) SiO2 
 PCOD9006807
Probable space group: P -1
;
_chemical_formula_sum "Si O2"
_cell_formula_units_Z 15
_cell_length_a 11.522724
_cell_length_b 21.776313
_cell_length_c 6.617208
_cell_angle_alpha 65.969602
_cell_angle_beta 114.157504
_cell_angle_gamma 151.621106
_cell_volume 715.807261
_symmetry_space_group_name_H-M "P -1"
_symmetry_group_IT_number 2
_symmetry_cell_setting 'triclinic'
loop_
_space_group_symop_operation_xyz
x,y,z
-x,-y,-z
loop_
_atom_site_type_symbol
_atom_site_label
_atom_site_fract_x
_atom_site_fract_y
_atom_site_fract_z
Si Si1 0.689657 0.519557 0.493564
Si Si2 0.562849 0.158201 0.926459
Si Si3 0.500000 0.500000 0.000000
Si Si4 0.170611 0.808677 0.592401
Si Si5 0.280787 0.119238 0.105960
Si Si6 0.378561 0.037537 0.555056
Si Si7 0.981515 0.565036 0.311614
Si Si8 0.468428 0.623427 0.034576
O O1 0.514572 0.481570 0.271119
O O2 0.850940 0.549374 0.411331
O O3 0.553934 0.412320 0.703868
O O4 0.897266 0.659709 0.558549
O O5 0.385446 0.041739 0.796307
O O6 0.757293 0.286810 0.758592
O O7 0.713862 0.173972 0.149589
O O8 0.426038 0.147676 0.990381
O O9 0.565748 0.607547 0.982126
O O10 0.355628 0.867781 0.466925
O O11 0.193432 0.898726 0.517087
O O12 0.316996 0.083437 0.364645
O O13 0.390241 0.242371 0.061270
O O14 0.000000 0.000000 0.000000
O O15 0.000000 0.500000 0.500000
O O16 0.809298 0.490043 0.092318
#
# Coordination Sequence:
#
# PCOD9006807 Si02
#       8
#     2   2   1   2   2   2   2   2
#     4  11  22  42  66 101 131 167 216 273 335 383
#     4  11  21  41  65 100 129 169 223 265 333 380
#     4  10  26  44  66  96 130 176 214 270 320 396
#     4  10  21  38  69  97 132 168 212 273 326 383
#     4  11  27  45  64  93 132 183 217 265 324 395
#     4  10  22  42  63  97 134 170 217 266 319 391
#     4  11  22  36  68 103 130 167 208 277 333 392
#     4  11  24  45  67  95 136 168 223 269 329 391
#
# _framework density 20.955361
#
# number of rings (size 3 to 8) (size 9 to 14) (size 15 to 20)
#    0.000    1.333    2.667    2.400    3.733    2.667 
#    2.400    0.000    0.000    0.000    0.000    0.000 
#    0.000    0.000    0.000    0.000    0.000    0.000 
#
# Total GULP energy -83568.597770 kJ/mol
# GULP energy per Si atom -5571.239851 kJ/mol
# Density = 2.090767 g / cm^3
# Si number density = 20.955361 Si / 1000 Ang^3
#
#
#
# Elastic Constant Matrix: (Units=GPa)
#
#
# Indices 1 2 3 4 5 6 
#
# 1 65.6876 29.6130 36.5343 -4.4454 1.9197 -16.9044
# 2 29.6130 90.9358 28.2220 0.2676 9.0744 -27.1916
# 3 36.5343 28.2220 127.8543 10.4209 9.5729 -22.4610
# 4 -4.4454 0.2676 10.4209 32.2419 -7.1478 3.0381
# 5 1.9197 9.0744 9.5729 -7.1478 20.2238 -8.1774
# 6 -16.9044 -27.1916 -22.4610 3.0381 -8.1774 29.9987
#
#
#
# Elastic Compliance Matrix: (Units=1/GPa)
#
#
# Indices 1 2 3 4 5 6 
#
# 1 0.021764 -0.004499 -0.005218 0.005682 0.006663 0.005520
# 2 -0.004499 0.016228 0.000216 -0.002627 -0.003135 0.011748
# 3 -0.005218 0.000216 0.010928 -0.005786 -0.004927 0.004680
# 4 0.005682 -0.002627 -0.005786 0.037383 0.015330 -0.003119
# 5 0.006663 -0.003135 -0.004927 0.015330 0.063185 0.012895
# 6 0.005520 0.011748 0.004680 -0.003119 0.012895 0.054429
#
#
# Mechanical properties :
#
#
# Convention : Reuss Voigt Hill
#
# Bulk Modulus (GPa) = 33.42514 52.57956 43.00235
# Shear Modulus (GPa) = 21.46914 29.16678 25.31796
#
# Velocity S-wave (km/s) = 3.20428 3.73480 3.47967
# Velocity P-wave (km/s) = 5.44749 6.61393 6.05884
#
# Compressibility (1/GPa) = 0.02991760
#
# Stress axis : x y z
#
# Youngs Moduli (GPa) = 45.94639 61.62130 91.51184
#
# Poissons Ratio (x) = 0.27724 0.47754
# Poissons Ratio (y) = 0.20672 -0.01978
# Poissons Ratio (z) = 0.23976 -0.01332
#
# Static dielectric constant tensor:
#      x y z
#    x 1.759740 0.002540 0.008310 
#    y 0.002540 1.750110 0.022120 
#    z 0.008310 0.022120 1.743200 
# 
# From -- ./inp_files/67093.got.cif
#   From: 2010.05.17/outbox.cif.g08.bks.cpg/sg2_34_cif.got.tgz:67093.got - 2010.06.03 11:33:40.
