data_PCOD9006862
_publ_section_title
;
Structure prediction by ZEFSAII (Michael W. Deem and Ramdas Pophale) SiO2 
 PCOD9006862
Probable space group: P -1
;
_chemical_formula_sum "Si O2"
_cell_formula_units_Z 16
_cell_length_a 12.851094
_cell_length_b 8.408788
_cell_length_c 14.527137
_cell_angle_alpha 81.300958
_cell_angle_beta 144.746212
_cell_angle_gamma 121.862239
_cell_volume 631.886944
_symmetry_space_group_name_H-M "P -1"
_symmetry_group_IT_number 2
_symmetry_cell_setting 'triclinic'
loop_
_space_group_symop_operation_xyz
x,y,z
-x,-y,-z
loop_
_atom_site_type_symbol
_atom_site_label
_atom_site_fract_x
_atom_site_fract_y
_atom_site_fract_z
Si Si1 0.826977 0.843244 0.263296
Si Si2 0.641171 0.631548 0.948215
Si Si3 0.089727 0.737316 0.685195
Si Si4 0.599893 0.503365 0.455369
Si Si5 0.638711 0.913521 0.775048
Si Si6 0.827858 0.415551 0.059475
Si Si7 0.313936 0.941554 0.646102
Si Si8 0.144137 0.389032 0.179269
O O1 0.750116 0.761100 0.111410
O O2 0.107401 0.948351 0.474302
O O3 0.791047 0.009816 0.237465
O O4 0.631500 0.621829 0.205047
O O5 0.817136 0.597639 0.044644
O O6 0.635722 0.774588 0.863095
O O7 0.153189 0.650775 0.818873
O O8 0.183889 0.751712 0.650273
O O9 0.796775 0.594049 0.508254
O O10 0.423277 0.228973 0.349423
O O11 0.407351 0.530398 0.302564
O O12 0.770558 0.639399 0.658311
O O13 0.410906 0.894776 0.635028
O O14 0.913197 0.167235 0.973579
O O15 0.051045 0.498431 0.144443
O O16 0.573244 0.178632 0.853300
#
# Coordination Sequence:
#
# PCOD9006862 Si02
#       8
#     2   2   2   2   2   2   2   2
#     4  11  24  37  58  89 132 160 199 251 299 374
#     4  11  24  38  57  92 126 165 200 246 309 363
#     4  11  22  39  63  88 126 164 197 252 306 366
#     4  10  21  38  71  88 117 164 212 246 313 358
#     4  11  24  41  64  94 125 162 202 258 305 363
#     4  10  22  39  63  86 124 162 203 251 305 362
#     4  11  23  37  61  92 123 161 202 245 309 369
#     4   9  21  43  65  91 118 160 210 260 302 359
#
# _framework density 25.320985
#
# number of rings (size 3 to 8) (size 9 to 14) (size 15 to 20)
#    0.000    1.500    1.250    4.125    8.750    1.000 
#    0.000    0.625    2.750    4.500    0.000    0.000 
#    0.000    0.000    0.000    0.000    0.000    0.000 
#
# Total GULP energy -89525.668173 kJ/mol
# GULP energy per Si atom -5595.354261 kJ/mol
# Density = 2.526335 g / cm^3
# Si number density = 25.320985 Si / 1000 Ang^3
#
#
#
# Elastic Constant Matrix: (Units=GPa)
#
#
# Indices 1 2 3 4 5 6 
#
# 1 70.6514 17.6160 45.5491 -1.5651 14.4199 -19.7422
# 2 17.6160 62.2387 5.8759 -6.8024 -11.1675 8.4173
# 3 45.5491 5.8759 91.5680 6.4742 9.1154 7.1819
# 4 -1.5651 -6.8024 6.4742 28.1956 -3.6732 -5.9968
# 5 14.4199 -11.1675 9.1154 -3.6732 53.5216 -9.9674
# 6 -19.7422 8.4173 7.1819 -5.9968 -9.9674 36.1235
#
#
#
# Elastic Compliance Matrix: (Units=1/GPa)
#
#
# Indices 1 2 3 4 5 6 
#
# 1 0.042020 -0.013487 -0.022878 0.010530 -0.003670 0.031392
# 2 -0.013487 0.022049 0.005622 0.001403 0.005143 -0.011974
# 3 -0.022878 0.005622 0.024418 -0.010107 -0.001375 -0.020725
# 4 0.010530 0.001403 -0.010107 0.042762 0.005080 0.015938
# 5 -0.003670 0.005143 -0.001375 0.005080 0.022074 0.004003
# 6 0.031392 -0.011974 -0.020725 0.015938 0.004003 0.055500
#
#
# Mechanical properties :
#
#
# Convention : Reuss Voigt Hill
#
# Bulk Modulus (GPa) = 37.03562 40.28225 38.65893
# Shear Modulus (GPa) = 17.90123 33.92928 25.91526
#
# Velocity S-wave (km/s) = 2.66178 3.66453 3.20264
# Velocity P-wave (km/s) = 4.90968 5.81792 5.38299
#
# Compressibility (1/GPa) = 0.02700104
#
# Stress axis : x y z
#
# Youngs Moduli (GPa) = 23.79795 45.35298 40.95404
#
# Poissons Ratio (x) = 0.61165 0.93696
# Poissons Ratio (y) = 0.32095 -0.23023
# Poissons Ratio (z) = 0.54446 -0.25496
#
# Static dielectric constant tensor:
#      x y z
#    x 2.050110 0.020860 0.016290 
#    y 0.020860 1.995430 0.028020 
#    z 0.016290 0.028020 2.035910 
# 
# From -- ./inp_files/215118.got.cif
#   From: 2010.05.17/outbox.cif.g08.bks.cpg/sg2_108_cif.got.tgz:215118.got - 2010.06.03 11:33:40.
