data_PCOD9006519
_publ_section_title
;
Structure prediction by ZEFSAII (Michael W. Deem and Ramdas Pophale) SiO2 
 PCOD9006519
Probable space group: P -1
;
_chemical_formula_sum "Si O2"
_cell_formula_units_Z 16
_cell_length_a 17.233467
_cell_length_b 14.631784
_cell_length_c 23.013410
_cell_angle_alpha 160.175427
_cell_angle_beta 155.892591
_cell_angle_gamma 35.511857
_cell_volume 760.855500
_symmetry_space_group_name_H-M "P -1"
_symmetry_group_IT_number 2
_symmetry_cell_setting 'triclinic'
loop_
_space_group_symop_operation_xyz
x,y,z
-x,-y,-z
loop_
_atom_site_type_symbol
_atom_site_label
_atom_site_fract_x
_atom_site_fract_y
_atom_site_fract_z
Si Si1 0.994847 0.029428 0.586115
Si Si2 0.921076 0.364797 0.152340
Si Si3 0.500950 0.374994 0.860016
Si Si4 0.367684 0.243899 0.216448
Si Si5 0.706060 0.993480 0.606480
Si Si6 0.993077 0.055269 0.128395
Si Si7 0.063483 0.503102 0.110021
Si Si8 0.346884 0.100240 0.810703
O O1 0.964117 0.701511 0.381592
O O2 0.861223 0.082319 0.472475
O O3 0.235132 0.186821 0.840207
O O4 0.893535 0.170143 0.648693
O O5 0.680972 0.240683 0.906690
O O6 0.010164 0.230601 0.080181
O O7 0.990216 0.272830 0.205541
O O8 0.332942 0.152814 0.571800
O O9 0.500000 0.500000 0.000000
O O10 0.559795 0.646898 0.019247
O O11 0.500000 0.500000 0.500000
O O12 0.245215 0.381457 0.172182
O O13 0.509011 0.081505 0.188033
O O14 0.204412 0.022655 0.013521
O O15 0.815508 0.844606 0.638289
O O16 0.500000 0.000000 0.500000
O O17 0.876853 0.299823 0.898140
O O18 0.000000 0.500000 0.000000
#
# Coordination Sequence:
#
# PCOD9006519 Si02
#       8
#     2   2   2   2   2   2   2   2
#     4  10  21  40  67  92 130 172 214 271 326 399
#     4  10  21  39  65  94 130 162 229 266 327 387
#     4  11  23  38  66  95 125 171 225 272 327 398
#     4  11  21  40  66  93 130 166 219 264 334 389
#     4  11  23  44  66  92 134 179 218 272 343 397
#     4  10  22  40  63 101 128 174 215 282 327 393
#     4  11  26  43  64  98 135 173 219 275 338 393
#     4  10  21  38  66  95 123 166 220 268 325 393
#
# _framework density 21.028962
#
# number of rings (size 3 to 8) (size 9 to 14) (size 15 to 20)
#    0.000    1.500    2.500    2.250   10.500    1.000 
#    4.500    2.500    0.000    0.000    0.000    0.000 
#    0.000    0.000    0.000    0.000    0.000    0.000 
#
# Total GULP energy -89132.036059 kJ/mol
# GULP energy per Si atom -5570.752254 kJ/mol
# Density = 2.098110 g / cm^3
# Si number density = 21.028962 Si / 1000 Ang^3
#
#
#
# Elastic Constant Matrix: (Units=GPa)
#
#
# Indices 1 2 3 4 5 6 
#
# 1 47.3205 50.7404 6.6074 -13.6213 -7.7862 7.4917
# 2 50.7404 170.0613 42.1301 -14.1699 -8.2278 -1.1526
# 3 6.6074 42.1301 53.1630 -14.8304 -6.8802 8.4527
# 4 -13.6213 -14.1699 -14.8304 36.6268 -2.7235 0.7675
# 5 -7.7862 -8.2278 -6.8802 -2.7235 24.3765 -7.4994
# 6 7.4917 -1.1526 8.4527 0.7675 -7.4994 42.0960
#
#
#
# Elastic Compliance Matrix: (Units=1/GPa)
#
#
# Indices 1 2 3 4 5 6 
#
# 1 0.042684 -0.014183 0.013619 0.016969 0.011842 -0.008919
# 2 -0.014183 0.012162 -0.010330 -0.005034 -0.002495 0.004579
# 3 0.013619 -0.010330 0.031846 0.014803 0.009122 -0.007746
# 4 0.016969 -0.005034 0.014803 0.038558 0.010691 -0.004929
# 5 0.011842 -0.002495 0.009122 0.010691 0.049133 0.004550
# 6 -0.008919 0.004579 -0.007746 -0.004929 0.004550 0.027924
#
#
# Mechanical properties :
#
#
# Convention : Reuss Voigt Hill
#
# Bulk Modulus (GPa) = 15.40769 52.16675 33.78722
# Shear Modulus (GPa) = 20.34762 32.02431 26.18597
#
# Velocity S-wave (km/s) = 3.11400 3.90663 3.53261
# Velocity P-wave (km/s) = 4.50246 6.72383 5.72198
#
# Compressibility (1/GPa) = 0.06490265
#
# Stress axis : x y z
#
# Youngs Moduli (GPa) = 23.42809 82.22318 31.40148
#
# Poissons Ratio (x) = 1.16616 -0.42765
# Poissons Ratio (y) = 0.33228 0.32439
# Poissons Ratio (z) = -0.31906 0.84939
#
# Static dielectric constant tensor:
#      x y z
#    x 1.881620 -0.093240 -0.017350 
#    y -0.093240 1.777330 0.044240 
#    z -0.017350 0.044240 1.832520 
# 
# From -- ./inp_files/607478.got.cif
#   From: 2010.05.17/outbox.cif.g08.bks.cpg/sg2_304_cif.got.tgz:607478.got - 2010.06.03 11:33:40.
