data_PCOD9006095
_publ_section_title
;
Structure prediction by ZEFSAII (Michael W. Deem and Ramdas Pophale) SiO2 
 PCOD9006095
Probable space group: P -1
;
_chemical_formula_sum "Si O2"
_cell_formula_units_Z 14
_cell_length_a 4.917730
_cell_length_b 24.227332
_cell_length_c 5.099486
_cell_angle_alpha 109.709183
_cell_angle_beta 91.403685
_cell_angle_gamma 110.997689
_cell_volume 526.642645
_symmetry_space_group_name_H-M "P -1"
_symmetry_group_IT_number 2
_symmetry_cell_setting 'triclinic'
loop_
_space_group_symop_operation_xyz
x,y,z
-x,-y,-z
loop_
_atom_site_type_symbol
_atom_site_label
_atom_site_fract_x
_atom_site_fract_y
_atom_site_fract_z
Si Si1 0.436842 0.773202 0.955475
Si Si2 0.202966 0.807945 0.509122
Si Si3 0.661257 0.498852 0.214785
Si Si4 0.040720 0.927224 0.697559
Si Si5 0.667533 0.003221 0.723276
Si Si6 0.701032 0.429012 0.562435
Si Si7 0.171889 0.294260 0.334096
O O1 0.394925 0.817046 0.793190
O O2 0.711957 0.754477 0.887806
O O3 0.131899 0.709721 0.811205
O O4 0.403927 0.803022 0.272406
O O5 0.069017 0.860515 0.562890
O O6 0.938862 0.739036 0.441553
O O7 0.500000 0.500000 0.500000
O O8 0.760980 0.444986 0.277044
O O9 0.404701 0.531400 0.142730
O O10 0.974341 0.559617 0.306658
O O11 0.292272 0.968278 0.539008
O O12 0.767561 0.943385 0.621543
O O13 0.044950 0.940702 0.034657
O O14 0.500000 0.000000 0.000000
O O15 0.437175 0.361118 0.461572
#
# Coordination Sequence:
#
# PCOD9006095 Si02
#       7
#     2   2   2   2   2   2   2
#     4  10  25  42  69  94 140 172 235 270 347 403
#     4  10  26  45  68 103 133 184 224 285 340 414
#     4  10  21  38  64  96 127 176 222 272 337 402
#     4  10  23  40  64  95 132 171 227 276 339 410
#     4  10  22  41  64  95 129 173 223 278 341 402
#     4  10  21  41  61  93 136 167 225 278 333 404
#     4  10  24  43  66  99 134 181 223 285 340 407
#
# _framework density 26.583490999999999
#
# number of rings (size 3 to 8) (size 9 to 14) (size 15 to 20)
#    0.857    1.143    0.000    1.714    6.000    1.143 
#    0.000    0.000    0.000    0.000    0.000    0.000 
#    0.000    0.000    0.000    0.000    0.000    0.000 
#
# Total GULP energy -78072.292216 kJ/mol
# GULP energy per Si atom -5576.592301 kJ/mol
# Density = 2.652299 g / cm^3
# Si number density = 26.583491 Si / 1000 Ang^3
#
#
#
# Elastic Constant Matrix: (Units=GPa)
#
#
# Indices 1 2 3 4 5 6 
#
# 1 155.1349 -2.3947 60.5027 -13.4170 -2.4326 -0.7362
# 2 -2.3947 68.4514 45.0459 -4.2574 16.1071 10.3365
# 3 60.5027 45.0459 212.7259 -40.8696 13.0656 -7.6238
# 4 -13.4170 -4.2574 -40.8696 32.6294 -11.2047 2.7682
# 5 -2.4326 16.1071 13.0656 -11.2047 58.9015 4.3074
# 6 -0.7362 10.3365 -7.6238 2.7682 4.3074 31.2884
#
#
#
# Elastic Compliance Matrix: (Units=1/GPa)
#
#
# Indices 1 2 3 4 5 6 
#
# 1 0.007516 0.002048 -0.002565 0.000417 0.000489 -0.001229
# 2 0.002048 0.020312 -0.005756 -0.004692 -0.004572 -0.007020
# 3 -0.002565 -0.005756 0.008382 0.008809 0.001068 0.002957
# 4 0.000417 -0.004692 0.008809 0.044031 0.007815 -0.001265
# 5 0.000489 -0.004572 0.001068 0.007815 0.019615 -0.001609
# 6 -0.001229 -0.007020 0.002957 -0.001265 -0.001609 0.035305
#
#
# Mechanical properties :
#
#
# Convention : Reuss Voigt Hill
#
# Bulk Modulus (GPa) = 42.25913 71.40220 56.83066
# Shear Modulus (GPa) = 32.13444 46.77442 39.45443
#
# Velocity S-wave (km/s) = 3.48057 4.19922 3.85667
# Velocity P-wave (km/s) = 5.66425 7.10135 6.42312
#
# Compressibility (1/GPa) = 0.02366353
#
# Stress axis : x y z
#
# Youngs Moduli (GPa) = 133.05105 49.23097 119.30222
#
# Poissons Ratio (x) = -0.10080 0.30604
# Poissons Ratio (y) = -0.27242 0.68667
# Poissons Ratio (z) = 0.34131 0.28336
#
# Static dielectric constant tensor:
#      x y z
#    x 1.513010 0.078680 -0.202580 
#    y 0.078680 1.929410 -0.008830 
#    z -0.202580 -0.008830 1.915510 
# 
# From -- ./inp_files/12443.got.cif
#   From: 2010.05.17/outbox.cif.g08.bks.cpg/sg2_7_cif.got.tgz:12443.got - 2010.06.03 11:33:40.
