data_PCOD9006679
_publ_section_title
;
Structure prediction by ZEFSAII (Michael W. Deem and Ramdas Pophale) SiO2 
 PCOD9006679
Probable space group: P -1
;
_chemical_formula_sum "Si O2"
_cell_formula_units_Z 16
_cell_length_a 10.306971
_cell_length_b 15.762864
_cell_length_c 11.669576
_cell_angle_alpha 32.212777
_cell_angle_beta 101.437453
_cell_angle_gamma 125.960513
_cell_volume 590.616625
_symmetry_space_group_name_H-M "P -1"
_symmetry_group_IT_number 2
_symmetry_cell_setting 'triclinic'
loop_
_space_group_symop_operation_xyz
x,y,z
-x,-y,-z
loop_
_atom_site_type_symbol
_atom_site_label
_atom_site_fract_x
_atom_site_fract_y
_atom_site_fract_z
Si Si1 0.805629 0.689609 0.321186
Si Si2 0.691840 0.091052 0.863817
Si Si3 0.704097 0.362688 0.836200
Si Si4 0.939788 0.760165 0.790933
Si Si5 0.281549 0.896111 0.536443
Si Si6 0.404936 0.284162 0.568385
Si Si7 0.948528 0.527808 0.225912
Si Si8 0.409023 0.537183 0.100724
O O1 0.870812 0.590793 0.507347
O O2 0.662374 0.513755 0.386482
O O3 0.654202 0.619557 0.474743
O O4 0.000000 0.000000 0.000000
O O5 0.842473 0.367105 0.510294
O O6 0.500000 0.000000 0.000000
O O7 0.544738 0.868353 0.991207
O O8 0.737866 0.995444 0.076189
O O9 0.740860 0.495197 0.806190
O O10 0.792298 0.270679 0.969170
O O11 0.099257 0.784861 0.724453
O O12 0.688292 0.523622 0.970918
O O13 0.000000 0.000000 0.500000
O O14 0.933682 0.696205 0.993447
O O15 0.176929 0.692467 0.646676
O O16 0.500000 0.000000 0.500000
O O17 0.362574 0.146646 0.216359
O O18 0.391948 0.342844 0.370962
#
# Coordination Sequence:
#
# PCOD9006679 Si02
#       8
#     2   2   2   2   2   2   2   2
#     4   9  17  31  56  89 125 166 217 276 329 395
#     4  11  25  43  64  98 138 186 237 291 354 420
#     4  10  21  38  67  98 132 180 236 291 339 421
#     4  12  29  47  70 112 149 182 236 306 374 423
#     4  12  24  45  78 107 138 192 250 292 351 439
#     4   9  21  36  57  93 133 171 220 271 345 413
#     4  12  24  44  74  99 139 189 242 290 354 436
#     4  11  22  42  71 104 142 184 232 296 359 432
#
# _framework density 27.090329000000001
#
# number of rings (size 3 to 8) (size 9 to 14) (size 15 to 20)
#    0.000    1.250    3.750    2.625    1.750    3.000 
#    0.000    2.500    0.000    0.000    0.000    0.000 
#    0.000    0.000    0.000    0.000    0.000    0.000 
#
# Total GULP energy -89186.308108 kJ/mol
# GULP energy per Si atom -5574.144257 kJ/mol
# Density = 2.702867 g / cm^3
# Si number density = 27.090329 Si / 1000 Ang^3
#
#
#
# Elastic Constant Matrix: (Units=GPa)
#
#
# Indices 1 2 3 4 5 6 
#
# 1 92.0242 6.1413 19.9410 25.8287 10.4793 -2.8275
# 2 6.1413 57.8475 16.5782 18.5991 -0.6708 14.7607
# 3 19.9410 16.5782 203.2508 31.5766 23.2555 9.3180
# 4 25.8287 18.5991 31.5766 49.2779 4.1380 10.7901
# 5 10.4793 -0.6708 23.2555 4.1380 40.9368 5.8864
# 6 -2.8275 14.7607 9.3180 10.7901 5.8864 30.9151
#
#
#
# Elastic Compliance Matrix: (Units=1/GPa)
#
#
# Indices 1 2 3 4 5 6 
#
# 1 0.013598 -0.000179 0.000075 -0.007850 -0.003408 0.004695
# 2 -0.000179 0.021644 -0.000734 -0.005955 0.002649 -0.008556
# 3 0.000075 -0.000734 0.005820 -0.003310 -0.003052 0.000339
# 4 -0.007850 -0.005955 -0.003310 0.030332 0.001850 -0.007816
# 5 -0.003408 0.002649 -0.003052 0.001850 0.027840 -0.006603
# 6 0.004695 -0.008556 0.000339 -0.007816 -0.006603 0.040744
#
#
# Mechanical properties :
#
#
# Convention : Reuss Voigt Hill
#
# Bulk Modulus (GPa) = 25.38903 48.71596 37.05249
# Shear Modulus (GPa) = 32.30326 44.92344 38.61335
#
# Velocity S-wave (km/s) = 3.45690 4.07662 3.77948
# Velocity P-wave (km/s) = 5.03248 6.33879 5.72303
#
# Compressibility (1/GPa) = 0.03938709
#
# Stress axis : x y z
#
# Youngs Moduli (GPa) = 73.54056 46.20127 171.80984
#
# Poissons Ratio (x) = 0.00826 -0.01282
# Poissons Ratio (y) = 0.01315 0.12606
# Poissons Ratio (z) = -0.00549 0.03390
#
# Static dielectric constant tensor:
#      x y z
#    x 2.262040 0.022320 -0.012730 
#    y 0.022320 2.211440 0.021980 
#    z -0.012730 0.021980 2.239960 
# 
# From -- ./inp_files/436394.got.cif
#   From: 2010.05.17/outbox.cif.g08.bks.cpg/sg2_219_cif.got.tgz:436394.got - 2010.06.03 11:33:40.
