data_PCOD9006518
_publ_section_title
;
Structure prediction by ZEFSAII (Michael W. Deem and Ramdas Pophale) SiO2 
 PCOD9006518
Probable space group: P -1
;
_chemical_formula_sum "Si O2"
_cell_formula_units_Z 12
_cell_length_a 9.481634
_cell_length_b 7.273802
_cell_length_c 12.988226
_cell_angle_alpha 83.304456
_cell_angle_beta 34.535805
_cell_angle_gamma 91.762983
_cell_volume 491.406811
_symmetry_space_group_name_H-M "P -1"
_symmetry_group_IT_number 2
_symmetry_cell_setting 'triclinic'
loop_
_space_group_symop_operation_xyz
x,y,z
-x,-y,-z
loop_
_atom_site_type_symbol
_atom_site_label
_atom_site_fract_x
_atom_site_fract_y
_atom_site_fract_z
Si Si1 0.078182 0.378100 0.052774
Si Si2 0.714336 0.974906 0.286933
Si Si3 0.968262 0.754953 0.453304
Si Si4 0.451025 0.414918 0.147200
Si Si5 0.790426 0.595502 0.351098
Si Si6 0.594302 0.992181 0.728722
O O1 0.939336 0.161848 0.139160
O O2 0.960905 0.457113 0.218195
O O3 0.378610 0.441335 0.884340
O O4 0.000000 0.500000 0.000000
O O5 0.584511 0.952769 0.254083
O O6 0.500000 0.000000 0.500000
O O7 0.830388 0.796846 0.256637
O O8 0.159425 0.367956 0.363888
O O9 0.862385 0.644213 0.422055
O O10 0.825452 0.932238 0.529247
O O11 0.264491 0.847195 0.287625
O O12 0.524109 0.208276 0.130023
O O13 0.500000 0.500000 0.000000
O O14 0.500000 0.500000 0.500000
#
# Coordination Sequence:
#
# PCOD9006518 Si02
#       6
#     2   2   2   2   2   2
#     4  12  25  45  65 102 139 165 225 285 331 390
#     4  12  22  41  74  95 131 181 219 277 329 395
#     4   9  20  40  66  91 131 174 223 264 318 408
#     4  10  21  38  66  94 134 175 210 274 337 374
#     4  12  24  42  71 100 129 178 232 266 330 406
#     4   9  19  40  66  94 133 172 223 262 331 397
#
# _framework density 24.419687
#
# number of rings (size 3 to 8) (size 9 to 14) (size 15 to 20)
#    1.000    0.333    5.000    1.000    4.667    0.667 
#    0.000    5.833    0.000    0.000    0.000    0.000 
#    0.000    0.000    0.000    0.000    0.000    0.000 
#
# Total GULP energy -67144.505742 kJ/mol
# GULP energy per Si atom -5595.375478 kJ/mol
# Density = 2.436411 g / cm^3
# Si number density = 24.419687 Si / 1000 Ang^3
#
#
#
# Elastic Constant Matrix: (Units=GPa)
#
#
# Indices 1 2 3 4 5 6 
#
# 1 183.9476 59.5026 42.8247 -34.4829 7.0013 9.2240
# 2 59.5026 102.2415 46.2125 -30.3549 -11.3229 7.2786
# 3 42.8247 46.2125 73.8855 -35.0228 -8.6442 4.4515
# 4 -34.4829 -30.3549 -35.0228 60.6080 4.1156 -3.2100
# 5 7.0013 -11.3229 -8.6442 4.1156 40.7489 -8.2972
# 6 9.2240 7.2786 4.4515 -3.2100 -8.2972 51.2991
#
#
#
# Elastic Compliance Matrix: (Units=1/GPa)
#
#
# Indices 1 2 3 4 5 6 
#
# 1 0.007375 -0.003261 -0.001694 0.001725 -0.002927 -0.001082
# 2 -0.003261 0.015599 -0.006548 0.001932 0.003226 -0.000416
# 3 -0.001694 -0.006548 0.023147 0.008972 0.002515 0.000193
# 4 0.001725 0.001932 0.008972 0.023653 -0.000229 0.000080
# 5 -0.002927 0.003226 0.002515 -0.000229 0.027364 0.004262
# 6 -0.001082 -0.000416 0.000193 0.000080 0.004262 0.020425
#
#
# Mechanical properties :
#
#
# Convention : Reuss Voigt Hill
#
# Bulk Modulus (GPa) = 43.26366 73.01714 58.14040
# Shear Modulus (GPa) = 33.72129 44.63353 39.17741
#
# Velocity S-wave (km/s) = 3.72009 4.27988 4.00976
# Velocity P-wave (km/s) = 6.01724 7.37489 6.73039
#
# Compressibility (1/GPa) = 0.02311409
#
# Stress axis : x y z
#
# Youngs Moduli (GPa) = 135.59859 64.10737 43.20145
#
# Poissons Ratio (x) = 0.20906 0.07320
# Poissons Ratio (y) = 0.44220 0.28288
# Poissons Ratio (z) = 0.22976 0.41977
#
# Static dielectric constant tensor:
#      x y z
#    x 1.918700 0.023180 -0.005370 
#    y 0.023180 1.997870 0.054830 
#    z -0.005370 0.054830 1.993990 
# 
# From -- ./inp_files/190103.got.cif
#   From: 2010.05.17/outbox.cif.g08.bks.cpg/sg2_96_cif.got.tgz:190103.got - 2010.06.03 11:33:40.
