data_PCOD9006820
_publ_section_title
;
Structure prediction by ZEFSAII (Michael W. Deem and Ramdas Pophale) SiO2 
 PCOD9006820
Probable space group: P -1
;
_chemical_formula_sum "Si O2"
_cell_formula_units_Z 16
_cell_length_a 17.553577
_cell_length_b 8.380857
_cell_length_c 8.732021
_cell_angle_alpha 125.836945
_cell_angle_beta 73.385321
_cell_angle_gamma 68.249899
_cell_volume 719.917176
_symmetry_space_group_name_H-M "P -1"
_symmetry_group_IT_number 2
_symmetry_cell_setting 'triclinic'
loop_
_space_group_symop_operation_xyz
x,y,z
-x,-y,-z
loop_
_atom_site_type_symbol
_atom_site_label
_atom_site_fract_x
_atom_site_fract_y
_atom_site_fract_z
Si Si1 0.556145 0.897181 0.669624
Si Si2 0.176357 0.168544 0.932136
Si Si3 0.381600 0.452801 0.259732
Si Si4 0.894873 0.085075 0.032757
Si Si5 0.013903 0.240441 0.504210
Si Si6 0.420239 0.765438 0.587618
Si Si7 0.765105 0.613713 0.204565
Si Si8 0.175670 0.747692 0.325548
O O1 0.612682 0.677053 0.654568
O O2 0.481219 0.868594 0.604437
O O3 0.645338 0.836160 0.471063
O O4 0.480063 0.190339 0.956506
O O5 0.186596 0.263378 0.816688
O O6 0.294478 0.015423 0.858364
O O7 0.165594 0.952960 0.832969
O O8 0.066887 0.446078 0.227399
O O9 0.402603 0.647545 0.389946
O O10 0.270907 0.613133 0.316772
O O11 0.926250 0.886262 0.762784
O O12 0.831362 0.377848 0.160762
O O13 0.000000 0.000000 0.000000
O O14 0.926745 0.208757 0.534353
O O15 0.111048 0.046542 0.463379
O O16 0.500000 0.500000 0.500000
O O17 0.772290 0.460173 0.965062
#
# Coordination Sequence:
#
# PCOD9006820 Si02
#       8
#     2   2   2   2   2   2   2   2
#     4  10  21  41  67  97 139 182 226 285 350 404
#     4  11  23  44  68  96 131 183 227 271 346 414
#     4  10  21  38  69  99 133 185 231 279 343 420
#     4  11  24  41  67  99 136 177 224 288 341 404
#     4   9  20  39  66  93 131 178 226 276 342 406
#     4  10  22  41  65 101 136 171 228 286 336 406
#     4  10  23  44  67  99 138 180 223 283 350 403
#     4   9  19  38  64  97 135 177 223 284 342 399
#
# _framework density 22.224775999999999
#
# number of rings (size 3 to 8) (size 9 to 14) (size 15 to 20)
#    0.000    2.000    0.000    4.125    3.500    2.500 
#    2.250    2.500    0.000    0.000    0.000    0.000 
#    0.000    0.000    0.000    0.000    0.000    0.000 
#
# Total GULP energy -89291.127737 kJ/mol
# GULP energy per Si atom -5580.695484 kJ/mol
# Density = 2.217419 g / cm^3
# Si number density = 22.224776 Si / 1000 Ang^3
#
#
#
# Elastic Constant Matrix: (Units=GPa)
#
#
# Indices 1 2 3 4 5 6 
#
# 1 95.3881 69.7867 -1.4342 -4.5202 -2.8802 -22.0693
# 2 69.7867 155.2594 45.1989 18.4208 -11.9857 -4.2518
# 3 -1.4342 45.1989 85.7102 10.1305 -7.8844 -12.9015
# 4 -4.5202 18.4208 10.1305 32.0194 0.2929 -13.2969
# 5 -2.8802 -11.9857 -7.8844 0.2929 31.2182 -2.0923
# 6 -22.0693 -4.2518 -12.9015 -13.2969 -2.0923 37.1785
#
#
#
# Elastic Compliance Matrix: (Units=1/GPa)
#
#
# Indices 1 2 3 4 5 6 
#
# 1 0.037453 -0.023621 0.014986 0.028667 0.000248 0.034998
# 2 -0.023621 0.023088 -0.013351 -0.022333 0.001921 -0.023893
# 3 0.014986 -0.013351 0.020709 0.010953 0.002632 0.018620
# 4 0.028667 -0.022333 0.010953 0.061341 -0.001049 0.040143
# 5 0.000248 0.001921 0.002632 -0.001049 0.033655 0.002799
# 6 0.034998 -0.023893 0.018620 0.040143 0.002799 0.065916
#
#
# Mechanical properties :
#
#
# Convention : Reuss Voigt Hill
#
# Bulk Modulus (GPa) = 26.82520 62.60671 44.71596
# Shear Modulus (GPa) = 16.74697 34.93697 25.84197
#
# Velocity S-wave (km/s) = 2.74802 3.96913 3.41362
# Velocity P-wave (km/s) = 4.70797 7.01685 5.97500
#
# Compressibility (1/GPa) = 0.03727838
#
# Stress axis : x y z
#
# Youngs Moduli (GPa) = 26.70000 43.31162 48.28825
#
# Poissons Ratio (x) = 1.02306 -0.72363
# Poissons Ratio (y) = 0.63068 0.64470
# Poissons Ratio (z) = -0.40012 0.57825
#
# Static dielectric constant tensor:
#      x y z
#    x 1.779710 0.022470 -0.006260 
#    y 0.022470 1.879390 0.022680 
#    z -0.006260 0.022680 1.846900 
# 
# From -- ./inp_files/299673.got.cif
#   From: 2010.05.17/outbox.cif.g08.bks.cpg/sg2_150_cif.got.tgz:299673.got - 2010.06.03 11:33:40.
