data_PCOD9006777
_publ_section_title
;
Structure prediction by ZEFSAII (Michael W. Deem and Ramdas Pophale) SiO2 
 PCOD9006777
Probable space group: P -1
;
_chemical_formula_sum "Si O2"
_cell_formula_units_Z 16
_cell_length_a 29.830065
_cell_length_b 5.533765
_cell_length_c 12.205836
_cell_angle_alpha 82.561581
_cell_angle_beta 29.632974
_cell_angle_gamma 61.952140
_cell_volume 675.621658
_symmetry_space_group_name_H-M "P -1"
_symmetry_group_IT_number 2
_symmetry_cell_setting 'triclinic'
loop_
_space_group_symop_operation_xyz
x,y,z
-x,-y,-z
loop_
_atom_site_type_symbol
_atom_site_label
_atom_site_fract_x
_atom_site_fract_y
_atom_site_fract_z
Si Si1 0.995830 0.783801 0.631389
Si Si2 0.416737 0.413876 0.177866
Si Si3 0.669360 0.654540 0.419487
Si Si4 0.271827 0.703045 0.916463
Si Si5 0.784443 0.228747 0.611130
Si Si6 0.059055 0.644889 0.128768
Si Si7 0.603995 0.804688 0.110409
Si Si8 0.281309 0.028801 0.042299
O O1 0.956230 0.604969 0.785540
O O2 0.148269 0.450950 0.295440
O O3 0.975676 0.066554 0.729274
O O4 0.888410 0.998564 0.749351
O O5 0.352710 0.491326 0.427509
O O6 0.302899 0.662230 0.313764
O O7 0.500000 0.500000 0.000000
O O8 0.500000 0.000000 0.000000
O O9 0.702536 0.450173 0.248081
O O10 0.525658 0.051995 0.676417
O O11 0.787459 0.602018 0.206772
O O12 0.352182 0.405745 0.857184
O O13 0.305382 0.909378 0.872409
O O14 0.758631 0.100600 0.777556
O O15 0.718091 0.596844 0.786905
O O16 0.940999 0.919311 0.275765
O O17 0.590746 0.103432 0.166390
#
# Coordination Sequence:
#
# PCOD9006777 Si02
#       8
#     2   2   2   2   2   2   2   2
#     4  10  21  41  65  99 141 184 229 273 334 408
#     4  12  27  48  78 104 132 180 229 287 342 411
#     4  11  25  46  66 102 141 176 231 288 346 402
#     4  10  24  38  61 101 138 187 221 285 339 407
#     4  10  22  44  70 101 136 179 236 274 338 405
#     4  10  23  42  69  99 141 179 223 286 338 401
#     4  11  21  42  67  97 138 184 229 277 337 412
#     4  10  21  38  68  99 137 185 229 278 335 408
#
# _framework density 23.681892000000001
#
# number of rings (size 3 to 8) (size 9 to 14) (size 15 to 20)
#    0.000    1.500    2.500    1.500    3.500    3.500 
#    9.000    0.000    0.000    8.250    0.000    0.000 
#    0.000    0.000    0.000    0.000    0.000    0.000 
#
# Total GULP energy -89242.067991 kJ/mol
# GULP energy per Si atom -5577.629249 kJ/mol
# Density = 2.362799 g / cm^3
# Si number density = 23.681892 Si / 1000 Ang^3
#
#
#
# Elastic Constant Matrix: (Units=GPa)
#
#
# Indices 1 2 3 4 5 6 
#
# 1 133.9051 32.2861 33.0030 -5.2401 -30.6942 -30.9765
# 2 32.2861 80.9755 19.3763 -6.0053 -10.4711 -3.4099
# 3 33.0030 19.3763 84.4341 -10.0370 -33.9180 -19.6320
# 4 -5.2401 -6.0053 -10.0370 28.6493 -6.7661 -7.6630
# 5 -30.6942 -10.4711 -33.9180 -6.7661 47.2539 2.8611
# 6 -30.9765 -3.4099 -19.6320 -7.6630 2.8611 39.7436
#
#
#
# Elastic Compliance Matrix: (Units=1/GPa)
#
#
# Indices 1 2 3 4 5 6 
#
# 1 0.013386 -0.003635 0.004587 0.009654 0.011753 0.013403
# 2 -0.003635 0.014256 -0.002951 0.000241 -0.001107 -0.002941
# 3 0.004587 -0.002951 0.026901 0.020203 0.023388 0.018822
# 4 0.009654 0.000241 0.020203 0.057397 0.027433 0.026617
# 5 0.011753 -0.001107 0.023388 0.027433 0.047907 0.022459
# 6 0.013403 -0.002941 0.018822 0.026617 0.022459 0.048168
#
#
# Mechanical properties :
#
#
# Convention : Reuss Voigt Hill
#
# Bulk Modulus (GPa) = 19.78410 52.07173 35.92792
# Shear Modulus (GPa) = 21.84750 37.43930 29.64340
#
# Velocity S-wave (km/s) = 3.04063 3.98040 3.54182
# Velocity P-wave (km/s) = 4.54967 6.56966 5.65066
#
# Compressibility (1/GPa) = 0.05054563
#
# Stress axis : x y z
#
# Youngs Moduli (GPa) = 74.70429 70.14811 37.17372
#
# Poissons Ratio (x) = 0.25497 -0.17052
# Poissons Ratio (y) = 0.27153 0.10969
# Poissons Ratio (z) = -0.34267 0.20699
#
# Static dielectric constant tensor:
#      x y z
#    x 1.936900 0.137820 -0.029270 
#    y 0.137820 2.199280 0.078940 
#    z -0.029270 0.078940 1.997700 
# 
# From -- ./inp_files/459435.got.cif
#   From: 2010.05.17/outbox.cif.g08.bks.cpg/sg2_230_cif.got.tgz:459435.got - 2010.06.03 11:33:40.
