data_PCOD9006130
_publ_section_title
;
Structure prediction by ZEFSAII (Michael W. Deem and Ramdas Pophale) SiO2 
 PCOD9006130
Probable space group: P -1
;
_chemical_formula_sum "Si O2"
_cell_formula_units_Z 16
_cell_length_a 24.429508
_cell_length_b 11.693787
_cell_length_c 17.609686
_cell_angle_alpha 149.443573
_cell_angle_beta 156.744723
_cell_angle_gamma 26.590703
_cell_volume 866.512715
_symmetry_space_group_name_H-M "P -1"
_symmetry_group_IT_number 2
_symmetry_cell_setting 'triclinic'
loop_
_space_group_symop_operation_xyz
x,y,z
-x,-y,-z
loop_
_atom_site_type_symbol
_atom_site_label
_atom_site_fract_x
_atom_site_fract_y
_atom_site_fract_z
Si Si1 0.357919 0.439590 0.423823
Si Si2 0.139710 0.625888 0.111314
Si Si3 0.600830 0.124514 0.857725
Si Si4 0.839071 0.244418 0.502163
Si Si5 0.741182 0.188099 0.770568
Si Si6 0.771690 0.061242 0.895595
Si Si7 0.807618 0.950629 0.162081
Si Si8 0.266686 0.271820 0.456222
O O1 0.255104 0.607071 0.316318
O O2 0.282940 0.599541 0.496738
O O3 0.547332 0.336743 0.597847
O O4 0.340160 0.183292 0.255974
O O5 0.180498 0.725049 0.143405
O O6 0.173071 0.334001 0.975109
O O7 0.952694 0.825574 0.007204
O O8 0.682302 0.199672 0.937398
O O9 0.411037 0.266208 0.682313
O O10 0.663454 0.134157 0.026088
O O11 0.837635 0.447919 0.554439
O O12 0.023395 0.087753 0.675965
O O13 0.790025 0.068262 0.290524
O O14 0.774393 0.229944 0.924434
O O15 0.805728 0.873834 0.670265
O O16 0.677562 0.929151 0.659810
#
# Coordination Sequence:
#
# PCOD9006130 Si02
#       8
#     2   2   2   2   2   2   2   2
#     4  10  18  31  53  71  98 126 160 203 237 282
#     4  11  19  32  49  76  98 127 164 194 234 285
#     4  10  17  32  50  78  95 120 164 201 245 276
#     4  11  19  35  49  74  98 129 158 194 254 279
#     4   9  19  31  49  76  96 127 158 203 237 277
#     4  10  17  28  52  76  95 124 154 206 238 279
#     4  10  22  31  50  72 104 126 155 201 236 294
#     4   9  18  30  52  72  97 124 155 204 238 285
#
# _framework density 18.464818999999999
#
# number of rings (size 3 to 8) (size 9 to 14) (size 15 to 20)
#    0.750    1.250    2.500    2.625    0.000    2.500 
#    0.000    0.625    0.000    1.500    0.000    6.125 
#    0.000    0.000    0.000    0.000    0.000    0.000 
#
# Total GULP energy -89093.764310 kJ/mol
# GULP energy per Si atom -5568.360269 kJ/mol
# Density = 1.842279 g / cm^3
# Si number density = 18.464819 Si / 1000 Ang^3
#
#
#
# Elastic Constant Matrix: (Units=GPa)
#
#
# Indices 1 2 3 4 5 6 
#
# 1 52.6682 5.6410 18.0357 7.3335 0.7393 9.5353
# 2 5.6410 17.0331 15.1985 -5.9827 -9.5239 7.6012
# 3 18.0357 15.1985 55.0915 -9.8926 -10.7450 1.9022
# 4 7.3335 -5.9827 -9.8926 26.6216 2.0750 -9.7445
# 5 0.7393 -9.5239 -10.7450 2.0750 20.2024 -3.5249
# 6 9.5353 7.6012 1.9022 -9.7445 -3.5249 28.9796
#
#
#
# Elastic Compliance Matrix: (Units=1/GPa)
#
#
# Indices 1 2 3 4 5 6 
#
# 1 0.029669 -0.003145 -0.013786 -0.018913 -0.010696 -0.015693
# 2 -0.003145 0.109601 -0.019842 0.008232 0.037046 -0.019137
# 3 -0.013786 -0.019842 0.032266 0.015752 0.009142 0.014031
# 4 -0.018913 0.008232 0.015752 0.058402 0.011144 0.024023
# 5 -0.010696 0.037046 0.009142 0.011144 0.072070 0.005716
# 6 -0.015693 -0.019137 0.014031 0.024023 0.005716 0.052542
#
#
# Mechanical properties :
#
#
# Convention : Reuss Voigt Hill
#
# Bulk Modulus (GPa) = 10.20525 22.50481 16.35503
# Shear Modulus (GPa) = 10.85162 20.88855 15.87009
#
# Velocity S-wave (km/s) = 2.42687 3.36707 2.93486
# Velocity P-wave (km/s) = 3.65948 5.22787 4.51234
#
# Compressibility (1/GPa) = 0.09798874
#
# Stress axis : x y z
#
# Youngs Moduli (GPa) = 33.70489 9.12399 30.99249
#
# Poissons Ratio (x) = 0.02870 0.42726
# Poissons Ratio (y) = 0.10602 0.61497
# Poissons Ratio (z) = 0.46465 0.18104
#
# Static dielectric constant tensor:
#      x y z
#    x 1.646340 0.025000 -0.017740 
#    y 0.025000 1.674550 -0.011400 
#    z -0.017740 -0.011400 1.653050 
# 
# From -- ./inp_files/189304.got.cif
#   From: 2010.05.17/outbox.cif.g08.bks.cpg/sg2_95_cif.got.tgz:189304.got - 2010.06.03 11:33:40.
