data_PCOD9006134
_publ_section_title
;
Structure prediction by ZEFSAII (Michael W. Deem and Ramdas Pophale) SiO2 
 PCOD9006134
Probable space group: P -1
;
_chemical_formula_sum "Si O2"
_cell_formula_units_Z 12
_cell_length_a 8.928367
_cell_length_b 10.675593
_cell_length_c 17.399058
_cell_angle_alpha 39.855401
_cell_angle_beta 150.022559
_cell_angle_gamma 140.154257
_cell_volume 502.920178
_symmetry_space_group_name_H-M "P -1"
_symmetry_group_IT_number 2
_symmetry_cell_setting 'triclinic'
loop_
_space_group_symop_operation_xyz
x,y,z
-x,-y,-z
loop_
_atom_site_type_symbol
_atom_site_label
_atom_site_fract_x
_atom_site_fract_y
_atom_site_fract_z
Si Si1 0.676133 0.921997 0.680810
Si Si2 0.911644 0.160451 0.829110
Si Si3 0.545597 0.383839 0.669852
Si Si4 0.084003 0.687588 0.006847
Si Si5 0.440298 0.578867 0.838915
Si Si6 0.027642 0.238859 0.395351
O O1 0.012153 0.877049 0.843257
O O2 0.818101 0.622520 0.988353
O O3 0.500000 0.000000 0.500000
O O4 0.738180 0.057907 0.721962
O O5 0.688084 0.260260 0.729661
O O6 0.228426 0.344585 0.860198
O O7 0.000000 0.000000 0.000000
O O8 0.802294 0.658052 0.498050
O O9 0.750555 0.625174 0.637151
O O10 0.592280 0.294825 0.814846
O O11 0.701005 0.292115 0.225030
O O12 0.000000 0.500000 0.000000
O O13 0.443072 0.692294 0.705690
O O14 0.000000 0.000000 0.500000
#
# Coordination Sequence:
#
# PCOD9006134 Si02
#       6
#     2   2   2   2   2   2
#     4  10  23  42  65  95 136 178 216 273 336 392
#     4  11  20  40  70  96 128 168 222 281 331 394
#     4  10  22  39  63  97 132 166 222 276 330 388
#     4  10  23  44  63  92 135 179 220 277 322 396
#     4   9  23  41  64  98 128 176 222 267 334 399
#     4  10  21  38  64  98 130 167 213 280 336 394
#
# _framework density 23.860644000000001
#
# number of rings (size 3 to 8) (size 9 to 14) (size 15 to 20)
#    1.000    1.000    1.667    1.000    0.000   13.333 
#    3.000    0.833    0.000    0.000    0.000    0.000 
#    0.000    0.000    0.000    0.000    0.000    0.000 
#
# Total GULP energy -66904.794918 kJ/mol
# GULP energy per Si atom -5575.399577 kJ/mol
# Density = 2.380634 g / cm^3
# Si number density = 23.860644 Si / 1000 Ang^3
#
#
#
# Elastic Constant Matrix: (Units=GPa)
#
#
# Indices 1 2 3 4 5 6 
#
# 1 27.2088 19.6795 12.8856 -1.7175 8.7109 -3.3250
# 2 19.6795 115.6651 46.0248 -20.4040 -12.4833 1.2649
# 3 12.8856 46.0248 198.9482 -6.0332 -34.7390 -1.8771
# 4 -1.7175 -20.4040 -6.0332 45.6471 2.5722 -5.6617
# 5 8.7109 -12.4833 -34.7390 2.5722 32.5482 -1.6306
# 6 -3.3250 1.2649 -1.8771 -5.6617 -1.6306 47.0154
#
#
#
# Elastic Compliance Matrix: (Units=1/GPa)
#
#
# Indices 1 2 3 4 5 6 
#
# 1 0.054452 -0.009974 -0.005411 -0.001417 -0.023916 0.002903
# 2 -0.009974 0.012190 -0.001010 0.004568 0.005890 -0.000319
# 3 -0.005411 -0.001010 0.007124 -0.000177 0.008689 0.000209
# 4 -0.001417 0.004568 -0.000177 0.024197 0.000165 0.002689
# 5 -0.023916 0.005890 0.008689 0.000165 0.048655 0.000204
# 6 0.002903 -0.000319 0.000209 0.002689 0.000204 0.021823
#
#
# Mechanical properties :
#
#
# Convention : Reuss Voigt Hill
#
# Bulk Modulus (GPa) = 24.40505 55.44464 39.92484
# Shear Modulus (GPa) = 23.26784 42.59097 32.92940
#
# Velocity S-wave (km/s) = 3.12614 4.22950 3.71896
# Velocity P-wave (km/s) = 4.82500 6.86577 5.93378
#
# Compressibility (1/GPa) = 0.04097513
#
# Stress axis : x y z
#
# Youngs Moduli (GPa) = 18.36488 82.03698 140.36278
#
# Poissons Ratio (x) = 0.81826 0.75950
# Poissons Ratio (y) = 0.18318 0.14177
# Poissons Ratio (z) = 0.09937 0.08286
#
# Static dielectric constant tensor:
#      x y z
#    x 1.969120 0.029040 0.038890 
#    y 0.029040 1.952210 -0.003140 
#    z 0.038890 -0.003140 1.989750 
# 
# From -- ./inp_files/567290.got.cif
#   From: 2010.05.17/outbox.cif.g08.bks.cpg/sg2_284_cif.got.tgz:567290.got - 2010.06.03 11:33:40.
