data_PCOD9006161
_publ_section_title
;
Structure prediction by ZEFSAII (Michael W. Deem and Ramdas Pophale) SiO2 
 PCOD9006161
Probable space group: P -1
;
_chemical_formula_sum "Si O2"
_cell_formula_units_Z 16
_cell_length_a 11.601919
_cell_length_b 8.734243
_cell_length_c 12.487994
_cell_angle_alpha 131.886192
_cell_angle_beta 122.565012
_cell_angle_gamma 76.442127
_cell_volume 778.081742
_symmetry_space_group_name_H-M "P -1"
_symmetry_group_IT_number 2
_symmetry_cell_setting 'triclinic'
loop_
_space_group_symop_operation_xyz
x,y,z
-x,-y,-z
loop_
_atom_site_type_symbol
_atom_site_label
_atom_site_fract_x
_atom_site_fract_y
_atom_site_fract_z
Si Si1 0.936463 0.308008 0.656150
Si Si2 0.055641 0.245940 0.106790
Si Si3 0.841809 0.307966 0.852923
Si Si4 0.402272 0.054953 0.357215
Si Si5 0.634134 0.613601 0.933229
Si Si6 0.390984 0.322838 0.295123
Si Si7 0.792738 0.891710 0.313449
Si Si8 0.607807 0.761102 0.353718
O O1 0.978836 0.550088 0.751852
O O2 0.865848 0.298872 0.734292
O O3 0.070503 0.202267 0.685036
O O4 0.831792 0.143615 0.454262
O O5 0.223865 0.308773 0.219581
O O6 0.981182 0.281440 0.973140
O O7 0.000000 0.000000 0.000000
O O8 0.768373 0.503013 0.933991
O O9 0.727900 0.119454 0.755360
O O10 0.406952 0.110936 0.262306
O O11 0.383021 0.244761 0.515274
O O12 0.542248 0.969261 0.406016
O O13 0.589742 0.669819 0.818689
O O14 0.507156 0.437810 0.831818
O O15 0.678705 0.801754 0.125656
O O16 0.500000 0.500000 0.500000
O O17 0.739424 0.801511 0.361702
#
# Coordination Sequence:
#
# PCOD9006161 Si02
#       8
#     2   2   2   2   2   2   2   2
#     4  11  23  40  68  98 131 179 221 283 335 407
#     4  12  24  40  67 102 135 170 227 291 332 390
#     4  11  20  42  70 100 125 169 244 279 325 392
#     4  10  21  38  65 100 129 172 231 279 334 389
#     4  11  22  40  69 100 130 177 227 279 332 406
#     4  12  24  39  66 101 135 172 227 285 333 394
#     4  11  23  39  65 103 139 172 227 271 348 403
#     4  10  21  39  66  94 135 179 221 280 328 405
#
# _framework density 20.563390999999999
#
# number of rings (size 3 to 8) (size 9 to 14) (size 15 to 20)
#    0.000    1.000    6.250    1.500    1.750    0.000 
#    0.000    0.625    0.000   15.000    0.000    0.000 
#    0.000    0.000    0.000    0.000    0.000    0.000 
#
# Total GULP energy -89093.630964 kJ/mol
# GULP energy per Si atom -5568.351935 kJ/mol
# Density = 2.051659 g / cm^3
# Si number density = 20.563391 Si / 1000 Ang^3
#
#
#
# Elastic Constant Matrix: (Units=GPa)
#
#
# Indices 1 2 3 4 5 6 
#
# 1 49.3655 7.0578 7.3035 15.3928 7.6780 13.6750
# 2 7.0578 90.7364 38.9075 6.0389 -4.5521 15.3698
# 3 7.3035 38.9075 144.2214 21.2848 5.6314 11.1523
# 4 15.3928 6.0389 21.2848 36.7185 0.0558 4.3979
# 5 7.6780 -4.5521 5.6314 0.0558 31.3554 -0.5376
# 6 13.6750 15.3698 11.1523 4.3979 -0.5376 21.9738
#
#
#
# Elastic Compliance Matrix: (Units=1/GPa)
#
#
# Indices 1 2 3 4 5 6 
#
# 1 0.029517 0.000256 0.001757 -0.011343 -0.007784 -0.017360
# 2 0.000256 0.013897 -0.003292 0.000500 0.002404 -0.008251
# 3 0.001757 -0.003292 0.008744 -0.004985 -0.002509 -0.002292
# 4 -0.011343 0.000500 -0.004985 0.034501 0.003726 0.002426
# 5 -0.007784 0.002404 -0.002509 0.003726 0.034669 0.004539
# 6 -0.017360 -0.008251 -0.002292 0.002426 0.004539 0.062872
#
#
# Mechanical properties :
#
#
# Convention : Reuss Voigt Hill
#
# Bulk Modulus (GPa) = 20.16131 43.42897 31.79514
# Shear Modulus (GPa) = 24.59507 33.41315 29.00411
#
# Velocity S-wave (km/s) = 3.46216 4.03536 3.75970
# Velocity P-wave (km/s) = 5.08014 6.54810 5.86027
#
# Compressibility (1/GPa) = 0.04959994
#
# Stress axis : x y z
#
# Youngs Moduli (GPa) = 33.87851 71.95579 114.36652
#
# Poissons Ratio (x) = -0.01841 -0.20090
# Poissons Ratio (y) = -0.00867 0.37647
# Poissons Ratio (z) = -0.05951 0.23686
#
# Static dielectric constant tensor:
#      x y z
#    x 1.745820 0.026850 0.033880 
#    y 0.026850 1.821740 0.015770 
#    z 0.033880 0.015770 1.848710 
# 
# From -- ./inp_files/263458.got.cif
#   From: 2010.05.17/outbox.cif.g08.bks.cpg/sg2_132_cif.got.tgz:263458.got - 2010.06.03 11:33:40.
