data_PCOD9006077
_publ_section_title
;
Structure prediction by ZEFSAII (Michael W. Deem and Ramdas Pophale) SiO2 
 PCOD9006077
Probable space group: P -1
;
_chemical_formula_sum "Si O2"
_cell_formula_units_Z 15
_cell_length_a 26.112894
_cell_length_b 19.630917
_cell_length_c 15.098300
_cell_angle_alpha 154.100627
_cell_angle_beta 162.583403
_cell_angle_gamma 17.373618
_cell_volume 686.429299
_symmetry_space_group_name_H-M "P -1"
_symmetry_group_IT_number 2
_symmetry_cell_setting 'triclinic'
loop_
_space_group_symop_operation_xyz
x,y,z
-x,-y,-z
loop_
_atom_site_type_symbol
_atom_site_label
_atom_site_fract_x
_atom_site_fract_y
_atom_site_fract_z
Si Si1 0.207613 0.172368 0.193352
Si Si2 0.480143 0.378738 0.690770
Si Si3 0.689554 0.831885 0.839069
Si Si4 0.235789 0.818164 0.890025
Si Si5 0.756649 0.950070 0.268678
Si Si6 0.000000 0.000000 0.000000
Si Si7 0.881263 0.748123 0.569506
Si Si8 0.777843 0.683063 0.138489
O O1 0.183596 0.219233 0.104360
O O2 0.016395 0.412215 0.209843
O O3 0.500000 0.000000 0.500000
O O4 0.142682 0.040278 0.956138
O O5 0.294136 0.362858 0.338470
O O6 0.356587 0.630168 0.793009
O O7 0.565479 0.286495 0.825676
O O8 0.720549 0.216780 0.834742
O O9 0.385343 0.060780 0.596789
O O10 0.768492 0.893302 0.119778
O O11 0.001952 0.881191 0.619010
O O12 0.754300 0.793111 0.137629
O O13 0.492841 0.210779 0.161265
O O14 0.977093 0.181307 0.111154
O O15 0.818497 0.779385 0.397223
O O16 0.000000 0.500000 0.500000
#
# Coordination Sequence:
#
# PCOD9006077 Si02
#       8
#     2   2   2   2   2   1   2   2
#     4  12  24  39  65 100 129 171 213 275 331 390
#     4  10  22  41  61  97 123 171 216 275 316 391
#     4  10  22  41  63  91 127 168 219 255 337 385
#     4  11  24  39  65  92 133 166 218 268 326 386
#     4  10  23  45  66  92 126 180 215 265 318 412
#     4  10  22  34  62  96 128 160 218 264 332 380
#     4  10  21  38  64  95 129 169 213 280 326 386
#     4  10  23  42  67  90 131 175 216 261 335 396
#
# _framework density 21.852214
#
# number of rings (size 3 to 8) (size 9 to 14) (size 15 to 20)
#    0.000    1.600    1.333    2.400    7.467    4.267 
#    0.000    0.000    5.867    0.000    0.000    0.000 
#    0.000    0.000    0.000    0.000    0.000    0.000 
#
# Total GULP energy -83547.270317 kJ/mol
# GULP energy per Si atom -5569.818021 kJ/mol
# Density = 2.180248 g / cm^3
# Si number density = 21.852214 Si / 1000 Ang^3
#
#
#
# Elastic Constant Matrix: (Units=GPa)
#
#
# Indices 1 2 3 4 5 6 
#
# 1 64.6907 6.8062 5.4478 1.3410 3.3603 -11.2421
# 2 6.8062 115.6538 14.4750 -6.4561 11.2170 -23.8426
# 3 5.4478 14.4750 42.2382 1.1983 4.6734 -0.2403
# 4 1.3410 -6.4561 1.1983 25.7256 -0.2690 6.4047
# 5 3.3603 11.2170 4.6734 -0.2690 28.2200 -4.4372
# 6 -11.2421 -23.8426 -0.2403 6.4047 -4.4372 31.1837
#
#
#
# Elastic Compliance Matrix: (Units=1/GPa)
#
#
# Indices 1 2 3 4 5 6 
#
# 1 0.016871 0.000663 -0.002204 -0.002346 -0.000839 0.006935
# 2 0.000663 0.011020 -0.003554 0.000854 -0.002590 0.008093
# 3 -0.002204 -0.003554 0.025534 -0.001120 -0.003119 -0.003529
# 4 -0.002346 0.000854 -0.001120 0.041452 -0.000869 -0.008838
# 5 -0.000839 -0.002590 -0.003119 -0.000869 0.037580 0.003219
# 6 0.006935 0.008093 -0.003529 -0.008838 0.003219 0.043002
#
#
# Mechanical properties :
#
#
# Convention : Reuss Voigt Hill
#
# Bulk Modulus (GPa) = 23.12919 30.67119 26.90019
# Shear Modulus (GPa) = 24.99243 30.08275 27.53759
#
# Velocity S-wave (km/s) = 3.38554 3.71434 3.55374
# Velocity P-wave (km/s) = 5.08820 5.69748 5.40144
#
# Compressibility (1/GPa) = 0.04323541
#
# Stress axis : x y z
#
# Youngs Moduli (GPa) = 59.27183 90.74793 39.16317
#
# Poissons Ratio (x) = -0.06018 0.08633
# Poissons Ratio (y) = -0.03931 0.13917
# Poissons Ratio (z) = 0.13066 0.32248
#
# Static dielectric constant tensor:
#      x y z
#    x 1.779110 0.009410 -0.016920 
#    y 0.009410 1.832330 -0.000810 
#    z -0.016920 -0.000810 1.833140 
# 
# From -- ./inp_files/181218.got.cif
#   From: 2010.05.17/outbox.cif.g08.bks.cpg/sg2_91_cif.got.tgz:181218.got - 2010.06.03 11:33:40.
