data_PCOD9006984
_publ_section_title
;
Structure prediction by ZEFSAII (Michael W. Deem and Ramdas Pophale) SiO2 
 PCOD9006984
Probable space group: P -1
;
_chemical_formula_sum "Si O2"
_cell_formula_units_Z 16
_cell_length_a 11.887332
_cell_length_b 14.495182
_cell_length_c 14.452611
_cell_angle_alpha 39.022378
_cell_angle_beta 141.574842
_cell_angle_gamma 152.597313
_cell_volume 682.879671
_symmetry_space_group_name_H-M "P -1"
_symmetry_group_IT_number 2
_symmetry_cell_setting 'triclinic'
loop_
_space_group_symop_operation_xyz
x,y,z
-x,-y,-z
loop_
_atom_site_type_symbol
_atom_site_label
_atom_site_fract_x
_atom_site_fract_y
_atom_site_fract_z
Si Si1 0.842399 0.195684 0.117579
Si Si2 0.769220 0.502039 0.524534
Si Si3 0.298122 0.128060 0.587974
Si Si4 0.875372 0.037444 0.092353
Si Si5 0.771926 0.002203 0.559024
Si Si6 0.885140 0.579073 0.150659
Si Si7 0.669170 0.394610 0.950632
Si Si8 0.710919 0.390014 0.377662
O O1 0.786726 0.125429 0.029512
O O2 0.762867 0.294296 0.044805
O O3 0.695326 0.978170 0.240829
O O4 0.157672 0.389354 0.164416
O O5 0.529695 0.378260 0.537188
O O6 0.662433 0.458106 0.385223
O O7 0.013948 0.748894 0.495402
O O8 0.888472 0.410010 0.695267
O O9 0.321168 0.059419 0.558460
O O10 0.000000 0.000000 0.500000
O O11 0.082143 0.060606 0.263925
O O12 0.002305 0.192563 0.966526
O O13 0.636734 0.793623 0.109114
O O14 0.514122 0.860711 0.564891
O O15 0.743577 0.456272 0.058647
O O16 0.712679 0.465662 0.220231
O O17 0.000000 0.500000 0.500000
#
# Coordination Sequence:
#
# PCOD9006984 Si02
#       8
#     2   2   2   2   2   2   2   2
#     4  10  21  39  58  87 123 167 210 247 299 364
#     4  10  23  40  65  91 123 158 210 257 303 366
#     4  11  22  38  60  87 125 164 200 250 305 360
#     4  11  23  38  60  90 130 162 198 255 310 360
#     4  11  24  40  62  98 126 158 207 254 311 370
#     4  10  22  42  64  90 117 164 209 253 306 369
#     4  10  22  37  62  87 123 163 212 250 295 371
#     4   9  22  44  68  90 123 160 203 263 312 361
#
# _framework density 23.43019
#
# number of rings (size 3 to 8) (size 9 to 14) (size 15 to 20)
#    0.000    1.750    1.250    1.875    1.750   10.000 
#    0.000    1.250    0.000    0.000    0.000    0.000 
#    0.000    0.000    0.000    0.000    0.000    0.000 
#
# Total GULP energy -89212.260496 kJ/mol
# GULP energy per Si atom -5575.766281 kJ/mol
# Density = 2.337686 g / cm^3
# Si number density = 23.430190 Si / 1000 Ang^3
#
#
#
# Elastic Constant Matrix: (Units=GPa)
#
#
# Indices 1 2 3 4 5 6 
#
# 1 45.8036 43.8333 16.0897 -14.6258 -21.2522 12.5111
# 2 43.8333 197.4159 35.9037 -20.8140 -16.7810 31.8016
# 3 16.0897 35.9037 60.2693 -16.4414 -20.6560 13.3921
# 4 -14.6258 -20.8140 -16.4414 45.0202 10.1473 -11.7886
# 5 -21.2522 -16.7810 -20.6560 10.1473 42.1090 -8.4762
# 6 12.5111 31.8016 13.3921 -11.7886 -8.4762 36.8486
#
#
#
# Elastic Compliance Matrix: (Units=1/GPa)
#
#
# Indices 1 2 3 4 5 6 
#
# 1 0.036517 -0.006069 0.000910 0.005464 0.014664 -0.002370
# 2 -0.006069 0.007318 -0.002665 -0.000063 -0.002207 -0.003814
# 3 0.000910 -0.002665 0.022895 0.004683 0.008941 -0.002775
# 4 0.005464 -0.000063 0.004683 0.027101 -0.000483 0.005056
# 5 0.014664 -0.002207 0.008941 -0.000483 0.035092 0.001594
# 6 -0.002370 -0.003814 -0.002775 0.005056 0.001594 0.034227
#
#
# Mechanical properties :
#
#
# Convention : Reuss Voigt Hill
#
# Bulk Modulus (GPa) = 19.57681 55.01578 37.29629
# Shear Modulus (GPa) = 25.53274 38.63971 32.08622
#
# Velocity S-wave (km/s) = 3.30470 4.06537 3.70461
# Velocity P-wave (km/s) = 4.78904 6.75041 5.85247
#
# Compressibility (1/GPa) = 0.05108084
#
# Stress axis : x y z
#
# Youngs Moduli (GPa) = 27.38483 136.65114 43.67674
#
# Poissons Ratio (x) = 0.82935 -0.03973
# Poissons Ratio (y) = 0.16620 0.11641
# Poissons Ratio (z) = -0.02491 0.36420
#
# Static dielectric constant tensor:
#      x y z
#    x 1.946620 0.052890 0.018770 
#    y 0.052890 2.017740 -0.046390 
#    z 0.018770 -0.046390 1.954820 
# 
# From -- ./inp_files/468183.got.cif
#   From: 2010.05.17/outbox.cif.g08.bks.cpg/sg2_235_cif.got.tgz:468183.got - 2010.06.03 11:33:40.
