data_PCOD9006703
_publ_section_title
;
Structure prediction by ZEFSAII (Michael W. Deem and Ramdas Pophale) SiO2 
 PCOD9006703
Probable space group: P -1
;
_chemical_formula_sum "Si O2"
_cell_formula_units_Z 12
_cell_length_a 13.172464
_cell_length_b 5.126888
_cell_length_c 12.350310
_cell_angle_alpha 48.199782
_cell_angle_beta 136.748657
_cell_angle_gamma 124.118632
_cell_volume 421.366625
_symmetry_space_group_name_H-M "P -1"
_symmetry_group_IT_number 2
_symmetry_cell_setting 'triclinic'
loop_
_space_group_symop_operation_xyz
x,y,z
-x,-y,-z
loop_
_atom_site_type_symbol
_atom_site_label
_atom_site_fract_x
_atom_site_fract_y
_atom_site_fract_z
Si Si1 0.462858 0.892874 0.845519
Si Si2 0.073169 0.341683 0.757941
Si Si3 0.767456 0.239742 0.036876
Si Si4 0.177166 0.286475 0.520815
Si Si5 0.579223 0.036298 0.439001
Si Si6 0.838693 0.660751 0.758437
O O1 0.512432 0.963808 0.740017
O O2 0.290035 0.981055 0.694784
O O3 0.500000 0.500000 0.000000
O O4 0.587940 0.164902 0.929616
O O5 0.980073 0.651981 0.558947
O O6 0.168672 0.488635 0.895756
O O7 0.941799 0.020569 0.775188
O O8 0.174891 0.143823 0.810303
O O9 0.831353 0.397251 0.927176
O O10 0.299378 0.611561 0.564834
O O11 0.126066 0.362158 0.335946
O O12 0.500000 0.000000 0.500000
O O13 0.668203 0.709509 0.597205
#
# Coordination Sequence:
#
# PCOD9006703 Si02
#       6
#     2   2   2   2   2   2
#     4  11  27  48  69 100 144 194 242 292 350 424
#     4  11  24  41  67 107 146 184 228 300 365 425
#     4  12  25  40  69 107 141 185 241 293 351 427
#     4  10  22  43  67  97 142 184 233 287 365 418
#     4  10  21  39  71 103 138 182 237 296 357 418
#     4  10  21  38  68 103 146 179 228 293 365 422
#
# _framework density 28.478764999999999
#
# number of rings (size 3 to 8) (size 9 to 14) (size 15 to 20)
#    0.000    1.333    1.667    3.000    9.333    3.333 
#    0.000    1.667    0.000    0.000    0.000    0.000 
#    0.000    0.000    0.000    0.000    0.000    0.000 
#
# Total GULP energy -67100.748179 kJ/mol
# GULP energy per Si atom -5591.729015 kJ/mol
# Density = 2.841395 g / cm^3
# Si number density = 28.478765 Si / 1000 Ang^3
#
#
#
# Elastic Constant Matrix: (Units=GPa)
#
#
# Indices 1 2 3 4 5 6 
#
# 1 123.8388 12.8960 47.8721 4.7528 26.7151 -0.7445
# 2 12.8960 160.4579 74.1190 28.0776 5.3440 -12.2381
# 3 47.8721 74.1190 165.0780 -6.0647 -1.7272 0.8250
# 4 4.7528 28.0776 -6.0647 61.7707 2.0123 7.5314
# 5 26.7151 5.3440 -1.7272 2.0123 55.2869 -4.3083
# 6 -0.7445 -12.2381 0.8250 7.5314 -4.3083 40.0759
#
#
#
# Elastic Compliance Matrix: (Units=1/GPa)
#
#
# Indices 1 2 3 4 5 6 
#
# 1 0.010624 0.001440 -0.003849 -0.001735 -0.005293 0.000473
# 2 0.001440 0.009746 -0.005028 -0.005480 -0.001284 0.003998
# 3 -0.003849 -0.005028 0.009604 0.003723 0.002335 -0.002253
# 4 -0.001735 -0.005480 0.003723 0.019835 0.000336 -0.005474
# 5 -0.005293 -0.001284 0.002335 0.000336 0.020959 0.001651
# 6 0.000473 0.003998 -0.002253 -0.005474 0.001651 0.027435
#
#
# Mechanical properties :
#
#
# Convention : Reuss Voigt Hill
#
# Bulk Modulus (GPa) = 66.22593 79.90541 73.06567
# Shear Modulus (GPa) = 42.33328 52.39255 47.36291
#
# Velocity S-wave (km/s) = 3.85968 4.29383 4.08253
# Velocity P-wave (km/s) = 6.57022 7.25958 6.92348
#
# Compressibility (1/GPa) = 0.01509983
#
# Stress axis : x y z
#
# Youngs Moduli (GPa) = 94.12380 102.61020 104.12274
#
# Poissons Ratio (x) = -0.14778 0.40078
# Poissons Ratio (y) = -0.13556 0.52354
# Poissons Ratio (z) = 0.36230 0.51594
#
# Static dielectric constant tensor:
#      x y z
#    x 1.419740 0.165630 0.259470 
#    y 0.165630 2.156040 -0.098500 
#    z 0.259470 -0.098500 2.219520 
# 
# From -- ./inp_files/38678.got.cif
#   From: 2010.05.17/outbox.cif.g08.bks.cpg/sg2_20_cif.got.tgz:38678.got - 2010.06.03 11:33:40.
