data_PCOD9006439
_publ_section_title
;
Structure prediction by ZEFSAII (Michael W. Deem and Ramdas Pophale) SiO2 
 PCOD9006439
Probable space group: P -1
;
_chemical_formula_sum "Si O2"
_cell_formula_units_Z 16
_cell_length_a 14.437328
_cell_length_b 12.188090
_cell_length_c 8.846876
_cell_angle_alpha 38.016363
_cell_angle_beta 57.739716
_cell_angle_gamma 40.875074
_cell_volume 619.973688
_symmetry_space_group_name_H-M "P -1"
_symmetry_group_IT_number 2
_symmetry_cell_setting 'triclinic'
loop_
_space_group_symop_operation_xyz
x,y,z
-x,-y,-z
loop_
_atom_site_type_symbol
_atom_site_label
_atom_site_fract_x
_atom_site_fract_y
_atom_site_fract_z
Si Si1 0.955468 0.154023 0.520014
Si Si2 0.399527 0.234990 0.428234
Si Si3 0.320581 0.716233 0.258597
Si Si4 0.838818 0.736557 0.829097
Si Si5 0.817491 0.100321 0.151169
Si Si6 0.405313 0.725229 0.630324
Si Si7 0.642362 0.914960 0.056934
Si Si8 0.125574 0.381073 0.395179
O O1 0.031365 0.260869 0.295320
O O2 0.787000 0.290308 0.540496
O O3 0.031017 0.021991 0.761126
O O4 0.000000 0.000000 0.500000
O O5 0.494541 0.307040 0.288733
O O6 0.240219 0.404813 0.322029
O O7 0.500000 0.000000 0.500000
O O8 0.373293 0.179663 0.674736
O O9 0.482460 0.473809 0.367128
O O10 0.334075 0.903942 0.106399
O O11 0.245769 0.784309 0.082842
O O12 0.880355 0.570698 0.830782
O O13 0.693020 0.009092 0.632264
O O14 0.784800 0.713457 0.058491
O O15 0.709519 0.276492 0.186202
O O16 0.817157 0.883033 0.372449
O O17 0.500000 0.000000 0.000000
O O18 0.000000 0.500000 0.500000
#
# Coordination Sequence:
#
# PCOD9006439 Si02
#       8
#     2   2   2   2   2   2   2   2
#     4  10  21  40  63  89 130 177 206 266 325 386
#     4  12  20  41  66  93 128 175 214 270 336 384
#     4  12  23  40  70  96 129 175 227 267 327 397
#     4  10  22  44  62  94 134 169 221 271 334 390
#     4  10  22  42  63  97 133 166 222 275 325 386
#     4  10  22  38  67  98 129 167 220 273 328 391
#     4  12  23  41  68  94 134 174 215 279 337 387
#     4  10  21  38  66  87 126 174 218 267 324 395
#
# _framework density 25.807545999999999
#
# number of rings (size 3 to 8) (size 9 to 14) (size 15 to 20)
#    0.000    1.500    6.250    0.750    3.500    0.500 
#    0.000    0.625    5.500    0.000    0.000    0.000 
#    0.000    0.000    0.000    0.000    0.000    0.000 
#
# Total GULP energy -89273.697751 kJ/mol
# GULP energy per Si atom -5579.606109 kJ/mol
# Density = 2.574881 g / cm^3
# Si number density = 25.807546 Si / 1000 Ang^3
#
#
#
# Elastic Constant Matrix: (Units=GPa)
#
#
# Indices 1 2 3 4 5 6 
#
# 1 160.8865 58.2780 23.9751 13.7039 -7.7615 -8.5633
# 2 58.2780 178.8417 52.9344 52.0529 -8.0192 -29.7039
# 3 23.9751 52.9344 84.2078 31.1933 7.5440 -9.8747
# 4 13.7039 52.0529 31.1933 50.1392 -4.6850 -0.9006
# 5 -7.7615 -8.0192 7.5440 -4.6850 46.7376 18.9791
# 6 -8.5633 -29.7039 -9.8747 -0.9006 18.9791 47.9997
#
#
#
# Elastic Compliance Matrix: (Units=1/GPa)
#
#
# Indices 1 2 3 4 5 6 
#
# 1 0.007217 -0.002558 -0.001341 0.001647 0.001621 -0.001181
# 2 -0.002558 0.010583 -0.001531 -0.009397 -0.001880 0.006345
# 3 -0.001341 -0.001531 0.017949 -0.009714 -0.006314 0.004820
# 4 0.001647 -0.009397 -0.009714 0.035849 0.007866 -0.009957
# 5 0.001621 -0.001880 -0.006314 0.007866 0.028558 -0.013318
# 6 -0.001181 0.006345 0.004820 -0.009957 -0.013318 0.030620
#
#
# Mechanical properties :
#
#
# Convention : Reuss Voigt Hill
#
# Bulk Modulus (GPa) = 40.17770 77.14568 58.66169
# Shear Modulus (GPa) = 33.34868 48.22518 40.78693
#
# Velocity S-wave (km/s) = 3.59863 4.32747 3.97977
# Velocity P-wave (km/s) = 5.73313 7.41127 6.62555
#
# Compressibility (1/GPa) = 0.02488943
#
# Stress axis : x y z
#
# Youngs Moduli (GPa) = 138.56365 94.49432 55.71428
#
# Poissons Ratio (x) = 0.24170 0.07470
# Poissons Ratio (y) = 0.35442 0.08529
# Poissons Ratio (z) = 0.18579 0.14465
#
# Static dielectric constant tensor:
#      x y z
#    x 2.068620 -0.029780 0.025330 
#    y -0.029780 2.085530 -0.077360 
#    z 0.025330 -0.077360 2.164710 
# 
# From -- ./inp_files/306704.got.cif
#   From: 2010.05.17/outbox.cif.g08.bks.cpg/sg2_154_cif.got.tgz:306704.got - 2010.06.03 11:33:40.
