data_PCOD9006192
_publ_section_title
;
Structure prediction by ZEFSAII (Michael W. Deem and Ramdas Pophale) SiO2 
 PCOD9006192
Probable space group: P -1
;
_chemical_formula_sum "Si O2"
_cell_formula_units_Z 16
_cell_length_a 9.677328
_cell_length_b 13.147746
_cell_length_c 17.183274
_cell_angle_alpha 25.563767
_cell_angle_beta 57.715577
_cell_angle_gamma 62.724010
_cell_volume 795.916305
_symmetry_space_group_name_H-M "P -1"
_symmetry_group_IT_number 2
_symmetry_cell_setting 'triclinic'
loop_
_space_group_symop_operation_xyz
x,y,z
-x,-y,-z
loop_
_atom_site_type_symbol
_atom_site_label
_atom_site_fract_x
_atom_site_fract_y
_atom_site_fract_z
Si Si1 0.545117 0.158960 0.761004
Si Si2 0.682534 0.073773 0.306335
Si Si3 0.324815 0.281621 0.890950
Si Si4 0.643767 0.177067 0.071991
Si Si5 0.940097 0.795080 0.352220
Si Si6 0.525064 0.386430 0.254712
Si Si7 0.182572 0.445334 0.584825
Si Si8 0.964341 0.819511 0.045348
O O1 0.431839 0.227482 0.819964
O O2 0.662979 0.389403 0.547781
O O3 0.659093 0.952892 0.899121
O O4 0.436368 0.039129 0.806892
O O5 0.659485 0.285659 0.226245
O O6 0.864533 0.999101 0.283533
O O7 0.594146 0.837656 0.531818
O O8 0.606211 0.135194 0.203231
O O9 0.399928 0.495599 0.771671
O O10 0.143434 0.329760 0.882798
O O11 0.570836 0.412903 0.898372
O O12 0.842272 0.206134 0.987801
O O13 0.798563 0.662053 0.433423
O O14 0.034174 0.615716 0.498315
O O15 0.054752 0.919000 0.164996
O O16 0.122093 0.250216 0.800018
#
# Coordination Sequence:
#
# PCOD9006192 Si02
#       8
#     2   2   2   2   2   2   2   2
#     4  10  22  38  60  90 123 155 193 245 295 353
#     4  10  21  38  65  85 117 156 209 235 294 350
#     4  10  22  38  60  87 125 153 197 241 301 344
#     4  10  23  39  62  90 120 154 195 247 298 347
#     4  10  22  38  56  91 120 156 196 241 297 349
#     4  10  21  41  62  86 117 159 198 251 286 347
#     4  11  22  36  62  86 126 156 190 244 296 352
#     4  11  23  37  60  88 122 154 196 235 298 358
#
# _framework density 20.102616000000001
#
# number of rings (size 3 to 8) (size 9 to 14) (size 15 to 20)
#    0.000    1.750    1.250    2.250    7.000    2.500 
#    0.000    2.500    2.750    2.250    0.000    0.000 
#    0.000    0.000    0.000    0.000    0.000    0.000 
#
# Total GULP energy -89299.168234 kJ/mol
# GULP energy per Si atom -5581.198015 kJ/mol
# Density = 2.005686 g / cm^3
# Si number density = 20.102616 Si / 1000 Ang^3
#
#
#
# Elastic Constant Matrix: (Units=GPa)
#
#
# Indices 1 2 3 4 5 6 
#
# 1 98.0009 26.9092 12.8754 -6.8805 9.1109 -0.9682
# 2 26.9092 97.1518 20.2049 -8.2597 3.5536 0.4132
# 3 12.8754 20.2049 82.7508 3.0459 1.1262 -6.3993
# 4 -6.8805 -8.2597 3.0459 28.6278 3.6548 0.2973
# 5 9.1109 3.5536 1.1262 3.6548 26.8112 2.2706
# 6 -0.9682 0.4132 -6.3993 0.2973 2.2706 20.8170
#
#
#
# Elastic Compliance Matrix: (Units=1/GPa)
#
#
# Indices 1 2 3 4 5 6 
#
# 1 0.011638 -0.002611 -0.001169 0.002669 -0.003977 0.000629
# 2 -0.002611 0.011888 -0.002690 0.003218 -0.000918 -0.001130
# 3 -0.001169 -0.002690 0.013332 -0.002543 0.000192 0.004113
# 4 0.002669 0.003218 -0.002543 0.037582 -0.006301 -0.000571
# 5 -0.003977 -0.000918 0.000192 -0.006301 0.039993 -0.004380
# 6 0.000629 -0.001130 0.004113 -0.000571 -0.004380 0.049840
#
#
# Mechanical properties :
#
#
# Convention : Reuss Voigt Hill
#
# Bulk Modulus (GPa) = 41.80733 44.20917 43.00825
# Shear Modulus (GPa) = 27.00035 29.77881 28.38958
#
# Velocity S-wave (km/s) = 3.66884 3.85299 3.76205
# Velocity P-wave (km/s) = 6.22811 6.46789 6.34913
#
# Compressibility (1/GPa) = 0.02391925
#
# Stress axis : x y z
#
# Youngs Moduli (GPa) = 85.92754 84.12142 75.00709
#
# Poissons Ratio (x) = 0.21961 0.08767
# Poissons Ratio (y) = 0.22432 0.20174
# Poissons Ratio (z) = 0.10043 0.22626
#
# Static dielectric constant tensor:
#      x y z
#    x 1.763960 0.005750 -0.017290 
#    y 0.005750 1.718610 0.000820 
#    z -0.017290 0.000820 1.753340 
# 
# From -- ./inp_files/224209.got.cif
#   From: 2010.05.17/outbox.cif.g08.bks.cpg/sg2_113_cif.got.tgz:224209.got - 2010.06.03 11:33:40.
