data_PCOD9006626
_publ_section_title
;
Structure prediction by ZEFSAII (Michael W. Deem and Ramdas Pophale) SiO2 
 PCOD9006626
Probable space group: P -1
;
_chemical_formula_sum "Si O2"
_cell_formula_units_Z 14
_cell_length_a 15.870399
_cell_length_b 15.870399
_cell_length_c 27.091175
_cell_angle_alpha 20.895322
_cell_angle_beta 159.104950
_cell_angle_gamma 160.741308
_cell_volume 719.072923
_symmetry_space_group_name_H-M "P -1"
_symmetry_group_IT_number 2
_symmetry_cell_setting 'triclinic'
loop_
_space_group_symop_operation_xyz
x,y,z
-x,-y,-z
loop_
_atom_site_type_symbol
_atom_site_label
_atom_site_fract_x
_atom_site_fract_y
_atom_site_fract_z
Si Si1 0.840064 0.659953 0.821730
Si Si2 0.828257 0.671749 0.101143
Si Si3 0.240282 0.259726 0.656829
Si Si4 0.369207 0.130783 0.321300
Si Si5 0.918643 0.581346 0.312498
Si Si6 0.346858 0.153153 0.662144
Si Si7 0.077414 0.422575 0.301868
O O1 0.542387 0.457946 0.740791
O O2 0.762764 0.737246 0.789343
O O3 0.042088 0.957633 0.740802
O O4 0.000000 0.500000 0.000000
O O5 0.855939 0.644059 0.189599
O O6 0.965258 0.534770 0.220507
O O7 0.500000 0.500000 0.000000
O O8 0.000000 0.000000 0.000000
O O9 0.294230 0.205758 0.660103
O O10 0.079476 0.420512 0.482639
O O11 0.627564 0.373172 0.296954
O O12 0.500000 0.000000 0.500000
O O13 0.126817 0.872422 0.296956
O O14 0.218092 0.281908 0.485072
O O15 0.678779 0.323330 0.737169
O O16 0.176705 0.821242 0.737172
#
# Coordination Sequence:
#
# PCOD9006626 Si02
#       7
#     2   2   2   2   2   2   2
#     4  12  27  45  65  99 139 170 211 283 346 390
#     4  12  26  46  65  96 142 176 221 283 338 391
#     4  12  22  44  71  93 129 174 224 271 325 409
#     4  12  23  44  74 100 133 172 233 283 326 415
#     4  12  24  44  72 100 126 181 236 272 331 404
#     4  10  21  38  67  93 119 164 218 270 304 382
#     4  10  21  40  62  92 128 163 211 266 324 373
#
# _framework density 19.469512999999999
#
# number of rings (size 3 to 8) (size 9 to 14) (size 15 to 20)
#    0.000    0.571    4.286    4.286    0.000    0.000 
#   15.429    0.000    0.000    0.000    0.000    0.000 
#    0.000    0.000    0.000    0.000    0.000    0.000 
#
# Total GULP energy -78345.578569 kJ/mol
# GULP energy per Si atom -5596.112755 kJ/mol
# Density = 1.942520 g / cm^3
# Si number density = 19.469513 Si / 1000 Ang^3
#
#
#
# Elastic Constant Matrix: (Units=GPa)
#
#
# Indices 1 2 3 4 5 6 
#
# 1 202.6968 115.9805 54.1321 1.4890 7.2255 1.0735
# 2 115.9805 233.1575 57.0149 -0.7411 -11.6375 4.5046
# 3 54.1321 57.0149 91.0257 1.3614 -7.7523 0.5321
# 4 1.4890 -0.7411 1.3614 11.1199 -3.0301 7.9695
# 5 7.2255 -11.6375 -7.7523 -3.0301 27.7723 -1.9612
# 6 1.0735 4.5046 0.5321 7.9695 -1.9612 46.8989
#
#
#
# Elastic Compliance Matrix: (Units=1/GPa)
#
#
# Indices 1 2 3 4 5 6 
#
# 1 0.007845 -0.003445 -0.002858 -0.002458 -0.004521 0.000412
# 2 -0.003445 0.006653 -0.001864 0.002667 0.003395 -0.000850
# 3 -0.002858 -0.001864 0.014192 -0.000682 0.003875 0.000361
# 4 -0.002458 0.002667 -0.000682 0.106524 0.011932 -0.017795
# 5 -0.004521 0.003395 0.003875 0.011932 0.040948 -0.000582
# 6 0.000412 -0.000850 0.000361 -0.017795 -0.000582 0.024390
#
#
# Mechanical properties :
#
#
# Convention : Reuss Voigt Hill
#
# Bulk Modulus (GPa) = 80.94273 109.01503 94.97888
# Shear Modulus (GPa) = 22.62392 37.14170 29.88281
#
# Velocity S-wave (km/s) = 3.41254 4.37244 3.92197
# Velocity P-wave (km/s) = 7.56251 9.03356 8.33057
#
# Compressibility (1/GPa) = 0.01235441
#
# Stress axis : x y z
#
# Youngs Moduli (GPa) = 127.47022 150.31418 70.46468
#
# Poissons Ratio (x) = 0.51781 0.20141
# Poissons Ratio (y) = 0.43912 0.13136
# Poissons Ratio (z) = 0.36435 0.28022
#
# Static dielectric constant tensor:
#      x y z
#    x 1.643580 0.002630 0.005470 
#    y 0.002630 1.658060 -0.000980 
#    z 0.005470 -0.000980 1.674050 
# 
# From -- ./inp_files/311404.got.cif
#   From: 2010.05.17/outbox.cif.g08.bks.cpg/sg2_156_cif.got.tgz:311404.got - 2010.06.03 11:33:40.
