data_PCOD9006989
_publ_section_title
;
Structure prediction by ZEFSAII (Michael W. Deem and Ramdas Pophale) SiO2 
 PCOD9006989
Probable space group: P -1
;
_chemical_formula_sum "Si O2"
_cell_formula_units_Z 16
_cell_length_a 20.244089
_cell_length_b 22.184370
_cell_length_c 14.136791
_cell_angle_alpha 151.017847
_cell_angle_beta 20.687275
_cell_angle_gamma 161.773973
_cell_volume 695.980403
_symmetry_space_group_name_H-M "P -1"
_symmetry_group_IT_number 2
_symmetry_cell_setting 'triclinic'
loop_
_space_group_symop_operation_xyz
x,y,z
-x,-y,-z
loop_
_atom_site_type_symbol
_atom_site_label
_atom_site_fract_x
_atom_site_fract_y
_atom_site_fract_z
Si Si1 0.291828 0.128524 0.721531
Si Si2 0.801917 0.535231 0.068591
Si Si3 0.619426 0.551807 0.610993
Si Si4 0.685101 0.343832 0.159477
Si Si5 0.707537 0.146171 0.272022
Si Si6 0.123741 0.690985 0.408090
Si Si7 0.200144 0.346148 0.046332
Si Si8 0.791540 0.149697 0.681374
O O1 0.538195 0.193388 0.550641
O O2 0.298876 0.262250 0.839656
O O3 0.295446 0.022852 0.489387
O O4 0.000000 0.000000 0.000000
O O5 0.849379 0.441665 0.807795
O O6 0.084517 0.760973 0.972297
O O7 0.509452 0.449741 0.309637
O O8 0.751920 0.453399 0.124948
O O9 0.518112 0.355327 0.466091
O O10 0.960762 0.745601 0.429644
O O11 0.466767 0.529124 0.876924
O O12 0.000000 0.500000 0.000000
O O13 0.583728 0.151922 0.006931
O O14 0.918528 0.220100 0.179575
O O15 0.437746 0.912890 0.313380
O O16 0.886645 0.621017 0.700766
O O17 0.055160 0.698293 0.402959
#
# Coordination Sequence:
#
# PCOD9006989 Si02
#       8
#     2   2   2   2   2   2   2   2
#     4  11  22  37  61  86 122 168 194 242 310 356
#     4  10  22  38  66  86 117 164 194 250 316 346
#     4  10  22  37  62  89 114 157 208 243 299 371
#     4   9  19  39  62  83 117 153 200 257 295 352
#     4  10  23  39  57  91 125 156 200 251 294 360
#     4  10  21  39  58  88 126 157 194 252 298 358
#     4  11  23  38  58  90 124 162 196 250 303 352
#     4   9  20  37  57  88 112 156 205 239 303 353
#
# _framework density 22.989153999999999
#
# number of rings (size 3 to 8) (size 9 to 14) (size 15 to 20)
#    0.000    2.000    2.500    0.750    7.000    3.500 
#    0.000    0.625    8.250   14.250    0.000    0.000 
#    0.000    0.000    0.000    0.000    0.000    0.000 
#
# Total GULP energy -89115.778874 kJ/mol
# GULP energy per Si atom -5569.736180 kJ/mol
# Density = 2.293683 g / cm^3
# Si number density = 22.989154 Si / 1000 Ang^3
#
#
#
# Elastic Constant Matrix: (Units=GPa)
#
#
# Indices 1 2 3 4 5 6 
#
# 1 71.4884 -4.6474 6.5177 -5.0390 -28.6884 -6.3041
# 2 -4.6474 45.0411 9.6334 16.6375 -3.5096 0.8621
# 3 6.5177 9.6334 63.8632 23.1896 -11.0112 11.9207
# 4 -5.0390 16.6375 23.1896 38.8094 2.5561 4.0950
# 5 -28.6884 -3.5096 -11.0112 2.5561 44.9659 -3.9474
# 6 -6.3041 0.8621 11.9207 4.0950 -3.9474 19.3845
#
#
#
# Elastic Compliance Matrix: (Units=1/GPa)
#
#
# Indices 1 2 3 4 5 6 
#
# 1 0.021077 0.003321 -0.002565 0.000765 0.013998 0.010973
# 2 0.003321 0.027321 0.000225 -0.012119 0.005291 0.003364
# 3 -0.002565 0.000225 0.023696 -0.013608 0.003927 -0.011742
# 4 0.000765 -0.012119 -0.013608 0.039642 -0.006083 -0.000457
# 5 0.013998 0.005291 0.003927 -0.006083 0.033774 0.010065
# 6 0.010973 0.003364 -0.011742 -0.000457 0.010065 0.064374
#
#
# Mechanical properties :
#
#
# Convention : Reuss Voigt Hill
#
# Bulk Modulus (GPa) = 13.50315 22.60002 18.05159
# Shear Modulus (GPa) = 21.49546 31.89122 26.69334
#
# Velocity S-wave (km/s) = 3.06114 3.72859 3.41123
# Velocity P-wave (km/s) = 4.28725 5.32810 4.83576
#
# Compressibility (1/GPa) = 0.07405679
#
# Stress axis : x y z
#
# Youngs Moduli (GPa) = 47.44472 36.60190 42.20046
#
# Poissons Ratio (x) = -0.12156 0.10823
# Poissons Ratio (y) = -0.15758 -0.00948
# Poissons Ratio (z) = 0.12168 -0.00822
#
# Static dielectric constant tensor:
#      x y z
#    x 1.873760 0.007490 -0.001950 
#    y 0.007490 1.893260 0.031480 
#    z -0.001950 0.031480 1.934860 
# 
# From -- ./inp_files/225740.got.cif
#   From: 2010.05.17/outbox.cif.g08.bks.cpg/sg2_113_cif.got.tgz:225740.got - 2010.06.03 11:33:40.
