data_PCOD9006241
_publ_section_title
;
Structure prediction by ZEFSAII (Michael W. Deem and Ramdas Pophale) SiO2 
 PCOD9006241
Probable space group: P -1
;
_chemical_formula_sum "Si O2"
_cell_formula_units_Z 16
_cell_length_a 11.037815
_cell_length_b 13.368200
_cell_length_c 9.203913
_cell_angle_alpha 83.420336
_cell_angle_beta 118.331415
_cell_angle_gamma 134.526989
_cell_volume 799.052632
_symmetry_space_group_name_H-M "P -1"
_symmetry_group_IT_number 2
_symmetry_cell_setting 'triclinic'
loop_
_space_group_symop_operation_xyz
x,y,z
-x,-y,-z
loop_
_atom_site_type_symbol
_atom_site_label
_atom_site_fract_x
_atom_site_fract_y
_atom_site_fract_z
Si Si1 0.035919 0.127497 0.577691
Si Si2 0.713964 0.288632 0.896210
Si Si3 0.202333 0.503670 0.621909
Si Si4 0.255997 0.357931 0.892503
Si Si5 0.283212 0.409539 0.456054
Si Si6 0.864862 0.586718 0.920452
Si Si7 0.609371 0.010246 0.415489
Si Si8 0.244958 0.728508 0.739468
O O1 0.181957 0.218183 0.788384
O O2 0.153098 0.258522 0.500171
O O3 0.826806 0.067408 0.528439
O O4 0.000000 0.000000 0.500000
O O5 0.710000 0.408134 0.875092
O O6 0.540558 0.149321 0.720512
O O7 0.715389 0.251941 0.070008
O O8 0.922311 0.354587 0.937006
O O9 0.161154 0.401436 0.741962
O O10 0.346174 0.529297 0.585187
O O11 0.311971 0.658362 0.724609
O O12 0.993547 0.404608 0.426832
O O13 0.500000 0.500000 0.000000
O O14 0.182553 0.345278 0.013766
O O15 0.500000 0.500000 0.500000
O O16 0.144709 0.377138 0.253560
O O17 0.649581 0.123678 0.308303
O O18 0.500000 0.000000 0.500000
#
# Coordination Sequence:
#
# PCOD9006241 Si02
#       8
#     2   2   2   2   2   2   2   2
#     4  11  26  47  68  98 144 183 221 283 353 414
#     4  11  24  37  66  95 132 178 214 285 341 407
#     4  10  21  38  65  91 125 169 219 271 341 385
#     4  11  22  41  65  95 129 176 226 277 330 407
#     4  11  23  41  67  97 132 179 227 278 333 413
#     4  11  22  40  63 100 128 162 235 280 325 394
#     4  12  26  41  66  99 138 179 231 279 355 409
#     4  11  21  41  62  90 133 171 213 281 339 398
#
# _framework density 20.023710999999999
#
# number of rings (size 3 to 8) (size 9 to 14) (size 15 to 20)
#    0.000    1.000    5.000    2.625    5.250    0.000 
#    0.000    0.625    0.000    0.000    0.000    0.000 
#    0.000    0.000    0.000    0.000    0.000    0.000 
#
# Total GULP energy -89133.066239 kJ/mol
# GULP energy per Si atom -5570.816640 kJ/mol
# Density = 1.997814 g / cm^3
# Si number density = 20.023711 Si / 1000 Ang^3
#
#
#
# Elastic Constant Matrix: (Units=GPa)
#
#
# Indices 1 2 3 4 5 6 
#
# 1 108.3939 37.7885 31.1262 12.0427 -29.9215 8.7334
# 2 37.7885 71.8182 38.2802 13.5844 -17.2046 -2.1331
# 3 31.1262 38.2802 97.6131 15.7705 -24.4760 2.5110
# 4 12.0427 13.5844 15.7705 39.1638 3.1631 -3.8380
# 5 -29.9215 -17.2046 -24.4760 3.1631 37.5357 3.6095
# 6 8.7334 -2.1331 2.5110 -3.8380 3.6095 31.3145
#
#
#
# Elastic Compliance Matrix: (Units=1/GPa)
#
#
# Indices 1 2 3 4 5 6 
#
# 1 0.014794 -0.004897 0.000940 -0.004759 0.011178 -0.006407
# 2 -0.004897 0.020644 -0.005576 -0.003314 0.001953 0.002588
# 3 0.000940 -0.005576 0.015410 -0.005647 0.009065 -0.003615
# 4 -0.004759 -0.003314 -0.005647 0.032097 -0.012364 0.006914
# 5 0.011178 0.001953 0.009065 -0.012364 0.044395 -0.010344
# 6 -0.006407 0.002588 -0.003615 0.006914 -0.010344 0.036227
#
#
# Mechanical properties :
#
#
# Convention : Reuss Voigt Hill
#
# Bulk Modulus (GPa) = 31.46499 54.69056 43.07777
# Shear Modulus (GPa) = 25.87647 32.97815 29.42731
#
# Velocity S-wave (km/s) = 3.59875 4.06267 3.83773
# Velocity P-wave (km/s) = 5.74595 7.02704 6.41854
#
# Compressibility (1/GPa) = 0.03178136
#
# Stress axis : x y z
#
# Youngs Moduli (GPa) = 67.59691 48.43954 64.89398
#
# Poissons Ratio (x) = 0.23721 -0.06098
# Poissons Ratio (y) = 0.33103 0.36184
# Poissons Ratio (z) = -0.06352 0.27009
#
# Static dielectric constant tensor:
#      x y z
#    x 1.937210 0.069550 0.067060 
#    y 0.069550 1.760950 0.022820 
#    z 0.067060 0.022820 1.765320 
# 
# From -- ./inp_files/189197.got.cif
#   From: 2010.05.17/outbox.cif.g08.bks.cpg/sg2_95_cif.got.tgz:189197.got - 2010.06.03 11:33:40.
