data_PCOD9006819
_publ_section_title
;
Structure prediction by ZEFSAII (Michael W. Deem and Ramdas Pophale) SiO2 
 PCOD9006819
Probable space group: P -1
;
_chemical_formula_sum "Si O2"
_cell_formula_units_Z 14
_cell_length_a 12.176518
_cell_length_b 9.317483
_cell_length_c 9.127167
_cell_angle_alpha 94.095620
_cell_angle_beta 60.327552
_cell_angle_gamma 126.886493
_cell_volume 680.611601
_symmetry_space_group_name_H-M "P -1"
_symmetry_group_IT_number 2
_symmetry_cell_setting 'triclinic'
loop_
_space_group_symop_operation_xyz
x,y,z
-x,-y,-z
loop_
_atom_site_type_symbol
_atom_site_label
_atom_site_fract_x
_atom_site_fract_y
_atom_site_fract_z
Si Si1 0.487058 0.042610 0.340767
Si Si2 0.751077 0.377203 0.538665
Si Si3 0.690202 0.594646 0.381172
Si Si4 0.768080 0.892517 0.561485
Si Si5 0.935187 0.798103 0.976501
Si Si6 0.870651 0.720913 0.675962
Si Si7 0.143647 0.684154 0.828716
O O1 0.378674 0.103423 0.377728
O O2 0.681245 0.211183 0.197341
O O3 0.500000 0.000000 0.500000
O O4 0.389345 0.834199 0.321880
O O5 0.689145 0.454742 0.474246
O O6 0.830213 0.532705 0.625589
O O7 0.854446 0.359910 0.348570
O O8 0.500000 0.500000 0.500000
O O9 0.787986 0.800571 0.404105
O O10 0.787484 0.637792 0.170853
O O11 0.753348 0.761222 0.689494
O O12 0.940199 0.104263 0.487861
O O13 0.867857 0.735463 0.852184
O O14 0.096136 0.815214 0.876804
O O15 0.000000 0.000000 0.000000
O O16 0.000000 0.500000 0.000000
#
# Coordination Sequence:
#
# PCOD9006819 Si02
#       7
#     2   2   2   2   2   2   2
#     4  10  21  38  69  99 128 172 222 264 321 396
#     4  10  22  40  66  98 131 176 208 270 334 393
#     4  11  22  39  67  94 129 172 223 272 326 387
#     4  10  21  39  66  99 130 178 215 268 331 392
#     4  12  25  41  69  99 126 176 227 276 319 396
#     4  10  22  42  67  98 136 174 221 268 333 393
#     4  11  23  41  67 102 131 169 223 275 323 385
#
# _framework density 20.569734
#
# number of rings (size 3 to 8) (size 9 to 14) (size 15 to 20)
#    0.000    1.429    2.857    3.429    2.000    2.286 
#    0.000    2.857    3.143    4.286    0.000    0.000 
#    0.000    0.000    0.000    0.000    0.000    0.000 
#
# Total GULP energy -78040.677042 kJ/mol
# GULP energy per Si atom -5574.334074 kJ/mol
# Density = 2.052292 g / cm^3
# Si number density = 20.569734 Si / 1000 Ang^3
#
#
#
# Elastic Constant Matrix: (Units=GPa)
#
#
# Indices 1 2 3 4 5 6 
#
# 1 141.4549 38.8983 43.3569 11.1789 -21.8026 -13.6877
# 2 38.8983 161.0687 42.8151 17.8027 -10.7524 -9.4433
# 3 43.3569 42.8151 77.7911 6.8993 -5.3960 7.2909
# 4 11.1789 17.8027 6.8993 35.7912 2.3489 -5.4954
# 5 -21.8026 -10.7524 -5.3960 2.3489 25.6688 6.8173
# 6 -13.6877 -9.4433 7.2909 -5.4954 6.8173 31.1523
#
#
#
# Elastic Compliance Matrix: (Units=1/GPa)
#
#
# Indices 1 2 3 4 5 6 
#
# 1 0.010341 -0.000167 -0.005404 -0.001939 0.006706 0.003948
# 2 -0.000167 0.007924 -0.004099 -0.002865 0.001952 0.002355
# 3 -0.005404 -0.004099 0.019006 -0.001208 -0.000003 -0.008278
# 4 -0.001939 -0.002865 -0.001208 0.031585 -0.007527 0.005781
# 5 0.006706 0.001952 -0.000003 -0.007527 0.048384 -0.008377
# 6 0.003948 0.002355 -0.008278 0.005781 -0.008377 0.039339
#
#
# Mechanical properties :
#
#
# Convention : Reuss Voigt Hill
#
# Bulk Modulus (GPa) = 55.77570 70.05059 62.91314
# Shear Modulus (GPa) = 27.48824 35.53876 31.51350
#
# Velocity S-wave (km/s) = 3.65957 4.16110 3.91836
# Velocity P-wave (km/s) = 6.71051 7.56409 7.15004
#
# Compressibility (1/GPa) = 0.01792895
#
# Stress axis : x y z
#
# Youngs Moduli (GPa) = 96.70575 126.20498 52.61583
#
# Poissons Ratio (x) = 0.02112 0.28435
# Poissons Ratio (y) = 0.01618 0.21567
# Poissons Ratio (z) = 0.52262 0.51731
#
# Static dielectric constant tensor:
#      x y z
#    x 1.746720 0.064700 0.089440 
#    y 0.064700 1.733500 -0.115580 
#    z 0.089440 -0.115580 1.606870 
# 
# From -- ./inp_files/159992.got.cif
#   From: 2010.05.17/outbox.cif.g08.bks.cpg/sg2_80_cif.got.tgz:159992.got - 2010.06.03 11:33:40.
