data_PCOD9006045
_publ_section_title
;
Structure prediction by ZEFSAII (Michael W. Deem and Ramdas Pophale) SiO2 
 PCOD9006045
Probable space group: P -1
;
_chemical_formula_sum "Si O2"
_cell_formula_units_Z 14
_cell_length_a 10.625863
_cell_length_b 10.640873
_cell_length_c 8.144057
_cell_angle_alpha 87.671557
_cell_angle_beta 129.449255
_cell_angle_gamma 116.494307
_cell_volume 595.804577
_symmetry_space_group_name_H-M "P -1"
_symmetry_group_IT_number 2
_symmetry_cell_setting 'triclinic'
loop_
_space_group_symop_operation_xyz
x,y,z
-x,-y,-z
loop_
_atom_site_type_symbol
_atom_site_label
_atom_site_fract_x
_atom_site_fract_y
_atom_site_fract_z
Si Si1 0.239159 0.370525 0.915619
Si Si2 0.700884 0.162153 0.158307
Si Si3 0.150572 0.884195 0.406425
Si Si4 0.172850 0.599992 0.009810
Si Si5 0.670076 0.566972 0.387753
Si Si6 0.353616 0.713895 0.587572
Si Si7 0.605460 0.776802 0.517923
O O1 0.269623 0.364567 0.747088
O O2 0.066738 0.206208 0.834983
O O3 0.164380 0.480701 0.880788
O O4 0.439938 0.445636 0.174404
O O5 0.845107 0.142075 0.392892
O O6 0.642340 0.257955 0.216560
O O7 0.804093 0.258398 0.077081
O O8 0.500000 0.000000 0.000000
O O9 0.255694 0.800619 0.433345
O O10 0.272729 0.058312 0.463477
O O11 0.385217 0.680371 0.268387
O O12 0.000000 0.500000 0.000000
O O13 0.752374 0.464941 0.508456
O O14 0.695737 0.682332 0.541961
O O15 0.561363 0.790382 0.668995
#
# Coordination Sequence:
#
# PCOD9006045 Si02
#       7
#     2   2   2   2   2   2   2
#     4  10  21  39  60  93 120 174 207 261 314 383
#     4  10  21  38  64  93 129 160 208 265 324 364
#     4  10  22  37  68  89 128 161 223 261 318 369
#     4  11  21  37  62  95 129 163 215 265 318 373
#     4  10  22  39  64  85 137 164 212 252 330 380
#     4  10  21  39  65  91 126 161 213 264 317 371
#     4  11  22  39  62  97 125 171 206 270 316 382
#
# _framework density 23.497636
#
# number of rings (size 3 to 8) (size 9 to 14) (size 15 to 20)
#    0.857    0.857    2.857    1.714    0.000    5.143 
#    0.000    0.714    0.000    0.000    0.000    0.000 
#    0.000    0.000    0.000    0.000    0.000    0.000 
#
# Total GULP energy -78103.641570 kJ/mol
# GULP energy per Si atom -5578.831541 kJ/mol
# Density = 2.344415 g / cm^3
# Si number density = 23.497636 Si / 1000 Ang^3
#
#
#
# Elastic Constant Matrix: (Units=GPa)
#
#
# Indices 1 2 3 4 5 6 
#
# 1 91.9188 50.8249 29.3054 14.6944 -6.4929 8.3663
# 2 50.8249 154.3044 33.2765 25.8661 3.5038 13.9856
# 3 29.3054 33.2765 51.4561 25.9731 12.9848 4.3351
# 4 14.6944 25.8661 25.9731 38.9718 8.8947 -1.9441
# 5 -6.4929 3.5038 12.9848 8.8947 23.0529 0.9133
# 6 8.3663 13.9856 4.3351 -1.9441 0.9133 32.2963
#
#
#
# Elastic Compliance Matrix: (Units=1/GPa)
#
#
# Indices 1 2 3 4 5 6 
#
# 1 0.016959 -0.003510 -0.010017 0.000003 0.011024 -0.001840
# 2 -0.003510 0.008871 -0.001705 -0.003603 0.000130 -0.002924
# 3 -0.010017 -0.001705 0.039988 -0.017729 -0.018142 -0.002588
# 4 0.000003 -0.003603 -0.017729 0.041505 -0.005741 0.006600
# 5 0.011024 0.000130 -0.018142 -0.005741 0.058996 -0.002491
# 6 -0.001840 -0.002924 -0.002588 0.006600 -0.002491 0.033521
#
#
# Mechanical properties :
#
#
# Convention : Reuss Voigt Hill
#
# Bulk Modulus (GPa) = 28.28696 58.27700 43.28198
# Shear Modulus (GPa) = 20.65352 31.14902 25.90127
#
# Velocity S-wave (km/s) = 2.96794 3.64486 3.32368
# Velocity P-wave (km/s) = 4.87948 6.52445 5.76098
#
# Compressibility (1/GPa) = 0.03535198
#
# Stress axis : x y z
#
# Youngs Moduli (GPa) = 58.96468 112.73220 25.00780
#
# Poissons Ratio (x) = 0.39567 0.25051
# Poissons Ratio (y) = 0.20696 0.04265
# Poissons Ratio (z) = 0.59068 0.19225
#
# Static dielectric constant tensor:
#      x y z
#    x 1.936360 0.006830 -0.002780 
#    y 0.006830 1.884130 -0.023340 
#    z -0.002780 -0.023340 1.953170 
# 
# From -- ./inp_files/235552.got.cif
#   From: 2010.05.17/outbox.cif.g08.bks.cpg/sg2_118_cif.got.tgz:235552.got - 2010.06.03 11:33:40.
