data_PCOD9006678
_publ_section_title
;
Structure prediction by ZEFSAII (Michael W. Deem and Ramdas Pophale) SiO2 
 PCOD9006678
Probable space group: P -1
;
_chemical_formula_sum "Si O2"
_cell_formula_units_Z 16
_cell_length_a 17.605626
_cell_length_b 6.858290
_cell_length_c 18.333714
_cell_angle_alpha 43.085359
_cell_angle_beta 24.002567
_cell_angle_gamma 43.154376
_cell_volume 599.431484
_symmetry_space_group_name_H-M "P -1"
_symmetry_group_IT_number 2
_symmetry_cell_setting 'triclinic'
loop_
_space_group_symop_operation_xyz
x,y,z
-x,-y,-z
loop_
_atom_site_type_symbol
_atom_site_label
_atom_site_fract_x
_atom_site_fract_y
_atom_site_fract_z
Si Si1 0.133431 0.073455 0.427331
Si Si2 0.849901 0.727355 0.169409
Si Si3 0.189638 0.707450 0.239461
Si Si4 0.118648 0.120213 0.065017
Si Si5 0.525284 0.432316 0.588666
Si Si6 0.620701 0.313843 0.214676
Si Si7 0.292685 0.980095 0.559605
Si Si8 0.440037 0.715158 0.158090
O O1 0.171011 0.401215 0.303445
O O2 0.008308 0.098019 0.604647
O O3 0.316117 0.825053 0.310180
O O4 0.000000 0.000000 0.500000
O O5 0.022339 0.444759 0.091408
O O6 0.699374 0.597906 0.385025
O O7 0.803157 0.063181 0.146818
O O8 0.802413 0.819261 0.100307
O O9 0.323454 0.628324 0.215471
O O10 0.242030 0.914065 0.073904
O O11 0.935318 0.963871 0.253248
O O12 0.417042 0.451853 0.753104
O O13 0.368474 0.657468 0.615997
O O14 0.621889 0.100526 0.573880
O O15 0.618576 0.467974 0.096720
O O16 0.428144 0.178955 0.418017
O O17 0.500000 0.000000 0.000000
#
# Coordination Sequence:
#
# PCOD9006678 Si02
#       8
#     2   2   2   2   2   2   2   2
#     4   9  22  44  70  99 129 168 231 271 324 405
#     4   9  20  40  61  95 133 163 214 269 329 400
#     4  10  23  45  72  94 134 183 215 275 341 382
#     4  10  21  38  67  98 131 169 215 269 335 398
#     4   9  19  40  61  93 126 166 217 265 322 395
#     4  11  23  41  68  89 134 172 219 273 328 384
#     4   9  19  36  65  92 124 164 219 262 324 402
#     4  11  27  46  62 103 135 173 234 277 321 403
#
# _framework density 26.691959000000001
#
# number of rings (size 3 to 8) (size 9 to 14) (size 15 to 20)
#    0.000    2.250    0.000    2.250   10.500    0.500 
#   11.250    2.500    0.000    0.000    0.000    0.000 
#    0.000    0.000    0.000    0.000    0.000    0.000 
#
# Total GULP energy -89210.039638 kJ/mol
# GULP energy per Si atom -5575.627477 kJ/mol
# Density = 2.663121 g / cm^3
# Si number density = 26.691959 Si / 1000 Ang^3
#
#
#
# Elastic Constant Matrix: (Units=GPa)
#
#
# Indices 1 2 3 4 5 6 
#
# 1 78.8684 41.2307 15.3628 4.0202 6.3198 -6.2392
# 2 41.2307 90.2452 21.1808 -11.1401 3.6131 14.1456
# 3 15.3628 21.1808 90.7884 -4.5837 0.4093 -1.4883
# 4 4.0202 -11.1401 -4.5837 41.7015 -0.6808 2.2074
# 5 6.3198 3.6131 0.4093 -0.6808 34.9411 3.4512
# 6 -6.2392 14.1456 -1.4883 2.2074 3.4512 45.3004
#
#
#
# Elastic Compliance Matrix: (Units=1/GPa)
#
#
# Indices 1 2 3 4 5 6 
#
# 1 0.019060 -0.009919 -0.001047 -0.004980 -0.003116 0.006168
# 2 -0.009919 0.018027 -0.002354 0.005919 0.000806 -0.007423
# 3 -0.001047 -0.002354 0.011792 0.000723 0.000217 0.000926
# 4 -0.004980 0.005919 0.000723 0.026346 0.001177 -0.003884
# 5 -0.003116 0.000806 0.000217 0.001177 0.029414 -0.002972
# 6 0.006168 -0.007423 0.000926 -0.003884 -0.002972 0.025688
#
#
# Mechanical properties :
#
#
# Convention : Reuss Voigt Hill
#
# Bulk Modulus (GPa) = 44.96700 46.16118 45.56409
# Shear Modulus (GPa) = 30.41732 36.53045 33.47389
#
# Velocity S-wave (km/s) = 3.37941 3.70346 3.54514
# Velocity P-wave (km/s) = 5.66661 5.96818 5.81935
#
# Compressibility (1/GPa) = 0.02223853
#
# Stress axis : x y z
#
# Youngs Moduli (GPa) = 52.46483 55.47225 84.80557
#
# Poissons Ratio (x) = 0.55024 0.08883
# Poissons Ratio (y) = 0.52041 0.19960
# Poissons Ratio (z) = 0.05495 0.13056
#
# Static dielectric constant tensor:
#      x y z
#    x 2.289660 0.032070 -0.042500 
#    y 0.032070 2.174800 0.055950 
#    z -0.042500 0.055950 2.171640 
# 
# From -- ./inp_files/574874.got.cif
#   From: 2010.05.17/outbox.cif.g08.bks.cpg/sg2_288_cif.got.tgz:574874.got - 2010.06.03 11:33:40.
