data_PCOD9006154
_publ_section_title
;
Structure prediction by ZEFSAII (Michael W. Deem and Ramdas Pophale) SiO2 
 PCOD9006154
Probable space group: P -1
;
_chemical_formula_sum "Si O2"
_cell_formula_units_Z 16
_cell_length_a 9.260557
_cell_length_b 9.129378
_cell_length_c 14.770336
_cell_angle_alpha 67.348868
_cell_angle_beta 40.666408
_cell_angle_gamma 79.663355
_cell_volume 737.672154
_symmetry_space_group_name_H-M "P -1"
_symmetry_group_IT_number 2
_symmetry_cell_setting 'triclinic'
loop_
_space_group_symop_operation_xyz
x,y,z
-x,-y,-z
loop_
_atom_site_type_symbol
_atom_site_label
_atom_site_fract_x
_atom_site_fract_y
_atom_site_fract_z
Si Si1 0.656190 0.793653 0.427875
Si Si2 0.081328 0.330771 0.506922
Si Si3 0.378906 0.800064 0.008156
Si Si4 0.930422 0.824225 0.123456
Si Si5 0.798659 0.663622 0.057379
Si Si6 0.604308 0.166517 0.806708
Si Si7 0.756469 0.171145 0.281901
Si Si8 0.467106 0.678160 0.803733
O O1 0.797864 0.696436 0.448576
O O2 0.706736 0.783790 0.300269
O O3 0.395137 0.752581 0.592353
O O4 0.740385 0.985350 0.361053
O O5 0.273351 0.315721 0.346795
O O6 0.000000 0.500000 0.500000
O O7 0.846887 0.207168 0.636357
O O8 0.441094 0.698652 0.918198
O O9 0.540270 0.974592 0.889744
O O10 0.379826 0.743948 0.124050
O O11 0.128650 0.826585 0.100437
O O12 0.931845 0.681498 0.084663
O O13 0.000000 0.000000 0.000000
O O14 0.609694 0.769832 0.146305
O O15 0.677166 0.488504 0.126729
O O16 0.984995 0.744574 0.876821
O O17 0.625377 0.185197 0.244921
#
# Coordination Sequence:
#
# PCOD9006154 Si02
#       8
#     2   2   2   2   2   2   2   2
#     4  10  21  40  66  96 133 176 219 277 327 397
#     4  11  23  45  67  94 139 183 216 278 341 397
#     4  11  23  41  67  99 127 178 233 273 330 405
#     4  12  20  38  68  98 132 176 224 272 331 400
#     4  12  23  40  68 100 137 177 223 279 336 399
#     4  11  24  42  69  96 133 176 231 273 334 410
#     4  10  21  38  64  99 132 170 221 276 335 385
#     4  11  24  43  68  96 141 175 222 283 336 396
#
# _framework density 21.689852999999999
#
# number of rings (size 3 to 8) (size 9 to 14) (size 15 to 20)
#    0.000    1.000    6.250    0.375    1.750    1.000 
#    0.000    5.000    0.000    0.000    0.000    0.000 
#    0.000    0.000    0.000    0.000    0.000    0.000 
#
# Total GULP energy -89313.947557 kJ/mol
# GULP energy per Si atom -5582.121722 kJ/mol
# Density = 2.164049 g / cm^3
# Si number density = 21.689853 Si / 1000 Ang^3
#
#
#
# Elastic Constant Matrix: (Units=GPa)
#
#
# Indices 1 2 3 4 5 6 
#
# 1 51.9430 16.3455 25.1228 3.3952 -0.6151 -4.3535
# 2 16.3455 68.2626 31.2928 3.0309 -2.0791 -0.3121
# 3 25.1228 31.2928 150.2970 21.5346 -11.5831 16.1090
# 4 3.3952 3.0309 21.5346 32.9994 4.5066 -1.3458
# 5 -0.6151 -2.0791 -11.5831 4.5066 32.6762 1.8723
# 6 -4.3535 -0.3121 16.1090 -1.3458 1.8723 41.0273
#
#
#
# Elastic Compliance Matrix: (Units=1/GPa)
#
#
# Indices 1 2 3 4 5 6 
#
# 1 0.022437 -0.003785 -0.003588 0.000731 -0.001412 0.003849
# 2 -0.003785 0.016962 -0.003174 0.000987 -0.000311 0.001020
# 3 -0.003588 -0.003174 0.009659 -0.006418 0.004303 -0.004604
# 4 0.000731 0.000987 -0.006418 0.035494 -0.007329 0.004104
# 5 -0.001412 -0.000311 0.004303 -0.007329 0.033300 -0.003602
# 6 0.003849 0.001020 -0.004604 0.004104 -0.003602 0.026897
#
#
# Mechanical properties :
#
#
# Convention : Reuss Voigt Hill
#
# Bulk Modulus (GPa) = 35.76167 46.22495 40.99331
# Shear Modulus (GPa) = 28.54477 34.52336 31.53407
#
# Velocity S-wave (km/s) = 3.63167 3.99392 3.81709
# Velocity P-wave (km/s) = 5.84028 6.52890 6.19417
#
# Compressibility (1/GPa) = 0.02796290
#
# Stress axis : x y z
#
# Youngs Moduli (GPa) = 44.56976 58.95570 103.53327
#
# Poissons Ratio (x) = 0.22317 0.37151
# Poissons Ratio (y) = 0.16871 0.32857
# Poissons Ratio (z) = 0.15993 0.18710
#
# Static dielectric constant tensor:
#      x y z
#    x 1.780290 -0.030800 0.015790 
#    y -0.030800 1.818020 0.018890 
#    z 0.015790 0.018890 1.862800 
# 
# From -- ./inp_files/494577.got.cif
#   From: 2010.05.17/outbox.cif.g08.bks.cpg/sg2_248_cif.got.tgz:494577.got - 2010.06.03 11:33:40.
