data_PCOD9006398
_publ_section_title
;
Structure prediction by ZEFSAII (Michael W. Deem and Ramdas Pophale) SiO2 
 PCOD9006398
Probable space group: P -1
;
_chemical_formula_sum "Si O2"
_cell_formula_units_Z 15
_cell_length_a 9.276561
_cell_length_b 8.045719
_cell_length_c 10.987305
_cell_angle_alpha 107.741744
_cell_angle_beta 127.983889
_cell_angle_gamma 73.445548
_cell_volume 610.411373
_symmetry_space_group_name_H-M "P -1"
_symmetry_group_IT_number 2
_symmetry_cell_setting 'triclinic'
loop_
_space_group_symop_operation_xyz
x,y,z
-x,-y,-z
loop_
_atom_site_type_symbol
_atom_site_label
_atom_site_fract_x
_atom_site_fract_y
_atom_site_fract_z
Si Si1 0.474468 0.827385 0.873884
Si Si2 0.756934 0.151592 0.685358
Si Si3 0.500000 0.500000 0.000000
Si Si4 0.151550 0.362918 0.692874
Si Si5 0.099218 0.010509 0.682894
Si Si6 0.407889 0.554882 0.189231
Si Si7 0.233829 0.426850 0.479179
Si Si8 0.419648 0.144711 0.336944
O O1 0.558435 0.629181 0.917182
O O2 0.574210 0.838498 0.799290
O O3 0.254155 0.846685 0.746377
O O4 0.500000 0.000000 0.000000
O O5 0.754931 0.339927 0.794404
O O6 0.621813 0.165394 0.500957
O O7 0.952128 0.053496 0.723418
O O8 0.646838 0.034990 0.691446
O O9 0.274136 0.506260 0.836048
O O10 0.553919 0.336986 0.886551
O O11 0.195879 0.185242 0.751760
O O12 0.178189 0.333813 0.554566
O O13 0.934008 0.429042 0.609792
O O14 0.000000 0.000000 0.500000
O O15 0.571451 0.516247 0.363488
O O16 0.281412 0.295552 0.363936
#
# Coordination Sequence:
#
# PCOD9006398 Si02
#       8
#     2   2   1   2   2   2   2   2
#     4  12  27  43  65  97 142 177 220 275 348 401
#     4  10  23  41  71  98 130 175 232 274 333 389
#     4  10  22  42  64  90 136 178 216 266 340 408
#     4  10  21  38  65  99 132 176 221 275 337 399
#     4  12  23  41  69  99 135 173 229 282 330 396
#     4  10  23  41  67  95 130 178 224 274 332 401
#     4   9  20  38  67  99 128 168 231 279 327 390
#     4  10  22  42  67  97 136 173 220 280 338 393
#
# _framework density 24.573595000000001
#
# number of rings (size 3 to 8) (size 9 to 14) (size 15 to 20)
#    0.000    1.600    1.333    2.400    9.333    3.200 
#    2.400    2.000    0.000    0.000    0.000    0.000 
#    0.000    0.000    0.000    0.000    0.000    0.000 
#
# Total GULP energy -83634.526067 kJ/mol
# GULP energy per Si atom -5575.635071 kJ/mol
# Density = 2.451766 g / cm^3
# Si number density = 24.573595 Si / 1000 Ang^3
#
#
#
# Elastic Constant Matrix: (Units=GPa)
#
#
# Indices 1 2 3 4 5 6 
#
# 1 119.8269 49.3729 41.0485 4.9907 -30.5598 -27.8330
# 2 49.3729 103.7863 41.6640 3.6301 -21.9677 -19.0604
# 3 41.0485 41.6640 99.4728 17.4461 -21.5975 -11.2153
# 4 4.9907 3.6301 17.4461 37.2657 -5.1378 -5.5284
# 5 -30.5598 -21.9677 -21.5975 -5.1378 41.4085 7.8930
# 6 -27.8330 -19.0604 -11.2153 -5.5284 7.8930 53.6606
#
#
#
# Elastic Compliance Matrix: (Units=1/GPa)
#
#
# Indices 1 2 3 4 5 6 
#
# 1 0.012961 -0.003173 -0.002452 0.001181 0.005924 0.004333
# 2 -0.003173 0.013587 -0.003842 0.001584 0.002649 0.002151
# 3 -0.002452 -0.003842 0.014241 -0.005651 0.003010 -0.000685
# 4 0.001181 0.001584 -0.005651 0.029848 0.001937 0.002784
# 5 0.005924 0.002649 0.003010 0.001937 0.031703 0.000179
# 6 0.004333 0.002151 -0.000685 0.002784 0.000179 0.021765
#
#
# Mechanical properties :
#
#
# Convention : Reuss Voigt Hill
#
# Bulk Modulus (GPa) = 45.75377 65.25078 55.50228
# Shear Modulus (GPa) = 33.26177 39.20034 36.23106
#
# Velocity S-wave (km/s) = 3.68306 3.99836 3.84394
# Velocity P-wave (km/s) = 6.06186 6.92291 6.50664
#
# Compressibility (1/GPa) = 0.02185612
#
# Stress axis : x y z
#
# Youngs Moduli (GPa) = 77.15613 73.59821 70.21874
#
# Poissons Ratio (x) = 0.23353 0.17216
# Poissons Ratio (y) = 0.24482 0.26976
# Poissons Ratio (z) = 0.18917 0.28274
#
# Static dielectric constant tensor:
#      x y z
#    x 2.076120 0.151780 0.034190 
#    y 0.151780 2.125950 0.045140 
#    z 0.034190 0.045140 2.041410 
# 
# From -- ./inp_files/383406.got.cif
#   From: 2010.05.17/outbox.cif.g08.bks.cpg/sg2_192_cif.got.tgz:383406.got - 2010.06.03 11:33:40.
