data_PCOD9006076
_publ_section_title
;
Structure prediction by ZEFSAII (Michael W. Deem and Ramdas Pophale) SiO2 
 PCOD9006076
Probable space group: P -1
;
_chemical_formula_sum "Si O2"
_cell_formula_units_Z 16
_cell_length_a 11.261820
_cell_length_b 9.371323
_cell_length_c 11.577222
_cell_angle_alpha 107.926982
_cell_angle_beta 127.129538
_cell_angle_gamma 50.159281
_cell_volume 741.731756
_symmetry_space_group_name_H-M "P -1"
_symmetry_group_IT_number 2
_symmetry_cell_setting 'triclinic'
loop_
_space_group_symop_operation_xyz
x,y,z
-x,-y,-z
loop_
_atom_site_type_symbol
_atom_site_label
_atom_site_fract_x
_atom_site_fract_y
_atom_site_fract_z
Si Si1 0.258357 0.769500 0.138294
Si Si2 0.660728 0.032772 0.111856
Si Si3 0.559692 0.676919 0.134746
Si Si4 0.863078 0.623780 0.843434
Si Si5 0.094741 0.721277 0.245162
Si Si6 0.552516 0.026693 0.284070
Si Si7 0.078633 0.718009 0.828127
Si Si8 0.222532 0.958850 0.389868
O O1 0.459748 0.641774 0.166897
O O2 0.180984 0.688674 0.158294
O O3 0.265727 0.903956 0.265122
O O4 0.128602 0.833071 0.964990
O O5 0.659930 0.054654 0.254263
O O6 0.579821 0.211188 0.027513
O O7 0.870098 0.865416 0.154036
O O8 0.500000 0.000000 0.000000
O O9 0.739503 0.485153 0.147082
O O10 0.592458 0.825884 0.239451
O O11 0.839266 0.480451 0.726522
O O12 0.666454 0.807286 0.815017
O O13 0.955187 0.684807 0.826527
O O14 0.000000 0.500000 0.000000
O O15 0.179755 0.818345 0.378295
O O16 0.624206 0.044452 0.452236
O O17 0.969329 0.834834 0.679742
#
# Coordination Sequence:
#
# PCOD9006076 Si02
#       8
#     2   2   2   2   2   2   2   2
#     4  10  23  41  66  95 135 167 221 276 326 393
#     4  10  21  38  64  95 128 168 214 276 325 380
#     4  11  23  40  66 101 130 169 221 280 328 388
#     4  12  21  40  69  95 127 173 218 277 326 393
#     4  10  23  42  64  97 133 172 219 266 340 386
#     4  11  25  43  67  96 139 171 226 270 329 404
#     4  12  23  40  70  98 131 172 225 274 330 393
#     4  10  25  44  65  99 131 185 212 273 339 389
#
# _framework density 21.57114
#
# number of rings (size 3 to 8) (size 9 to 14) (size 15 to 20)
#    0.750    0.500    1.250    6.000    1.750    3.500 
#    0.000    1.250    0.000    0.000    0.000    0.000 
#    0.000    0.000    0.000    0.000    0.000    0.000 
#
# Total GULP energy -89212.676171 kJ/mol
# GULP energy per Si atom -5575.792261 kJ/mol
# Density = 2.152204 g / cm^3
# Si number density = 21.571140 Si / 1000 Ang^3
#
#
#
# Elastic Constant Matrix: (Units=GPa)
#
#
# Indices 1 2 3 4 5 6 
#
# 1 131.5935 41.9696 16.4774 10.1809 -1.8208 -12.8757
# 2 41.9696 118.0274 27.8863 11.7918 2.2507 -22.6464
# 3 16.4774 27.8863 92.3574 13.0285 5.9637 -7.9396
# 4 10.1809 11.7918 13.0285 11.7885 4.1134 2.3145
# 5 -1.8208 2.2507 5.9637 4.1134 13.8295 -1.9372
# 6 -12.8757 -22.6464 -7.9396 2.3145 -1.9372 22.5084
#
#
#
# Elastic Compliance Matrix: (Units=1/GPa)
#
#
# Indices 1 2 3 4 5 6 
#
# 1 0.009391 -0.001492 0.000292 -0.009751 0.005011 0.005408
# 2 -0.001492 0.013429 -0.000592 -0.015957 0.004649 0.014490
# 3 0.000292 -0.000592 0.013738 -0.015960 -0.000196 0.006041
# 4 -0.009751 -0.015957 -0.015960 0.151079 -0.043258 -0.046521
# 5 0.005011 0.004649 -0.000196 -0.043258 0.087893 0.019488
# 6 0.005408 0.014490 0.006041 -0.046521 0.019488 0.070692
#
#
# Mechanical properties :
#
#
# Convention : Reuss Voigt Hill
#
# Bulk Modulus (GPa) = 30.32769 57.18276 43.75522
# Shear Modulus (GPa) = 13.85820 26.66827 20.26324
#
# Velocity S-wave (km/s) = 2.53739 3.51991 3.06824
# Velocity P-wave (km/s) = 4.76176 6.56401 5.73413
#
# Compressibility (1/GPa) = 0.03297317
#
# Stress axis : x y z
#
# Youngs Moduli (GPa) = 106.48043 74.46656 72.79240
#
# Poissons Ratio (x) = 0.11112 -0.02125
# Poissons Ratio (y) = 0.15889 0.04310
# Poissons Ratio (z) = -0.03108 0.04409
#
# Static dielectric constant tensor:
#      x y z
#    x 1.800500 0.003140 0.002410 
#    y 0.003140 1.794820 0.043880 
#    z 0.002410 0.043880 1.821140 
# 
# From -- ./inp_files/419618.got.cif
#   From: 2010.05.17/outbox.cif.g08.bks.cpg/sg2_210_cif.got.tgz:419618.got - 2010.06.03 11:33:40.
