data_PCOD9006644
_publ_section_title
;
Structure prediction by ZEFSAII (Michael W. Deem and Ramdas Pophale) SiO2 
 PCOD9006644
Probable space group: P -1
;
_chemical_formula_sum "Si O2"
_cell_formula_units_Z 16
_cell_length_a 8.767105
_cell_length_b 17.708610
_cell_length_c 7.604725
_cell_angle_alpha 131.725588
_cell_angle_beta 50.615128
_cell_angle_gamma 117.945496
_cell_volume 678.861494
_symmetry_space_group_name_H-M "P -1"
_symmetry_group_IT_number 2
_symmetry_cell_setting 'triclinic'
loop_
_space_group_symop_operation_xyz
x,y,z
-x,-y,-z
loop_
_atom_site_type_symbol
_atom_site_label
_atom_site_fract_x
_atom_site_fract_y
_atom_site_fract_z
Si Si1 0.991018 0.646967 0.287203
Si Si2 0.052078 0.595070 0.744922
Si Si3 0.177327 0.213647 0.848787
Si Si4 0.167502 0.146427 0.367396
Si Si5 0.339491 0.472690 0.431857
Si Si6 0.505600 0.089937 0.838460
Si Si7 0.558236 0.286082 0.846207
Si Si8 0.175354 0.012356 0.708881
O O1 0.210802 0.672337 0.247346
O O2 0.874134 0.747690 0.527130
O O3 0.858894 0.571055 0.390268
O O4 0.997425 0.609828 0.018845
O O5 0.286235 0.579488 0.552149
O O6 0.000000 0.500000 0.500000
O O7 0.951110 0.690221 0.885222
O O8 0.117079 0.161924 0.629566
O O9 0.416925 0.238474 0.719013
O O10 0.129760 0.127596 0.894240
O O11 0.392855 0.121180 0.141550
O O12 0.018223 0.062026 0.255783
O O13 0.500000 0.500000 0.500000
O O14 0.434363 0.384258 0.121164
O O15 0.545426 0.194170 0.857059
O O16 0.339820 0.014782 0.744218
O O17 0.702101 0.032005 0.612950
#
# Coordination Sequence:
#
# PCOD9006644 Si02
#       8
#     2   2   2   2   2   2   2   2
#     4  11  24  42  70  98 126 171 223 265 321 394
#     4  11  23  43  66  95 132 171 216 269 329 379
#     4  10  24  41  63  95 138 170 213 270 327 378
#     4  11  21  40  65  98 131 166 215 269 322 382
#     4  12  24  43  70  94 125 173 220 269 321 385
#     4  10  21  38  67  94 128 170 218 263 315 387
#     4  11  21  43  65  92 130 173 214 266 322 387
#     4  10  21  40  65  94 131 173 212 262 322 385
#
# _framework density 23.568871999999999
#
# number of rings (size 3 to 8) (size 9 to 14) (size 15 to 20)
#    0.000    1.250    5.000    1.125    0.000    0.500 
#    0.000    6.250    2.750    0.000    0.000    0.000 
#    0.000    0.000    0.000    0.000    0.000    0.000 
#
# Total GULP energy -89127.351264 kJ/mol
# GULP energy per Si atom -5570.459454 kJ/mol
# Density = 2.351523 g / cm^3
# Si number density = 23.568872 Si / 1000 Ang^3
#
#
#
# Elastic Constant Matrix: (Units=GPa)
#
#
# Indices 1 2 3 4 5 6 
#
# 1 88.3874 24.0202 16.6661 8.9717 -3.8681 8.8551
# 2 24.0202 61.2139 26.3178 0.6447 -7.7896 19.3285
# 3 16.6661 26.3178 118.0759 13.1921 -17.1404 -1.6639
# 4 8.9717 0.6447 13.1921 19.2522 -4.1441 -8.6034
# 5 -3.8681 -7.7896 -17.1404 -4.1441 43.3331 10.9154
# 6 8.8551 19.3285 -1.6639 -8.6034 10.9154 34.3878
#
#
#
# Elastic Compliance Matrix: (Units=1/GPa)
#
#
# Indices 1 2 3 4 5 6 
#
# 1 0.013550 -0.004099 -0.000142 -0.007402 0.000517 -0.003208
# 2 -0.004099 0.025689 -0.004229 -0.001858 0.006458 -0.016103
# 3 -0.000142 -0.004229 0.010517 -0.006189 0.002662 0.000529
# 4 -0.007402 -0.001858 -0.006189 0.068374 -0.002044 0.020406
# 5 0.000517 0.006458 0.002662 -0.002044 0.028461 -0.013179
# 6 -0.003208 -0.016103 0.000529 0.020406 -0.013179 0.048271
#
#
# Mechanical properties :
#
#
# Convention : Reuss Voigt Hill
#
# Bulk Modulus (GPa) = 30.47388 44.63171 37.55279
# Shear Modulus (GPa) = 22.44754 32.77283 27.61019
#
# Velocity S-wave (km/s) = 3.08948 3.73300 3.42639
# Velocity P-wave (km/s) = 5.06797 6.12848 5.62328
#
# Compressibility (1/GPa) = 0.03281499
#
# Stress axis : x y z
#
# Youngs Moduli (GPa) = 73.80088 38.92763 95.08244
#
# Poissons Ratio (x) = 0.15958 0.01351
# Poissons Ratio (y) = 0.30253 0.40211
# Poissons Ratio (z) = 0.01048 0.16463
#
# Static dielectric constant tensor:
#      x y z
#    x 2.061740 -0.165470 -0.250290 
#    y -0.165470 2.072050 0.277150 
#    z -0.250290 0.277150 2.443710 
# 
# From -- ./inp_files/222532.got.cif
#   From: 2010.05.17/outbox.cif.g08.bks.cpg/sg2_112_cif.got.tgz:222532.got - 2010.06.03 11:33:40.
