data_PCOD9007704
_publ_section_title
;
Structure prediction by ZEFSAII (Michael W. Deem and Ramdas Pophale) SiO2 
 PCOD9007704
Probable space group: P -1
;
_chemical_formula_sum "Si O2"
_cell_formula_units_Z 16
_cell_length_a 9.389481
_cell_length_b 12.409063
_cell_length_c 15.086056
_cell_angle_alpha 153.543060
_cell_angle_beta 103.043904
_cell_angle_gamma 85.226129
_cell_volume 733.760501
_symmetry_space_group_name_H-M "P -1"
_symmetry_group_IT_number 2
_symmetry_cell_setting 'triclinic'
loop_
_space_group_symop_operation_xyz
x,y,z
-x,-y,-z
loop_
_atom_site_type_symbol
_atom_site_label
_atom_site_fract_x
_atom_site_fract_y
_atom_site_fract_z
Si Si1 0.025495 0.817990 0.167660
Si Si2 0.262963 0.536035 0.041951
Si Si3 0.435302 0.489910 0.852141
Si Si4 0.600176 0.868625 0.026341
Si Si5 0.207109 0.359537 0.568422
Si Si6 0.404720 0.602922 0.633546
Si Si7 0.985968 0.327424 0.285651
Si Si8 0.896294 0.763963 0.931497
O O1 0.872244 0.698919 0.113804
O O2 0.001311 0.707827 0.982780
O O3 0.066289 0.117869 0.384564
O O4 0.170568 0.744933 0.174692
O O5 0.330178 0.482718 0.917433
O O6 0.416131 0.603283 0.172463
O O7 0.329543 0.356653 0.658645
O O8 0.508137 0.771297 0.030955
O O9 0.742316 0.756381 0.954214
O O10 0.650796 0.168836 0.247269
O O11 0.500811 0.742702 0.834591
O O12 0.281765 0.369897 0.489263
O O13 0.153831 0.616159 0.747832
O O14 0.500000 0.500000 0.500000
O O15 0.000000 0.500000 0.500000
O O16 0.957284 0.048763 0.113829
O O17 0.116556 0.388336 0.273970
#
# Coordination Sequence:
#
# PCOD9007704 Si02
#       8
#     2   2   2   2   2   2   2   2
#     4  11  23  41  66  95 129 170 224 272 340 381
#     4  10  23  43  68  90 121 176 224 278 334 394
#     4  10  22  43  66  91 126 169 225 273 332 381
#     4  10  21  39  62  92 129 172 213 259 325 391
#     4  11  23  40  63  98 133 164 222 274 321 403
#     4  10  23  37  61  95 133 171 213 260 320 401
#     4  11  23  38  60  99 135 170 213 256 322 408
#     4  11  22  38  64  91 134 174 204 265 323 388
#
# _framework density 21.805479999999999
#
# number of rings (size 3 to 8) (size 9 to 14) (size 15 to 20)
#    0.000    1.500    3.750    0.750    3.500    1.000 
#    0.000    0.000    2.750    0.000    0.000    0.000 
#    0.000    0.000    0.000    0.000    0.000    0.000 
#
# Total GULP energy -89214.155455 kJ/mol
# GULP energy per Si atom -5575.884716 kJ/mol
# Density = 2.175585 g / cm^3
# Si number density = 21.805480 Si / 1000 Ang^3
#
#
#
# Elastic Constant Matrix: (Units=GPa)
#
#
# Indices 1 2 3 4 5 6 
#
# 1 116.4200 62.7730 17.0440 -7.2573 2.0237 12.0121
# 2 62.7730 133.4431 35.5738 -1.1540 3.3228 18.8714
# 3 17.0440 35.5738 50.2898 -0.7638 3.5925 12.8379
# 4 -7.2573 -1.1540 -0.7638 25.9506 5.5402 3.4384
# 5 2.0237 3.3228 3.5925 5.5402 23.9039 -4.6957
# 6 12.0121 18.8714 12.8379 3.4384 -4.6957 54.9548
#
#
#
# Elastic Compliance Matrix: (Units=1/GPa)
#
#
# Indices 1 2 3 4 5 6 
#
# 1 0.011826 -0.005409 0.000251 0.003504 -0.001319 -0.001118
# 2 -0.005409 0.011895 -0.006208 -0.000907 -0.000332 -0.001424
# 3 0.000251 -0.006208 0.025662 0.002066 -0.004362 -0.004420
# 4 0.003504 -0.000907 0.002066 0.042538 -0.011236 -0.004559
# 5 -0.001319 -0.000332 -0.004362 -0.011236 0.046449 0.006093
# 6 -0.001118 -0.001424 -0.004420 -0.004559 0.006093 0.020769
#
#
# Mechanical properties :
#
#
# Convention : Reuss Voigt Hill
#
# Bulk Modulus (GPa) = 37.52050 58.99271 48.25660
# Shear Modulus (GPa) = 26.21197 33.27933 29.74565
#
# Velocity S-wave (km/s) = 3.47087 3.91089 3.69743
# Velocity P-wave (km/s) = 5.77121 6.89247 6.35661
#
# Compressibility (1/GPa) = 0.02665210
#
# Stress axis : x y z
#
# Youngs Moduli (GPa) = 84.56043 84.07096 38.96785
#
# Poissons Ratio (x) = 0.45471 -0.00977
# Poissons Ratio (y) = 0.45735 0.24189
# Poissons Ratio (z) = -0.02121 0.52187
#
# Static dielectric constant tensor:
#      x y z
#    x 1.886540 -0.039170 0.037830 
#    y -0.039170 1.834880 -0.009820 
#    z 0.037830 -0.009820 1.808030 
# 
# From -- ./inp_files/501240.got.cif
#   From: 2010.05.17/outbox.cif.g08.bks.cpg/sg2_251_cif.got.tgz:501240.got - 2010.06.03 11:33:40.
