data_PCOD9007972
_publ_section_title
;
Structure prediction by ZEFSAII (Michael W. Deem and Ramdas Pophale) SiO2 
 PCOD9007972
Probable space group: P -1
;
_chemical_formula_sum "Si O2"
_cell_formula_units_Z 16
_cell_length_a 14.944735
_cell_length_b 11.881809
_cell_length_c 11.599698
_cell_angle_alpha 99.074020
_cell_angle_beta 30.827810
_cell_angle_gamma 121.144137
_cell_volume 684.196525
_symmetry_space_group_name_H-M "P -1"
_symmetry_group_IT_number 2
_symmetry_cell_setting 'triclinic'
loop_
_space_group_symop_operation_xyz
x,y,z
-x,-y,-z
loop_
_atom_site_type_symbol
_atom_site_label
_atom_site_fract_x
_atom_site_fract_y
_atom_site_fract_z
Si Si1 0.832389 0.511299 0.755496
Si Si2 0.287391 0.935685 0.931900
Si Si3 0.253582 0.397778 0.600224
Si Si4 0.374523 0.607486 0.693363
Si Si5 0.495540 0.171552 0.228353
Si Si6 0.837690 0.315964 0.379859
Si Si7 0.393767 0.559588 0.242467
Si Si8 0.945945 0.948130 0.685162
O O1 0.696602 0.507531 0.798693
O O2 0.000000 0.500000 0.500000
O O3 0.022882 0.671224 0.658852
O O4 0.637489 0.340001 0.023540
O O5 0.349956 0.871864 0.950665
O O6 0.577350 0.119199 0.597327
O O7 0.149665 0.980246 0.142099
O O8 0.063182 0.774811 0.069072
O O9 0.351936 0.563864 0.577656
O O10 0.419039 0.381283 0.477973
O O11 0.324188 0.431035 0.392780
O O12 0.479018 0.777040 0.657395
O O13 0.075281 0.442889 0.046147
O O14 0.200609 0.025951 0.482758
O O15 0.753130 0.398809 0.536001
O O16 0.700070 0.742637 0.934774
O O17 0.000000 0.000000 0.500000
#
# Coordination Sequence:
#
# PCOD9007972 Si02
#       8
#     2   2   2   2   2   2   2   2
#     4   9  17  37  60  89 128 164 208 261 310 380
#     4  11  24  41  67  99 129 171 216 261 325 383
#     4  11  23  43  67  94 128 171 220 266 324 384
#     4  10  23  44  67  92 129 170 218 272 318 384
#     4  11  22  42  67  94 131 172 213 264 324 379
#     4   9  21  39  62  94 129 162 214 266 313 388
#     4  10  21  39  63  92 128 169 215 261 318 385
#     4  11  23  44  62  98 138 167 213 269 314 386
#
# _framework density 23.385093000000001
#
# number of rings (size 3 to 8) (size 9 to 14) (size 15 to 20)
#    0.000    1.750    2.500    2.250    1.750    3.000 
#    2.250    5.000    0.000    0.000    0.000    0.000 
#    0.000    0.000    0.000    0.000    0.000    0.000 
#
# Total GULP energy -89421.996082 kJ/mol
# GULP energy per Si atom -5588.874755 kJ/mol
# Density = 2.333187 g / cm^3
# Si number density = 23.385093 Si / 1000 Ang^3
#
#
#
# Elastic Constant Matrix: (Units=GPa)
#
#
# Indices 1 2 3 4 5 6 
#
# 1 60.3510 29.8190 39.6671 1.8289 -25.1996 -10.9251
# 2 29.8190 61.0952 12.1801 -4.3801 -19.1796 1.0383
# 3 39.6671 12.1801 101.2947 -17.5792 -35.8911 5.4345
# 4 1.8289 -4.3801 -17.5792 32.7005 4.4676 -6.8743
# 5 -25.1996 -19.1796 -35.8911 4.4676 39.7988 4.7447
# 6 -10.9251 1.0383 5.4345 -6.8743 4.7447 26.7653
#
#
#
# Elastic Compliance Matrix: (Units=1/GPa)
#
#
# Indices 1 2 3 4 5 6 
#
# 1 0.038430 -0.016006 -0.014749 -0.009065 0.002363 0.016555
# 2 -0.016006 0.026421 0.008332 0.005406 0.010668 -0.009753
# 3 -0.014749 0.008332 0.022177 0.009500 0.014927 -0.011052
# 4 -0.009065 0.005406 0.009500 0.037586 0.000775 0.003677
# 5 0.002363 0.010668 0.014927 0.000775 0.046391 -0.010505
# 6 0.016555 -0.009753 -0.011052 0.003677 -0.010505 0.049548
#
#
# Mechanical properties :
#
#
# Convention : Reuss Voigt Hill
#
# Bulk Modulus (GPa) = 23.70600 42.89705 33.30153
# Shear Modulus (GPa) = 17.89169 29.25788 23.57479
#
# Velocity S-wave (km/s) = 2.76903 3.54097 3.17852
# Velocity P-wave (km/s) = 4.51471 5.92466 5.26708
#
# Compressibility (1/GPa) = 0.04218341
#
# Stress axis : x y z
#
# Youngs Moduli (GPa) = 26.02104 37.84837 45.09251
#
# Poissons Ratio (x) = 0.60580 0.66506
# Poissons Ratio (y) = 0.41649 -0.37573
# Poissons Ratio (z) = 0.38378 -0.31537
#
# Static dielectric constant tensor:
#      x y z
#    x 1.906530 -0.024600 -0.010360 
#    y -0.024600 1.942710 0.018950 
#    z -0.010360 0.018950 1.912580 
# 
# From -- ./inp_files/214375.got.cif
#   From: 2010.05.17/outbox.cif.g08.bks.cpg/sg2_108_cif.got.tgz:214375.got - 2010.06.03 11:33:40.
