data_PCOD9007034
_publ_section_title
;
Structure prediction by ZEFSAII (Michael W. Deem and Ramdas Pophale) SiO2 
 PCOD9007034
Probable space group: P -1
;
_chemical_formula_sum "Si O2"
_cell_formula_units_Z 14
_cell_length_a 7.592668
_cell_length_b 15.964722
_cell_length_c 14.962965
_cell_angle_alpha 154.136437
_cell_angle_beta 101.779937
_cell_angle_gamma 64.985112
_cell_volume 641.694069
_symmetry_space_group_name_H-M "P -1"
_symmetry_group_IT_number 2
_symmetry_cell_setting 'triclinic'
loop_
_space_group_symop_operation_xyz
x,y,z
-x,-y,-z
loop_
_atom_site_type_symbol
_atom_site_label
_atom_site_fract_x
_atom_site_fract_y
_atom_site_fract_z
Si Si1 0.158647 0.197889 0.142540
Si Si2 0.293452 0.926567 0.387485
Si Si3 0.085952 0.134220 0.756103
Si Si4 0.736390 0.538123 0.331363
Si Si5 0.008927 0.701707 0.587961
Si Si6 0.268627 0.376901 0.785309
Si Si7 0.692407 0.146807 0.313890
O O1 0.166888 0.425690 0.364404
O O2 0.939487 0.293940 0.152774
O O3 0.106479 0.161408 0.201600
O O4 0.336568 0.979800 0.894563
O O5 0.278139 0.142906 0.548509
O O6 0.229356 0.004716 0.559724
O O7 0.117532 0.889747 0.293602
O O8 0.538978 0.701895 0.199587
O O9 0.969057 0.410286 0.006205
O O10 0.216269 0.022475 0.753145
O O11 0.686858 0.544219 0.228293
O O12 0.532343 0.630288 0.461747
O O13 0.825735 0.702631 0.512185
O O14 0.143398 0.784033 0.632121
#
# Coordination Sequence:
#
# PCOD9007034 Si02
#       7
#     2   2   2   2   2   2   2
#     4   9  21  43  57  85 122 146 192 244 277 341
#     4  10  23  36  59  82 109 151 188 232 284 335
#     4  11  21  37  57  84 113 145 191 232 281 340
#     4  10  21  39  59  87 117 148 196 233 279 352
#     4   9  21  42  57  87 120 147 193 240 280 341
#     4  11  20  40  57  80 117 147 184 238 283 327
#     4  12  21  37  64  84 116 158 185 236 294 333
#
# _framework density 21.817250000000001
#
# number of rings (size 3 to 8) (size 9 to 14) (size 15 to 20)
#    0.857    0.857    2.857    2.143    0.000    1.143 
#    2.571    0.000    0.000    0.000    0.000    0.000 
#    0.000    0.000    0.000    0.000    0.000    0.000 
#
# Total GULP energy -78138.107475 kJ/mol
# GULP energy per Si atom -5581.293391 kJ/mol
# Density = 2.176759 g / cm^3
# Si number density = 21.817250 Si / 1000 Ang^3
#
#
#
# Elastic Constant Matrix: (Units=GPa)
#
#
# Indices 1 2 3 4 5 6 
#
# 1 38.9579 7.2862 -3.7986 -0.2440 9.8214 12.3909
# 2 7.2862 53.2667 13.4844 -6.9424 -1.3711 6.0255
# 3 -3.7986 13.4844 55.1939 -5.1054 -6.2933 7.6079
# 4 -0.2440 -6.9424 -5.1054 36.1736 -0.5249 -5.7225
# 5 9.8214 -1.3711 -6.2933 -0.5249 22.2935 0.6199
# 6 12.3909 6.0255 7.6079 -5.7225 0.6199 27.8952
#
#
#
# Elastic Compliance Matrix: (Units=1/GPa)
#
#
# Indices 1 2 3 4 5 6 
#
# 1 0.035751 -0.004809 0.003939 -0.002898 -0.014552 -0.016187
# 2 -0.004809 0.021211 -0.004898 0.003302 0.002131 -0.000480
# 3 0.003939 -0.004898 0.021023 0.001119 0.004099 -0.006287
# 4 -0.002898 0.003302 0.001119 0.029440 0.002315 0.006257
# 5 -0.014552 0.002131 0.004099 0.002315 0.052493 0.004194
# 6 -0.016187 -0.000480 -0.006287 0.006257 0.004194 0.046047
#
#
# Mechanical properties :
#
#
# Convention : Reuss Voigt Hill
#
# Bulk Modulus (GPa) = 15.04899 20.15138 17.60019
# Shear Modulus (GPa) = 20.86369 25.96889 23.41629
#
# Velocity S-wave (km/s) = 3.09575 3.45380 3.27967
# Velocity P-wave (km/s) = 4.43745 5.01612 4.73564
#
# Compressibility (1/GPa) = 0.06644963
#
# Stress axis : x y z
#
# Youngs Moduli (GPa) = 27.97116 47.14596 47.56637
#
# Poissons Ratio (x) = 0.22671 -0.18738
# Poissons Ratio (y) = 0.13450 0.23300
# Poissons Ratio (z) = -0.11019 0.23094
#
# Static dielectric constant tensor:
#      x y z
#    x 1.773080 -0.017070 -0.000710 
#    y -0.017070 1.767150 0.000500 
#    z -0.000710 0.000500 1.824550 
# 
# From -- ./inp_files/44899.got.cif
#   From: 2010.05.17/outbox.cif.g08.bks.cpg/sg2_23_cif.got.tgz:44899.got - 2010.06.03 11:33:40.
