data_PCOD9007349
_publ_section_title
;
Structure prediction by ZEFSAII (Michael W. Deem and Ramdas Pophale) SiO2 
 PCOD9007349
Probable space group: P -1
;
_chemical_formula_sum "Si O2"
_cell_formula_units_Z 16
_cell_length_a 9.945508
_cell_length_b 21.206688
_cell_length_c 6.897550
_cell_angle_alpha 102.064416
_cell_angle_beta 46.529216
_cell_angle_gamma 123.705940
_cell_volume 841.554146
_symmetry_space_group_name_H-M "P -1"
_symmetry_group_IT_number 2
_symmetry_cell_setting 'triclinic'
loop_
_space_group_symop_operation_xyz
x,y,z
-x,-y,-z
loop_
_atom_site_type_symbol
_atom_site_label
_atom_site_fract_x
_atom_site_fract_y
_atom_site_fract_z
Si Si1 0.719745 0.417194 0.045979
Si Si2 0.990679 0.837672 0.209723
Si Si3 0.695282 0.655580 0.310801
Si Si4 0.914643 0.042521 0.485157
Si Si5 0.515260 0.066094 0.393630
Si Si6 0.742194 0.864941 0.138031
Si Si7 0.020588 0.600551 0.884939
Si Si8 0.447097 0.683813 0.242270
O O1 0.512940 0.400494 0.374355
O O2 0.862596 0.396961 0.026611
O O3 0.880873 0.509732 0.894848
O O4 0.623691 0.362598 0.918131
O O5 0.040953 0.883964 0.389712
O O6 0.844950 0.743467 0.310207
O O7 0.850556 0.857802 0.222064
O O8 0.229221 0.871578 0.890137
O O9 0.588690 0.662590 0.222646
O O10 0.852254 0.626051 0.097019
O O11 0.652850 0.980041 0.649549
O O12 0.000000 0.000000 0.500000
O O13 0.058129 0.073812 0.164883
O O14 0.417159 0.107455 0.632563
O O15 0.500000 0.000000 0.500000
O O16 0.597665 0.778157 0.130138
O O17 0.222031 0.655829 0.570570
#
# Coordination Sequence:
#
# PCOD9007349 Si02
#       8
#     2   2   2   2   2   2   2   2
#     4  10  21  39  61  89 123 155 192 241 291 345
#     4  11  23  41  60  87 120 154 197 246 293 349
#     4  10  22  39  60  87 120 156 196 241 290 346
#     4  12  23  41  65  85 116 159 197 242 299 349
#     4  12  23  41  63  85 118 155 197 247 294 346
#     4  11  23  42  59  86 124 152 191 253 295 342
#     4  10  21  39  61  90 122 153 195 243 285 345
#     4  10  22  39  61  86 119 159 194 237 297 347
#
# _framework density 19.012442
#
# number of rings (size 3 to 8) (size 9 to 14) (size 15 to 20)
#    0.000    1.250    2.500    3.750    0.000    1.500 
#    4.500    0.000    0.000    0.000    0.000    0.000 
#    0.000    0.000    0.000    0.000    0.000    0.000 
#
# Total GULP energy -89473.503424 kJ/mol
# GULP energy per Si atom -5592.093964 kJ/mol
# Density = 1.896917 g / cm^3
# Si number density = 19.012442 Si / 1000 Ang^3
#
#
#
# Elastic Constant Matrix: (Units=GPa)
#
#
# Indices 1 2 3 4 5 6 
#
# 1 72.6913 25.1307 7.4601 16.9883 -20.3368 1.9020
# 2 25.1307 58.1625 1.7209 7.2728 -1.9602 11.9807
# 3 7.4601 1.7209 46.2471 6.8548 -24.1524 -9.8895
# 4 16.9883 7.2728 6.8548 43.4399 3.1613 0.0282
# 5 -20.3368 -1.9602 -24.1524 3.1613 33.6302 7.3188
# 6 1.9020 11.9807 -9.8895 0.0282 7.3188 33.1528
#
#
#
# Elastic Compliance Matrix: (Units=1/GPa)
#
#
# Indices 1 2 3 4 5 6 
#
# 1 0.024790 -0.008739 0.009776 -0.011422 0.022649 -0.000338
# 2 -0.008739 0.022393 -0.003827 0.000651 -0.005135 -0.007600
# 3 0.009776 -0.003827 0.041840 -0.012388 0.035720 0.005428
# 4 -0.011422 0.000651 -0.012388 0.030703 -0.018839 0.000858
# 5 0.022649 -0.005135 0.035720 -0.018839 0.071551 -0.004568
# 6 -0.000338 -0.007600 0.005428 0.000858 -0.004568 0.035556
#
#
# Mechanical properties :
#
#
# Convention : Reuss Voigt Hill
#
# Bulk Modulus (GPa) = 11.98435 27.30269 19.64352
# Shear Modulus (GPa) = 19.21390 31.56384 25.38887
#
# Velocity S-wave (km/s) = 3.18244 4.07894 3.65825
# Velocity P-wave (km/s) = 4.45208 6.04775 5.31019
#
# Compressibility (1/GPa) = 0.08344217
#
# Stress axis : x y z
#
# Youngs Moduli (GPa) = 40.33929 44.65617 23.90053
#
# Poissons Ratio (x) = 0.39025 -0.23364
# Poissons Ratio (y) = 0.35253 0.09147
# Poissons Ratio (z) = -0.39434 0.17090
#
# Static dielectric constant tensor:
#      x y z
#    x 1.646200 0.010080 -0.000940 
#    y 0.010080 1.644020 -0.008160 
#    z -0.000940 -0.008160 1.629690 
# 
# From -- ./inp_files/44862.got.cif
#   From: 2010.05.17/outbox.cif.g08.bks.cpg/sg2_23_cif.got.tgz:44862.got - 2010.06.03 11:33:40.
