data_PCOD9007915
_publ_section_title
;
Structure prediction by ZEFSAII (Michael W. Deem and Ramdas Pophale) SiO2 
 PCOD9007915
Probable space group: P -1
;
_chemical_formula_sum "Si O2"
_cell_formula_units_Z 16
_cell_length_a 15.078435
_cell_length_b 12.115240
_cell_length_c 10.924503
_cell_angle_alpha 144.803913
_cell_angle_beta 46.713971
_cell_angle_gamma 108.162791
_cell_volume 674.545350
_symmetry_space_group_name_H-M "P -1"
_symmetry_group_IT_number 2
_symmetry_cell_setting 'triclinic'
loop_
_space_group_symop_operation_xyz
x,y,z
-x,-y,-z
loop_
_atom_site_type_symbol
_atom_site_label
_atom_site_fract_x
_atom_site_fract_y
_atom_site_fract_z
Si Si1 0.391982 0.723603 0.716728
Si Si2 0.653879 0.634763 0.268048
Si Si3 0.841623 0.630292 0.621576
Si Si4 0.598739 0.551058 0.775917
Si Si5 0.835402 0.092095 0.698260
Si Si6 0.315411 0.638462 0.209302
Si Si7 0.988007 0.193959 0.275712
Si Si8 0.068215 0.359006 0.935604
O O1 0.500000 0.500000 0.500000
O O2 0.498616 0.795885 0.634764
O O3 0.360431 0.612964 0.530931
O O4 0.251515 0.912373 0.104718
O O5 0.782093 0.669268 0.191087
O O6 0.735758 0.364780 0.996849
O O7 0.614504 0.618943 0.151454
O O8 0.677189 0.685014 0.811977
O O9 0.911692 0.430708 0.480779
O O10 0.871642 0.823696 0.809701
O O11 0.942047 0.496439 0.284382
O O12 0.660565 0.388355 0.692302
O O13 0.417998 0.709370 0.116223
O O14 0.870243 0.906882 0.393822
O O15 0.000000 0.000000 0.500000
O O16 0.137055 0.766587 0.475246
O O17 0.000000 0.000000 0.000000
O O18 0.000000 0.500000 0.000000
#
# Coordination Sequence:
#
# PCOD9007915 Si02
#       8
#     2   2   2   2   2   2   2   2
#     4   9  20  38  62  90 124 163 209 254 314 365
#     4  10  21  40  62  88 124 163 204 262 312 372
#     4  10  22  38  61  91 119 158 205 250 307 365
#     4   9  18  36  64  86 122 163 198 251 307 374
#     4  11  22  38  62  89 119 166 213 254 311 369
#     4   9  18  37  61  89 117 160 200 243 320 369
#     4  10  21  39  63  91 122 154 196 256 308 370
#     4  12  24  38  61  88 127 167 208 263 305 366
#
# _framework density 23.719678999999999
#
# number of rings (size 3 to 8) (size 9 to 14) (size 15 to 20)
#    0.000    2.000    2.500    0.750    3.500    0.500 
#    4.500    0.625    0.000    0.000    0.000    0.000 
#    0.000    0.000    0.000    0.000    0.000    0.000 
#
# Total GULP energy -89247.911043 kJ/mol
# GULP energy per Si atom -5577.994440 kJ/mol
# Density = 2.366569 g / cm^3
# Si number density = 23.719679 Si / 1000 Ang^3
#
#
#
# Elastic Constant Matrix: (Units=GPa)
#
#
# Indices 1 2 3 4 5 6 
#
# 1 144.8346 63.6239 34.7467 -13.7353 10.4122 41.9510
# 2 63.6239 115.5027 68.4464 -26.6751 1.8010 34.0468
# 3 34.7467 68.4464 94.3222 -23.5164 10.8842 24.6970
# 4 -13.7353 -26.6751 -23.5164 57.1897 1.3509 -11.0325
# 5 10.4122 1.8010 10.8842 1.3509 35.9492 -7.9221
# 6 41.9510 34.0468 24.6970 -11.0325 -7.9221 61.8437
#
#
#
# Elastic Compliance Matrix: (Units=1/GPa)
#
#
# Indices 1 2 3 4 5 6 
#
# 1 0.010784 -0.005330 0.001922 -0.000108 -0.004706 -0.005771
# 2 -0.005330 0.019403 -0.011459 0.002674 0.003598 -0.001553
# 3 0.001922 -0.011459 0.020776 0.003125 -0.007196 -0.003657
# 4 -0.000108 0.002674 0.003125 0.020174 -0.001643 0.000742
# 5 -0.004706 0.003598 -0.007196 -0.001643 0.033008 0.008020
# 6 -0.005771 -0.001553 -0.003657 0.000742 0.008020 0.023559
#
#
# Mechanical properties :
#
#
# Convention : Reuss Voigt Hill
#
# Bulk Modulus (GPa) = 47.10247 76.47706 61.78976
# Shear Modulus (GPa) = 30.39248 43.51937 36.95593
#
# Velocity S-wave (km/s) = 3.58344 4.28803 3.95147
# Velocity P-wave (km/s) = 6.08461 7.53845 6.85021
#
# Compressibility (1/GPa) = 0.02123031
#
# Stress axis : x y z
#
# Youngs Moduli (GPa) = 92.72760 51.53731 48.13224
#
# Poissons Ratio (x) = 0.27469 -0.09252
# Poissons Ratio (y) = 0.49424 0.55155
# Poissons Ratio (z) = -0.17825 0.59057
#
# Static dielectric constant tensor:
#      x y z
#    x 2.009330 -0.034560 -0.016920 
#    y -0.034560 1.961150 -0.019910 
#    z -0.016920 -0.019910 2.152340 
# 
# From -- ./inp_files/455989.got.cif
#   From: 2010.05.17/outbox.cif.g08.bks.cpg/sg2_228_cif.got.tgz:455989.got - 2010.06.03 11:33:40.
