data_PCOD9007513
_publ_section_title
;
Structure prediction by ZEFSAII (Michael W. Deem and Ramdas Pophale) SiO2 
 PCOD9007513
Probable space group: P -1
;
_chemical_formula_sum "Si O2"
_cell_formula_units_Z 16
_cell_length_a 7.470409
_cell_length_b 17.508459
_cell_length_c 21.005249
_cell_angle_alpha 29.028778
_cell_angle_beta 136.921375
_cell_angle_gamma 151.038281
_cell_volume 638.510771
_symmetry_space_group_name_H-M "P -1"
_symmetry_group_IT_number 2
_symmetry_cell_setting 'triclinic'
loop_
_space_group_symop_operation_xyz
x,y,z
-x,-y,-z
loop_
_atom_site_type_symbol
_atom_site_label
_atom_site_fract_x
_atom_site_fract_y
_atom_site_fract_z
Si Si1 0.829879 0.252978 0.373876
Si Si2 0.345647 0.274602 0.155135
Si Si3 0.006405 0.035660 0.116688
Si Si4 0.328510 0.467395 0.131101
Si Si5 0.317195 0.012647 0.050258
Si Si6 0.876556 0.511954 0.312978
Si Si7 0.681599 0.812132 0.501588
Si Si8 0.616494 0.085969 0.201319
O O1 0.653985 0.276182 0.252510
O O2 0.929506 0.415978 0.337991
O O3 0.170007 0.288390 0.415364
O O4 0.500000 0.000000 0.500000
O O5 0.034992 0.075924 0.170180
O O6 0.233127 0.288920 0.185138
O O7 0.500000 0.500000 0.000000
O O8 0.189998 0.948024 0.211769
O O9 0.324146 0.289807 0.984694
O O10 0.647194 0.922419 0.061951
O O11 0.508284 0.461440 0.242012
O O12 0.902047 0.327097 0.137041
O O13 0.194237 0.779297 0.198757
O O14 0.632086 0.158932 0.078886
O O15 0.000000 0.000000 0.000000
O O16 0.732176 0.365434 0.445085
O O17 0.661976 0.931446 0.353250
O O18 0.000000 0.000000 0.500000
#
# Coordination Sequence:
#
# PCOD9007513 Si02
#       8
#     2   2   2   2   2   2   2   2
#     4  11  21  36  61  93 130 156 190 255 310 355
#     4   9  18  33  54  85 116 147 193 243 303 351
#     4   9  18  33  57  79 111 152 193 242 304 350
#     4   9  17  32  55  85 109 143 193 248 298 343
#     4   9  21  41  61  80 119 164 196 244 310 355
#     4  10  21  39  62  84 124 160 193 245 304 351
#     4  12  21  35  60  95 119 153 206 243 296 366
#     4  11  20  34  55  84 115 149 200 244 285 363
#
# _framework density 25.058306000000002
#
# number of rings (size 3 to 8) (size 9 to 14) (size 15 to 20)
#    0.000    2.000    2.500    2.625    0.000    0.500 
#    4.500    1.250    5.500    0.000    0.000    0.000 
#    0.000    0.000    0.000    0.000    0.000    0.000 
#
# Total GULP energy -89165.801777 kJ/mol
# GULP energy per Si atom -5572.862611 kJ/mol
# Density = 2.500127 g / cm^3
# Si number density = 25.058306 Si / 1000 Ang^3
#
#
#
# Elastic Constant Matrix: (Units=GPa)
#
#
# Indices 1 2 3 4 5 6 
#
# 1 86.4920 10.7320 33.5194 1.0476 -1.0760 -14.9133
# 2 10.7320 78.1504 22.2676 14.4639 9.2061 -11.8300
# 3 33.5194 22.2676 138.9808 15.8542 4.0746 -1.2220
# 4 1.0476 14.4639 15.8542 44.3883 0.2546 5.0395
# 5 -1.0760 9.2061 4.0746 0.2546 30.9149 1.8973
# 6 -14.9133 -11.8300 -1.2220 5.0395 1.8973 31.2294
#
#
#
# Elastic Compliance Matrix: (Units=1/GPa)
#
#
# Indices 1 2 3 4 5 6 
#
# 1 0.013983 -0.000086 -0.003336 0.000153 0.000555 0.006456
# 2 -0.000086 0.015941 -0.001716 -0.005357 -0.004915 0.007093
# 3 -0.003336 -0.001716 0.008535 -0.002235 -0.000619 -0.001511
# 4 0.000153 -0.005357 -0.002235 0.025775 0.002071 -0.006329
# 5 0.000555 -0.004915 -0.000619 0.002071 0.034142 -0.004030
# 6 0.006456 0.007093 -0.001511 -0.006329 -0.004030 0.038998
#
#
# Mechanical properties :
#
#
# Convention : Reuss Voigt Hill
#
# Bulk Modulus (GPa) = 35.48209 48.51790 42.00000
# Shear Modulus (GPa) = 31.83840 37.11348 34.47594
#
# Velocity S-wave (km/s) = 3.56838 3.85266 3.71324
# Velocity P-wave (km/s) = 5.58286 6.26057 5.93140
#
# Compressibility (1/GPa) = 0.02818323
#
# Stress axis : x y z
#
# Youngs Moduli (GPa) = 71.51333 62.73285 117.17144
#
# Poissons Ratio (x) = 0.00541 0.39085
# Poissons Ratio (y) = 0.00617 0.20103
# Poissons Ratio (z) = 0.23855 0.10763
#
# Static dielectric constant tensor:
#      x y z
#    x 2.280350 0.110530 0.100780 
#    y 0.110530 2.212090 0.073550 
#    z 0.100780 0.073550 2.053490 
# 
# From -- ./inp_files/590975.got.cif
#   From: 2010.05.17/outbox.cif.g08.bks.cpg/sg2_296_cif.got.tgz:590975.got - 2010.06.03 11:33:40.
