data_PCOD9007085
_publ_section_title
;
Structure prediction by ZEFSAII (Michael W. Deem and Ramdas Pophale) SiO2 
 PCOD9007085
Probable space group: P -1
;
_chemical_formula_sum "Si O2"
_cell_formula_units_Z 16
_cell_length_a 5.949963
_cell_length_b 16.717787
_cell_length_c 8.617261
_cell_angle_alpha 124.295007
_cell_angle_beta 81.819450
_cell_angle_gamma 84.647764
_cell_volume 684.985783
_symmetry_space_group_name_H-M "P -1"
_symmetry_group_IT_number 2
_symmetry_cell_setting 'triclinic'
loop_
_space_group_symop_operation_xyz
x,y,z
-x,-y,-z
loop_
_atom_site_type_symbol
_atom_site_label
_atom_site_fract_x
_atom_site_fract_y
_atom_site_fract_z
Si Si1 0.538456 0.721265 0.016483
Si Si2 0.865974 0.098522 0.819188
Si Si3 0.940829 0.769006 0.827641
Si Si4 0.695854 0.409142 0.331455
Si Si5 0.712829 0.932135 0.497452
Si Si6 0.686852 0.373210 0.796669
Si Si7 0.748510 0.532065 0.201402
Si Si8 0.152937 0.251428 0.525351
O O1 0.351668 0.824087 0.145444
O O2 0.502503 0.662388 0.111576
O O3 0.779687 0.742773 0.954787
O O4 0.442536 0.658219 0.826067
O O5 0.079483 0.089282 0.670118
O O6 0.789664 0.993999 0.701414
O O7 0.941658 0.143998 0.021333
O O8 0.811282 0.788573 0.697815
O O9 0.133171 0.668842 0.666554
O O10 0.500000 0.500000 0.500000
O O11 0.847013 0.461507 0.257353
O O12 0.696303 0.826819 0.456913
O O13 0.500000 0.000000 0.500000
O O14 0.534858 0.435262 0.744966
O O15 0.879383 0.276703 0.627691
O O16 0.797760 0.454835 0.967728
O O17 0.800908 0.638942 0.342946
#
# Coordination Sequence:
#
# PCOD9007085 Si02
#       8
#     2   2   2   2   2   2   2   2
#     4  10  21  40  66  94 132 183 221 264 336 403
#     4  10  23  46  69  98 132 178 220 277 351 405
#     4  11  25  41  70 100 141 179 222 278 339 409
#     4  10  21  39  59  94 141 184 218 265 334 399
#     4  11  25  45  75 102 128 174 233 288 340 407
#     4  10  22  41  63  97 139 182 223 277 329 401
#     4  10  23  36  63  99 135 177 229 278 324 397
#     4  12  25  42  68 104 132 176 230 283 337 399
#
# _framework density 23.358149999999998
#
# number of rings (size 3 to 8) (size 9 to 14) (size 15 to 20)
#    0.000    1.500    1.250    2.625    3.500    6.500 
#    0.000    2.500    0.000    0.000    0.000    0.000 
#    0.000    0.000    0.000    0.000    0.000    0.000 
#
# Total GULP energy -89260.485221 kJ/mol
# GULP energy per Si atom -5578.780326 kJ/mol
# Density = 2.330499 g / cm^3
# Si number density = 23.358150 Si / 1000 Ang^3
#
#
#
# Elastic Constant Matrix: (Units=GPa)
#
#
# Indices 1 2 3 4 5 6 
#
# 1 44.6790 17.8880 34.3998 3.3491 0.2331 -1.5122
# 2 17.8880 74.2857 40.9915 10.1145 17.4545 -6.6873
# 3 34.3998 40.9915 102.2231 20.6026 1.6500 2.7812
# 4 3.3491 10.1145 20.6026 37.9139 -1.8243 4.5844
# 5 0.2331 17.4545 1.6500 -1.8243 38.7463 15.5720
# 6 -1.5122 -6.6873 2.7812 4.5844 15.5720 35.1867
#
#
#
# Elastic Compliance Matrix: (Units=1/GPa)
#
#
# Indices 1 2 3 4 5 6 
#
# 1 0.030962 -0.002613 -0.010103 0.003446 0.001348 0.000587
# 2 -0.002613 0.023800 -0.007933 -0.004063 -0.015565 0.012456
# 3 -0.010103 -0.007933 0.017581 -0.005782 0.004440 -0.004543
# 4 0.003446 -0.004063 -0.005782 0.031462 0.006387 -0.007093
# 5 0.001348 -0.015565 0.004440 0.006387 0.042043 -0.022690
# 6 0.000587 0.012456 -0.004543 -0.007093 -0.022690 0.042137
#
#
# Mechanical properties :
#
#
# Convention : Reuss Voigt Hill
#
# Bulk Modulus (GPa) = 32.21386 45.30518 38.75952
# Shear Modulus (GPa) = 20.86523 30.89659 25.88091
#
# Velocity S-wave (km/s) = 2.99201 3.64088 3.33228
# Velocity P-wave (km/s) = 5.07517 6.09202 5.60670
#
# Compressibility (1/GPa) = 0.03104254
#
# Stress axis : x y z
#
# Youngs Moduli (GPa) = 32.29793 42.01631 56.87951
#
# Poissons Ratio (x) = 0.10981 0.57468
# Poissons Ratio (y) = 0.08441 0.45124
# Poissons Ratio (z) = 0.32632 0.33333
#
# Static dielectric constant tensor:
#      x y z
#    x 1.941190 0.032000 -0.026120 
#    y 0.032000 1.842900 -0.018270 
#    z -0.026120 -0.018270 1.908740 
# 
# From -- ./inp_files/139549.got.cif
#   From: 2010.05.17/outbox.cif.g08.bks.cpg/sg2_70_cif.got.tgz:139549.got - 2010.06.03 11:33:40.
