data_PCOD9007479
_publ_section_title
;
Structure prediction by ZEFSAII (Michael W. Deem and Ramdas Pophale) SiO2 
 PCOD9007479
Probable space group: P -1
;
_chemical_formula_sum "Si O2"
_cell_formula_units_Z 16
_cell_length_a 12.223882
_cell_length_b 14.222706
_cell_length_c 8.312100
_cell_angle_alpha 135.942306
_cell_angle_beta 74.394277
_cell_angle_gamma 129.176770
_cell_volume 731.713878
_symmetry_space_group_name_H-M "P -1"
_symmetry_group_IT_number 2
_symmetry_cell_setting 'triclinic'
loop_
_space_group_symop_operation_xyz
x,y,z
-x,-y,-z
loop_
_atom_site_type_symbol
_atom_site_label
_atom_site_fract_x
_atom_site_fract_y
_atom_site_fract_z
Si Si1 0.612207 0.758387 0.404365
Si Si2 0.216927 0.137559 0.201644
Si Si3 0.943461 0.469069 0.160071
Si Si4 0.612593 0.244785 0.918287
Si Si5 0.409138 0.854120 0.558826
Si Si6 0.119415 0.493136 0.360099
Si Si7 0.017323 0.225454 0.310721
Si Si8 0.419914 0.352066 0.071659
O O1 0.718572 0.835006 0.612329
O O2 0.544575 0.855147 0.534723
O O3 0.482546 0.549070 0.247070
O O4 0.660873 0.757965 0.200024
O O5 0.093499 0.160606 0.290045
O O6 0.330860 0.269620 0.174199
O O7 0.130988 0.940228 0.923531
O O8 0.007643 0.663195 0.434310
O O9 0.023780 0.401706 0.124967
O O10 0.763321 0.342187 0.081126
O O11 0.000000 0.500000 0.000000
O O12 0.637489 0.198119 0.674482
O O13 0.472238 0.052238 0.809561
O O14 0.561367 0.358751 0.048254
O O15 0.271525 0.691112 0.515513
O O16 0.131822 0.368986 0.304999
O O17 0.000000 0.500000 0.500000
#
# Coordination Sequence:
#
# PCOD9007479 Si02
#       8
#     2   2   2   2   2   2   2   2
#     4  10  22  40  67  95 126 176 225 268 344 397
#     4  11  23  44  66  91 137 176 215 290 322 402
#     4  11  22  41  69  93 129 178 219 268 339 400
#     4  10  22  37  64  99 128 168 219 276 331 394
#     4  10  21  39  61  96 133 162 219 280 326 396
#     4  10  22  39  61  88 133 170 213 269 332 398
#     4  10  25  43  60  94 132 171 228 263 341 400
#     4  10  22  40  67  96 133 168 227 277 330 396
#
# _framework density 21.866471000000001
#
# number of rings (size 3 to 8) (size 9 to 14) (size 15 to 20)
#    0.000    1.750    1.250    1.875    5.250    3.000 
#    2.250    4.375    0.000    0.000    0.000    0.000 
#    0.000    0.000    0.000    0.000    0.000    0.000 
#
# Total GULP energy -89207.154725 kJ/mol
# GULP energy per Si atom -5575.447170 kJ/mol
# Density = 2.181670 g / cm^3
# Si number density = 21.866471 Si / 1000 Ang^3
#
#
#
# Elastic Constant Matrix: (Units=GPa)
#
#
# Indices 1 2 3 4 5 6 
#
# 1 70.1630 -4.2998 35.2459 -6.1929 16.4359 -19.9305
# 2 -4.2998 51.7855 3.0224 4.8541 6.0872 -10.1700
# 3 35.2459 3.0224 82.9735 -1.5678 14.0163 -10.4584
# 4 -6.1929 4.8541 -1.5678 31.1590 -8.7110 0.8508
# 5 16.4359 6.0872 14.0163 -8.7110 33.8367 -2.1430
# 6 -19.9305 -10.1700 -10.4584 0.8508 -2.1430 29.9759
#
#
#
# Elastic Compliance Matrix: (Units=1/GPa)
#
#
# Indices 1 2 3 4 5 6 
#
# 1 0.024957 0.006583 -0.007320 0.000587 -0.009135 0.015603
# 2 0.006583 0.023532 -0.001011 -0.004828 -0.007520 0.011607
# 3 -0.007320 -0.001011 0.015710 -0.001382 -0.003120 0.000087
# 4 0.000587 -0.004828 -0.001382 0.035813 0.010248 -0.002014
# 5 -0.009135 -0.007520 -0.003120 0.010248 0.038817 -0.007230
# 6 0.015603 0.011607 0.000087 -0.002014 -0.007230 0.047243
#
#
# Mechanical properties :
#
#
# Convention : Reuss Voigt Hill
#
# Bulk Modulus (GPa) = 16.47407 30.31768 23.39588
# Shear Modulus (GPa) = 23.83180 30.39123 27.11152
#
# Velocity S-wave (km/s) = 3.30491 3.73212 3.52499
# Velocity P-wave (km/s) = 4.70251 5.69795 5.22399
#
# Compressibility (1/GPa) = 0.06070144
#
# Stress axis : x y z
#
# Youngs Moduli (GPa) = 40.06862 42.49553 63.65224
#
# Poissons Ratio (x) = -0.27973 0.46595
# Poissons Ratio (y) = -0.26375 0.06437
# Poissons Ratio (z) = 0.29331 0.04298
#
# Static dielectric constant tensor:
#      x y z
#    x 1.771620 0.031770 0.018720 
#    y 0.031770 1.812090 -0.009380 
#    z 0.018720 -0.009380 1.814080 
# 
# From -- ./inp_files/274611.got.cif
#   From: 2010.05.17/outbox.cif.g08.bks.cpg/sg2_138_cif.got.tgz:274611.got - 2010.06.03 11:33:40.
