data_PCOD9007401
_publ_section_title
;
Structure prediction by ZEFSAII (Michael W. Deem and Ramdas Pophale) SiO2 
 PCOD9007401
Probable space group: P -1
;
_chemical_formula_sum "Si O2"
_cell_formula_units_Z 14
_cell_length_a 11.582520
_cell_length_b 6.899679
_cell_length_c 10.423764
_cell_angle_alpha 90.054878
_cell_angle_beta 54.034388
_cell_angle_gamma 114.687915
_cell_volume 577.792791
_symmetry_space_group_name_H-M "P -1"
_symmetry_group_IT_number 2
_symmetry_cell_setting 'triclinic'
loop_
_space_group_symop_operation_xyz
x,y,z
-x,-y,-z
loop_
_atom_site_type_symbol
_atom_site_label
_atom_site_fract_x
_atom_site_fract_y
_atom_site_fract_z
Si Si1 0.921956 0.155821 0.548592
Si Si2 0.173163 0.270675 0.036558
Si Si3 0.509378 0.314873 0.842071
Si Si4 0.177040 0.593669 0.216523
Si Si5 0.180591 0.096375 0.757075
Si Si6 0.386107 0.242102 0.378755
Si Si7 0.600857 0.068839 0.300644
O O1 0.879590 0.230349 0.710978
O O2 0.054324 0.379096 0.385721
O O3 0.747662 0.005964 0.587884
O O4 0.000000 0.000000 0.500000
O O5 0.331797 0.279132 0.000608
O O6 0.187097 0.238011 0.876178
O O7 0.159174 0.482713 0.090513
O O8 0.001362 0.043451 0.184039
O O9 0.632133 0.305492 0.864310
O O10 0.601069 0.562423 0.718046
O O11 0.471684 0.132916 0.755739
O O12 0.315996 0.250303 0.563804
O O13 0.224644 0.908560 0.777317
O O14 0.561527 0.254257 0.273902
O O15 0.500000 0.000000 0.500000
#
# Coordination Sequence:
#
# PCOD9007401 Si02
#       7
#     2   2   2   2   2   2   2
#     4  11  22  38  64  95 119 156 206 259 305 355
#     4  10  21  39  61  91 126 167 199 243 310 370
#     4  11  22  37  64  95 122 159 202 253 308 357
#     4  11  22  39  65  91 123 161 202 250 310 369
#     4   9  20  39  64  85 126 168 202 248 303 360
#     4  11  20  39  64  92 121 155 213 255 298 358
#     4   9  20  36  60  88 121 160 200 253 298 350
#
# _framework density 24.230139000000001
#
# number of rings (size 3 to 8) (size 9 to 14) (size 15 to 20)
#    0.000    1.714    4.286    0.429    0.000    5.143 
#    0.000    4.286    0.000    0.000    0.000    0.000 
#    0.000    0.000    0.000    0.000    0.000    0.000 
#
# Total GULP energy -78276.242903 kJ/mol
# GULP energy per Si atom -5591.160207 kJ/mol
# Density = 2.417499 g / cm^3
# Si number density = 24.230139 Si / 1000 Ang^3
#
#
#
# Elastic Constant Matrix: (Units=GPa)
#
#
# Indices 1 2 3 4 5 6 
#
# 1 86.2751 31.1214 38.6549 5.8102 -24.6369 2.1294
# 2 31.1214 78.4320 56.9611 30.7167 -9.0173 -0.1003
# 3 38.6549 56.9611 116.2808 41.2693 -15.6637 8.2535
# 4 5.8102 30.7167 41.2693 56.8486 9.4752 -5.3640
# 5 -24.6369 -9.0173 -15.6637 9.4752 34.1721 2.7902
# 6 2.1294 -0.1003 8.2535 -5.3640 2.7902 30.4614
#
#
#
# Elastic Compliance Matrix: (Units=1/GPa)
#
#
# Indices 1 2 3 4 5 6 
#
# 1 0.016995 -0.004003 -0.002307 0.000265 0.010185 -0.001462
# 2 -0.004003 0.022253 -0.007084 -0.006631 0.001499 0.000967
# 3 -0.002307 -0.007084 0.018811 -0.011838 0.009015 -0.007869
# 4 0.000265 -0.006631 -0.011838 0.033608 -0.017174 0.010658
# 5 0.010185 0.001499 0.009015 -0.017174 0.046750 -0.010456
# 6 -0.001462 0.000967 -0.007869 0.010658 -0.010456 0.037900
#
#
# Mechanical properties :
#
#
# Convention : Reuss Voigt Hill
#
# Bulk Modulus (GPa) = 31.97726 59.38474 45.68100
# Shear Modulus (GPa) = 23.41607 34.57979 28.99793
#
# Velocity S-wave (km/s) = 3.11207 3.78185 3.46319
# Velocity P-wave (km/s) = 5.11266 6.60543 5.90639
#
# Compressibility (1/GPa) = 0.03127222
#
# Stress axis : x y z
#
# Youngs Moduli (GPa) = 58.84049 44.93758 53.16061
#
# Poissons Ratio (x) = 0.17987 0.12265
# Poissons Ratio (y) = 0.23552 0.37656
# Poissons Ratio (z) = 0.13576 0.31832
#
# Static dielectric constant tensor:
#      x y z
#    x 1.984270 0.000580 -0.011200 
#    y 0.000580 1.916430 -0.015560 
#    z -0.011200 -0.015560 1.949800 
# 
# From -- ./inp_files/127371.got.cif
#   From: 2010.05.17/outbox.cif.g08.bks.cpg/sg2_64_cif.got.tgz:127371.got - 2010.06.03 11:33:40.
