data_PCOD9007413
_publ_section_title
;
Structure prediction by ZEFSAII (Michael W. Deem and Ramdas Pophale) SiO2 
 PCOD9007413
Probable space group: P -1
;
_chemical_formula_sum "Si O2"
_cell_formula_units_Z 16
_cell_length_a 12.066375
_cell_length_b 5.093865
_cell_length_c 27.296765
_cell_angle_alpha 125.998724
_cell_angle_beta 25.253157
_cell_angle_gamma 128.433661
_cell_volume 559.042087
_symmetry_space_group_name_H-M "P -1"
_symmetry_group_IT_number 2
_symmetry_cell_setting 'triclinic'
loop_
_space_group_symop_operation_xyz
x,y,z
-x,-y,-z
loop_
_atom_site_type_symbol
_atom_site_label
_atom_site_fract_x
_atom_site_fract_y
_atom_site_fract_z
Si Si1 0.721052 0.925927 0.574545
Si Si2 0.355121 0.366710 0.606703
Si Si3 0.584017 0.439867 0.905407
Si Si4 0.402052 0.372912 0.310427
Si Si5 0.904180 0.064300 0.248773
Si Si6 0.081772 0.194934 0.891883
Si Si7 0.357475 0.425590 0.896540
Si Si8 0.887801 0.882234 0.696206
O O1 0.672222 0.270866 0.611201
O O2 0.646224 0.610705 0.532957
O O3 0.548139 0.803165 0.679286
O O4 0.000000 0.000000 0.500000
O O5 0.222239 0.243174 0.699332
O O6 0.205949 0.021143 0.598556
O O7 0.250535 0.648345 0.649713
O O8 0.354825 0.349988 0.946710
O O9 0.757769 0.171077 0.800724
O O10 0.500000 0.500000 0.000000
O O11 0.784783 0.793187 0.847396
O O12 0.676910 0.471803 0.181126
O O13 0.170475 0.162458 0.343546
O O14 0.901764 0.022502 0.186483
O O15 0.182128 0.143646 0.900187
O O16 0.798005 0.283090 0.013296
O O17 0.674340 0.544679 0.765958
#
# Coordination Sequence:
#
# PCOD9007413 Si02
#       8
#     2   2   2   2   2   2   2   2
#     4  12  25  47  75 105 130 168 223 287 353 427
#     4  11  22  42  66  99 130 171 221 277 339 411
#     4  11  24  37  62  93 136 187 240 288 323 380
#     4  11  25  44  72  99 137 178 220 277 349 417
#     4  11  22  38  63  91 125 179 224 274 334 390
#     4  10  21  39  61  91 131 181 225 275 332 387
#     4  10  22  40  56  90 135 177 235 275 319 387
#     4  10  24  41  64  97 137 187 227 273 339 397
#
# _framework density 28.620383
#
# number of rings (size 3 to 8) (size 9 to 14) (size 15 to 20)
#    0.000    1.250    3.750    1.125    7.000    1.000 
#    2.250    3.750    0.000    0.000    0.000    0.000 
#    0.000    0.000    0.000    0.000    0.000    0.000 
#
# Total GULP energy -89412.601721 kJ/mol
# GULP energy per Si atom -5588.287608 kJ/mol
# Density = 2.855524 g / cm^3
# Si number density = 28.620383 Si / 1000 Ang^3
#
#
#
# Elastic Constant Matrix: (Units=GPa)
#
#
# Indices 1 2 3 4 5 6 
#
# 1 186.4106 55.8964 -2.3465 -6.4664 -3.0049 26.8824
# 2 55.8964 135.9634 36.5787 -1.1011 -14.7607 15.8412
# 3 -2.3465 36.5787 57.1402 -21.1896 -11.1366 2.6391
# 4 -6.4664 -1.1011 -21.1896 59.4449 15.6030 -11.8123
# 5 -3.0049 -14.7607 -11.1366 15.6030 41.9405 -13.8106
# 6 26.8824 15.8412 2.6391 -11.8123 -13.8106 57.7210
#
#
#
# Elastic Compliance Matrix: (Units=1/GPa)
#
#
# Indices 1 2 3 4 5 6 
#
# 1 0.006806 -0.003442 0.002928 0.001599 -0.001314 -0.002346
# 2 -0.003442 0.011448 -0.008425 -0.004128 0.002630 -0.001369
# 3 0.002928 -0.008425 0.026813 0.009759 0.001411 0.002057
# 4 0.001599 -0.004128 0.009759 0.022627 -0.006143 0.003103
# 5 -0.001314 0.002630 0.001411 -0.006143 0.029161 0.005545
# 6 -0.002346 -0.001369 0.002057 0.003103 0.005545 0.020661
#
#
# Mechanical properties :
#
#
# Convention : Reuss Voigt Hill
#
# Bulk Modulus (GPa) = 36.77812 62.19683 49.48748
# Shear Modulus (GPa) = 34.61208 51.11366 42.86287
#
# Velocity S-wave (km/s) = 3.48134 4.23060 3.87413
# Velocity P-wave (km/s) = 5.38868 6.75594 6.11067
#
# Compressibility (1/GPa) = 0.02719008
#
# Stress axis : x y z
#
# Youngs Moduli (GPa) = 146.92543 87.34904 37.29490
#
# Poissons Ratio (x) = 0.30068 -0.10921
# Poissons Ratio (y) = 0.50576 0.31421
# Poissons Ratio (z) = -0.43026 0.73592
#
# Static dielectric constant tensor:
#      x y z
#    x 2.254770 0.047100 0.010010 
#    y 0.047100 2.251640 -0.059820 
#    z 0.010010 -0.059820 2.374990 
# 
# From -- ./inp_files/622843.got.cif
#   From: 2010.05.17/outbox.cif.g08.bks.cpg/sg2_312_cif.got.tgz:622843.got - 2010.06.03 11:33:40.
