data_PCOD9007872
_publ_section_title
;
Structure prediction by ZEFSAII (Michael W. Deem and Ramdas Pophale) SiO2 
 PCOD9007872
Probable space group: P -1
;
_chemical_formula_sum "Si O2"
_cell_formula_units_Z 16
_cell_length_a 25.693161
_cell_length_b 5.478284
_cell_length_c 5.031282
_cell_angle_alpha 111.498561
_cell_angle_beta 95.872502
_cell_angle_gamma 108.193619
_cell_volume 606.854428
_symmetry_space_group_name_H-M "P -1"
_symmetry_group_IT_number 2
_symmetry_cell_setting 'triclinic'
loop_
_space_group_symop_operation_xyz
x,y,z
-x,-y,-z
loop_
_atom_site_type_symbol
_atom_site_label
_atom_site_fract_x
_atom_site_fract_y
_atom_site_fract_z
Si Si1 0.272651 0.750713 0.899625
Si Si2 0.381437 0.122414 0.369977
Si Si3 0.145142 0.050268 0.255035
Si Si4 0.751297 0.749586 0.972954
Si Si5 0.084363 0.062540 0.741005
Si Si6 0.046153 0.530561 0.809685
Si Si7 0.641530 0.369498 0.495147
Si Si8 0.517245 0.720521 0.853402
O O1 0.235130 0.467647 0.916670
O O2 0.314724 0.684480 0.698228
O O3 0.243040 0.937104 0.810823
O O4 0.314336 0.953377 0.225932
O O5 0.388636 0.439793 0.581609
O O6 0.415789 0.143940 0.126248
O O7 0.397628 0.916011 0.492095
O O8 0.209041 0.182544 0.239536
O O9 0.111082 0.182639 0.090391
O O10 0.110456 0.723704 0.026591
O O11 0.131570 0.063130 0.558471
O O12 0.684005 0.576966 0.819857
O O13 0.044454 0.738940 0.655202
O O14 0.052153 0.236229 0.657432
O O15 0.000000 0.500000 0.000000
O O16 0.500000 0.500000 0.500000
O O17 0.500000 0.500000 0.000000
O O18 0.500000 0.000000 0.000000
#
# Coordination Sequence:
#
# PCOD9007872 Si02
#       8
#     2   2   2   2   2   2   2   2
#     4  10  22  39  62  88 123 166 212 266 326 390
#     4  10  23  40  63  93 128 172 222 273 336 398
#     4  10  26  41  65  92 130 164 213 266 325 385
#     4  10  23  37  58  92 119 160 213 259 323 389
#     4  10  25  41  65  91 123 169 206 260 324 375
#     4  10  24  43  65  94 125 167 213 261 322 388
#     4  10  21  39  63  89 123 169 215 270 328 399
#     4  12  28  47  74 109 145 191 240 299 360 426
#
# _framework density 26.365468
#
# number of rings (size 3 to 8) (size 9 to 14) (size 15 to 20)
#    0.750    1.000    0.000    2.250    8.750    1.000 
#    0.000    0.000    0.000    0.000    0.000    0.000 
#    0.000    0.000    0.000    0.000    0.000    0.000 
#
# Total GULP energy -89290.235519 kJ/mol
# GULP energy per Si atom -5580.639720 kJ/mol
# Density = 2.630546 g / cm^3
# Si number density = 26.365468 Si / 1000 Ang^3
#
#
#
# Elastic Constant Matrix: (Units=GPa)
#
#
# Indices 1 2 3 4 5 6 
#
# 1 73.8160 78.8568 11.1292 8.6566 -18.7142 1.9736
# 2 78.8568 284.7315 67.6446 -10.9792 -35.9875 -23.0600
# 3 11.1292 67.6446 81.6981 -16.5715 -17.7259 -2.5874
# 4 8.6566 -10.9792 -16.5715 45.6589 8.4875 -15.2042
# 5 -18.7142 -35.9875 -17.7259 8.4875 50.0191 3.6761
# 6 1.9736 -23.0600 -2.5874 -15.2042 3.6761 53.5179
#
#
#
# Elastic Compliance Matrix: (Units=1/GPa)
#
#
# Indices 1 2 3 4 5 6 
#
# 1 0.023753 -0.007146 0.002056 -0.008964 0.006499 -0.006849
# 2 -0.007146 0.006873 -0.004006 0.002809 0.000094 0.003823
# 3 0.002056 -0.004006 0.016799 0.004152 0.003138 -0.000025
# 4 -0.008964 0.002809 0.004152 0.030461 -0.005824 0.010796
# 5 0.006499 0.000094 0.003138 -0.005824 0.024842 -0.003408
# 6 -0.006849 0.003823 -0.000025 0.010796 -0.003408 0.023885
#
#
# Mechanical properties :
#
#
# Convention : Reuss Voigt Hill
#
# Bulk Modulus (GPa) = 34.20796 83.94520 59.07658
# Shear Modulus (GPa) = 32.35238 48.68017 40.51627
#
# Velocity S-wave (km/s) = 3.50676 4.30159 3.92435
# Velocity P-wave (km/s) = 5.42210 7.52195 6.55664
#
# Compressibility (1/GPa) = 0.02923296
#
# Stress axis : x y z
#
# Youngs Moduli (GPa) = 42.10011 145.50697 59.52730
#
# Poissons Ratio (x) = 1.03975 -0.12237
# Poissons Ratio (y) = 0.30084 0.23845
# Poissons Ratio (z) = -0.08654 0.58285
#
# Static dielectric constant tensor:
#      x y z
#    x 2.215720 -0.020320 0.165830 
#    y -0.020320 2.122440 0.062200 
#    z 0.165830 0.062200 2.119280 
# 
# From -- ./inp_files/125940.got.cif
#   From: 2010.05.17/outbox.cif.g08.bks.cpg/sg2_63_cif.got.tgz:125940.got - 2010.06.03 11:33:40.
