data_PCOD9007673
_publ_section_title
;
Structure prediction by ZEFSAII (Michael W. Deem and Ramdas Pophale) SiO2 
 PCOD9007673
Probable space group: P -1
;
_chemical_formula_sum "Si O2"
_cell_formula_units_Z 14
_cell_length_a 15.059503
_cell_length_b 9.313928
_cell_length_c 15.741531
_cell_angle_alpha 135.646163
_cell_angle_beta 29.400173
_cell_angle_gamma 114.495779
_cell_volume 602.164669
_symmetry_space_group_name_H-M "P -1"
_symmetry_group_IT_number 2
_symmetry_cell_setting 'triclinic'
loop_
_space_group_symop_operation_xyz
x,y,z
-x,-y,-z
loop_
_atom_site_type_symbol
_atom_site_label
_atom_site_fract_x
_atom_site_fract_y
_atom_site_fract_z
Si Si1 0.901672 0.212211 0.597162
Si Si2 0.799470 0.381197 0.121456
Si Si3 0.491603 0.222060 0.875563
Si Si4 0.873978 0.694383 0.305522
Si Si5 0.690542 0.176974 0.277653
Si Si6 0.909360 0.394356 0.297730
Si Si7 0.208020 0.317528 0.311759
O O1 0.713792 0.215856 0.699247
O O2 0.133805 0.145392 0.334997
O O3 0.723617 0.531569 0.891197
O O4 0.000000 0.000000 0.500000
O O5 0.927186 0.443215 0.107369
O O6 0.726981 0.234566 0.174669
O O7 0.568647 0.656470 0.408765
O O8 0.954128 0.260682 0.859239
O O9 0.614418 0.942580 0.613296
O O10 0.416743 0.208883 0.028158
O O11 0.898965 0.614752 0.348326
O O12 0.777934 0.301210 0.319120
O O13 0.838356 0.871777 0.028405
O O14 0.806135 0.514454 0.526942
O O15 0.000000 0.500000 0.500000
#
# Coordination Sequence:
#
# PCOD9007673 Si02
#       7
#     2   2   2   2   2   2   2
#     4  10  22  41  63  93 125 167 220 262 320 391
#     4   9  20  39  62  92 125 166 211 256 327 385
#     4  10  23  43  62  93 136 171 213 272 326 385
#     4  10  21  39  62  91 128 168 208 263 321 384
#     4   9  20  39  64  93 123 165 208 267 320 381
#     4  10  21  39  62  94 126 159 221 263 315 392
#     4  10  23  42  65  93 127 176 211 267 328 388
#
# _framework density 23.249455999999999
#
# number of rings (size 3 to 8) (size 9 to 14) (size 15 to 20)
#    0.000    2.286    0.000    0.857    4.000    6.286 
#   10.286    0.000    0.000    0.000    0.000    0.000 
#    0.000    0.000    0.000    0.000    0.000    0.000 
#
# Total GULP energy -77953.997671 kJ/mol
# GULP energy per Si atom -5568.142691 kJ/mol
# Density = 2.319654 g / cm^3
# Si number density = 23.249456 Si / 1000 Ang^3
#
#
#
# Elastic Constant Matrix: (Units=GPa)
#
#
# Indices 1 2 3 4 5 6 
#
# 1 62.4434 24.3210 29.0385 7.5714 3.9684 -1.3687
# 2 24.3210 87.5246 45.4814 8.3785 8.4530 -9.8870
# 3 29.0385 45.4814 153.4948 2.1475 3.6543 -11.8840
# 4 7.5714 8.3785 2.1475 25.1844 -9.0773 -11.5855
# 5 3.9684 8.4530 3.6543 -9.0773 31.4380 3.8540
# 6 -1.3687 -9.8870 -11.8840 -11.5855 3.8540 36.2773
#
#
#
# Elastic Compliance Matrix: (Units=1/GPa)
#
#
# Indices 1 2 3 4 5 6 
#
# 1 0.019583 -0.003404 -0.002763 -0.006936 -0.002870 -0.003004
# 2 -0.003404 0.015363 -0.003579 -0.004654 -0.004864 0.001917
# 3 -0.002763 -0.003579 0.008225 0.002728 0.000849 0.002396
# 4 -0.006936 -0.004654 0.002728 0.056065 0.016090 0.015559
# 5 -0.002870 -0.004864 0.000849 0.016090 0.038033 -0.000058
# 6 -0.003004 0.001917 0.002396 0.015559 -0.000058 0.033734
#
#
# Mechanical properties :
#
#
# Convention : Reuss Voigt Hill
#
# Bulk Modulus (GPa) = 42.23233 55.68271 48.95752
# Shear Modulus (GPa) = 25.20311 32.22139 28.71225
#
# Velocity S-wave (km/s) = 3.29603 3.72680 3.51802
# Velocity P-wave (km/s) = 5.71747 6.52080 6.13230
#
# Compressibility (1/GPa) = 0.02367854
#
# Stress axis : x y z
#
# Youngs Moduli (GPa) = 51.06503 65.09304 121.57775
#
# Poissons Ratio (x) = 0.22157 0.33596
# Poissons Ratio (y) = 0.17382 0.43510
# Poissons Ratio (z) = 0.14111 0.23295
#
# Static dielectric constant tensor:
#      x y z
#    x 2.002260 0.050910 0.037090 
#    y 0.050910 2.009850 -0.002140 
#    z 0.037090 -0.002140 1.882940 
# 
# From -- ./inp_files/272133.got.cif
#   From: 2010.05.17/outbox.cif.g08.bks.cpg/sg2_137_cif.got.tgz:272133.got - 2010.06.03 11:33:40.
