data_PCOD9007913
_publ_section_title
;
Structure prediction by ZEFSAII (Michael W. Deem and Ramdas Pophale) SiO2 
 PCOD9007913
Probable space group: P -1
;
_chemical_formula_sum "Si O2"
_cell_formula_units_Z 16
_cell_length_a 17.929892
_cell_length_b 6.222118
_cell_length_c 8.312506
_cell_angle_alpha 59.647897
_cell_angle_beta 108.617718
_cell_angle_gamma 117.277899
_cell_volume 706.597775
_symmetry_space_group_name_H-M "P -1"
_symmetry_group_IT_number 2
_symmetry_cell_setting 'triclinic'
loop_
_space_group_symop_operation_xyz
x,y,z
-x,-y,-z
loop_
_atom_site_type_symbol
_atom_site_label
_atom_site_fract_x
_atom_site_fract_y
_atom_site_fract_z
Si Si1 0.462922 0.224351 0.956986
Si Si2 0.433517 0.611119 0.543513
Si Si3 0.300445 0.630696 0.704731
Si Si4 0.697655 0.878067 0.922382
Si Si5 0.893983 0.127920 0.011064
Si Si6 0.992013 0.397475 0.298111
Si Si7 0.107910 0.377468 0.639830
Si Si8 0.376229 0.165447 0.464139
O O1 0.373731 0.069240 0.040076
O O2 0.500000 0.500000 0.000000
O O3 0.453965 0.375082 0.735067
O O4 0.500000 0.000000 0.000000
O O5 0.368327 0.661223 0.599718
O O6 0.384702 0.462564 0.409548
O O7 0.526675 0.819868 0.493959
O O8 0.206238 0.502691 0.623208
O O9 0.323730 0.941708 0.641817
O O10 0.309889 0.425509 0.920799
O O11 0.672245 0.893349 0.715757
O O12 0.793905 0.066946 0.953568
O O13 0.937634 0.265783 0.154851
O O14 0.902945 0.841947 0.145819
O O15 0.944261 0.312809 0.830508
O O16 0.053712 0.277138 0.479136
O O17 0.926221 0.412043 0.381697
#
# Coordination Sequence:
#
# PCOD9007913 Si02
#       8
#     2   2   2   2   2   2   2   2
#     4  11  24  44  70 101 140 187 232 282 346 409
#     4  10  24  39  62  92 126 174 225 275 334 395
#     4  10  23  40  61  90 129 164 217 271 334 402
#     4  10  23  43  62  96 129 169 226 271 336 398
#     4  10  21  41  61  92 125 160 212 268 323 405
#     4  10  21  39  65  89 121 162 210 259 345 391
#     4  10  21  39  63  91 121 164 203 268 327 401
#     4  11  22  41  62  90 128 172 217 276 331 398
#
# _framework density 22.643718
#
# number of rings (size 3 to 8) (size 9 to 14) (size 15 to 20)
#    0.000    1.750    1.250    1.875    3.500    5.000 
#    2.250    8.125    0.000    0.000    0.000    0.000 
#    0.000    0.000    0.000    0.000    0.000    0.000 
#
# Total GULP energy -89142.003378 kJ/mol
# GULP energy per Si atom -5571.375211 kJ/mol
# Density = 2.259218 g / cm^3
# Si number density = 22.643718 Si / 1000 Ang^3
#
#
#
# Elastic Constant Matrix: (Units=GPa)
#
#
# Indices 1 2 3 4 5 6 
#
# 1 98.7674 42.4517 30.4062 -5.9341 15.1617 21.0515
# 2 42.4517 78.7117 29.4438 -6.8652 11.8045 17.2625
# 3 30.4062 29.4438 87.1733 -0.6300 9.5882 6.8407
# 4 -5.9341 -6.8652 -0.6300 28.4336 4.4708 -2.5861
# 5 15.1617 11.8045 9.5882 4.4708 28.9614 0.1031
# 6 21.0515 17.2625 6.8407 -2.5861 0.1031 24.5496
#
#
#
# Elastic Compliance Matrix: (Units=1/GPa)
#
#
# Indices 1 2 3 4 5 6 
#
# 1 0.015924 -0.004410 -0.002641 0.002272 -0.005981 -0.009554
# 2 -0.004410 0.019394 -0.003791 0.003682 -0.004880 -0.008391
# 3 -0.002641 -0.003791 0.013752 -0.000833 -0.001500 0.001016
# 4 0.002272 0.003682 -0.000833 0.037785 -0.008246 -0.000290
# 5 -0.005981 -0.004880 -0.001500 -0.008246 0.041391 0.007936
# 6 -0.009554 -0.008391 0.001016 -0.000290 0.007936 0.054480
#
#
# Mechanical properties :
#
#
# Convention : Reuss Voigt Hill
#
# Bulk Modulus (GPa) = 36.51278 52.13954 44.32616
# Shear Modulus (GPa) = 23.41502 27.21229 25.31365
#
# Velocity S-wave (km/s) = 3.21917 3.47040 3.34714
# Velocity P-wave (km/s) = 5.47516 6.25574 5.87842
#
# Compressibility (1/GPa) = 0.02738767
#
# Stress axis : x y z
#
# Youngs Moduli (GPa) = 62.79668 51.56126 72.71631
#
# Poissons Ratio (x) = 0.22740 0.19203
# Poissons Ratio (y) = 0.27695 0.27564
# Poissons Ratio (z) = 0.16583 0.19545
#
# Static dielectric constant tensor:
#      x y z
#    x 1.840820 -0.081120 0.023660 
#    y -0.081120 2.074140 0.023360 
#    z 0.023660 0.023360 1.844330 
# 
# From -- ./inp_files/323341.got.cif
#   From: 2010.05.17/outbox.cif.g08.bks.cpg/sg2_162_cif.got.tgz:323341.got - 2010.06.03 11:33:40.
