data_PCOD9007321
_publ_section_title
;
Structure prediction by ZEFSAII (Michael W. Deem and Ramdas Pophale) SiO2 
 PCOD9007321
Probable space group: P -1
;
_chemical_formula_sum "Si O2"
_cell_formula_units_Z 16
_cell_length_a 11.959536
_cell_length_b 8.201968
_cell_length_c 9.703069
_cell_angle_alpha 99.109790
_cell_angle_beta 94.489582
_cell_angle_gamma 123.962637
_cell_volume 763.135477
_symmetry_space_group_name_H-M "P -1"
_symmetry_group_IT_number 2
_symmetry_cell_setting 'triclinic'
loop_
_space_group_symop_operation_xyz
x,y,z
-x,-y,-z
loop_
_atom_site_type_symbol
_atom_site_label
_atom_site_fract_x
_atom_site_fract_y
_atom_site_fract_z
Si Si1 0.355885 0.199501 0.176916
Si Si2 0.603598 0.433434 0.909286
Si Si3 0.335544 0.339506 0.480495
Si Si4 0.407848 0.112713 0.640795
Si Si5 0.139627 0.523534 0.182987
Si Si6 0.162928 0.784361 0.956939
Si Si7 0.690668 0.311853 0.518983
Si Si8 0.404089 0.794739 0.874653
O O1 0.414593 0.395035 0.113145
O O2 0.295047 0.221337 0.315076
O O3 0.484428 0.184348 0.220410
O O4 0.243506 0.012718 0.048225
O O5 0.473340 0.222222 0.806695
O O6 0.741796 0.503239 0.849485
O O7 0.631240 0.393183 0.058512
O O8 0.500000 0.500000 0.500000
O O9 0.320620 0.189890 0.578678
O O10 0.280353 0.479922 0.513179
O O11 0.545827 0.209756 0.573473
O O12 0.332827 0.872351 0.598323
O O13 0.190002 0.627477 0.350686
O O14 0.987248 0.320259 0.134991
O O15 0.148103 0.667499 0.082524
O O16 0.258973 0.765687 0.857192
O O17 0.500000 0.000000 0.000000
#
# Coordination Sequence:
#
# PCOD9007321 Si02
#       8
#     2   2   2   2   2   2   2   2
#     4  11  18  31  48  73 104 129 158 206 245 301
#     4  10  18  32  48  76 104 123 164 203 254 296
#     4  10  17  29  45  74 102 123 161 200 255 298
#     4   9  17  29  47  73 105 126 153 210 255 298
#     4   9  16  32  46  70 102 127 167 206 241 300
#     4   9  19  30  49  68  98 135 170 198 246 294
#     4   9  16  27  45  69 100 125 155 199 253 293
#     4   9  20  33  48  70  97 135 167 199 242 299
#
# _framework density 20.966132999999999
#
# number of rings (size 3 to 8) (size 9 to 14) (size 15 to 20)
#    0.000    2.500    3.750    1.125    0.000    6.500 
#    0.000    0.000    0.000    0.000    0.000   22.750 
#    0.000    0.000    0.000    0.000    0.000    0.000 
#
# Total GULP energy -89121.221804 kJ/mol
# GULP energy per Si atom -5570.076363 kJ/mol
# Density = 2.091841 g / cm^3
# Si number density = 20.966133 Si / 1000 Ang^3
#
#
#
# Elastic Constant Matrix: (Units=GPa)
#
#
# Indices 1 2 3 4 5 6 
#
# 1 73.1454 44.0346 36.7984 24.6747 12.8360 -5.5661
# 2 44.0346 79.4078 49.4536 13.9931 2.5873 -20.0143
# 3 36.7984 49.4536 79.8430 19.7351 16.2883 -2.2127
# 4 24.6747 13.9931 19.7351 35.1776 -1.6404 0.9277
# 5 12.8360 2.5873 16.2883 -1.6404 19.9342 2.6593
# 6 -5.5661 -20.0143 -2.2127 0.9277 2.6593 29.9745
#
#
#
# Elastic Compliance Matrix: (Units=1/GPa)
#
#
# Indices 1 2 3 4 5 6 
#
# 1 0.032482 -0.018384 0.006433 -0.020171 -0.025056 -0.002921
# 2 -0.018384 0.038782 -0.022504 0.010710 0.023620 0.018393
# 3 0.006433 -0.022504 0.032685 -0.014981 -0.028032 -0.008468
# 4 -0.020171 0.010710 -0.014981 0.048071 0.028019 -0.001674
# 5 -0.025056 0.023620 -0.028032 0.028019 0.088398 0.000340
# 6 -0.002921 0.018393 -0.008468 -0.001674 0.000340 0.044497
#
#
# Mechanical properties :
#
#
# Convention : Reuss Voigt Hill
#
# Bulk Modulus (GPa) = 28.54008 54.77437 41.65722
# Shear Modulus (GPa) = 13.67967 23.82457 18.75212
#
# Velocity S-wave (km/s) = 2.55711 3.37462 2.99390
# Velocity P-wave (km/s) = 4.72868 6.43163 5.64475
#
# Compressibility (1/GPa) = 0.03503845
#
# Stress axis : x y z
#
# Youngs Moduli (GPa) = 30.78657 25.78518 30.59469
#
# Poissons Ratio (x) = 0.47403 -0.19681
# Poissons Ratio (y) = 0.56598 0.68851
# Poissons Ratio (z) = -0.19804 0.58027
#
# Static dielectric constant tensor:
#      x y z
#    x 1.771410 -0.056390 -0.026150 
#    y -0.056390 1.825900 -0.063850 
#    z -0.026150 -0.063850 1.868870 
# 
# From -- ./inp_files/412465.got.cif
#   From: 2010.05.17/outbox.cif.g08.bks.cpg/sg2_207_cif.got.tgz:412465.got - 2010.06.03 11:33:40.
