data_PCOD9007435
_publ_section_title
;
Structure prediction by ZEFSAII (Michael W. Deem and Ramdas Pophale) SiO2 
 PCOD9007435
Probable space group: P -1
;
_chemical_formula_sum "Si O2"
_cell_formula_units_Z 16
_cell_length_a 9.020006
_cell_length_b 8.906462
_cell_length_c 16.204045
_cell_angle_alpha 139.486585
_cell_angle_beta 83.652133
_cell_angle_gamma 109.700129
_cell_volume 773.242362
_symmetry_space_group_name_H-M "P -1"
_symmetry_group_IT_number 2
_symmetry_cell_setting 'triclinic'
loop_
_space_group_symop_operation_xyz
x,y,z
-x,-y,-z
loop_
_atom_site_type_symbol
_atom_site_label
_atom_site_fract_x
_atom_site_fract_y
_atom_site_fract_z
Si Si1 0.798551 0.422894 0.057673
Si Si2 0.756240 0.162758 0.604059
Si Si3 0.957197 0.469518 0.357795
Si Si4 0.485741 0.636603 0.390597
Si Si5 0.485323 0.266452 0.101602
Si Si6 0.150493 0.812262 0.207135
Si Si7 0.850900 0.077973 0.053526
Si Si8 0.781624 0.610253 0.570862
O O1 0.634487 0.436955 0.107405
O O2 0.837179 0.235145 0.039897
O O3 0.955202 0.680971 0.156950
O O4 0.780427 0.303861 0.918673
O O5 0.630991 0.274295 0.621821
O O6 0.798999 0.242668 0.728879
O O7 0.921288 0.277384 0.589248
O O8 0.659598 0.863342 0.480344
O O9 0.876884 0.258543 0.205808
O O10 0.826511 0.516502 0.442848
O O11 0.077652 0.391351 0.375393
O O12 0.494517 0.399291 0.243971
O O13 0.390971 0.563508 0.452194
O O14 0.500000 0.000000 0.000000
O O15 0.307919 0.178470 0.037255
O O16 0.207693 0.108908 0.318148
O O17 0.000000 0.000000 0.000000
#
# Coordination Sequence:
#
# PCOD9007435 Si02
#       8
#     2   2   2   2   2   2   2   2
#     4  10  23  39  58  94 130 162 213 261 314 382
#     4  10  22  40  66  90 124 167 210 263 316 390
#     4  10  21  39  61  93 120 166 218 250 314 378
#     4  10  22  43  64  91 128 166 211 264 324 372
#     4  10  22  38  62  92 126 163 209 268 313 373
#     4  11  22  39  63  89 129 169 210 260 324 372
#     4  11  20  38  69  89 123 169 215 255 316 384
#     4  10  22  38  60  91 127 163 208 269 308 378
#
# _framework density 20.69209
#
# number of rings (size 3 to 8) (size 9 to 14) (size 15 to 20)
#    0.000    1.750    1.250    3.750    1.750    4.000 
#    0.000    0.625    0.000    0.000    0.000    0.000 
#    0.000    0.000    0.000    0.000    0.000    0.000 
#
# Total GULP energy -89436.227104 kJ/mol
# GULP energy per Si atom -5589.764194 kJ/mol
# Density = 2.064499 g / cm^3
# Si number density = 20.692090 Si / 1000 Ang^3
#
#
#
# Elastic Constant Matrix: (Units=GPa)
#
#
# Indices 1 2 3 4 5 6 
#
# 1 70.1788 25.4965 35.0825 -13.6684 -1.1788 24.3648
# 2 25.4965 93.3460 45.0838 -21.1348 -0.8376 13.7207
# 3 35.0825 45.0838 139.5138 -25.4342 5.5976 18.9096
# 4 -13.6684 -21.1348 -25.4342 35.2084 -0.3300 -7.1188
# 5 -1.1788 -0.8376 5.5976 -0.3300 19.1628 -3.5571
# 6 24.3648 13.7207 18.9096 -7.1188 -3.5571 31.1461
#
#
#
# Elastic Compliance Matrix: (Units=1/GPa)
#
#
# Indices 1 2 3 4 5 6 
#
# 1 0.021530 -0.002121 -0.002342 0.002562 -0.000634 -0.013973
# 2 -0.002121 0.014117 -0.002919 0.005259 0.001160 -0.001452
# 3 -0.002342 -0.002919 0.009888 0.003966 -0.003534 -0.002382
# 4 0.002562 0.005259 0.003966 0.035712 0.000112 0.001446
# 5 -0.000634 0.001160 -0.003534 0.000112 0.054792 0.008413
# 6 -0.013973 -0.001452 -0.002382 0.001446 0.008413 0.046415
#
#
# Mechanical properties :
#
#
# Convention : Reuss Voigt Hill
#
# Bulk Modulus (GPa) = 32.50010 57.15156 44.82583
# Shear Modulus (GPa) = 24.09910 30.26185 27.18047
#
# Velocity S-wave (km/s) = 3.41640 3.82839 3.62825
# Velocity P-wave (km/s) = 5.59491 6.87183 6.26598
#
# Compressibility (1/GPa) = 0.03076914
#
# Stress axis : x y z
#
# Youngs Moduli (GPa) = 46.44599 70.83760 101.13418
#
# Poissons Ratio (x) = 0.15027 0.23688
# Poissons Ratio (y) = 0.09853 0.29525
# Poissons Ratio (z) = 0.10879 0.20680
#
# Static dielectric constant tensor:
#      x y z
#    x 1.718130 -0.014220 0.000720 
#    y -0.014220 1.745560 -0.001130 
#    z 0.000720 -0.001130 1.696600 
# 
# From -- ./inp_files/202028.got.cif
#   From: 2010.05.17/outbox.cif.g08.bks.cpg/sg2_102_cif.got.tgz:202028.got - 2010.06.03 11:33:40.
