data_PCOD9007841
_publ_section_title
;
Structure prediction by ZEFSAII (Michael W. Deem and Ramdas Pophale) SiO2 
 PCOD9007841
Probable space group: P -1
;
_chemical_formula_sum "Si O2"
_cell_formula_units_Z 14
_cell_length_a 13.618485
_cell_length_b 13.199063
_cell_length_c 21.286736
_cell_angle_alpha 22.483400
_cell_angle_beta 157.263829
_cell_angle_gamma 147.927475
_cell_volume 565.226659
_symmetry_space_group_name_H-M "P -1"
_symmetry_group_IT_number 2
_symmetry_cell_setting 'triclinic'
loop_
_space_group_symop_operation_xyz
x,y,z
-x,-y,-z
loop_
_atom_site_type_symbol
_atom_site_label
_atom_site_fract_x
_atom_site_fract_y
_atom_site_fract_z
Si Si1 0.256863 0.279210 0.871816
Si Si2 0.638506 0.210250 0.026222
Si Si3 0.545752 0.135200 0.239402
Si Si4 0.012718 0.822030 0.429195
Si Si5 0.069267 0.198809 0.014146
Si Si6 0.719243 0.792615 0.727212
Si Si7 0.091710 0.247290 0.372942
O O1 0.075444 0.532639 0.603517
O O2 0.400893 0.191142 0.943860
O O3 0.476771 0.311363 0.036279
O O4 0.099898 0.056339 0.941479
O O5 0.890535 0.250078 0.195531
O O6 0.625849 0.501614 0.819185
O O7 0.723473 0.927610 0.207255
O O8 0.807516 0.208414 0.386059
O O9 0.320010 0.148737 0.149095
O O10 0.624630 0.837110 0.433635
O O11 0.127531 0.058734 0.320659
O O12 0.127286 0.223523 0.108202
O O13 0.931056 0.480838 0.757556
O O14 0.500000 0.000000 0.500000
O O15 0.000000 0.000000 0.500000
#
# Coordination Sequence:
#
# PCOD9007841 Si02
#       7
#     2   2   2   2   2   2   2
#     4  12  24  39  59  96 130 157 195 253 316 360
#     4  10  22  39  64  92 119 158 208 256 292 359
#     4  11  23  39  64  90 122 165 205 242 299 367
#     4  11  23  39  69  88 118 167 210 249 293 361
#     4  11  26  40  60  92 130 158 196 258 307 359
#     4  11  20  44  65  87 117 161 217 249 295 357
#     4  10  21  39  63  88 116 162 207 245 293 362
#
# _framework density 24.768823000000001
#
# number of rings (size 3 to 8) (size 9 to 14) (size 15 to 20)
#    0.000    1.143    4.286    2.143    4.000    2.286 
#    0.000    0.714    0.000    0.000    0.000    0.000 
#    0.000    0.000    0.000    0.000    0.000    0.000 
#
# Total GULP energy -78179.553523 kJ/mol
# GULP energy per Si atom -5584.253823 kJ/mol
# Density = 2.471245 g / cm^3
# Si number density = 24.768823 Si / 1000 Ang^3
#
#
#
# Elastic Constant Matrix: (Units=GPa)
#
#
# Indices 1 2 3 4 5 6 
#
# 1 102.8364 15.3408 37.9223 -15.7179 22.8690 17.6449
# 2 15.3408 64.9781 36.5669 -21.2244 15.9056 20.8702
# 3 37.9223 36.5669 164.1345 -33.0082 43.0534 15.1073
# 4 -15.7179 -21.2244 -33.0082 34.9247 -5.6048 -9.3350
# 5 22.8690 15.9056 43.0534 -5.6048 59.9198 5.8282
# 6 17.6449 20.8702 15.1073 -9.3350 5.8282 29.7181
#
#
#
# Elastic Compliance Matrix: (Units=1/GPa)
#
#
# Indices 1 2 3 4 5 6 
#
# 1 0.012184 0.001583 -0.001052 0.003269 -0.003414 -0.006115
# 2 0.001583 0.024334 -0.001617 0.009798 -0.003681 -0.013407
# 3 -0.001052 -0.001617 0.009413 0.006612 -0.005324 0.000096
# 4 0.003269 0.009798 0.006612 0.042057 -0.004858 0.001981
# 5 -0.003414 -0.003681 -0.005324 -0.004858 0.022200 0.001439
# 6 -0.006115 -0.013407 0.000096 0.001981 0.001439 0.046987
#
#
# Mechanical properties :
#
#
# Convention : Reuss Voigt Hill
#
# Bulk Modulus (GPa) = 22.85258 56.84541 39.84899
# Shear Modulus (GPa) = 28.74665 41.05379 34.90022
#
# Velocity S-wave (km/s) = 3.41045 4.07563 3.75779
# Velocity P-wave (km/s) = 4.97540 6.71922 5.91196
#
# Compressibility (1/GPa) = 0.04375874
#
# Stress axis : x y z
#
# Youngs Moduli (GPa) = 82.07500 41.09518 106.23492
#
# Poissons Ratio (x) = -0.06505 0.11176
# Poissons Ratio (y) = -0.12991 0.17177
# Poissons Ratio (z) = 0.08634 0.06645
#
# Static dielectric constant tensor:
#      x y z
#    x 1.996290 -0.133090 0.109000 
#    y -0.133090 2.132130 -0.042490 
#    z 0.109000 -0.042490 2.060600 
# 
# From -- ./inp_files/256585.got.cif
#   From: 2010.05.17/outbox.cif.g08.bks.cpg/sg2_129_cif.got.tgz:256585.got - 2010.06.03 11:33:40.
