data_PCOD9007319
_publ_section_title
;
Structure prediction by ZEFSAII (Michael W. Deem and Ramdas Pophale) SiO2 
 PCOD9007319
Probable space group: P -1
;
_chemical_formula_sum "Si O2"
_cell_formula_units_Z 16
_cell_length_a 14.716225
_cell_length_b 11.730077
_cell_length_c 8.614476
_cell_angle_alpha 116.537142
_cell_angle_beta 32.240049
_cell_angle_gamma 112.006060
_cell_volume 709.700680
_symmetry_space_group_name_H-M "P -1"
_symmetry_group_IT_number 2
_symmetry_cell_setting 'triclinic'
loop_
_space_group_symop_operation_xyz
x,y,z
-x,-y,-z
loop_
_atom_site_type_symbol
_atom_site_label
_atom_site_fract_x
_atom_site_fract_y
_atom_site_fract_z
Si Si1 0.255283 0.900891 0.527863
Si Si2 0.045820 0.194965 0.889791
Si Si3 0.147669 0.596894 0.884661
Si Si4 0.419979 0.427321 0.214365
Si Si5 0.302047 0.005379 0.229095
Si Si6 0.661467 0.803984 0.335339
Si Si7 0.379468 0.181740 0.962143
Si Si8 0.402547 0.628718 0.772859
O O1 0.415356 0.821921 0.313984
O O2 0.236192 0.887924 0.359499
O O3 0.306968 0.047318 0.582302
O O4 0.081077 0.873972 0.850462
O O5 0.169375 0.111085 0.551436
O O6 0.181840 0.267971 0.847741
O O7 0.919885 0.274054 0.012740
O O8 0.306264 0.532813 0.528131
O O9 0.211517 0.617827 0.979958
O O10 0.000000 0.500000 0.000000
O O11 0.557018 0.371767 0.104551
O O12 0.500000 0.500000 0.000000
O O13 0.318656 0.304728 0.222767
O O14 0.314878 0.050515 0.058319
O O15 0.500000 0.000000 0.000000
O O16 0.659297 0.797403 0.149240
O O17 0.493511 0.746906 0.624752
O O18 0.500000 0.500000 0.500000
#
# Coordination Sequence:
#
# PCOD9007319 Si02
#       8
#     2   2   2   2   2   2   2   2
#     4  10  21  39  61  87 122 166 208 252 305 366
#     4  11  21  40  62  90 124 163 206 255 307 368
#     4  11  23  41  65  91 122 163 207 255 306 365
#     4  11  22  39  62  91 124 160 204 255 304 362
#     4   9  19  35  57  81 115 156 197 246 301 354
#     4  11  21  37  63  90 121 165 208 245 302 382
#     4  11  21  37  59  89 121 160 207 256 304 361
#     4  10  21  40  63  89 119 165 210 244 302 380
#
# _framework density 22.544713999999999
#
# number of rings (size 3 to 8) (size 9 to 14) (size 15 to 20)
#    0.000    1.500    0.000    8.625    0.000    0.000 
#    0.000    8.750    0.000    4.500    0.000    0.000 
#    0.000    0.000    0.000    0.000    0.000    0.000 
#
# Total GULP energy -89154.571680 kJ/mol
# GULP energy per Si atom -5572.160730 kJ/mol
# Density = 2.249340 g / cm^3
# Si number density = 22.544714 Si / 1000 Ang^3
#
#
#
# Elastic Constant Matrix: (Units=GPa)
#
#
# Indices 1 2 3 4 5 6 
#
# 1 162.5638 10.6924 31.9501 1.5154 0.7741 -26.2170
# 2 10.6924 51.0834 8.9294 -1.4153 -8.2602 -8.9394
# 3 31.9501 8.9294 98.4207 -9.2324 -3.2830 -13.9397
# 4 1.5154 -1.4153 -9.2324 46.1146 -9.0745 -2.8306
# 5 0.7741 -8.2602 -3.2830 -9.0745 30.5060 -0.0691
# 6 -26.2170 -8.9394 -13.9397 -2.8306 -0.0691 37.1039
#
#
#
# Elastic Compliance Matrix: (Units=1/GPa)
#
#
# Indices 1 2 3 4 5 6 
#
# 1 0.007231 -0.000579 -0.001756 -0.000475 -0.000661 0.004273
# 2 -0.000579 0.021754 -0.000700 0.002110 0.006468 0.004742
# 3 -0.001756 -0.000700 0.011585 0.002941 0.001984 0.003171
# 4 -0.000475 0.002110 0.002941 0.024138 0.008087 0.003134
# 5 -0.000661 0.006468 0.001984 0.008087 0.037173 0.002523
# 6 0.004273 0.004742 0.003171 0.003134 0.002523 0.032548
#
#
# Mechanical properties :
#
#
# Convention : Reuss Voigt Hill
#
# Bulk Modulus (GPa) = 28.98644 46.13464 37.56054
# Shear Modulus (GPa) = 32.89460 40.11129 36.50295
#
# Velocity S-wave (km/s) = 3.82394 4.22262 4.02821
# Velocity P-wave (km/s) = 5.69051 6.65448 6.19128
#
# Compressibility (1/GPa) = 0.03449889
#
# Stress axis : x y z
#
# Youngs Moduli (GPa) = 138.28659 45.96939 86.31639
#
# Poissons Ratio (x) = 0.02661 0.15161
# Poissons Ratio (y) = 0.08005 0.06046
# Poissons Ratio (z) = 0.24289 0.03220
#
# Static dielectric constant tensor:
#      x y z
#    x 1.895260 0.006090 0.037090 
#    y 0.006090 1.929920 0.019670 
#    z 0.037090 0.019670 1.857820 
# 
# From -- ./inp_files/307867.got.cif
#   From: 2010.05.17/outbox.cif.g08.bks.cpg/sg2_154_cif.got.tgz:307867.got - 2010.06.03 11:33:40.
