data_PCOD9007386
_publ_section_title
;
Structure prediction by ZEFSAII (Michael W. Deem and Ramdas Pophale) SiO2 
 PCOD9007386
Probable space group: P -1
;
_chemical_formula_sum "Si O2"
_cell_formula_units_Z 15
_cell_length_a 5.170529
_cell_length_b 15.016160
_cell_length_c 11.725957
_cell_angle_alpha 139.377628
_cell_angle_beta 96.628065
_cell_angle_gamma 96.051131
_cell_volume 561.949540
_symmetry_space_group_name_H-M "P -1"
_symmetry_group_IT_number 2
_symmetry_cell_setting 'triclinic'
loop_
_space_group_symop_operation_xyz
x,y,z
-x,-y,-z
loop_
_atom_site_type_symbol
_atom_site_label
_atom_site_fract_x
_atom_site_fract_y
_atom_site_fract_z
Si Si1 0.000000 0.000000 0.500000
Si Si2 0.831427 0.635325 0.541295
Si Si3 0.516423 0.766868 0.117995
Si Si4 0.733391 0.935190 0.082477
Si Si5 0.154184 0.741021 0.275633
Si Si6 0.313937 0.086716 0.215845
Si Si7 0.288952 0.479772 0.090482
Si Si8 0.215396 0.461872 0.317330
O O1 0.207764 0.132776 0.711032
O O2 0.898376 0.121292 0.538596
O O3 0.759665 0.770104 0.617998
O O4 0.543838 0.512249 0.391180
O O5 0.885795 0.650509 0.695245
O O6 0.083457 0.589186 0.461744
O O7 0.556091 0.806042 0.025607
O O8 0.295996 0.803444 0.223156
O O9 0.475723 0.597613 0.967232
O O10 0.599849 0.060777 0.231863
O O11 0.694941 0.917284 0.926882
O O12 0.057744 0.967954 0.143668
O O13 0.340909 0.650442 0.254421
O O14 0.890092 0.608751 0.107308
O O15 0.136042 0.423084 0.146474
#
# Coordination Sequence:
#
# PCOD9007386 Si02
#       8
#     1   2   2   2   2   2   2   2
#     4  10  24  42  62  96 130 162 220 268 342 390
#     4  10  21  39  61  90 136 164 221 265 332 387
#     4  11  23  43  67  95 125 178 214 284 324 408
#     4  10  23  38  66  92 131 167 228 256 338 383
#     4  10  23  44  67  94 130 166 222 278 334 399
#     4  10  21  41  59  97 129 176 210 280 313 408
#     4  10  23  42  66  96 125 172 226 270 334 393
#     4  10  22  39  61  96 124 175 213 272 323 396
#
# _framework density 26.692786000000002
#
# number of rings (size 3 to 8) (size 9 to 14) (size 15 to 20)
#    0.000    1.867    0.000    2.400    5.600    2.133 
#    7.200    0.000    0.000    0.000    0.000    0.000 
#    0.000    0.000    0.000    0.000    0.000    0.000 
#
# Total GULP energy -83501.270934 kJ/mol
# GULP energy per Si atom -5566.751396 kJ/mol
# Density = 2.663203 g / cm^3
# Si number density = 26.692786 Si / 1000 Ang^3
#
#
#
# Elastic Constant Matrix: (Units=GPa)
#
#
# Indices 1 2 3 4 5 6 
#
# 1 102.6236 38.0103 19.5321 -13.3747 -14.1738 -0.8184
# 2 38.0103 109.4982 48.1131 20.5687 -4.8806 1.5969
# 3 19.5321 48.1131 69.8129 23.3138 -1.2804 -12.9371
# 4 -13.3747 20.5687 23.3138 56.4911 -11.7830 -17.0247
# 5 -14.1738 -4.8806 -1.2804 -11.7830 17.4985 4.4436
# 6 -0.8184 1.5969 -12.9371 -17.0247 4.4436 35.5522
#
#
#
# Elastic Compliance Matrix: (Units=1/GPa)
#
#
# Indices 1 2 3 4 5 6 
#
# 1 0.017093 -0.005586 -0.004356 0.012858 0.019935 0.002725
# 2 -0.005586 0.016000 -0.008663 -0.006227 -0.003218 -0.006579
# 3 -0.004356 -0.008663 0.025498 -0.008790 -0.011731 0.006824
# 4 0.012858 -0.006227 -0.008790 0.036116 0.029567 0.010976
# 5 0.019935 -0.003218 -0.011731 0.029567 0.091694 -0.000967
# 6 0.002725 -0.006579 0.006824 0.010976 -0.000967 0.036346
#
#
# Mechanical properties :
#
#
# Convention : Reuss Voigt Hill
#
# Bulk Modulus (GPa) = 46.76844 54.80508 50.78676
# Shear Modulus (GPa) = 18.72069 33.66030 26.19050
#
# Velocity S-wave (km/s) = 2.65115 3.55495 3.13578
# Velocity P-wave (km/s) = 5.18946 6.11772 5.67261
#
# Compressibility (1/GPa) = 0.02138194
#
# Stress axis : x y z
#
# Youngs Moduli (GPa) = 58.50324 62.49862 39.21931
#
# Poissons Ratio (x) = 0.34912 0.17083
# Poissons Ratio (y) = 0.32681 0.33975
# Poissons Ratio (z) = 0.25482 0.54141
#
# Static dielectric constant tensor:
#      x y z
#    x 2.157940 -0.097240 -0.051150 
#    y -0.097240 2.207930 -0.004450 
#    z -0.051150 -0.004450 2.133860 
# 
# From -- ./inp_files/367255.got.cif
#   From: 2010.05.17/outbox.cif.g08.bks.cpg/sg2_184_cif.got.tgz:367255.got - 2010.06.03 11:33:40.
