data_PCOD9007115
_publ_section_title
;
Structure prediction by ZEFSAII (Michael W. Deem and Ramdas Pophale) SiO2 
 PCOD9007115
Probable space group: P -1
;
_chemical_formula_sum "Si O2"
_cell_formula_units_Z 14
_cell_length_a 8.368521
_cell_length_b 6.339963
_cell_length_c 13.943515
_cell_angle_alpha 108.774381
_cell_angle_beta 123.426075
_cell_angle_gamma 78.541268
_cell_volume 584.360579
_symmetry_space_group_name_H-M "P -1"
_symmetry_group_IT_number 2
_symmetry_cell_setting 'triclinic'
loop_
_space_group_symop_operation_xyz
x,y,z
-x,-y,-z
loop_
_atom_site_type_symbol
_atom_site_label
_atom_site_fract_x
_atom_site_fract_y
_atom_site_fract_z
Si Si1 0.191662 0.130473 0.127206
Si Si2 0.843425 0.831779 0.459979
Si Si3 0.217899 0.713032 0.917207
Si Si4 0.446358 0.763998 0.254004
Si Si5 0.385433 0.342113 0.041736
Si Si6 0.998796 0.401087 0.353936
Si Si7 0.335185 0.524159 0.369336
O O1 0.271126 0.193218 0.057212
O O2 0.287986 0.307334 0.258695
O O3 0.963163 0.168242 0.071043
O O4 0.286521 0.902915 0.164279
O O5 0.640373 0.895602 0.355409
O O6 0.873199 0.572078 0.400504
O O7 0.876917 0.790088 0.578026
O O8 0.000000 0.000000 0.500000
O O9 0.442290 0.766343 0.980557
O O10 0.136606 0.710398 0.782916
O O11 0.240483 0.470247 0.939740
O O12 0.471361 0.539290 0.165740
O O13 0.381702 0.703463 0.330814
O O14 0.141758 0.563467 0.370237
O O15 0.500000 0.500000 0.500000
#
# Coordination Sequence:
#
# PCOD9007115 Si02
#       7
#     2   2   2   2   2   2   2
#     4  10  24  39  62  95 127 160 206 259 311 371
#     4  11  24  36  61  89 127 162 199 253 307 370
#     4  10  21  43  66  91 120 167 212 251 314 366
#     4  11  23  41  62  95 123 162 208 252 315 366
#     4  10  22  44  68  84 127 167 205 261 308 370
#     4  10  22  41  60  87 122 163 205 251 303 372
#     4  10  21  39  60  84 125 165 201 250 303 366
#
# _framework density 23.957812000000001
#
# number of rings (size 3 to 8) (size 9 to 14) (size 15 to 20)
#    0.000    1.714    2.857    0.429    4.000    3.429 
#    0.000    4.286    0.000    0.000    0.000    0.000 
#    0.000    0.000    0.000    0.000    0.000    0.000 
#
# Total GULP energy -78148.954139 kJ/mol
# GULP energy per Si atom -5582.068153 kJ/mol
# Density = 2.390328 g / cm^3
# Si number density = 23.957812 Si / 1000 Ang^3
#
#
#
# Elastic Constant Matrix: (Units=GPa)
#
#
# Indices 1 2 3 4 5 6 
#
# 1 143.2548 61.1932 48.2094 -23.0514 7.5588 -2.6658
# 2 61.1932 75.4019 32.6402 -17.3525 6.9043 -5.6545
# 3 48.2094 32.6402 123.0427 -30.2075 9.5328 -0.2492
# 4 -23.0514 -17.3525 -30.2075 22.7733 2.2797 1.2442
# 5 7.5588 6.9043 9.5328 2.2797 49.0126 -3.5106
# 6 -2.6658 -5.6545 -0.2492 1.2442 -3.5106 48.0833
#
#
#
# Elastic Compliance Matrix: (Units=1/GPa)
#
#
# Indices 1 2 3 4 5 6 
#
# 1 0.011406 -0.007731 -0.001429 0.003843 -0.000601 -0.000427
# 2 -0.007731 0.022024 -0.000633 0.008223 -0.002041 0.001796
# 3 -0.001429 -0.000633 0.012890 0.015505 -0.002969 -0.000705
# 4 0.003843 0.008223 0.015505 0.075543 -0.008374 -0.001306
# 5 -0.000601 -0.002041 -0.002969 -0.008374 0.021859 0.001524
# 6 -0.000427 0.001796 -0.000705 -0.001306 0.001524 0.021126
#
#
# Mechanical properties :
#
#
# Convention : Reuss Voigt Hill
#
# Bulk Modulus (GPa) = 37.40392 69.53165 53.46778
# Shear Modulus (GPa) = 25.86046 37.28429 31.57238
#
# Velocity S-wave (km/s) = 3.28901 3.94921 3.63413
# Velocity P-wave (km/s) = 5.48359 7.06262 6.32259
#
# Compressibility (1/GPa) = 0.02673517
#
# Stress axis : x y z
#
# Youngs Moduli (GPa) = 87.67478 45.40477 77.57786
#
# Poissons Ratio (x) = 0.35100 0.11087
# Poissons Ratio (y) = 0.67777 0.04910
# Poissons Ratio (z) = 0.12529 0.02874
#
# Static dielectric constant tensor:
#      x y z
#    x 1.945580 -0.052510 -0.031360 
#    y -0.052510 1.970990 0.077240 
#    z -0.031360 0.077240 1.978050 
# 
# From -- ./inp_files/488479.got.cif
#   From: 2010.05.17/outbox.cif.g08.bks.cpg/sg2_245_cif.got.tgz:488479.got - 2010.06.03 11:33:40.
