data_PCOD9007759
_publ_section_title
;
Structure prediction by ZEFSAII (Michael W. Deem and Ramdas Pophale) SiO2 
 PCOD9007759
Probable space group: P -1
;
_chemical_formula_sum "Si O2"
_cell_formula_units_Z 14
_cell_length_a 17.176382
_cell_length_b 10.591668
_cell_length_c 9.633685
_cell_angle_alpha 118.511352
_cell_angle_beta 50.359544
_cell_angle_gamma 149.622676
_cell_volume 670.381335
_symmetry_space_group_name_H-M "P -1"
_symmetry_group_IT_number 2
_symmetry_cell_setting 'triclinic'
loop_
_space_group_symop_operation_xyz
x,y,z
-x,-y,-z
loop_
_atom_site_type_symbol
_atom_site_label
_atom_site_fract_x
_atom_site_fract_y
_atom_site_fract_z
Si Si1 0.702316 0.295071 0.439549
Si Si2 0.999405 0.328270 0.886612
Si Si3 0.669401 0.792108 0.495476
Si Si4 0.968917 0.866905 0.829831
Si Si5 0.870348 0.192599 0.258171
Si Si6 0.351040 0.500236 0.199395
Si Si7 0.680405 0.845073 0.821951
O O1 0.795954 0.461909 0.278804
O O2 0.829915 0.313273 0.355038
O O3 0.702882 0.423852 0.614745
O O4 0.500000 0.000000 0.500000
O O5 0.874315 0.122757 0.798608
O O6 0.000000 0.500000 0.000000
O O7 0.906460 0.170736 0.052768
O O8 0.500000 0.500000 0.500000
O O9 0.651882 0.845231 0.692911
O O10 0.703766 0.934777 0.398848
O O11 0.853002 0.913944 0.352067
O O12 0.794026 0.702554 0.860295
O O13 0.968694 0.695633 0.781005
O O14 0.000000 0.000000 0.000000
O O15 0.352984 0.364066 0.225585
O O16 0.537668 0.746117 0.038138
#
# Coordination Sequence:
#
# PCOD9007759 Si02
#       7
#     2   2   2   2   2   2   2
#     4  11  24  43  68  96 125 174 222 262 328 388
#     4  10  21  43  70  91 130 173 210 266 327 383
#     4  10  23  40  65  95 136 172 206 274 333 371
#     4  10  21  39  62  95 127 165 212 261 327 375
#     4   9  23  43  62  94 136 164 215 266 322 385
#     4  11  24  40  68  95 130 170 223 270 315 388
#     4  11  24  42  66  98 131 168 222 271 319 383
#
# _framework density 20.883635000000002
#
# number of rings (size 3 to 8) (size 9 to 14) (size 15 to 20)
#    0.857    0.857    0.000    4.286    6.000    4.000 
#    5.143    0.714    0.000    0.000    0.000    0.000 
#    0.000    0.000    0.000    0.000    0.000    0.000 
#
# Total GULP energy -77991.777729 kJ/mol
# GULP energy per Si atom -5570.841266 kJ/mol
# Density = 2.083610 g / cm^3
# Si number density = 20.883635 Si / 1000 Ang^3
#
#
#
# Elastic Constant Matrix: (Units=GPa)
#
#
# Indices 1 2 3 4 5 6 
#
# 1 55.2259 -0.7894 25.7410 -3.6016 2.5657 -12.5148
# 2 -0.7894 72.0127 46.5788 -10.9712 14.0601 1.0412
# 3 25.7410 46.5788 145.2406 -8.2161 10.6054 -15.9250
# 4 -3.6016 -10.9712 -8.2161 31.6674 -1.0107 -3.9411
# 5 2.5657 14.0601 10.6054 -1.0107 37.0779 -0.2923
# 6 -12.5148 1.0412 -15.9250 -3.9411 -0.2923 27.1290
#
#
#
# Elastic Compliance Matrix: (Units=1/GPa)
#
#
# Indices 1 2 3 4 5 6 
#
# 1 0.022136 0.003445 -0.003782 0.003722 -0.001589 0.008383
# 2 0.003445 0.020177 -0.006621 0.005181 -0.005873 -0.002382
# 3 -0.003782 -0.006621 0.010216 0.000493 -0.000100 0.004577
# 4 0.003722 0.005181 0.000493 0.034732 -0.001362 0.006839
# 5 -0.001589 -0.005873 -0.000100 -0.001362 0.029295 -0.000449
# 6 0.008383 -0.002382 0.004577 0.006839 -0.000449 0.044494
#
#
# Mechanical properties :
#
#
# Convention : Reuss Voigt Hill
#
# Bulk Modulus (GPa) = 25.89797 46.17111 36.03454
# Shear Modulus (GPa) = 26.61887 32.57144 29.59515
#
# Velocity S-wave (km/s) = 3.57407 3.95354 3.76858
# Velocity P-wave (km/s) = 5.42770 6.55724 6.01903
#
# Compressibility (1/GPa) = 0.03861306
#
# Stress axis : x y z
#
# Youngs Moduli (GPa) = 45.17566 49.56141 97.88848
#
# Poissons Ratio (x) = -0.17075 0.37025
# Poissons Ratio (y) = -0.15564 0.64808
# Poissons Ratio (z) = 0.17087 0.32813
#
# Static dielectric constant tensor:
#      x y z
#    x 1.835850 -0.044300 0.031030 
#    y -0.044300 1.757970 -0.048690 
#    z 0.031030 -0.048690 1.782690 
# 
# From -- ./inp_files/332243.got.cif
#   From: 2010.05.17/outbox.cif.g08.bks.cpg/sg2_167_cif.got.tgz:332243.got - 2010.06.03 11:33:40.
