data_PCOD9007200
_publ_section_title
;
Structure prediction by ZEFSAII (Michael W. Deem and Ramdas Pophale) SiO2 
 PCOD9007200
Probable space group: P -1
;
_chemical_formula_sum "Si O2"
_cell_formula_units_Z 16
_cell_length_a 16.618602
_cell_length_b 9.016316
_cell_length_c 16.759799
_cell_angle_alpha 45.903697
_cell_angle_beta 153.954664
_cell_angle_gamma 127.143886
_cell_volume 790.070201
_symmetry_space_group_name_H-M "P -1"
_symmetry_group_IT_number 2
_symmetry_cell_setting 'triclinic'
loop_
_space_group_symop_operation_xyz
x,y,z
-x,-y,-z
loop_
_atom_site_type_symbol
_atom_site_label
_atom_site_fract_x
_atom_site_fract_y
_atom_site_fract_z
Si Si1 0.419638 0.977179 0.243284
Si Si2 0.187886 0.947810 0.383044
Si Si3 0.799801 0.417525 0.343671
Si Si4 0.983172 0.653195 0.853221
Si Si5 0.336497 0.444487 0.163320
Si Si6 0.211587 0.977017 0.215817
Si Si7 0.425297 0.394843 0.552452
Si Si8 0.597982 0.530363 0.971420
O O1 0.620037 0.952975 0.470889
O O2 0.295100 0.904387 0.232080
O O3 0.452781 0.825323 0.255274
O O4 0.380990 0.218769 0.095027
O O5 0.029533 0.122138 0.199147
O O6 0.184265 0.782492 0.511469
O O7 0.208214 0.866645 0.340913
O O8 0.606782 0.526876 0.164156
O O9 0.000000 0.500000 0.500000
O O10 0.746246 0.409122 0.205762
O O11 0.792314 0.628545 0.643846
O O12 0.000000 0.500000 0.000000
O O13 0.158331 0.583390 0.982447
O O14 0.509034 0.481137 0.359586
O O15 0.375709 0.502963 0.085882
O O16 0.292922 0.201805 0.218280
O O17 0.000000 0.000000 0.000000
O O18 0.500000 0.500000 0.500000
#
# Coordination Sequence:
#
# PCOD9007200 Si02
#       8
#     2   2   2   2   2   2   2   2
#     4   9  21  39  59  85 126 158 198 251 307 372
#     4  10  21  39  60  90 119 162 205 249 311 364
#     4  10  22  40  68  88 118 160 212 261 306 358
#     4  11  21  39  60  90 130 166 202 243 309 383
#     4  11  23  40  61  93 130 162 202 257 302 379
#     4  11  23  35  57  93 126 158 200 253 311 373
#     4  11  22  35  60  87 126 170 199 240 306 369
#     4   9  22  44  62  91 121 156 208 263 308 354
#
# _framework density 20.251363999999999
#
# number of rings (size 3 to 8) (size 9 to 14) (size 15 to 20)
#    0.000    1.750    2.500    1.125    7.000    3.000 
#    0.000    0.625    0.000   15.750    0.000    0.000 
#    0.000    0.000    0.000    0.000    0.000    0.000 
#
# Total GULP energy -89159.226714 kJ/mol
# GULP energy per Si atom -5572.451670 kJ/mol
# Density = 2.020527 g / cm^3
# Si number density = 20.251364 Si / 1000 Ang^3
#
#
#
# Elastic Constant Matrix: (Units=GPa)
#
#
# Indices 1 2 3 4 5 6 
#
# 1 120.1347 23.7813 50.1544 9.4715 -18.4687 -2.6329
# 2 23.7813 43.8149 31.5642 13.5637 -4.7541 -11.6651
# 3 50.1544 31.5642 99.5544 12.6997 -9.3599 -2.0335
# 4 9.4715 13.5637 12.6997 30.0975 -3.6137 -2.1825
# 5 -18.4687 -4.7541 -9.3599 -3.6137 39.8614 2.0062
# 6 -2.6329 -11.6651 -2.0335 -2.1825 2.0062 19.2456
#
#
#
# Elastic Compliance Matrix: (Units=1/GPa)
#
#
# Indices 1 2 3 4 5 6 
#
# 1 0.011321 -0.002748 -0.004480 -0.000037 0.003913 -0.001002
# 2 -0.002748 0.040718 -0.009636 -0.011926 -0.000869 0.022024
# 3 -0.004480 -0.009636 0.015442 -0.001059 0.000557 -0.005000
# 4 -0.000037 -0.011926 -0.001059 0.039074 0.002011 -0.003124
# 5 0.003913 -0.000869 0.000557 0.002011 0.027237 -0.002544
# 6 -0.001002 0.022024 -0.005000 -0.003124 -0.002544 0.064554
#
#
# Mechanical properties :
#
#
# Convention : Reuss Voigt Hill
#
# Bulk Modulus (GPa) = 29.62706 52.72267 41.17487
# Shear Modulus (GPa) = 20.54871 28.37450 24.46161
#
# Velocity S-wave (km/s) = 3.18886 3.74721 3.47926
# Velocity P-wave (km/s) = 5.31224 6.69423 6.04287
#
# Compressibility (1/GPa) = 0.03375292
#
# Stress axis : x y z
#
# Youngs Moduli (GPa) = 88.33371 24.55932 64.75809
#
# Poissons Ratio (x) = 0.06749 0.29011
# Poissons Ratio (y) = 0.24276 0.62399
# Poissons Ratio (z) = 0.39572 0.23665
#
# Static dielectric constant tensor:
#      x y z
#    x 2.173190 -1.071510 0.611550 
#    y -1.071510 4.319590 -1.468270 
#    z 0.611550 -1.468270 2.612630 
# 
# From -- ./inp_files/529483.got.cif
#   From: 2010.05.17/outbox.cif.g08.bks.cpg/sg2_265_cif.got.tgz:529483.got - 2010.06.03 11:33:40.
