data_PCOD9007667
_publ_section_title
;
Structure prediction by ZEFSAII (Michael W. Deem and Ramdas Pophale) SiO2 
 PCOD9007667
Probable space group: P -1
;
_chemical_formula_sum "Si O2"
_cell_formula_units_Z 16
_cell_length_a 6.913293
_cell_length_b 9.773901
_cell_length_c 14.317571
_cell_angle_alpha 111.695296
_cell_angle_beta 122.675179
_cell_angle_gamma 67.550099
_cell_volume 735.808395
_symmetry_space_group_name_H-M "P -1"
_symmetry_group_IT_number 2
_symmetry_cell_setting 'triclinic'
loop_
_space_group_symop_operation_xyz
x,y,z
-x,-y,-z
loop_
_atom_site_type_symbol
_atom_site_label
_atom_site_fract_x
_atom_site_fract_y
_atom_site_fract_z
Si Si1 0.444988 0.878923 0.026809
Si Si2 0.442211 0.995218 0.264449
Si Si3 0.392163 0.858943 0.405891
Si Si4 0.144621 0.346748 0.548569
Si Si5 0.757499 0.542329 0.001999
Si Si6 0.056416 0.819183 0.793946
Si Si7 0.926386 0.060363 0.372726
Si Si8 0.716792 0.517849 0.200568
O O1 0.624575 0.719190 0.011619
O O2 0.456789 0.924538 0.148061
O O3 0.182230 0.864893 0.929333
O O4 0.500000 0.000000 0.000000
O O5 0.223376 0.140084 0.254212
O O6 0.689889 0.040762 0.355153
O O7 0.384790 0.880069 0.297293
O O8 0.591221 0.709207 0.441821
O O9 0.500000 0.000000 0.500000
O O10 0.129536 0.904426 0.389636
O O11 0.193998 0.371877 0.677221
O O12 0.000000 0.500000 0.500000
O O13 0.019927 0.206314 0.467582
O O14 0.808543 0.507086 0.115640
O O15 0.564694 0.459723 0.885233
O O16 0.000000 0.500000 0.000000
O O17 0.115414 0.907353 0.740651
O O18 0.177154 0.644732 0.766381
#
# Coordination Sequence:
#
# PCOD9007667 Si02
#       8
#     2   2   2   2   2   2   2   2
#     4  11  22  38  63  96 123 157 212 257 309 374
#     4  11  22  39  66  89 125 165 206 258 311 361
#     4   9  22  40  62  87 122 161 205 253 308 357
#     4  11  21  40  67  91 127 168 204 256 310 368
#     4  10  24  43  64  92 125 167 204 256 313 368
#     4  10  21  39  62  91 126 162 203 260 312 360
#     4  10  21  40  63  91 123 162 209 252 307 370
#     4  10  22  42  65  89 129 164 208 252 311 371
#
# _framework density 21.744789999999998
#
# number of rings (size 3 to 8) (size 9 to 14) (size 15 to 20)
#    0.000    1.750    2.500    1.125    1.750    3.000 
#    2.250    4.375    0.000    0.000    0.000    0.000 
#    0.000    0.000    0.000    0.000    0.000    0.000 
#
# Total GULP energy -89351.111780 kJ/mol
# GULP energy per Si atom -5584.444486 kJ/mol
# Density = 2.169530 g / cm^3
# Si number density = 21.744790 Si / 1000 Ang^3
#
#
#
# Elastic Constant Matrix: (Units=GPa)
#
#
# Indices 1 2 3 4 5 6 
#
# 1 113.3338 17.7606 30.0611 -12.7402 3.1750 -27.4415
# 2 17.7606 80.8978 17.8349 -23.2757 -2.4920 -15.5969
# 3 30.0611 17.8349 143.9110 0.2439 -11.6358 -5.7070
# 4 -12.7402 -23.2757 0.2439 27.9511 1.5727 7.1324
# 5 3.1750 -2.4920 -11.6358 1.5727 25.6573 -7.0042
# 6 -27.4415 -15.5969 -5.7070 7.1324 -7.0042 30.2679
#
#
#
# Elastic Compliance Matrix: (Units=1/GPa)
#
#
# Indices 1 2 3 4 5 6 
#
# 1 0.012164 0.000847 -0.002237 0.003657 0.000126 0.010210
# 2 0.000847 0.017850 -0.001998 0.013425 0.001766 0.006835
# 3 -0.002237 -0.001998 0.007986 -0.002987 0.003903 0.000055
# 4 0.003657 0.013425 -0.002987 0.049673 -0.004380 -0.003049
# 5 0.000126 0.001766 0.003903 -0.004380 0.044759 0.013150
# 6 0.010210 0.006835 0.000055 -0.003049 0.013150 0.049589
#
#
# Mechanical properties :
#
#
# Convention : Reuss Voigt Hill
#
# Bulk Modulus (GPa) = 32.02579 52.16178 42.09379
# Shear Modulus (GPa) = 25.09964 34.94099 30.02031
#
# Velocity S-wave (km/s) = 3.40116 4.01292 3.71964
# Velocity P-wave (km/s) = 5.49398 6.74623 6.15205
#
# Compressibility (1/GPa) = 0.03122483
#
# Stress axis : x y z
#
# Youngs Moduli (GPa) = 82.21111 56.02100 125.21214
#
# Poissons Ratio (x) = -0.04746 0.28010
# Poissons Ratio (y) = -0.06965 0.25019
# Poissons Ratio (z) = 0.18391 0.11194
#
# Static dielectric constant tensor:
#      x y z
#    x 1.771440 0.004700 0.006500 
#    y 0.004700 1.819180 -0.012350 
#    z 0.006500 -0.012350 1.864310 
# 
# From -- ./inp_files/94381.got.cif
#   From: 2010.05.17/outbox.cif.g08.bks.cpg/sg2_48_cif.got.tgz:94381.got - 2010.06.03 11:33:40.
