data_PCOD9007424
_publ_section_title
;
Structure prediction by ZEFSAII (Michael W. Deem and Ramdas Pophale) SiO2 
 PCOD9007424
Probable space group: P -1
;
_chemical_formula_sum "Si O2"
_cell_formula_units_Z 12
_cell_length_a 13.036372
_cell_length_b 10.123370
_cell_length_c 11.908134
_cell_angle_alpha 101.386094
_cell_angle_beta 41.192222
_cell_angle_gamma 133.760983
_cell_volume 548.652375
_symmetry_space_group_name_H-M "P -1"
_symmetry_group_IT_number 2
_symmetry_cell_setting 'triclinic'
loop_
_space_group_symop_operation_xyz
x,y,z
-x,-y,-z
loop_
_atom_site_type_symbol
_atom_site_label
_atom_site_fract_x
_atom_site_fract_y
_atom_site_fract_z
Si Si1 0.692186 0.224953 0.169332
Si Si2 0.638736 0.993967 0.801815
Si Si3 0.088508 0.157983 0.592346
Si Si4 0.293755 0.352338 0.919077
Si Si5 0.092974 0.850572 0.605699
Si Si6 0.942677 0.123379 0.944425
O O1 0.617650 0.232610 0.109756
O O2 0.403437 0.056342 0.446166
O O3 0.718807 0.083129 0.118680
O O4 0.000000 0.500000 0.000000
O O5 0.868921 0.208372 0.550206
O O6 0.802478 0.004163 0.742921
O O7 0.500000 0.000000 0.000000
O O8 0.366388 0.390308 0.328383
O O9 0.115380 0.250687 0.706349
O O10 0.079014 0.992877 0.595770
O O11 0.147434 0.288253 0.911112
O O12 0.162216 0.342980 0.128287
O O13 0.203930 0.130288 0.972188
#
# Coordination Sequence:
#
# PCOD9007424 Si02
#       6
#     2   2   2   2   2   2
#     4  10  21  39  64  91 121 163 207 250 308 358
#     4  10  21  41  63  93 121 162 210 249 305 375
#     4  11  19  40  67  87 124 166 200 252 311 363
#     4  10  22  37  61  95 125 162 201 257 304 356
#     4   9  22  38  62  93 122 156 212 248 300 367
#     4  10  21  39  61  92 128 157 213 248 295 374
#
# _framework density 21.871773000000001
#
# number of rings (size 3 to 8) (size 9 to 14) (size 15 to 20)
#    1.000    1.000    1.667    2.000    0.000    4.000 
#    0.000    4.167    0.000    0.000    0.000    0.000 
#    0.000    0.000    0.000    0.000    0.000    0.000 
#
# Total GULP energy -66903.805592 kJ/mol
# GULP energy per Si atom -5575.317133 kJ/mol
# Density = 2.182199 g / cm^3
# Si number density = 21.871773 Si / 1000 Ang^3
#
#
#
# Elastic Constant Matrix: (Units=GPa)
#
#
# Indices 1 2 3 4 5 6 
#
# 1 109.6421 35.2800 73.2380 19.5015 -25.2306 -3.2817
# 2 35.2800 40.5332 48.8556 14.8545 -1.2665 -0.1780
# 3 73.2380 48.8556 156.9264 25.1640 -12.5656 1.6100
# 4 19.5015 14.8545 25.1640 29.5064 1.9072 -1.1734
# 5 -25.2306 -1.2665 -12.5656 1.9072 38.4520 15.7292
# 6 -3.2817 -0.1780 1.6100 -1.1734 15.7292 25.0413
#
#
#
# Elastic Compliance Matrix: (Units=1/GPa)
#
#
# Indices 1 2 3 4 5 6 
#
# 1 0.018408 -0.009100 -0.003753 -0.005481 0.013283 -0.006011
# 2 -0.009100 0.047474 -0.009966 -0.008567 -0.009404 0.005291
# 3 -0.003753 -0.009966 0.011933 -0.002961 0.002498 -0.003038
# 4 -0.005481 -0.008567 -0.002961 0.045344 -0.010395 0.008065
# 5 0.013283 -0.009404 0.002498 -0.010395 0.047539 -0.028835
# 6 -0.006011 0.005291 -0.003038 0.008065 -0.028835 0.057869
#
#
# Mechanical properties :
#
#
# Convention : Reuss Voigt Hill
#
# Bulk Modulus (GPa) = 31.08092 69.09431 50.08762
# Shear Modulus (GPa) = 17.54805 28.58182 23.06493
#
# Velocity S-wave (km/s) = 2.83559 3.61888 3.25091
# Velocity P-wave (km/s) = 4.99621 7.00863 6.08617
#
# Compressibility (1/GPa) = 0.03217408
#
# Stress axis : x y z
#
# Youngs Moduli (GPa) = 54.32509 21.06434 83.80208
#
# Poissons Ratio (x) = 0.19170 0.31455
# Poissons Ratio (y) = 0.49438 0.83518
# Poissons Ratio (z) = 0.20391 0.20993
#
# Static dielectric constant tensor:
#      x y z
#    x 1.809410 0.021650 0.031330 
#    y 0.021650 1.825670 0.026760 
#    z 0.031330 0.026760 1.832980 
# 
# From -- ./inp_files/65750.got.cif
#   From: 2010.05.17/outbox.cif.g08.bks.cpg/sg2_33_cif.got.tgz:65750.got - 2010.06.03 11:33:40.
