data_PCOD9007388
_publ_section_title
;
Structure prediction by ZEFSAII (Michael W. Deem and Ramdas Pophale) SiO2 
 PCOD9007388
Probable space group: P -1
;
_chemical_formula_sum "Si O2"
_cell_formula_units_Z 13
_cell_length_a 7.325690
_cell_length_b 16.916345
_cell_length_c 12.157463
_cell_angle_alpha 159.365587
_cell_angle_beta 82.201780
_cell_angle_gamma 94.122625
_cell_volume 519.432590
_symmetry_space_group_name_H-M "P -1"
_symmetry_group_IT_number 2
_symmetry_cell_setting 'triclinic'
loop_
_space_group_symop_operation_xyz
x,y,z
-x,-y,-z
loop_
_atom_site_type_symbol
_atom_site_label
_atom_site_fract_x
_atom_site_fract_y
_atom_site_fract_z
Si Si1 0.461659 0.127436 0.366868
Si Si2 0.821957 0.829768 0.945605
Si Si3 0.500000 0.000000 0.000000
Si Si4 0.283516 0.014067 0.441586
Si Si5 0.213997 0.653296 0.588917
Si Si6 0.697618 0.498516 0.859849
Si Si7 0.127376 0.831258 0.417562
O O1 0.411452 0.977058 0.275244
O O2 0.526045 0.356299 0.700827
O O3 0.640601 0.973532 0.085877
O O4 0.343284 0.163202 0.314514
O O5 0.780140 0.580681 0.649345
O O6 0.019098 0.805972 0.838483
O O7 0.831571 0.977658 0.248623
O O8 0.393658 0.771347 0.744776
O O9 0.081211 0.097573 0.513966
O O10 0.253973 0.834568 0.302887
O O11 0.341774 0.232386 0.781752
O O12 0.210371 0.582149 0.368473
O O13 0.832324 0.400961 0.821243
#
# Coordination Sequence:
#
# PCOD9007388 Si02
#       7
#     2   2   1   2   2   2   2
#     4  10  23  38  62  87 123 157 200 248 306 356
#     4  10  21  40  63  89 117 168 202 246 306 364
#     4  10  22  40  58  92 118 154 200 258 300 350
#     4  11  21  40  59  91 126 155 198 254 293 366
#     4  10  21  40  65  86 124 157 207 253 299 360
#     4  10  21  39  61  91 115 163 200 247 301 360
#     4  10  22  37  63  89 120 160 204 243 305 355
#
# _framework density 25.02731
#
# number of rings (size 3 to 8) (size 9 to 14) (size 15 to 20)
#    0.000    1.846    1.538    1.846    0.000    9.846 
#    5.538    0.000    6.769    0.000    0.000    0.000 
#    0.000    0.000    0.000    0.000    0.000    0.000 
#
# Total GULP energy -72528.876563 kJ/mol
# GULP energy per Si atom -5579.144351 kJ/mol
# Density = 2.497035 g / cm^3
# Si number density = 25.027310 Si / 1000 Ang^3
#
#
#
# Elastic Constant Matrix: (Units=GPa)
#
#
# Indices 1 2 3 4 5 6 
#
# 1 97.5665 9.7933 19.3107 -5.1260 3.9007 1.2937
# 2 9.7933 101.0252 17.7909 -19.2923 -3.4281 6.4420
# 3 19.3107 17.7909 68.1283 -7.2129 9.6481 6.6128
# 4 -5.1260 -19.2923 -7.2129 56.3899 -0.6962 -3.0506
# 5 3.9007 -3.4281 9.6481 -0.6962 40.4697 -4.1079
# 6 1.2937 6.4420 6.6128 -3.0506 -4.1079 30.2876
#
#
#
# Elastic Compliance Matrix: (Units=1/GPa)
#
#
# Indices 1 2 3 4 5 6 
#
# 1 0.010906 -0.000489 -0.002888 0.000464 -0.000369 0.000265
# 2 -0.000489 0.011171 -0.002511 0.003407 0.001523 -0.001257
# 3 -0.002888 -0.002511 0.017213 0.000830 -0.004390 -0.003612
# 4 0.000464 0.003407 0.000830 0.019111 0.000483 0.001065
# 5 -0.000369 0.001523 -0.004390 0.000483 0.026363 0.004275
# 6 0.000265 -0.001257 -0.003612 0.001065 0.004275 0.034749
#
#
# Mechanical properties :
#
#
# Convention : Reuss Voigt Hill
#
# Bulk Modulus (GPa) = 36.34746 40.05662 38.20204
# Shear Modulus (GPa) = 35.59731 40.08444 37.84088
#
# Velocity S-wave (km/s) = 3.77548 4.00638 3.89264
# Velocity P-wave (km/s) = 5.79313 6.11893 5.95826
#
# Compressibility (1/GPa) = 0.02751224
#
# Stress axis : x y z
#
# Youngs Moduli (GPa) = 91.69494 89.52033 58.09622
#
# Poissons Ratio (x) = 0.04382 0.16776
# Poissons Ratio (y) = 0.04488 0.14590
# Poissons Ratio (z) = 0.26479 0.22482
#
# Static dielectric constant tensor:
#      x y z
#    x 2.097550 -0.036450 0.011650 
#    y -0.036450 1.999900 -0.085980 
#    z 0.011650 -0.085980 2.013570 
# 
# From -- ./inp_files/147841.got.cif
#   From: 2010.05.17/outbox.cif.g08.bks.cpg/sg2_74_cif.got.tgz:147841.got - 2010.06.03 11:33:40.
