data_PCOD9007633
_publ_section_title
;
Structure prediction by ZEFSAII (Michael W. Deem and Ramdas Pophale) SiO2 
 PCOD9007633
Probable space group: P -1
;
_chemical_formula_sum "Si O2"
_cell_formula_units_Z 16
_cell_length_a 8.938649
_cell_length_b 18.318578
_cell_length_c 6.145359
_cell_angle_alpha 121.244131
_cell_angle_beta 54.344457
_cell_angle_gamma 113.468970
_cell_volume 692.346248
_symmetry_space_group_name_H-M "P -1"
_symmetry_group_IT_number 2
_symmetry_cell_setting 'triclinic'
loop_
_space_group_symop_operation_xyz
x,y,z
-x,-y,-z
loop_
_atom_site_type_symbol
_atom_site_label
_atom_site_fract_x
_atom_site_fract_y
_atom_site_fract_z
Si Si1 0.778637 0.393990 0.070434
Si Si2 0.547946 0.110949 0.907986
Si Si3 0.846808 0.874954 0.849652
Si Si4 0.835750 0.243109 0.115202
Si Si5 0.902953 0.549012 0.468406
Si Si6 0.146071 0.991280 0.555782
Si Si7 0.207757 0.272342 0.020491
Si Si8 0.407234 0.744120 0.268609
O O1 0.835044 0.323751 0.082970
O O2 0.756266 0.478888 0.358335
O O3 0.608473 0.339342 0.003653
O O4 0.941479 0.419273 0.795766
O O5 0.641604 0.023985 0.686087
O O6 0.573916 0.168905 0.754458
O O7 0.326305 0.102115 0.112099
O O8 0.679622 0.167116 0.055099
O O9 0.813067 0.777078 0.806289
O O10 0.045452 0.903259 0.618206
O O11 0.849833 0.933004 0.155219
O O12 0.773321 0.264478 0.443065
O O13 0.046523 0.226322 0.930796
O O14 0.820651 0.629329 0.766750
O O15 0.000000 0.500000 0.500000
O O16 0.000000 0.000000 0.500000
O O17 0.410627 0.259575 0.747540
#
# Coordination Sequence:
#
# PCOD9007633 Si02
#       8
#     2   2   2   2   2   2   2   2
#     4  10  21  39  62  90 125 165 206 257 319 361
#     4  10  23  39  64  90 126 169 200 258 310 362
#     4  10  24  42  60  96 126 159 212 253 306 375
#     4  11  21  40  62  91 127 161 210 259 306 367
#     4  11  21  40  66  92 125 167 209 257 313 370
#     4  11  23  41  65  93 126 163 206 254 311 369
#     4  11  22  41  67  88 124 169 204 260 310 369
#     4  10  22  41  61  94 125 163 213 255 309 372
#
# _framework density 23.109825000000001
#
# number of rings (size 3 to 8) (size 9 to 14) (size 15 to 20)
#    0.000    1.500    2.500    1.875    1.750    5.000 
#    4.500    2.500    0.000    0.000    0.000    0.000 
#    0.000    0.000    0.000    0.000    0.000    0.000 
#
# Total GULP energy -89404.500084 kJ/mol
# GULP energy per Si atom -5587.781255 kJ/mol
# Density = 2.305723 g / cm^3
# Si number density = 23.109825 Si / 1000 Ang^3
#
#
#
# Elastic Constant Matrix: (Units=GPa)
#
#
# Indices 1 2 3 4 5 6 
#
# 1 137.5898 -1.3230 13.9990 18.1299 -8.0538 13.4658
# 2 -1.3230 63.0518 1.9448 3.7084 -2.7132 -6.7273
# 3 13.9990 1.9448 37.8083 15.1251 4.3053 -0.8649
# 4 18.1299 3.7084 15.1251 30.1184 4.3460 -1.4858
# 5 -8.0538 -2.7132 4.3053 4.3460 34.3848 6.3898
# 6 13.4658 -6.7273 -0.8649 -1.4858 6.3898 32.4857
#
#
#
# Elastic Compliance Matrix: (Units=1/GPa)
#
#
# Indices 1 2 3 4 5 6 
#
# 1 0.008815 0.000216 -0.001716 -0.005253 0.003824 -0.004648
# 2 0.000216 0.016356 -0.000143 -0.002078 0.001066 0.002989
# 3 -0.001716 -0.000143 0.033590 -0.015320 -0.002953 0.001456
# 4 -0.005253 -0.002078 -0.015320 0.045417 -0.006073 0.004611
# 5 0.003824 0.001066 -0.002953 -0.006073 0.032715 -0.008156
# 6 -0.004648 0.002989 0.001456 0.004611 -0.008156 0.035182
#
#
# Mechanical properties :
#
#
# Convention : Reuss Voigt Hill
#
# Bulk Modulus (GPa) = 18.02585 29.74352 23.88469
# Shear Modulus (GPa) = 25.79256 34.31973 30.05614
#
# Velocity S-wave (km/s) = 3.34441 3.85784 3.61027
# Velocity P-wave (km/s) = 4.76765 5.72210 5.26654
#
# Compressibility (1/GPa) = 0.05547587
#
# Stress axis : x y z
#
# Youngs Moduli (GPa) = 113.43742 61.13992 29.77055
#
# Poissons Ratio (x) = -0.01318 0.05108
# Poissons Ratio (y) = -0.02445 0.00425
# Poissons Ratio (z) = 0.19462 0.00873
#
# Static dielectric constant tensor:
#      x y z
#    x 1.870730 0.019090 0.041390 
#    y 0.019090 1.850630 0.019900 
#    z 0.041390 0.019900 1.871330 
# 
# From -- ./inp_files/46822.got.cif
#   From: 2010.05.17/outbox.cif.g08.bks.cpg/sg2_24_cif.got.tgz:46822.got - 2010.06.03 11:33:40.
