data_PCOD9007897
_publ_section_title
;
Structure prediction by ZEFSAII (Michael W. Deem and Ramdas Pophale) SiO2 
 PCOD9007897
Probable space group: P -1
;
_chemical_formula_sum "Si O2"
_cell_formula_units_Z 16
_cell_length_a 15.444808
_cell_length_b 15.784673
_cell_length_c 7.857402
_cell_angle_alpha 138.999919
_cell_angle_beta 128.569104
_cell_angle_gamma 34.709593
_cell_volume 715.577658
_symmetry_space_group_name_H-M "P -1"
_symmetry_group_IT_number 2
_symmetry_cell_setting 'triclinic'
loop_
_space_group_symop_operation_xyz
x,y,z
-x,-y,-z
loop_
_atom_site_type_symbol
_atom_site_label
_atom_site_fract_x
_atom_site_fract_y
_atom_site_fract_z
Si Si1 0.420471 0.857433 0.366724
Si Si2 0.749528 0.752005 0.135740
Si Si3 0.303095 0.684238 0.582767
Si Si4 0.880816 0.007556 0.960996
Si Si5 0.419401 0.353198 0.097460
Si Si6 0.046711 0.412462 0.178122
Si Si7 0.089395 0.626474 0.762385
Si Si8 0.389052 0.487805 0.753730
O O1 0.512156 0.722377 0.431308
O O2 0.354519 0.050616 0.619308
O O3 0.273091 0.891104 0.181180
O O4 0.532556 0.752911 0.181798
O O5 0.904452 0.597732 0.195342
O O6 0.653475 0.696818 0.948886
O O7 0.818843 0.728975 0.001262
O O8 0.307513 0.567185 0.273145
O O9 0.431108 0.690930 0.719713
O O10 0.341330 0.577903 0.646598
O O11 0.156081 0.885130 0.748579
O O12 0.952282 0.812153 0.787061
O O13 0.000000 0.000000 0.000000
O O14 0.113292 0.464314 0.468974
O O15 0.970790 0.353415 0.092144
O O16 0.238331 0.585931 0.829822
O O17 0.500000 0.500000 0.000000
#
# Coordination Sequence:
#
# PCOD9007897 Si02
#       8
#     2   2   2   2   2   2   2   2
#     4  11  23  40  63  96 121 165 215 260 313 380
#     4  11  22  43  64  92 128 167 214 259 322 368
#     4  10  22  39  62  95 125 168 209 255 320 378
#     4  11  20  38  67  90 124 165 209 254 311 380
#     4  10  21  39  63  90 124 167 207 259 315 377
#     4  10  24  40  65  91 128 172 204 263 315 380
#     4  11  22  42  64  95 128 166 213 255 315 380
#     4  12  21  40  64  94 128 163 211 260 319 367
#
# _framework density 22.359556999999999
#
# number of rings (size 3 to 8) (size 9 to 14) (size 15 to 20)
#    0.000    1.250    5.000    1.875    0.000    0.000 
#    9.000    1.250    0.000    3.000    0.000    0.000 
#    0.000    0.000    0.000    0.000    0.000    0.000 
#
# Total GULP energy -89302.597752 kJ/mol
# GULP energy per Si atom -5581.412360 kJ/mol
# Density = 2.230867 g / cm^3
# Si number density = 22.359557 Si / 1000 Ang^3
#
#
#
# Elastic Constant Matrix: (Units=GPa)
#
#
# Indices 1 2 3 4 5 6 
#
# 1 163.3139 13.6005 51.8416 -9.2455 -6.1309 -19.1124
# 2 13.6005 56.5541 7.0993 10.0152 -2.2756 -1.6002
# 3 51.8416 7.0993 116.9379 18.7178 -0.5553 -12.4266
# 4 -9.2455 10.0152 18.7178 27.1435 0.4937 -2.9243
# 5 -6.1309 -2.2756 -0.5553 0.4937 28.5242 1.6102
# 6 -19.1124 -1.6002 -12.4266 -2.9243 1.6102 25.1503
#
#
#
# Elastic Compliance Matrix: (Units=1/GPa)
#
#
# Indices 1 2 3 4 5 6 
#
# 1 0.008826 -0.002719 -0.004408 0.007584 0.001172 0.005163
# 2 -0.002719 0.019834 0.001366 -0.009349 0.001260 -0.001297
# 3 -0.004408 0.001366 0.012235 -0.010258 -0.000514 0.001623
# 4 0.007584 -0.009349 -0.010258 0.050606 -0.000531 0.006018
# 5 0.001172 0.001260 -0.000514 -0.000531 0.035501 -0.001618
# 6 0.005163 -0.001297 0.001623 0.006018 -0.001618 0.045207
#
#
# Mechanical properties :
#
#
# Convention : Reuss Voigt Hill
#
# Bulk Modulus (GPa) = 34.04416 53.54318 43.79367
# Shear Modulus (GPa) = 25.83688 33.78123 29.80906
#
# Velocity S-wave (km/s) = 3.40298 3.89114 3.65522
# Velocity P-wave (km/s) = 5.54069 6.64729 6.11905
#
# Compressibility (1/GPa) = 0.02937361
#
# Stress axis : x y z
#
# Youngs Moduli (GPa) = 113.29731 50.41780 81.73584
#
# Poissons Ratio (x) = 0.13709 0.36025
# Poissons Ratio (y) = 0.30807 -0.11165
# Poissons Ratio (z) = 0.49936 -0.06887
#
# Static dielectric constant tensor:
#      x y z
#    x 1.832530 0.012070 -0.035300 
#    y 0.012070 1.851640 -0.021360 
#    z -0.035300 -0.021360 1.898210 
# 
# From -- ./inp_files/314261.got.cif
#   From: 2010.05.17/outbox.cif.g08.bks.cpg/sg2_158_cif.got.tgz:314261.got - 2010.06.03 11:33:40.
