data_PCOD9007930
_publ_section_title
;
Structure prediction by ZEFSAII (Michael W. Deem and Ramdas Pophale) SiO2 
 PCOD9007930
Probable space group: P -1
;
_chemical_formula_sum "Si O2"
_cell_formula_units_Z 16
_cell_length_a 19.597263
_cell_length_b 14.308786
_cell_length_c 11.716817
_cell_angle_alpha 152.386238
_cell_angle_beta 47.630706
_cell_angle_gamma 150.662271
_cell_volume 672.242913
_symmetry_space_group_name_H-M "P -1"
_symmetry_group_IT_number 2
_symmetry_cell_setting 'triclinic'
loop_
_space_group_symop_operation_xyz
x,y,z
-x,-y,-z
loop_
_atom_site_type_symbol
_atom_site_label
_atom_site_fract_x
_atom_site_fract_y
_atom_site_fract_z
Si Si1 0.979880 0.115928 0.806696
Si Si2 0.653721 0.381454 0.392861
Si Si3 0.899780 0.279978 0.264168
Si Si4 0.018168 0.740179 0.458643
Si Si5 0.837431 0.371915 0.048632
Si Si6 0.610597 0.483981 0.783794
Si Si7 0.357396 0.332962 0.820520
Si Si8 0.575704 0.698434 0.514260
O O1 0.079768 0.339405 0.824732
O O2 0.796093 0.778403 0.625318
O O3 0.994122 0.303594 0.094330
O O4 0.021792 0.973784 0.659967
O O5 0.702792 0.261939 0.147982
O O6 0.643606 0.371667 0.531117
O O7 0.499295 0.221663 0.353591
O O8 0.000000 0.500000 0.500000
O O9 0.890141 0.467741 0.405094
O O10 0.742527 0.886653 0.045423
O O11 0.950245 0.506093 0.169628
O O12 0.180082 0.992996 0.615946
O O13 0.752062 0.047701 0.725611
O O14 0.444114 0.291579 0.734282
O O15 0.624788 0.468840 0.886545
O O16 0.440493 0.490100 0.773832
O O17 0.500000 0.500000 0.500000
#
# Coordination Sequence:
#
# PCOD9007930 Si02
#       8
#     2   2   2   2   2   2   2   2
#     4  10  24  42  64  95 132 167 212 272 316 376
#     4   9  20  42  61  86 126 166 203 267 318 364
#     4  11  22  40  65  94 129 168 215 264 316 380
#     4  11  23  40  67  97 125 170 213 262 326 381
#     4  11  24  41  63  94 131 165 213 266 319 383
#     4   9  20  40  64  89 127 166 213 264 314 373
#     4  10  21  39  63  91 125 167 209 263 317 375
#     4  11  25  37  64  93 124 168 214 259 322 386
#
# _framework density 23.800920999999999
#
# number of rings (size 3 to 8) (size 9 to 14) (size 15 to 20)
#    0.000    1.750    1.250    2.625    8.750    1.500 
#    2.250    0.000    0.000    1.500    0.000    0.000 
#    0.000    0.000    0.000    0.000    0.000    0.000 
#
# Total GULP energy -89291.264029 kJ/mol
# GULP energy per Si atom -5580.704002 kJ/mol
# Density = 2.374675 g / cm^3
# Si number density = 23.800921 Si / 1000 Ang^3
#
#
#
# Elastic Constant Matrix: (Units=GPa)
#
#
# Indices 1 2 3 4 5 6 
#
# 1 112.6595 43.3307 45.2293 -3.0906 35.8790 -6.3226
# 2 43.3307 103.4250 23.5500 -28.3139 22.7592 -17.7870
# 3 45.2293 23.5500 84.4701 -23.6728 35.3475 -9.8236
# 4 -3.0906 -28.3139 -23.6728 46.4472 -6.9764 16.4244
# 5 35.8790 22.7592 35.3475 -6.9764 42.9477 -1.3879
# 6 -6.3226 -17.7870 -9.8236 16.4244 -1.3879 51.8510
#
#
#
# Elastic Compliance Matrix: (Units=1/GPa)
#
#
# Indices 1 2 3 4 5 6 
#
# 1 0.014971 -0.005231 -0.005701 -0.006280 -0.006038 0.000779
# 2 -0.005231 0.014999 0.003449 0.009056 -0.004876 0.002162
# 3 -0.005701 0.003449 0.023092 0.010999 -0.014252 0.000997
# 4 -0.006280 0.009056 0.010999 0.034022 -0.003287 -0.006440
# 5 -0.006038 -0.004876 -0.014252 -0.003287 0.042013 -0.002943
# 6 0.000779 0.002162 0.000997 -0.006440 -0.002943 0.022273
#
#
# Mechanical properties :
#
#
# Convention : Reuss Voigt Hill
#
# Bulk Modulus (GPa) = 26.24874 58.30830 42.27852
# Shear Modulus (GPa) = 27.92766 40.81217 34.36992
#
# Velocity S-wave (km/s) = 3.42919 4.14542 3.80420
# Velocity P-wave (km/s) = 5.17025 6.88943 6.09080
#
# Compressibility (1/GPa) = 0.03809707
#
# Stress axis : x y z
#
# Youngs Moduli (GPa) = 66.79441 66.67063 43.30593
#
# Poissons Ratio (x) = 0.34875 0.24687
# Poissons Ratio (y) = 0.34940 -0.14937
# Poissons Ratio (z) = 0.38077 -0.22996
#
# Static dielectric constant tensor:
#      x y z
#    x 1.910830 0.024860 -0.022010 
#    y 0.024860 1.991540 -0.033890 
#    z -0.022010 -0.033890 1.935180 
# 
# From -- ./inp_files/472005.got.cif
#   From: 2010.05.17/outbox.cif.g08.bks.cpg/sg2_237_cif.got.tgz:472005.got - 2010.06.03 11:33:40.
