data_PCOD9007004
_publ_section_title
;
Structure prediction by ZEFSAII (Michael W. Deem and Ramdas Pophale) SiO2 
 PCOD9007004
Probable space group: P -1
;
_chemical_formula_sum "Si O2"
_cell_formula_units_Z 12
_cell_length_a 14.962373
_cell_length_b 5.269626
_cell_length_c 9.001812
_cell_angle_alpha 76.055191
_cell_angle_beta 118.673725
_cell_angle_gamma 130.842511
_cell_volume 468.249325
_symmetry_space_group_name_H-M "P -1"
_symmetry_group_IT_number 2
_symmetry_cell_setting 'triclinic'
loop_
_space_group_symop_operation_xyz
x,y,z
-x,-y,-z
loop_
_atom_site_type_symbol
_atom_site_label
_atom_site_fract_x
_atom_site_fract_y
_atom_site_fract_z
Si Si1 0.702257 0.933953 0.202355
Si Si2 0.353162 0.594052 0.969069
Si Si3 0.625703 0.634934 0.677304
Si Si4 0.798290 0.443273 0.723594
Si Si5 0.887126 0.300280 0.560222
Si Si6 0.095161 0.421741 0.897520
O O1 0.757814 0.026174 0.400249
O O2 0.826355 0.194551 0.154014
O O3 0.614864 0.049212 0.082959
O O4 0.639665 0.565931 0.150253
O O5 0.408960 0.537434 0.164588
O O6 0.195519 0.369942 0.918969
O O7 0.500000 0.500000 0.500000
O O8 0.704205 0.531078 0.671752
O O9 0.710732 0.034968 0.712699
O O10 0.863193 0.527288 0.601326
O O11 0.900203 0.586413 0.920993
O O12 0.000000 0.500000 0.500000
O O13 0.951463 0.203874 0.743102
#
# Coordination Sequence:
#
# PCOD9007004 Si02
#       6
#     2   2   2   2   2   2
#     4   9  18  33  55  81 122 155 188 226 291 345
#     4   9  17  35  56  83 111 153 192 242 291 344
#     4  11  22  41  67  88 112 152 205 266 305 333
#     4  11  22  40  60  95 120 151 204 251 287 360
#     4  10  21  39  58  93 126 171 188 229 292 371
#     4   8  18  35  56  84 121 153 195 234 288 344
#
# _framework density 25.627372000000001
#
# number of rings (size 3 to 8) (size 9 to 14) (size 15 to 20)
#    1.000    1.333    1.667    1.000    0.000    2.000 
#    6.000    2.500    0.000    6.000    0.000    0.000 
#    0.000    0.000    0.000    0.000    0.000    0.000 
#
# Total GULP energy -67117.551930 kJ/mol
# GULP energy per Si atom -5593.129327 kJ/mol
# Density = 2.556904 g / cm^3
# Si number density = 25.627372 Si / 1000 Ang^3
#
#
#
# Elastic Constant Matrix: (Units=GPa)
#
#
# Indices 1 2 3 4 5 6 
#
# 1 110.3727 42.1276 55.5223 6.9372 -13.2158 -24.6091
# 2 42.1276 117.9260 46.1983 2.8265 -3.4789 -28.8089
# 3 55.5223 46.1983 207.3150 30.5452 20.7038 -29.2259
# 4 6.9372 2.8265 30.5452 31.8763 -5.2232 -13.0371
# 5 -13.2158 -3.4789 20.7038 -5.2232 45.4336 3.7147
# 6 -24.6091 -28.8089 -29.2259 -13.0371 3.7147 48.2720
#
#
#
# Elastic Compliance Matrix: (Units=1/GPa)
#
#
# Indices 1 2 3 4 5 6 
#
# 1 0.012865 -0.002333 -0.003375 0.002923 0.005150 0.003516
# 2 -0.002333 0.011244 -0.001740 0.003519 0.000943 0.005346
# 3 -0.003375 -0.001740 0.007808 -0.007333 -0.005550 0.000415
# 4 0.002923 0.003519 -0.007333 0.042986 0.008578 0.010100
# 5 0.005150 0.000943 -0.005550 0.008578 0.027091 0.000060
# 6 0.003516 0.005346 0.000415 0.010100 0.000060 0.028673
#
#
# Mechanical properties :
#
#
# Convention : Reuss Voigt Hill
#
# Bulk Modulus (GPa) = 58.74567 80.36778 69.55673
# Shear Modulus (GPa) = 33.06036 44.56743 38.81389
#
# Velocity S-wave (km/s) = 3.59561 4.17472 3.89594
# Velocity P-wave (km/s) = 6.34119 7.39364 6.88755
#
# Compressibility (1/GPa) = 0.01702253
#
# Stress axis : x y z
#
# Youngs Moduli (GPa) = 77.72802 88.93384 128.06653
#
# Poissons Ratio (x) = 0.20748 0.43222
# Poissons Ratio (y) = 0.18133 0.22282
# Poissons Ratio (z) = 0.26233 0.15473
#
# Static dielectric constant tensor:
#      x y z
#    x 2.094160 0.075030 0.026210 
#    y 0.075030 2.089520 -0.002340 
#    z 0.026210 -0.002340 1.999810 
# 
# From -- ./inp_files/322563.got.cif
#   From: 2010.05.17/outbox.cif.g08.bks.cpg/sg2_162_cif.got.tgz:322563.got - 2010.06.03 11:33:40.
