data_PCOD9007658
_publ_section_title
;
Structure prediction by ZEFSAII (Michael W. Deem and Ramdas Pophale) SiO2 
 PCOD9007658
Probable space group: P -1
;
_chemical_formula_sum "Si O2"
_cell_formula_units_Z 14
_cell_length_a 21.847735
_cell_length_b 10.132101
_cell_length_c 8.826501
_cell_angle_alpha 135.225963
_cell_angle_beta 44.814442
_cell_angle_gamma 153.579970
_cell_volume 595.159111
_symmetry_space_group_name_H-M "P -1"
_symmetry_group_IT_number 2
_symmetry_cell_setting 'triclinic'
loop_
_space_group_symop_operation_xyz
x,y,z
-x,-y,-z
loop_
_atom_site_type_symbol
_atom_site_label
_atom_site_fract_x
_atom_site_fract_y
_atom_site_fract_z
Si Si1 0.015401 0.216821 0.793773
Si Si2 0.478055 0.249891 0.776918
Si Si3 0.217675 0.802445 0.081235
Si Si4 0.197251 0.663548 0.343253
Si Si5 0.601492 0.714780 0.357102
Si Si6 0.066682 0.899137 0.487069
Si Si7 0.300333 0.464346 0.155529
O O1 0.032239 0.273509 0.631105
O O2 0.096747 0.170089 0.672153
O O3 0.850525 0.889590 0.835474
O O4 0.069895 0.483711 0.009331
O O5 0.459466 0.241837 0.624154
O O6 0.607652 0.356253 0.707418
O O7 0.500000 0.500000 0.000000
O O8 0.335007 0.950422 0.872735
O O9 0.235256 0.740350 0.162801
O O10 0.199792 0.993619 0.299759
O O11 0.030382 0.346322 0.408289
O O12 0.272961 0.612228 0.241221
O O13 0.255534 0.948349 0.555101
O O14 0.500000 0.500000 0.500000
O O15 0.623746 0.556078 0.103340
#
# Coordination Sequence:
#
# PCOD9007658 Si02
#       7
#     2   2   2   2   2   2   2
#     4  10  22  40  66  92 121 166 207 254 310 363
#     4  10  22  42  65  90 123 166 205 251 315 367
#     4  12  23  39  65  92 127 166 205 253 307 367
#     4  11  24  39  62  95 126 163 206 256 309 360
#     4  11  23  40  63  90 123 163 206 254 309 367
#     4  10  21  39  62  91 124 159 210 255 302 368
#     4  10  23  44  63  89 130 162 204 257 307 369
#
# _framework density 23.523119000000001
#
# number of rings (size 3 to 8) (size 9 to 14) (size 15 to 20)
#    0.000    1.429    0.000    6.000    0.000    6.286 
#    0.000    5.714    0.000    0.000    0.000    0.000 
#    0.000    0.000    0.000    0.000    0.000    0.000 
#
# Total GULP energy -78343.927730 kJ/mol
# GULP energy per Si atom -5595.994838 kJ/mol
# Density = 2.346958 g / cm^3
# Si number density = 23.523119 Si / 1000 Ang^3
#
#
#
# Elastic Constant Matrix: (Units=GPa)
#
#
# Indices 1 2 3 4 5 6 
#
# 1 107.6503 37.5418 21.5704 -27.4894 12.6469 -17.9577
# 2 37.5418 91.8201 21.7696 -23.0121 8.0865 -13.0004
# 3 21.5704 21.7696 69.7064 -17.4637 5.0343 -9.8903
# 4 -27.4894 -23.0121 -17.4637 32.3491 -4.5403 5.9406
# 5 12.6469 8.0865 5.0343 -4.5403 40.7241 -4.4570
# 6 -17.9577 -13.0004 -9.8903 5.9406 -4.4570 35.8991
#
#
#
# Elastic Compliance Matrix: (Units=1/GPa)
#
#
# Indices 1 2 3 4 5 6 
#
# 1 0.013278 -0.002493 -0.000562 0.008168 -0.002215 0.003957
# 2 -0.002493 0.014377 -0.001659 0.006669 -0.000881 0.002289
# 3 -0.000562 -0.001659 0.017224 0.007082 -0.000549 0.002623
# 4 0.008168 0.006669 0.007082 0.046339 0.000523 0.000849
# 5 -0.002215 -0.000881 -0.000549 0.000523 0.025712 0.001527
# 6 0.003957 0.002289 0.002623 0.000849 0.001527 0.031436
#
#
# Mechanical properties :
#
#
# Convention : Reuss Voigt Hill
#
# Bulk Modulus (GPa) = 28.20907 47.88226 38.04566
# Shear Modulus (GPa) = 29.47939 34.34745 31.91342
#
# Velocity S-wave (km/s) = 3.54391 3.82535 3.68731
# Velocity P-wave (km/s) = 5.36319 6.31749 5.85980
#
# Compressibility (1/GPa) = 0.03544959
#
# Stress axis : x y z
#
# Youngs Moduli (GPa) = 75.31465 69.55759 58.05837
#
# Poissons Ratio (x) = 0.17339 0.03264
# Poissons Ratio (y) = 0.18775 0.09633
# Poissons Ratio (z) = 0.04235 0.11541
#
# Static dielectric constant tensor:
#      x y z
#    x 1.917830 0.012590 -0.030120 
#    y 0.012590 1.884580 -0.034340 
#    z -0.030120 -0.034340 1.887620 
# 
# From -- ./inp_files/292205.got.cif
#   From: 2010.05.17/outbox.cif.g08.bks.cpg/sg2_147_cif.got.tgz:292205.got - 2010.06.03 11:33:40.
