data_PCOD9007430
_publ_section_title
;
Structure prediction by ZEFSAII (Michael W. Deem and Ramdas Pophale) SiO2 
 PCOD9007430
Probable space group: P -1
;
_chemical_formula_sum "Si O2"
_cell_formula_units_Z 16
_cell_length_a 14.416064
_cell_length_b 14.313296
_cell_length_c 13.929360
_cell_angle_alpha 152.512983
_cell_angle_beta 149.140193
_cell_angle_gamma 27.983132
_cell_volume 583.901055
_symmetry_space_group_name_H-M "P -1"
_symmetry_group_IT_number 2
_symmetry_cell_setting 'triclinic'
loop_
_space_group_symop_operation_xyz
x,y,z
-x,-y,-z
loop_
_atom_site_type_symbol
_atom_site_label
_atom_site_fract_x
_atom_site_fract_y
_atom_site_fract_z
Si Si1 0.980596 0.159363 0.816744
Si Si2 0.826356 0.038811 0.748487
Si Si3 0.067966 0.442864 0.280346
Si Si4 0.700093 0.659500 0.279072
Si Si5 0.425780 0.425570 0.498144
Si Si6 0.707205 0.607748 0.859379
Si Si7 0.710722 0.303929 0.092046
Si Si8 0.818722 0.897387 0.344733
O O1 0.890868 0.375202 0.860544
O O2 0.814417 0.183113 0.774367
O O3 0.009985 0.946562 0.581062
O O4 0.133093 0.205336 0.061310
O O5 0.702287 0.899414 0.504122
O O6 0.077480 0.846177 0.797281
O O7 0.767296 0.173397 0.918849
O O8 0.936955 0.462859 0.275854
O O9 0.887196 0.678730 0.278919
O O10 0.275166 0.459260 0.482846
O O11 0.672948 0.559912 0.265290
O O12 0.507984 0.682506 0.064481
O O13 0.504138 0.611091 0.727849
O O14 0.300415 0.441679 0.303847
O O15 0.621093 0.158276 0.424443
O O16 0.744756 0.817075 0.111895
#
# Coordination Sequence:
#
# PCOD9007430 Si02
#       8
#     2   2   2   2   2   2   2   2
#     4  10  21  39  61  92 134 164 215 273 322 394
#     4  11  21  43  66  97 128 171 224 265 337 399
#     4  11  23  40  63  95 132 170 219 273 331 395
#     4  11  22  44  63  95 133 169 219 272 333 399
#     4  10  22  42  66  96 130 174 222 282 327 393
#     4   9  21  43  65  94 131 169 228 272 330 395
#     4  10  24  41  68  95 129 171 215 280 327 393
#     4  10  21  41  64  92 127 180 213 271 338 384
#
# _framework density 27.401902
#
# number of rings (size 3 to 8) (size 9 to 14) (size 15 to 20)
#    0.000    1.750    2.500    1.125    0.000    4.000 
#    6.750    7.500    0.000    0.000    0.000    0.000 
#    0.000    0.000    0.000    0.000    0.000    0.000 
#
# Total GULP energy -89402.076548 kJ/mol
# GULP energy per Si atom -5587.629784 kJ/mol
# Density = 2.733953 g / cm^3
# Si number density = 27.401902 Si / 1000 Ang^3
#
#
#
# Elastic Constant Matrix: (Units=GPa)
#
#
# Indices 1 2 3 4 5 6 
#
# 1 91.6372 27.2633 57.0968 -4.4902 21.8343 -22.4282
# 2 27.2633 79.9808 11.1046 4.8740 4.0137 -7.7984
# 3 57.0968 11.1046 149.3454 20.2978 14.8210 -18.7322
# 4 -4.4902 4.8740 20.2978 35.9163 -6.1940 7.2572
# 5 21.8343 4.0137 14.8210 -6.1940 55.9403 -6.8397
# 6 -22.4282 -7.7984 -18.7322 7.2572 -6.8397 36.2746
#
#
#
# Elastic Compliance Matrix: (Units=1/GPa)
#
#
# Indices 1 2 3 4 5 6 
#
# 1 0.019059 -0.005146 -0.006457 0.004889 -0.004135 0.005585
# 2 -0.005146 0.014400 0.001563 -0.003732 0.000335 0.001531
# 3 -0.006457 0.001563 0.010600 -0.007810 -0.000872 0.003215
# 4 0.004889 -0.003732 -0.007810 0.035632 0.003358 -0.008308
# 5 -0.004135 0.000335 -0.000872 0.003358 0.020091 0.000182
# 6 0.005585 0.001531 0.003215 -0.008308 0.000182 0.034707
#
#
# Mechanical properties :
#
#
# Convention : Reuss Voigt Hill
#
# Bulk Modulus (GPa) = 41.70649 56.87696 49.29172
# Shear Modulus (GPa) = 30.75768 40.65949 35.70859
#
# Velocity S-wave (km/s) = 3.35396 3.85622 3.61382
# Velocity P-wave (km/s) = 5.50018 6.37408 5.95319
#
# Compressibility (1/GPa) = 0.02397709
#
# Stress axis : x y z
#
# Youngs Moduli (GPa) = 52.46958 69.44435 94.34304
#
# Poissons Ratio (x) = 0.35735 0.60920
# Poissons Ratio (y) = 0.27000 -0.14742
# Poissons Ratio (z) = 0.33881 -0.10852
#
# Static dielectric constant tensor:
#      x y z
#    x 2.162090 -0.041980 -0.056210 
#    y -0.041980 2.177290 -0.022160 
#    z -0.056210 -0.022160 2.240750 
# 
# From -- ./inp_files/534630.got.cif
#   From: 2010.05.17/outbox.cif.g08.bks.cpg/sg2_268_cif.got.tgz:534630.got - 2010.06.03 11:33:40.
