data_PCOD9007719
_publ_section_title
;
Structure prediction by ZEFSAII (Michael W. Deem and Ramdas Pophale) SiO2 
 PCOD9007719
Probable space group: P -1
;
_chemical_formula_sum "Si O2"
_cell_formula_units_Z 16
_cell_length_a 8.241902
_cell_length_b 8.954552
_cell_length_c 13.178367
_cell_angle_alpha 112.702461
_cell_angle_beta 78.625640
_cell_angle_gamma 55.836730
_cell_volume 623.769830
_symmetry_space_group_name_H-M "P -1"
_symmetry_group_IT_number 2
_symmetry_cell_setting 'triclinic'
loop_
_space_group_symop_operation_xyz
x,y,z
-x,-y,-z
loop_
_atom_site_type_symbol
_atom_site_label
_atom_site_fract_x
_atom_site_fract_y
_atom_site_fract_z
Si Si1 0.566731 0.533362 0.719999
Si Si2 0.055544 0.155834 0.536686
Si Si3 0.794152 0.702310 0.158409
Si Si4 0.061700 0.676044 0.631963
Si Si5 0.562046 0.723759 0.394469
Si Si6 0.821826 0.036759 0.229190
Si Si7 0.309833 0.700553 0.998109
Si Si8 0.605512 0.992578 0.880763
O O1 0.545565 0.384854 0.619176
O O2 0.428483 0.769517 0.742138
O O3 0.409094 0.596776 0.850338
O O4 0.830300 0.381220 0.682378
O O5 0.014295 0.257513 0.456849
O O6 0.325153 0.992212 0.490340
O O7 0.000000 0.000000 0.500000
O O8 0.715600 0.653278 0.254796
O O9 0.576982 0.863616 0.150290
O O10 0.828457 0.861341 0.239824
O O11 0.000000 0.500000 0.000000
O O12 0.271322 0.409657 0.563761
O O13 0.123451 0.824380 0.691818
O O14 0.846085 0.758430 0.746196
O O15 0.037593 0.849921 0.078393
O O16 0.500000 0.500000 0.000000
O O17 0.320740 0.880557 0.063185
O O18 0.500000 0.000000 0.000000
#
# Coordination Sequence:
#
# PCOD9007719 Si02
#       8
#     2   2   2   2   2   2   2   2
#     4  10  21  39  62  93 124 170 217 260 328 381
#     4  10  22  40  69  98 127 173 222 270 316 384
#     4  12  22  39  62  99 135 173 212 267 339 387
#     4  10  22  43  67  99 129 168 224 267 320 386
#     4  10  21  39  66  93 131 169 216 272 319 383
#     4  10  23  38  65  93 132 166 210 271 326 383
#     4  11  22  37  60  95 125 161 211 271 318 383
#     4  11  22  37  64  94 131 168 213 266 327 387
#
# _framework density 25.650489
#
# number of rings (size 3 to 8) (size 9 to 14) (size 15 to 20)
#    0.000    1.500    1.250    4.125    5.250    6.500 
#    0.000    0.625    0.000    5.250    0.000    0.000 
#    0.000    0.000    0.000    0.000    0.000    0.000 
#
# Total GULP energy -89326.651912 kJ/mol
# GULP energy per Si atom -5582.915745 kJ/mol
# Density = 2.559211 g / cm^3
# Si number density = 25.650489 Si / 1000 Ang^3
#
#
#
# Elastic Constant Matrix: (Units=GPa)
#
#
# Indices 1 2 3 4 5 6 
#
# 1 82.2117 50.9235 25.7171 12.3681 -21.7079 -6.8245
# 2 50.9235 168.1481 68.0555 6.0282 -22.5050 -20.6644
# 3 25.7171 68.0555 127.3253 0.9517 -33.2093 -21.9900
# 4 12.3681 6.0282 0.9517 45.3891 -10.6539 -9.7655
# 5 -21.7079 -22.5050 -33.2093 -10.6539 28.2255 5.7313
# 6 -6.8245 -20.6644 -21.9900 -9.7655 5.7313 54.2195
#
#
#
# Elastic Compliance Matrix: (Units=1/GPa)
#
#
# Indices 1 2 3 4 5 6 
#
# 1 0.017667 -0.004517 0.001839 -0.001586 0.011605 -0.000264
# 2 -0.004517 0.008907 -0.003929 0.000142 -0.001223 0.001388
# 3 0.001839 -0.003929 0.014366 0.004270 0.016059 0.003632
# 4 -0.001586 0.000142 0.004270 0.026454 0.012890 0.004989
# 5 0.011605 -0.001223 0.016059 0.012890 0.066572 0.002792
# 6 -0.000264 0.001388 0.003632 0.004989 0.002792 0.021016
#
#
# Mechanical properties :
#
#
# Convention : Reuss Voigt Hill
#
# Bulk Modulus (GPa) = 36.06634 74.11971 55.09302
# Shear Modulus (GPa) = 28.17856 41.09941 34.63899
#
# Velocity S-wave (km/s) = 3.31805 4.00720 3.67880
# Velocity P-wave (km/s) = 5.36381 7.09711 6.29044
#
# Compressibility (1/GPa) = 0.02772668
#
# Stress axis : x y z
#
# Youngs Moduli (GPa) = 56.60134 112.26999 69.60652
#
# Poissons Ratio (x) = 0.50716 -0.12801
# Poissons Ratio (y) = 0.25569 0.27348
# Poissons Ratio (z) = -0.10409 0.44110
#
# Static dielectric constant tensor:
#      x y z
#    x 1.994390 0.060030 0.043170 
#    y 0.060030 1.971420 0.024920 
#    z 0.043170 0.024920 2.116630 
# 
# From -- ./inp_files/495164.got.cif
#   From: 2010.05.17/outbox.cif.g08.bks.cpg/sg2_248_cif.got.tgz:495164.got - 2010.06.03 11:33:40.
