data_PCOD9007938
_publ_section_title
;
Structure prediction by ZEFSAII (Michael W. Deem and Ramdas Pophale) SiO2 
 PCOD9007938
Probable space group: P -1
;
_chemical_formula_sum "Si O2"
_cell_formula_units_Z 16
_cell_length_a 27.302030
_cell_length_b 8.196771
_cell_length_c 8.138328
_cell_angle_alpha 144.956158
_cell_angle_beta 42.888358
_cell_angle_gamma 138.757476
_cell_volume 655.626625
_symmetry_space_group_name_H-M "P -1"
_symmetry_group_IT_number 2
_symmetry_cell_setting 'triclinic'
loop_
_space_group_symop_operation_xyz
x,y,z
-x,-y,-z
loop_
_atom_site_type_symbol
_atom_site_label
_atom_site_fract_x
_atom_site_fract_y
_atom_site_fract_z
Si Si1 0.916121 0.509344 0.695568
Si Si2 0.175349 0.895393 0.870069
Si Si3 0.173064 0.135033 0.701913
Si Si4 0.656953 0.433926 0.441097
Si Si5 0.437383 0.552713 0.818883
Si Si6 0.084922 0.260542 0.484146
Si Si7 0.555507 0.789781 0.993312
Si Si8 0.659649 0.162495 0.553593
O O1 0.910926 0.617498 0.611716
O O2 0.000000 0.500000 0.500000
O O3 0.848506 0.169839 0.605054
O O4 0.897145 0.749924 0.051324
O O5 0.105324 0.563487 0.792142
O O6 0.254748 0.841429 0.645943
O O7 0.175897 0.021248 0.787327
O O8 0.152942 0.129041 0.229291
O O9 0.253427 0.421759 0.711200
O O10 0.622129 0.681980 0.676342
O O11 0.656059 0.384440 0.597752
O O12 0.598909 0.110846 0.241528
O O13 0.500000 0.500000 0.500000
O O14 0.496016 0.791330 0.001314
O O15 0.389657 0.189996 0.673957
O O16 0.371863 0.706777 0.101429
O O17 0.000000 0.000000 0.500000
O O18 0.500000 0.500000 0.000000
#
# Coordination Sequence:
#
# PCOD9007938 Si02
#       8
#     2   2   2   2   2   2   2   2
#     4  10  21  39  63  91 128 165 211 267 311 380
#     4  10  23  41  61  92 133 169 207 269 323 385
#     4  10  23  41  60  94 130 167 213 258 331 388
#     4  12  24  41  70  95 126 175 217 271 333 393
#     4  12  27  45  65  98 128 170 225 276 334 395
#     4  10  21  39  63  92 126 170 213 256 321 385
#     4  12  23  45  68  92 131 169 220 276 334 387
#     4  12  24  44  66  95 132 168 221 275 326 396
#
# _framework density 24.404135
#
# number of rings (size 3 to 8) (size 9 to 14) (size 15 to 20)
#    0.000    1.000    2.500    3.750    1.750    2.000 
#    0.000    0.000    0.000    0.000    0.000    0.000 
#    0.000    0.000    0.000    0.000    0.000    0.000 
#
# Total GULP energy -89372.565017 kJ/mol
# GULP energy per Si atom -5585.785314 kJ/mol
# Density = 2.434859 g / cm^3
# Si number density = 24.404135 Si / 1000 Ang^3
#
#
#
# Elastic Constant Matrix: (Units=GPa)
#
#
# Indices 1 2 3 4 5 6 
#
# 1 66.4371 19.4697 29.3058 0.8116 -32.4581 19.0555
# 2 19.4697 101.5032 22.8314 2.1527 1.8960 12.7555
# 3 29.3058 22.8314 132.1419 11.9517 -30.1326 7.2406
# 4 0.8116 2.1527 11.9517 29.4760 13.6769 -9.4834
# 5 -32.4581 1.8960 -30.1326 13.6769 43.4851 -4.3826
# 6 19.0555 12.7555 7.2406 -9.4834 -4.3826 21.0533
#
#
#
# Elastic Compliance Matrix: (Units=1/GPa)
#
#
# Indices 1 2 3 4 5 6 
#
# 1 0.074456 -0.006877 0.013679 -0.070617 0.079173 -0.083256
# 2 -0.006877 0.011893 -0.003161 0.005112 -0.009405 0.000451
# 3 0.013679 -0.003161 0.014437 -0.024918 0.026049 -0.021232
# 4 -0.070617 0.005112 -0.024918 0.125422 -0.099037 0.105268
# 5 0.079173 -0.009405 0.026049 -0.099037 0.122220 -0.094090
# 6 -0.083256 0.000451 -0.021232 0.105268 -0.094090 0.157714
#
#
# Mechanical properties :
#
#
# Convention : Reuss Voigt Hill
#
# Bulk Modulus (GPa) = 9.25357 49.25512 29.25435
# Shear Modulus (GPa) = 9.34782 34.03456 21.69119
#
# Velocity S-wave (km/s) = 1.95927 3.73852 2.98456
# Velocity P-wave (km/s) = 2.98636 6.23396 4.88777
#
# Compressibility (1/GPa) = 0.10806640
#
# Stress axis : x y z
#
# Youngs Moduli (GPa) = 13.43076 84.08530 69.26438
#
# Poissons Ratio (x) = 0.57828 -0.94745
# Poissons Ratio (y) = 0.09237 0.21896
# Poissons Ratio (z) = -0.18372 0.26581
#
# Static dielectric constant tensor:
#      x y z
#    x 1.926960 -0.031110 -0.042580 
#    y -0.031110 1.951710 -0.032300 
#    z -0.042580 -0.032300 1.900130 
# 
# From -- ./inp_files/358479.got.cif
#   From: 2010.05.17/outbox.cif.g08.bks.cpg/sg2_180_cif.got.tgz:358479.got - 2010.06.03 11:33:40.
