data_PCOD9007296
_publ_section_title
;
Structure prediction by ZEFSAII (Michael W. Deem and Ramdas Pophale) SiO2 
 PCOD9007296
Probable space group: P -1
;
_chemical_formula_sum "Si O2"
_cell_formula_units_Z 14
_cell_length_a 8.668906
_cell_length_b 5.839410
_cell_length_c 15.132918
_cell_angle_alpha 91.239377
_cell_angle_beta 76.696868
_cell_angle_gamma 54.144634
_cell_volume 592.220760
_symmetry_space_group_name_H-M "P -1"
_symmetry_group_IT_number 2
_symmetry_cell_setting 'triclinic'
loop_
_space_group_symop_operation_xyz
x,y,z
-x,-y,-z
loop_
_atom_site_type_symbol
_atom_site_label
_atom_site_fract_x
_atom_site_fract_y
_atom_site_fract_z
Si Si1 0.499156 0.469149 0.863817
Si Si2 0.965633 0.951738 0.406224
Si Si3 0.619503 0.953890 0.392546
Si Si4 0.923217 0.263890 0.083199
Si Si5 0.673040 0.024270 0.988143
Si Si6 0.303128 0.368941 0.289922
Si Si7 0.988567 0.316984 0.269074
O O1 0.308618 0.465949 0.889523
O O2 0.646296 0.242504 0.916991
O O3 0.610593 0.475490 0.765440
O O4 0.380650 0.799146 0.913731
O O5 0.746933 0.066523 0.404430
O O6 0.112075 0.609467 0.373379
O O7 0.031951 0.100909 0.337860
O O8 0.000000 0.000000 0.500000
O O9 0.790524 0.631010 0.328940
O O10 0.500000 0.000000 0.500000
O O11 0.466665 0.124193 0.332795
O O12 0.940370 0.213080 0.186416
O O13 0.108528 0.274233 0.046670
O O14 0.000000 0.000000 0.000000
O O15 0.500000 0.000000 0.000000
O O16 0.191522 0.295142 0.234807
#
# Coordination Sequence:
#
# PCOD9007296 Si02
#       7
#     2   2   2   2   2   2   2
#     4  10  22  38  59  88 120 161 209 261 319 381
#     4  11  24  42  67  98 133 173 220 275 333 398
#     4  11  25  43  66 100 136 174 221 271 333 402
#     4  10  22  40  63  92 126 166 218 270 322 384
#     4  10  21  39  61  86 121 161 208 264 320 377
#     4  11  24  42  66  95 133 174 221 272 330 398
#     4  11  24  42  66  96 133 176 222 275 332 393
#
# _framework density 23.639835999999999
#
# number of rings (size 3 to 8) (size 9 to 14) (size 15 to 20)
#    0.000    1.429    0.000    4.286    0.000   12.000 
#    0.000    4.286    0.000    0.000    0.000    0.000 
#    0.000    0.000    0.000    0.000    0.000    0.000 
#
# Total GULP energy -77982.074924 kJ/mol
# GULP energy per Si atom -5570.148209 kJ/mol
# Density = 2.358603 g / cm^3
# Si number density = 23.639836 Si / 1000 Ang^3
#
#
#
# Elastic Constant Matrix: (Units=GPa)
#
#
# Indices 1 2 3 4 5 6 
#
# 1 122.6434 33.8863 39.7819 -0.8633 -13.1828 -28.2742
# 2 33.8863 78.6242 36.4463 -13.0535 2.9704 -31.1474
# 3 39.7819 36.4463 127.9705 -4.8610 14.4731 -15.3481
# 4 -0.8633 -13.0535 -4.8610 22.3861 -1.4577 2.4403
# 5 -13.1828 2.9704 14.4731 -1.4577 53.6640 0.3637
# 6 -28.2742 -31.1474 -15.3481 2.4403 0.3637 41.1891
#
#
#
# Elastic Compliance Matrix: (Units=1/GPa)
#
#
# Indices 1 2 3 4 5 6 
#
# 1 0.011141 -0.001809 -0.002768 -0.001577 0.003505 0.005311
# 2 -0.001809 0.022454 -0.003726 0.010687 -0.000485 0.013720
# 3 -0.002768 -0.003726 0.009970 -0.000216 -0.003162 -0.000962
# 4 -0.001577 0.010687 -0.000216 0.050394 0.000421 0.003929
# 5 0.003505 -0.000485 -0.003162 0.000421 0.020382 0.000656
# 6 0.005311 0.013720 -0.000962 0.003929 0.000656 0.037702
#
#
# Mechanical properties :
#
#
# Convention : Reuss Voigt Hill
#
# Bulk Modulus (GPa) = 37.09284 61.05190 49.07237
# Shear Modulus (GPa) = 28.14763 38.05610 33.10186
#
# Velocity S-wave (km/s) = 3.45438 4.01662 3.74606
# Velocity P-wave (km/s) = 5.62451 6.88425 6.28602
#
# Compressibility (1/GPa) = 0.02695938
#
# Stress axis : x y z
#
# Youngs Moduli (GPa) = 89.75617 44.53617 100.30198
#
# Poissons Ratio (x) = 0.08057 0.27759
# Poissons Ratio (y) = 0.16238 0.37374
# Poissons Ratio (z) = 0.24840 0.16595
#
# Static dielectric constant tensor:
#      x y z
#    x 3.280400 0.174530 -0.076190 
#    y 0.174530 1.959840 0.050840 
#    z -0.076190 0.050840 1.929510 
# 
# From -- ./inp_files/488375.got.cif
#   From: 2010.05.17/outbox.cif.g08.bks.cpg/sg2_245_cif.got.tgz:488375.got - 2010.06.03 11:33:40.
