data_PCOD9007607
_publ_section_title
;
Structure prediction by ZEFSAII (Michael W. Deem and Ramdas Pophale) SiO2 
 PCOD9007607
Probable space group: P -1
;
_chemical_formula_sum "Si O2"
_cell_formula_units_Z 14
_cell_length_a 12.288467
_cell_length_b 20.482580
_cell_length_c 7.327879
_cell_angle_alpha 66.299898
_cell_angle_beta 65.125366
_cell_angle_gamma 20.950876
_cell_volume 598.086850
_symmetry_space_group_name_H-M "P -1"
_symmetry_group_IT_number 2
_symmetry_cell_setting 'triclinic'
loop_
_space_group_symop_operation_xyz
x,y,z
-x,-y,-z
loop_
_atom_site_type_symbol
_atom_site_label
_atom_site_fract_x
_atom_site_fract_y
_atom_site_fract_z
Si Si1 0.994609 0.237956 0.834186
Si Si2 0.684275 0.716476 0.451115
Si Si3 0.489510 0.610452 0.949007
Si Si4 0.581776 0.277977 0.486093
Si Si5 0.567356 0.840113 0.008040
Si Si6 0.105835 0.292552 0.413486
Si Si7 0.683757 0.177390 0.914035
O O1 0.744865 0.314666 0.871676
O O2 0.119410 0.209615 0.598703
O O3 0.798716 0.401030 0.909502
O O4 0.266366 0.053621 0.962792
O O5 0.436305 0.790819 0.511040
O O6 0.659841 0.782685 0.562755
O O7 0.000000 0.500000 0.500000
O O8 0.683630 0.763356 0.215788
O O9 0.531994 0.656225 0.991952
O O10 0.329213 0.719751 0.745654
O O11 0.746323 0.181195 0.671513
O O12 0.236902 0.491018 0.547515
O O13 0.813882 0.743120 0.812872
O O14 0.472467 0.813035 0.030679
O O15 0.000000 0.000000 0.000000
#
# Coordination Sequence:
#
# PCOD9007607 Si02
#       7
#     2   2   2   2   2   2   2
#     4  10  22  41  62  90 128 170 203 249 311 372
#     4   9  20  38  61  94 125 160 205 252 316 361
#     4  10  21  43  63  84 133 164 201 259 304 369
#     4   9  21  38  63  94 118 161 207 253 315 366
#     4  11  22  40  65  96 127 157 209 263 302 369
#     4  10  21  39  62  89 126 166 204 250 310 370
#     4  11  22  40  66  95 119 159 214 258 312 361
#
# _framework density 23.407971
#
# number of rings (size 3 to 8) (size 9 to 14) (size 15 to 20)
#    0.000    2.000    1.429    1.286    0.000   10.857 
#    2.571   10.714    0.000    0.000    0.000    0.000 
#    0.000    0.000    0.000    0.000    0.000    0.000 
#
# Total GULP energy -78314.024404 kJ/mol
# GULP energy per Si atom -5593.858886 kJ/mol
# Density = 2.335469 g / cm^3
# Si number density = 23.407971 Si / 1000 Ang^3
#
#
#
# Elastic Constant Matrix: (Units=GPa)
#
#
# Indices 1 2 3 4 5 6 
#
# 1 29.7253 16.6549 21.2644 -12.5521 3.3953 8.5523
# 2 16.6549 90.8406 47.2967 -16.7614 -5.6513 9.2091
# 3 21.2644 47.2967 137.3862 -24.2328 -5.6446 9.4274
# 4 -12.5521 -16.7614 -24.2328 36.8339 -7.9049 -5.2320
# 5 3.3953 -5.6513 -5.6446 -7.9049 33.9976 -7.3631
# 6 8.5523 9.2091 9.4274 -5.2320 -7.3631 20.3136
#
#
#
# Elastic Compliance Matrix: (Units=1/GPa)
#
#
# Indices 1 2 3 4 5 6 
#
# 1 0.047855 -0.004120 -0.003754 0.007751 -0.008068 -0.017465
# 2 -0.004120 0.014537 -0.003592 0.003226 0.002682 -0.001385
# 3 -0.003754 -0.003592 0.009906 0.004237 0.002543 0.000625
# 4 0.007751 0.003226 0.004237 0.037278 0.010595 0.006750
# 5 -0.008068 0.002682 0.002543 0.010595 0.037286 0.017245
# 6 -0.017465 -0.001385 0.000625 0.006750 0.017245 0.064908
#
#
# Mechanical properties :
#
#
# Convention : Reuss Voigt Hill
#
# Bulk Modulus (GPa) = 20.25807 47.59824 33.92816
# Shear Modulus (GPa) = 19.90774 29.74476 24.82625
#
# Velocity S-wave (km/s) = 2.91944 3.56857 3.26020
# Velocity P-wave (km/s) = 4.47631 6.11211 5.35702
#
# Compressibility (1/GPa) = 0.04936303
#
# Stress axis : x y z
#
# Youngs Moduli (GPa) = 20.89645 68.79159 100.95379
#
# Poissons Ratio (x) = 0.28344 0.37902
# Poissons Ratio (y) = 0.08610 0.36267
# Poissons Ratio (z) = 0.07845 0.24713
#
# Static dielectric constant tensor:
#      x y z
#    x 1.881800 0.001020 -0.031520 
#    y 0.001020 1.914700 0.001070 
#    z -0.031520 0.001070 1.897830 
# 
# From -- ./inp_files/100996.got.cif
#   From: 2010.05.17/outbox.cif.g08.bks.cpg/sg2_51_cif.got.tgz:100996.got - 2010.06.03 11:33:40.
