data_PCOD9007594
_publ_section_title
;
Structure prediction by ZEFSAII (Michael W. Deem and Ramdas Pophale) SiO2 
 PCOD9007594
Probable space group: P -1
;
_chemical_formula_sum "Si O2"
_cell_formula_units_Z 16
_cell_length_a 12.168636
_cell_length_b 15.127605
_cell_length_c 7.863180
_cell_angle_alpha 130.902523
_cell_angle_beta 129.204538
_cell_angle_gamma 55.918265
_cell_volume 820.812991
_symmetry_space_group_name_H-M "P -1"
_symmetry_group_IT_number 2
_symmetry_cell_setting 'triclinic'
loop_
_space_group_symop_operation_xyz
x,y,z
-x,-y,-z
loop_
_atom_site_type_symbol
_atom_site_label
_atom_site_fract_x
_atom_site_fract_y
_atom_site_fract_z
Si Si1 0.866831 0.099495 0.081304
Si Si2 0.804030 0.319507 0.878998
Si Si3 0.416022 0.773751 0.246573
Si Si4 0.326936 0.228219 0.728650
Si Si5 0.889824 0.545409 0.102657
Si Si6 0.838658 0.075519 0.406460
Si Si7 0.584671 0.009627 0.266539
Si Si8 0.024407 0.284252 0.360626
O O1 0.812820 0.067201 0.170262
O O2 0.937369 0.214259 0.311702
O O3 0.725608 0.139129 0.873537
O O4 0.000000 0.000000 0.000000
O O5 0.656135 0.319039 0.839074
O O6 0.818548 0.212494 0.622221
O O7 0.811741 0.443169 0.955178
O O8 0.941341 0.287539 0.105341
O O9 0.545753 0.724681 0.179477
O O10 0.477357 0.862878 0.540839
O O11 0.233738 0.329800 0.893357
O O12 0.398588 0.103034 0.733449
O O13 0.197358 0.217066 0.455917
O O14 0.978092 0.585480 0.398050
O O15 0.000000 0.500000 0.000000
O O16 0.742020 0.016748 0.361217
O O17 0.000000 0.000000 0.500000
O O18 0.500000 0.000000 0.000000
#
# Coordination Sequence:
#
# PCOD9007594 Si02
#       8
#     2   2   2   2   2   2   2   2
#     4  11  20  37  59  87 122 160 202 247 310 366
#     4  10  21  39  62  89 120 157 209 254 304 359
#     4  10  22  39  61  86 124 158 201 253 308 370
#     4  10  22  39  59  89 122 163 203 246 315 352
#     4  10  22  39  63  88 124 162 210 257 298 362
#     4  11  22  34  59  89 118 156 200 256 300 362
#     4  11  23  38  57  89 123 160 196 250 310 370
#     4   9  20  36  60  89 116 158 208 244 306 353
#
# _framework density 19.49287
#
# number of rings (size 3 to 8) (size 9 to 14) (size 15 to 20)
#    0.750    1.000    0.000    6.000    1.750    2.500 
#    0.000    0.000    0.000    9.750    0.000    0.000 
#    0.000    0.000    0.000    0.000    0.000    0.000 
#
# Total GULP energy -89178.169969 kJ/mol
# GULP energy per Si atom -5573.635623 kJ/mol
# Density = 1.944850 g / cm^3
# Si number density = 19.492870 Si / 1000 Ang^3
#
#
#
# Elastic Constant Matrix: (Units=GPa)
#
#
# Indices 1 2 3 4 5 6 
#
# 1 103.4133 13.8869 22.5798 13.7695 -2.8575 0.1725
# 2 13.8869 29.8915 12.1598 9.4584 10.4529 11.5955
# 3 22.5798 12.1598 77.0424 3.3769 3.1167 0.1766
# 4 13.7695 9.4584 3.3769 29.6937 5.8051 7.2545
# 5 -2.8575 10.4529 3.1167 5.8051 24.2607 -0.3797
# 6 0.1725 11.5955 0.1766 7.2545 -0.3797 32.5737
#
#
#
# Elastic Compliance Matrix: (Units=1/GPa)
#
#
# Indices 1 2 3 4 5 6 
#
# 1 0.011888 -0.006134 -0.002525 -0.005200 0.005664 0.003358
# 2 -0.006134 0.055651 -0.005787 -0.005110 -0.023029 -0.018877
# 3 -0.002525 -0.005787 0.014585 0.000889 0.000138 0.001798
# 4 -0.005200 -0.005110 0.000889 0.041080 -0.008471 -0.007406
# 5 0.005664 -0.023029 0.000138 -0.008471 0.053985 0.010683
# 6 0.003358 -0.018877 0.001798 -0.007406 0.010683 0.039166
#
#
# Mechanical properties :
#
#
# Convention : Reuss Voigt Hill
#
# Bulk Modulus (GPa) = 18.78569 34.17782 26.48175
# Shear Modulus (GPa) = 19.01208 28.08699 23.54954
#
# Velocity S-wave (km/s) = 3.12642 3.80002 3.47956
# Velocity P-wave (km/s) = 4.76349 6.06837 5.45508
#
# Compressibility (1/GPa) = 0.05323201
#
# Stress axis : x y z
#
# Youngs Moduli (GPa) = 84.11688 17.96908 68.56557
#
# Poissons Ratio (x) = 0.11022 0.17313
# Poissons Ratio (y) = 0.51598 0.39678
# Poissons Ratio (z) = 0.21240 0.10398
#
# Static dielectric constant tensor:
#      x y z
#    x 1.638900 0.006800 -0.094300 
#    y 0.006800 1.685870 0.009220 
#    z -0.094300 0.009220 1.512760 
# 
# From -- ./inp_files/269066.got.cif
#   From: 2010.05.17/outbox.cif.g08.bks.cpg/sg2_135_cif.got.tgz:269066.got - 2010.06.03 11:33:40.
