data_PCOD9007194
_publ_section_title
;
Structure prediction by ZEFSAII (Michael W. Deem and Ramdas Pophale) SiO2 
 PCOD9007194
Probable space group: P -1
;
_chemical_formula_sum "Si O2"
_cell_formula_units_Z 16
_cell_length_a 12.369195
_cell_length_b 5.024292
_cell_length_c 30.251407
_cell_angle_alpha 127.387365
_cell_angle_beta 148.636839
_cell_angle_gamma 60.157220
_cell_volume 776.456506
_symmetry_space_group_name_H-M "P -1"
_symmetry_group_IT_number 2
_symmetry_cell_setting 'triclinic'
loop_
_space_group_symop_operation_xyz
x,y,z
-x,-y,-z
loop_
_atom_site_type_symbol
_atom_site_label
_atom_site_fract_x
_atom_site_fract_y
_atom_site_fract_z
Si Si1 0.711216 0.199188 0.150371
Si Si2 0.378753 0.773134 0.512054
Si Si3 0.331370 0.521090 0.589025
Si Si4 0.669270 0.220102 0.032515
Si Si5 0.965307 0.330962 0.798950
Si Si6 0.316919 0.183864 0.296296
Si Si7 0.104914 0.229418 0.667630
Si Si8 0.881267 0.558052 0.401640
O O1 0.721254 0.183284 0.098809
O O2 0.780875 0.540369 0.232802
O O3 0.881675 0.931430 0.195950
O O4 0.469421 0.095373 0.065729
O O5 0.500000 0.500000 0.500000
O O6 0.499993 0.753267 0.598299
O O7 0.135594 0.677194 0.411993
O O8 0.387505 0.177118 0.548147
O O9 0.531138 0.780199 0.689531
O O10 0.259643 0.393546 0.599811
O O11 0.120273 0.662082 0.509144
O O12 0.877697 0.370873 0.097450
O O13 0.500000 0.500000 0.000000
O O14 0.831919 0.510879 0.733409
O O15 0.821913 0.131718 0.765097
O O16 0.188090 0.286612 0.652684
O O17 0.114129 0.842266 0.643855
#
# Coordination Sequence:
#
# PCOD9007194 Si02
#       8
#     2   2   2   2   2   2   2   2
#     4  10  21  39  60  89 127 159 202 250 309 371
#     4  11  24  38  57  90 130 165 198 242 307 367
#     4  10  23  41  62  81 122 168 217 256 291 349
#     4   9  20  37  61  86 124 162 199 246 308 378
#     4  11  22  35  58  87 126 157 195 240 299 376
#     4  12  22  37  56  88 121 163 199 240 299 360
#     4  11  24  38  61  90 121 164 204 258 303 350
#     4  10  24  41  61  83 116 166 223 258 290 339
#
# _framework density 20.606435000000001
#
# number of rings (size 3 to 8) (size 9 to 14) (size 15 to 20)
#    0.000    1.500    3.750    0.750    5.250    3.000 
#    0.000    0.000    0.000    0.000    0.000    5.250 
#    0.000    0.000    0.000    0.000    0.000    0.000 
#
# Total GULP energy -89155.537996 kJ/mol
# GULP energy per Si atom -5572.221125 kJ/mol
# Density = 2.055953 g / cm^3
# Si number density = 20.606435 Si / 1000 Ang^3
#
#
#
# Elastic Constant Matrix: (Units=GPa)
#
#
# Indices 1 2 3 4 5 6 
#
# 1 61.0801 18.7687 39.8475 22.6883 28.9307 6.8320
# 2 18.7687 87.3883 35.1553 1.3908 0.2889 4.1740
# 3 39.8475 35.1553 137.5470 24.5251 20.9970 5.4318
# 4 22.6883 1.3908 24.5251 26.4555 19.7721 1.9180
# 5 28.9307 0.2889 20.9970 19.7721 24.6462 3.7097
# 6 6.8320 4.1740 5.4318 1.9180 3.7097 35.5464
#
#
#
# Elastic Compliance Matrix: (Units=1/GPa)
#
#
# Indices 1 2 3 4 5 6 
#
# 1 0.044589 -0.007924 -0.003674 0.005541 -0.053290 -0.001816
# 2 -0.007924 0.014435 -0.003204 0.000261 0.011792 -0.000927
# 3 -0.003674 -0.003204 0.010230 -0.007271 0.001505 -0.000246
# 4 0.005541 0.000261 -0.007271 0.100220 -0.081177 0.003080
# 5 -0.053290 0.011792 0.001505 -0.081177 0.167504 -0.004473
# 6 -0.001816 -0.000927 -0.000246 0.003080 -0.004473 0.028928
#
#
# Mechanical properties :
#
#
# Convention : Reuss Voigt Hill
#
# Bulk Modulus (GPa) = 25.22009 52.61762 38.91886
# Shear Modulus (GPa) = 12.23313 30.14586 21.18950
#
# Velocity S-wave (km/s) = 2.43915 3.82898 3.21018
# Velocity P-wave (km/s) = 4.49423 6.71849 5.71560
#
# Compressibility (1/GPa) = 0.03965092
#
# Stress axis : x y z
#
# Youngs Moduli (GPa) = 22.42703 69.27579 97.75306
#
# Poissons Ratio (x) = 0.54894 0.35911
# Poissons Ratio (y) = 0.17771 0.31319
# Poissons Ratio (z) = 0.08239 0.22195
#
# Static dielectric constant tensor:
#      x y z
#    x 2.000480 0.154080 0.077130 
#    y 0.154080 1.863080 0.013960 
#    z 0.077130 0.013960 1.781040 
# 
# From -- ./inp_files/622851.got.cif
#   From: 2010.05.17/outbox.cif.g08.bks.cpg/sg2_312_cif.got.tgz:622851.got - 2010.06.03 11:33:40.
