data_PCOD9007836
_publ_section_title
;
Structure prediction by ZEFSAII (Michael W. Deem and Ramdas Pophale) SiO2 
 PCOD9007836
Probable space group: P -1
;
_chemical_formula_sum "Si O2"
_cell_formula_units_Z 14
_cell_length_a 25.700983
_cell_length_b 18.573617
_cell_length_c 14.225342
_cell_angle_alpha 156.456871
_cell_angle_beta 15.535233
_cell_angle_gamma 158.919252
_cell_volume 642.937770
_symmetry_space_group_name_H-M "P -1"
_symmetry_group_IT_number 2
_symmetry_cell_setting 'triclinic'
loop_
_space_group_symop_operation_xyz
x,y,z
-x,-y,-z
loop_
_atom_site_type_symbol
_atom_site_label
_atom_site_fract_x
_atom_site_fract_y
_atom_site_fract_z
Si Si1 0.370350 0.749695 0.462020
Si Si2 0.360861 0.881961 0.446074
Si Si3 0.576694 0.055358 0.080543
Si Si4 0.064628 0.372583 0.659363
Si Si5 0.913505 0.000935 0.754814
Si Si6 0.494959 0.289437 0.357871
Si Si7 0.142006 0.318214 0.887910
O O1 0.427719 0.764105 0.268519
O O2 0.233021 0.530041 0.480744
O O3 0.568154 0.898085 0.363431
O O4 0.215212 0.862980 0.869398
O O5 0.483985 0.946237 0.210531
O O6 0.099999 0.745582 0.727398
O O7 0.469197 0.192314 0.389260
O O8 0.831921 0.215038 0.832879
O O9 0.528882 0.881517 0.880051
O O10 0.167387 0.234158 0.356565
O O11 0.000000 0.500000 0.000000
O O12 0.000000 0.000000 0.500000
O O13 0.094633 0.134487 0.677842
O O14 0.305818 0.344606 0.719869
O O15 0.731844 0.480316 0.153756
#
# Coordination Sequence:
#
# PCOD9007836 Si02
#       7
#     2   2   2   2   2   2   2
#     4  10  22  39  60  94 132 160 194 255 324 371
#     4  10  21  39  63  87 133 158 191 267 317 362
#     4  11  21  39  65  92 118 162 216 251 304 366
#     4  12  21  37  67  95 121 164 208 252 308 373
#     4  11  20  35  65  95 120 158 208 255 303 369
#     4  10  23  40  65  86 117 169 217 252 288 372
#     4  10  22  42  60  88 127 161 207 258 308 361
#
# _framework density 21.775047000000001
#
# number of rings (size 3 to 8) (size 9 to 14) (size 15 to 20)
#    0.000    1.429    4.286    1.714    0.000    1.143 
#    0.000    6.429   12.571    0.000    0.000    0.000 
#    0.000    0.000    0.000    0.000    0.000    0.000 
#
# Total GULP energy -78027.713844 kJ/mol
# GULP energy per Si atom -5573.408132 kJ/mol
# Density = 2.172549 g / cm^3
# Si number density = 21.775047 Si / 1000 Ang^3
#
#
#
# Elastic Constant Matrix: (Units=GPa)
#
#
# Indices 1 2 3 4 5 6 
#
# 1 73.8317 40.3778 19.5000 -14.0987 5.0542 -31.4411
# 2 40.3778 163.1575 30.6011 -28.7686 -1.0006 -20.5561
# 3 19.5000 30.6011 42.5220 -13.9889 -14.8452 -11.1000
# 4 -14.0987 -28.7686 -13.9889 48.2522 -2.6629 2.0439
# 5 5.0542 -1.0006 -14.8452 -2.6629 34.3140 -6.6844
# 6 -31.4411 -20.5561 -11.1000 2.0439 -6.6844 47.3154
#
#
#
# Elastic Compliance Matrix: (Units=1/GPa)
#
#
# Indices 1 2 3 4 5 6 
#
# 1 0.022099 -0.002502 -0.005506 0.002694 -0.003215 0.011736
# 2 -0.002502 0.008050 -0.003705 0.002928 -0.000626 0.000750
# 3 -0.005506 -0.003705 0.040339 0.008705 0.020128 0.006662
# 4 0.002694 0.002928 0.008705 0.025928 0.006420 0.004892
# 5 -0.003215 -0.000626 0.020128 0.006420 0.040310 0.007731
# 6 0.011736 0.000750 0.006662 0.004892 0.007731 0.031703
#
#
# Mechanical properties :
#
#
# Convention : Reuss Voigt Hill
#
# Bulk Modulus (GPa) = 21.24916 51.16322 36.20619
# Shear Modulus (GPa) = 24.09123 38.57847 31.33485
#
# Velocity S-wave (km/s) = 3.32982 4.21370 3.79756
# Velocity P-wave (km/s) = 4.95614 6.87175 5.99100
#
# Compressibility (1/GPa) = 0.04706067
#
# Stress axis : x y z
#
# Youngs Moduli (GPa) = 45.25042 124.21954 24.78991
#
# Poissons Ratio (x) = 0.31086 0.13649
# Poissons Ratio (y) = 0.11324 0.09186
# Poissons Ratio (z) = 0.24915 0.46028
#
# Static dielectric constant tensor:
#      x y z
#    x 1.851230 -0.013830 -0.060110 
#    y -0.013830 1.809760 -0.038950 
#    z -0.060110 -0.038950 1.959390 
# 
# From -- ./inp_files/544286.got.cif
#   From: 2010.05.17/outbox.cif.g08.bks.cpg/sg2_273_cif.got.tgz:544286.got - 2010.06.03 11:33:40.
