data_PCOD9007893
_publ_section_title
;
Structure prediction by ZEFSAII (Michael W. Deem and Ramdas Pophale) SiO2 
 PCOD9007893
Probable space group: P -1
;
_chemical_formula_sum "Si O2"
_cell_formula_units_Z 16
_cell_length_a 7.001496
_cell_length_b 8.075533
_cell_length_c 18.182111
_cell_angle_alpha 53.151957
_cell_angle_beta 118.778612
_cell_angle_gamma 96.408951
_cell_volume 697.690624
_symmetry_space_group_name_H-M "P -1"
_symmetry_group_IT_number 2
_symmetry_cell_setting 'triclinic'
loop_
_space_group_symop_operation_xyz
x,y,z
-x,-y,-z
loop_
_atom_site_type_symbol
_atom_site_label
_atom_site_fract_x
_atom_site_fract_y
_atom_site_fract_z
Si Si1 0.757248 0.601564 0.892589
Si Si2 0.396179 0.114577 0.840304
Si Si3 0.081417 0.247087 0.510108
Si Si4 0.890735 0.341468 0.673490
Si Si5 0.908379 0.567352 0.773233
Si Si6 0.422958 0.339724 0.939846
Si Si7 0.233930 0.019102 0.444480
Si Si8 0.454973 0.895992 0.285215
O O1 0.579842 0.500854 0.928144
O O2 0.763311 0.538636 0.824178
O O3 0.683249 0.857954 0.811010
O O4 0.000000 0.500000 0.000000
O O5 0.439614 0.239144 0.887509
O O6 0.505649 0.185867 0.769265
O O7 0.127229 0.165253 0.767708
O O8 0.498059 0.863875 0.939071
O O9 0.081281 0.491454 0.428682
O O10 0.129686 0.140723 0.466864
O O11 0.297422 0.131067 0.628545
O O12 0.855587 0.194658 0.513826
O O13 0.681360 0.237599 0.656414
O O14 0.862472 0.460765 0.716295
O O15 0.165362 0.462428 0.869719
O O16 0.868209 0.819511 0.682826
O O17 0.500000 0.000000 0.500000
#
# Coordination Sequence:
#
# PCOD9007893 Si02
#       8
#     2   2   2   2   2   2   2   2
#     4  12  25  38  61  93 124 158 202 254 312 362
#     4  10  23  41  64  88 120 164 208 252 306 363
#     4  10  23  39  60  92 123 159 204 250 305 363
#     4  10  23  42  63  89 124 165 208 249 300 367
#     4  10  22  41  65  87 117 163 205 246 302 366
#     4  10  22  43  63  86 121 162 207 254 299 365
#     4  10  21  39  63  90 122 160 203 250 302 365
#     4  12  24  39  62  94 129 160 200 257 309 361
#
# _framework density 22.932801000000001
#
# number of rings (size 3 to 8) (size 9 to 14) (size 15 to 20)
#    0.000    1.500    0.000    4.125    0.000   12.500 
#    0.000    5.000    0.000    0.000    0.000    0.000 
#    0.000    0.000    0.000    0.000    0.000    0.000 
#
# Total GULP energy -89546.777030 kJ/mol
# GULP energy per Si atom -5596.673564 kJ/mol
# Density = 2.288061 g / cm^3
# Si number density = 22.932801 Si / 1000 Ang^3
#
#
#
# Elastic Constant Matrix: (Units=GPa)
#
#
# Indices 1 2 3 4 5 6 
#
# 1 126.1866 32.6708 31.7459 -16.1181 -12.5390 27.7938
# 2 32.6708 54.2454 11.2565 -2.0820 -1.3481 12.5804
# 3 31.7459 11.2565 101.3611 -12.1703 -8.3598 5.3588
# 4 -16.1181 -2.0820 -12.1703 20.2394 -1.0029 -9.7914
# 5 -12.5390 -1.3481 -8.3598 -1.0029 33.4604 1.9947
# 6 27.7938 12.5804 5.3588 -9.7914 1.9947 44.6500
#
#
#
# Elastic Compliance Matrix: (Units=1/GPa)
#
#
# Indices 1 2 3 4 5 6 
#
# 1 0.011984 -0.005433 -0.001852 0.005850 0.004260 -0.004614
# 2 -0.005433 0.022644 -0.001286 -0.004681 -0.001358 -0.003810
# 3 -0.001852 -0.001286 0.011423 0.006033 0.002207 0.001369
# 4 0.005850 -0.004681 0.006033 0.062503 0.004761 0.010447
# 5 0.004260 -0.001358 0.002207 0.004761 0.032297 -0.002933
# 6 -0.004614 -0.003810 0.001369 0.010447 -0.002933 0.028600
#
#
# Mechanical properties :
#
#
# Convention : Reuss Voigt Hill
#
# Bulk Modulus (GPa) = 34.59173 48.12662 41.35918
# Shear Modulus (GPa) = 25.48045 33.41129 29.44587
#
# Velocity S-wave (km/s) = 3.33692 3.82110 3.58719
# Velocity P-wave (km/s) = 5.47389 6.36390 5.93560
#
# Compressibility (1/GPa) = 0.02890864
#
# Stress axis : x y z
#
# Youngs Moduli (GPa) = 83.44255 44.16225 87.54516
#
# Poissons Ratio (x) = 0.23993 0.16217
# Poissons Ratio (y) = 0.45334 0.11256
# Poissons Ratio (z) = 0.15457 0.05678
#
# Static dielectric constant tensor:
#      x y z
#    x 1.814600 -0.021840 -0.022750 
#    y -0.021840 1.908110 0.007440 
#    z -0.022750 0.007440 1.807390 
# 
# From -- ./inp_files/288991.got.cif
#   From: 2010.05.17/outbox.cif.g08.bks.cpg/sg2_145_cif.got.tgz:288991.got - 2010.06.03 11:33:40.
