data_PCOD9007278
_publ_section_title
;
Structure prediction by ZEFSAII (Michael W. Deem and Ramdas Pophale) SiO2 
 PCOD9007278
Probable space group: P -1
;
_chemical_formula_sum "Si O2"
_cell_formula_units_Z 12
_cell_length_a 8.999988
_cell_length_b 15.455992
_cell_length_c 13.093006
_cell_angle_alpha 28.236113
_cell_angle_beta 62.940259
_cell_angle_gamma 44.480700
_cell_volume 514.255217
_symmetry_space_group_name_H-M "P -1"
_symmetry_group_IT_number 2
_symmetry_cell_setting 'triclinic'
loop_
_space_group_symop_operation_xyz
x,y,z
-x,-y,-z
loop_
_atom_site_type_symbol
_atom_site_label
_atom_site_fract_x
_atom_site_fract_y
_atom_site_fract_z
Si Si1 0.299080 0.466841 0.223371
Si Si2 0.512324 0.975877 0.784064
Si Si3 0.945754 0.576615 0.818706
Si Si4 0.925477 0.772489 0.206494
Si Si5 0.244828 0.935186 0.743398
Si Si6 0.780589 0.285487 0.665873
O O1 0.506956 0.178748 0.518626
O O2 0.232173 0.424322 0.181612
O O3 0.057610 0.637311 0.197106
O O4 0.344029 0.646335 0.005667
O O5 0.307586 0.147112 0.759658
O O6 0.407301 0.919813 0.789412
O O7 0.777335 0.685547 0.040681
O O8 0.817643 0.877307 0.525406
O O9 0.000000 0.500000 0.000000
O O10 0.139054 0.615240 0.389570
O O11 0.818935 0.062663 0.940779
O O12 0.971030 0.135122 0.669770
O O13 0.500000 0.500000 0.500000
#
# Coordination Sequence:
#
# PCOD9007278 Si02
#       6
#     2   2   2   2   2   2
#     4  10  22  38  60  91 118 148 194 237 288 353
#     4  10  21  39  61  85 120 154 185 239 294 343
#     4  11  25  42  59  83 115 155 203 247 287 334
#     4   9  18  32  54  88 120 148 185 227 285 353
#     4   9  21  39  58  86 117 149 193 239 290 346
#     4   9  16  29  54  86 120 152 181 225 285 348
#
# _framework density 23.334717000000001
#
# number of rings (size 3 to 8) (size 9 to 14) (size 15 to 20)
#    0.000    2.333    0.000    2.500    0.000    8.000 
#    0.000    1.667    0.000    0.000    0.000    0.000 
#    0.000    0.000    0.000    0.000    0.000    0.000 
#
# Total GULP energy -66945.058152 kJ/mol
# GULP energy per Si atom -5578.754846 kJ/mol
# Density = 2.328161 g / cm^3
# Si number density = 23.334717 Si / 1000 Ang^3
#
#
#
# Elastic Constant Matrix: (Units=GPa)
#
#
# Indices 1 2 3 4 5 6 
#
# 1 -1.8954 20.3826 27.4983 -23.9379 -10.9644 -20.9845
# 2 20.3826 72.3059 14.8841 4.7303 -9.7849 7.9101
# 3 27.4983 14.8841 137.8039 -8.6682 -34.8589 -10.6888
# 4 -23.9379 4.7303 -8.6682 30.4702 -3.3336 8.8292
# 5 -10.9644 -9.7849 -34.8589 -3.3336 51.1486 -9.6601
# 6 -20.9845 7.9101 -10.6888 8.8292 -9.6601 17.8446
#
#
#
# Elastic Compliance Matrix: (Units=1/GPa)
#
#
# Indices 1 2 3 4 5 6 
#
# 1 -0.017732 0.007657 -0.002284 -0.009221 -0.009435 -0.026160
# 2 0.007657 0.011893 -0.001380 0.003214 0.003825 0.003387
# 3 -0.002284 -0.001380 0.010572 -0.000222 0.008089 0.008747
# 4 -0.009221 0.003214 -0.000222 0.033690 -0.005356 -0.031970
# 5 -0.009435 0.003825 0.008089 -0.005356 0.024978 0.008226
# 6 -0.026160 0.003387 0.008747 -0.031970 0.008226 0.049286
#
#
# Mechanical properties :
#
#
# Convention : Reuss Voigt Hill
#
# Bulk Modulus (GPa) = 78.62782 37.08271 57.85527
# Shear Modulus (GPa) = 45.89637 29.58930 37.74284
#
# Velocity S-wave (km/s) = 4.43975 3.56481 4.02612
# Velocity P-wave (km/s) = 7.74924 5.73324 6.81618
#
# Compressibility (1/GPa) = 0.01271815
#
# Stress axis : x y z
#
# Youngs Moduli (GPa) = -56.39483 84.08592 94.58687
#
# Poissons Ratio (x) = -0.64386 0.21608
# Poissons Ratio (y) = 0.43182 0.13053
# Poissons Ratio (z) = -0.12883 0.11604
#
# Static dielectric constant tensor:
#      x y z
#    x 0.152400 -0.309660 -0.462550 
#    y -0.309660 1.917380 -0.059920 
#    z -0.462550 -0.059920 1.821680 
# 
# From -- ./inp_files/30552.got.cif
#   From: 2010.05.17/outbox.cif.g08.bks.cpg/sg2_16_cif.got.tgz:30552.got - 2010.06.03 11:33:40.
