data_PCOD9007649
_publ_section_title
;
Structure prediction by ZEFSAII (Michael W. Deem and Ramdas Pophale) SiO2 
 PCOD9007649
Probable space group: P -1
;
_chemical_formula_sum "Si O2"
_cell_formula_units_Z 16
_cell_length_a 11.358186
_cell_length_b 9.084136
_cell_length_c 14.473975
_cell_angle_alpha 31.886784
_cell_angle_beta 70.750289
_cell_angle_gamma 80.533673
_cell_volume 724.541705
_symmetry_space_group_name_H-M "P -1"
_symmetry_group_IT_number 2
_symmetry_cell_setting 'triclinic'
loop_
_space_group_symop_operation_xyz
x,y,z
-x,-y,-z
loop_
_atom_site_type_symbol
_atom_site_label
_atom_site_fract_x
_atom_site_fract_y
_atom_site_fract_z
Si Si1 0.985707 0.292371 0.393346
Si Si2 0.774240 0.275918 0.811056
Si Si3 0.374136 0.455490 0.171673
Si Si4 0.779725 0.123915 0.692238
Si Si5 0.626993 0.439247 0.453861
Si Si6 0.674947 0.477640 0.058809
Si Si7 0.643424 0.133086 0.424690
Si Si8 0.135703 0.221949 0.864972
O O1 0.903138 0.218130 0.546864
O O2 0.906205 0.485149 0.252855
O O3 0.118529 0.500878 0.278293
O O4 0.000000 0.000000 0.500000
O O5 0.644075 0.326057 0.860151
O O6 0.787772 0.318189 0.676637
O O7 0.794127 0.959535 0.991022
O O8 0.523900 0.468175 0.114138
O O9 0.311512 0.130416 0.396921
O O10 0.315063 0.546087 0.042871
O O11 0.657182 0.167685 0.643063
O O12 0.756817 0.790476 0.895126
O O13 0.500000 0.500000 0.500000
O O14 0.625912 0.359439 0.388039
O O15 0.759745 0.686239 0.293890
O O16 0.708674 0.264154 0.241657
O O17 0.500000 0.000000 0.500000
O O18 0.000000 0.000000 0.000000
#
# Coordination Sequence:
#
# PCOD9007649 Si02
#       8
#     2   2   2   2   2   2   2   2
#     4  10  22  44  70  90 126 177 225 282 340 395
#     4  11  23  40  67  93 135 172 224 272 349 401
#     4  10  22  39  62  95 129 177 216 279 324 405
#     4  11  23  40  63  96 134 170 224 280 338 412
#     4  11  24  39  65  97 138 179 223 286 347 407
#     4  10  21  39  62  90 133 174 226 266 333 399
#     4  10  22  40  61  93 136 175 228 275 333 404
#     4   9  22  43  64  95 130 174 225 282 332 414
#
# _framework density 22.082924999999999
#
# number of rings (size 3 to 8) (size 9 to 14) (size 15 to 20)
#    0.000    1.750    1.250    1.875    7.000    0.500 
#    2.250    0.625    0.000    0.000    0.000    0.000 
#    0.000    0.000    0.000    0.000    0.000    0.000 
#
# Total GULP energy -89183.455745 kJ/mol
# GULP energy per Si atom -5573.965984 kJ/mol
# Density = 2.203266 g / cm^3
# Si number density = 22.082925 Si / 1000 Ang^3
#
#
#
# Elastic Constant Matrix: (Units=GPa)
#
#
# Indices 1 2 3 4 5 6 
#
# 1 42.3660 29.7311 21.4237 5.4836 2.6598 -14.4242
# 2 29.7311 136.0205 29.5689 16.7408 15.7387 -6.8346
# 3 21.4237 29.5689 117.7994 12.0418 11.6609 -7.0152
# 4 5.4836 16.7408 12.0418 32.8968 3.7859 1.0370
# 5 2.6598 15.7387 11.6609 3.7859 33.1182 2.1418
# 6 -14.4242 -6.8346 -7.0152 1.0370 2.1418 23.8720
#
#
#
# Elastic Compliance Matrix: (Units=1/GPa)
#
#
# Indices 1 2 3 4 5 6 
#
# 1 0.036565 -0.005936 -0.003793 -0.002323 0.000233 0.019359
# 2 -0.005936 0.009559 -0.000690 -0.003210 -0.003417 -0.000607
# 3 -0.003793 -0.000690 0.009899 -0.002361 -0.002632 0.000759
# 4 -0.002323 -0.003210 -0.002361 0.033537 -0.001007 -0.004383
# 5 0.000233 -0.003417 -0.002632 -0.001007 0.033135 -0.004540
# 6 0.019359 -0.000607 0.000759 -0.004383 -0.004540 0.054235
#
#
# Mechanical properties :
#
#
# Convention : Reuss Voigt Hill
#
# Bulk Modulus (GPa) = 28.42015 50.84816 39.63416
# Shear Modulus (GPa) = 23.86681 32.34155 28.10418
#
# Velocity S-wave (km/s) = 3.29109 3.83110 3.57131
# Velocity P-wave (km/s) = 5.22871 6.53037 5.91545
#
# Compressibility (1/GPa) = 0.03518630
#
# Stress axis : x y z
#
# Youngs Moduli (GPa) = 27.34879 104.61059 101.02049
#
# Poissons Ratio (x) = 0.62098 0.38313
# Poissons Ratio (y) = 0.16235 0.06966
# Poissons Ratio (z) = 0.10372 0.07214
#
# Static dielectric constant tensor:
#      x y z
#    x 2.016100 -0.130610 0.063190 
#    y -0.130610 2.007750 -0.045970 
#    z 0.063190 -0.045970 1.924400 
# 
# From -- ./inp_files/514805.got.cif
#   From: 2010.05.17/outbox.cif.g08.bks.cpg/sg2_258_cif.got.tgz:514805.got - 2010.06.03 11:33:40.
