data_PCOD9007982
_publ_section_title
;
Structure prediction by ZEFSAII (Michael W. Deem and Ramdas Pophale) SiO2 
 PCOD9007982
Probable space group: P -1
;
_chemical_formula_sum "Si O2"
_cell_formula_units_Z 14
_cell_length_a 7.733885
_cell_length_b 14.440229
_cell_length_c 11.912396
_cell_angle_alpha 67.582025
_cell_angle_beta 49.074927
_cell_angle_gamma 39.527018
_cell_volume 618.134771
_symmetry_space_group_name_H-M "P -1"
_symmetry_group_IT_number 2
_symmetry_cell_setting 'triclinic'
loop_
_space_group_symop_operation_xyz
x,y,z
-x,-y,-z
loop_
_atom_site_type_symbol
_atom_site_label
_atom_site_fract_x
_atom_site_fract_y
_atom_site_fract_z
Si Si1 0.329826 0.079764 0.214508
Si Si2 0.114451 0.967730 0.093076
Si Si3 0.769547 0.847781 0.527788
Si Si4 0.564509 0.300158 0.771290
Si Si5 0.861975 0.732505 0.132015
Si Si6 0.180092 0.589778 0.306911
Si Si7 0.734116 0.261649 0.222779
O O1 0.551247 0.070478 0.034732
O O2 0.353187 0.122046 0.307062
O O3 0.946807 0.205487 0.272472
O O4 0.514316 0.911342 0.218706
O O5 0.238142 0.823450 0.156586
O O6 0.000000 0.000000 0.000000
O O7 0.821123 0.119744 0.217054
O O8 0.135794 0.787578 0.408776
O O9 0.886126 0.715996 0.462705
O O10 0.500000 0.000000 0.500000
O O11 0.252862 0.334877 0.844538
O O12 0.519922 0.426987 0.778317
O O13 0.046883 0.653199 0.208755
O O14 0.097701 0.724115 0.954619
O O15 0.350060 0.426412 0.320109
#
# Coordination Sequence:
#
# PCOD9007982 Si02
#       7
#     2   2   2   2   2   2   2
#     4  11  20  39  64  86 126 164 202 254 308 368
#     4  11  20  38  64  94 118 159 214 255 301 362
#     4  10  21  41  62  88 124 171 206 246 303 380
#     4  10  21  39  63  93 112 166 218 238 300 375
#     4  11  19  40  64  90 121 164 211 248 305 371
#     4  10  24  40  61  93 130 162 202 255 319 357
#     4  11  22  39  61  93 131 155 198 269 316 351
#
# _framework density 22.648783000000002
#
# number of rings (size 3 to 8) (size 9 to 14) (size 15 to 20)
#    0.857    0.571    4.286    3.857    0.000    1.714 
#    2.571    0.000    0.000    4.286    0.000    0.000 
#    0.000    0.000    0.000    0.000    0.000    0.000 
#
# Total GULP energy -78176.141647 kJ/mol
# GULP energy per Si atom -5584.010118 kJ/mol
# Density = 2.259723 g / cm^3
# Si number density = 22.648783 Si / 1000 Ang^3
#
#
#
# Elastic Constant Matrix: (Units=GPa)
#
#
# Indices 1 2 3 4 5 6 
#
# 1 78.6913 3.1787 12.2830 -12.4837 18.6622 -7.6916
# 2 3.1787 105.9474 21.7915 8.0389 25.9777 -3.8139
# 3 12.2830 21.7915 70.2560 7.5422 20.5852 -7.8032
# 4 -12.4837 8.0389 7.5422 20.5253 -1.0204 0.0900
# 5 18.6622 25.9777 20.5852 -1.0204 39.5788 -7.2668
# 6 -7.6916 -3.8139 -7.8032 0.0900 -7.2668 29.5979
#
#
#
# Elastic Compliance Matrix: (Units=1/GPa)
#
#
# Indices 1 2 3 4 5 6 
#
# 1 0.016348 0.000852 -0.002037 0.010023 -0.006549 0.002183
# 2 0.000852 0.011849 -0.001162 -0.004079 -0.007763 -0.000451
# 3 -0.002037 -0.001162 0.018267 -0.007882 -0.007557 0.002305
# 4 0.010023 -0.004079 -0.007882 0.059492 0.003719 0.000733
# 5 -0.006549 -0.007763 -0.007557 0.003719 0.038340 0.004707
# 6 0.002183 -0.000451 0.002305 0.000733 0.004707 0.036056
#
#
# Mechanical properties :
#
#
# Convention : Reuss Voigt Hill
#
# Bulk Modulus (GPa) = 23.94057 36.60012 30.27034
# Shear Modulus (GPa) = 25.12965 32.44985 28.78975
#
# Velocity S-wave (km/s) = 3.33458 3.78926 3.56917
# Velocity P-wave (km/s) = 5.04175 5.94471 5.51175
#
# Compressibility (1/GPa) = 0.04177010
#
# Stress axis : x y z
#
# Youngs Moduli (GPa) = 61.16970 84.39773 54.74423
#
# Poissons Ratio (x) = -0.07194 0.11152
# Poissons Ratio (y) = -0.05214 0.06361
# Poissons Ratio (z) = 0.12461 0.09807
#
# Static dielectric constant tensor:
#      x y z
#    x 1.723420 0.101090 0.014420 
#    y 0.101090 1.746960 -0.020200 
#    z 0.014420 -0.020200 1.804300 
# 
# From -- ./inp_files/257935.got.cif
#   From: 2010.05.17/outbox.cif.g08.bks.cpg/sg2_129_cif.got.tgz:257935.got - 2010.06.03 11:33:40.
