data_PCOD9007565
_publ_section_title
;
Structure prediction by ZEFSAII (Michael W. Deem and Ramdas Pophale) SiO2 
 PCOD9007565
Probable space group: P -1
;
_chemical_formula_sum "Si O2"
_cell_formula_units_Z 16
_cell_length_a 5.245104
_cell_length_b 29.223428
_cell_length_c 5.312343
_cell_angle_alpha 102.694461
_cell_angle_beta 61.055325
_cell_angle_gamma 114.559552
_cell_volume 647.919637
_symmetry_space_group_name_H-M "P -1"
_symmetry_group_IT_number 2
_symmetry_cell_setting 'triclinic'
loop_
_space_group_symop_operation_xyz
x,y,z
-x,-y,-z
loop_
_atom_site_type_symbol
_atom_site_label
_atom_site_fract_x
_atom_site_fract_y
_atom_site_fract_z
Si Si1 0.876763 0.019174 0.832720
Si Si2 0.467361 0.289556 0.691844
Si Si3 0.104917 0.139566 0.876643
Si Si4 0.403014 0.370249 0.454251
Si Si5 0.147667 0.611521 0.130793
Si Si6 0.145966 0.823795 0.457691
Si Si7 0.208229 0.518241 0.174225
Si Si8 0.018531 0.271159 0.282329
O O1 0.009095 0.079509 0.840580
O O2 0.000000 0.000000 0.500000
O O3 0.500000 0.000000 0.000000
O O4 0.000000 0.000000 0.000000
O O5 0.378102 0.329771 0.627874
O O6 0.730316 0.328558 0.799604
O O7 0.660735 0.264353 0.402618
O O8 0.194330 0.255276 0.955651
O O9 0.483092 0.163195 0.734056
O O10 0.981910 0.156617 0.699821
O O11 0.942423 0.152497 0.218088
O O12 0.209574 0.331320 0.278934
O O13 0.216253 0.406164 0.648558
O O14 0.750683 0.393877 0.207836
O O15 0.298946 0.578668 0.180920
O O16 0.991785 0.763712 0.515665
O O17 0.000000 0.500000 0.500000
O O18 0.500000 0.500000 0.000000
O O19 0.000000 0.500000 0.000000
#
# Coordination Sequence:
#
# PCOD9007565 Si02
#       8
#     2   2   2   2   2   2   2   2
#     4  12  24  44  74 104 139 182 234 298 347 411
#     4  10  21  39  62  88 123 162 226 274 330 397
#     4  12  26  47  68 106 139 188 233 283 356 413
#     4  10  21  39  63  89 123 163 223 274 330 397
#     4  10  23  39  63  93 125 170 217 280 335 394
#     4  12  26  44  69  96 144 183 227 285 340 427
#     4  12  28  47  73 105 141 183 229 281 349 429
#     4  10  23  37  58  92 118 174 219 271 333 394
#
# _framework density 24.694420999999998
#
# number of rings (size 3 to 8) (size 9 to 14) (size 15 to 20)
#    0.000    1.000    0.000    6.000    7.000    0.000 
#    0.000    0.000    0.000    0.000    0.000    0.000 
#    0.000    0.000    0.000    0.000    0.000    0.000 
#
# Total GULP energy -89517.881220 kJ/mol
# GULP energy per Si atom -5594.867576 kJ/mol
# Density = 2.463822 g / cm^3
# Si number density = 24.694421 Si / 1000 Ang^3
#
#
#
# Elastic Constant Matrix: (Units=GPa)
#
#
# Indices 1 2 3 4 5 6 
#
# 1 141.1934 27.2959 74.6234 -5.1053 -9.2644 -36.6064
# 2 27.2959 135.2802 28.2905 -4.4698 7.0110 -12.2916
# 3 74.6234 28.2905 196.1983 -4.3534 -17.0963 -9.7333
# 4 -5.1053 -4.4698 -4.3534 43.2499 -10.5338 4.8065
# 5 -9.2644 7.0110 -17.0963 -10.5338 47.8447 -4.5094
# 6 -36.6064 -12.2916 -9.7333 4.8065 -4.5094 43.9767
#
#
#
# Elastic Compliance Matrix: (Units=1/GPa)
#
#
# Indices 1 2 3 4 5 6 
#
# 1 0.011610 -0.000867 -0.003674 0.000419 0.001981 0.008766
# 2 -0.000867 0.007938 -0.000888 0.000135 -0.001512 0.001131
# 3 -0.003674 -0.000888 0.006714 0.000787 0.001829 -0.001719
# 4 0.000419 0.000135 0.000787 0.024817 0.005658 -0.001571
# 5 0.001981 -0.001512 0.001829 0.005658 0.023730 0.003446
# 6 0.008766 0.001131 -0.001719 -0.001571 0.003446 0.030497
#
#
# Mechanical properties :
#
#
# Convention : Reuss Voigt Hill
#
# Bulk Modulus (GPa) = 64.91317 81.45462 73.18389
# Shear Modulus (GPa) = 41.22129 49.84508 45.53318
#
# Velocity S-wave (km/s) = 4.09008 4.49762 4.29868
# Velocity P-wave (km/s) = 6.97486 7.74778 7.37146
#
# Compressibility (1/GPa) = 0.01540519
#
# Stress axis : x y z
#
# Youngs Moduli (GPa) = 86.13619 125.97422 148.94661
#
# Poissons Ratio (x) = 0.10916 0.54722
# Poissons Ratio (y) = 0.07464 0.13222
# Poissons Ratio (z) = 0.31646 0.11183
#
# Static dielectric constant tensor:
#      x y z
#    x 2.067610 0.109800 0.015890 
#    y 0.109800 1.961140 0.057590 
#    z 0.015890 0.057590 2.034750 
# 
# From -- ./inp_files/14595.got.cif
#   From: 2010.05.17/outbox.cif.g08.bks.cpg/sg2_8_cif.got.tgz:14595.got - 2010.06.03 11:33:40.
