data_PCOD9007765
_publ_section_title
;
Structure prediction by ZEFSAII (Michael W. Deem and Ramdas Pophale) SiO2 
 PCOD9007765
Probable space group: P -1
;
_chemical_formula_sum "Si O2"
_cell_formula_units_Z 15
_cell_length_a 9.665529
_cell_length_b 9.194313
_cell_length_c 7.322792
_cell_angle_alpha 105.110753
_cell_angle_beta 111.011153
_cell_angle_gamma 63.017184
_cell_volume 537.592600
_symmetry_space_group_name_H-M "P -1"
_symmetry_group_IT_number 2
_symmetry_cell_setting 'triclinic'
loop_
_space_group_symop_operation_xyz
x,y,z
-x,-y,-z
loop_
_atom_site_type_symbol
_atom_site_label
_atom_site_fract_x
_atom_site_fract_y
_atom_site_fract_z
Si Si1 0.503602 0.238480 0.485573
Si Si2 0.240301 0.080786 0.365279
Si Si3 0.981314 0.287849 0.860164
Si Si4 0.083127 0.662987 0.726689
Si Si5 0.805932 0.056389 0.093322
Si Si6 0.616538 0.480488 0.770801
Si Si7 0.500000 0.000000 0.000000
Si Si8 0.275484 0.340096 0.820815
O O1 0.359576 0.173252 0.402381
O O2 0.528747 0.354950 0.692831
O O3 0.474626 0.359649 0.342150
O O4 0.663230 0.073725 0.515116
O O5 0.078184 0.218657 0.415869
O O6 0.201547 0.000613 0.138142
O O7 0.124280 0.328508 0.856821
O O8 0.797741 0.384205 0.739849
O O9 0.979914 0.326456 0.089450
O O10 0.037370 0.092400 0.802081
O O11 0.181577 0.473662 0.660474
O O12 0.190103 0.769211 0.819974
O O13 0.649269 0.047643 0.100336
O O14 0.649448 0.549965 0.996846
O O15 0.588653 0.844419 0.153952
#
# Coordination Sequence:
#
# PCOD9007765 Si02
#       8
#     2   2   2   2   2   2   1   2
#     4  10  19  26  44  74 107 133 146 182 245 293
#     4  10  18  31  47  77 105 122 152 193 245 295
#     4   9  16  29  50  74 100 124 150 199 252 285
#     4  10  17  29  52  74  96 125 157 203 250 283
#     4  10  19  32  51  73 100 128 157 201 242 286
#     4  10  17  29  46  75 102 126 159 188 234 295
#     4  10  22  34  46  72  98 128 162 194 256 288
#     4  10  19  32  51  73 100 128 157 202 242 284
#
# _framework density 27.902170000000002
#
# number of rings (size 3 to 8) (size 9 to 14) (size 15 to 20)
#    0.000    2.133    0.000    8.800    0.000    0.533 
#    0.000    0.000    0.000    0.000    0.000  117.600 
#    0.000    0.000    0.000    0.000    0.000    0.000 
#
# Total GULP energy -83690.708528 kJ/mol
# GULP energy per Si atom -5579.380569 kJ/mol
# Density = 2.783866 g / cm^3
# Si number density = 27.902170 Si / 1000 Ang^3
#
#
#
# Elastic Constant Matrix: (Units=GPa)
#
#
# Indices 1 2 3 4 5 6 
#
# 1 70.8494 59.6158 50.1767 6.4434 29.6443 11.5646
# 2 59.6158 266.0417 60.6081 -32.3176 21.4323 2.8896
# 3 50.1767 60.6081 56.8081 -4.0912 21.5653 -2.3159
# 4 6.4434 -32.3176 -4.0912 63.3706 1.0991 20.0675
# 5 29.6443 21.4323 21.5653 1.0991 35.9028 0.4330
# 6 11.5646 2.8896 -2.3159 20.0675 0.4330 37.8884
#
#
#
# Elastic Compliance Matrix: (Units=1/GPa)
#
#
# Indices 1 2 3 4 5 6 
#
# 1 0.056711 -0.001884 -0.041219 -0.003450 -0.020624 -0.017623
# 2 -0.001884 0.005539 -0.004390 0.003314 0.000807 -0.001880
# 3 -0.041219 -0.004390 0.059023 0.000621 0.000987 0.016184
# 4 -0.003450 0.003314 0.000621 0.021142 -0.000025 -0.010360
# 5 -0.020624 0.000807 0.000987 -0.000025 0.043738 0.005807
# 6 -0.017623 -0.001880 0.016184 -0.010360 0.005807 0.038325
#
#
# Mechanical properties :
#
#
# Convention : Reuss Voigt Hill
#
# Bulk Modulus (GPa) = 38.03901 81.61117 59.82509
# Shear Modulus (GPa) = 15.23332 42.31895 28.77613
#
# Velocity S-wave (km/s) = 2.33910 3.89870 3.21490
# Velocity P-wave (km/s) = 4.57797 7.04123 5.93872
#
# Compressibility (1/GPa) = 0.02628880
#
# Stress axis : x y z
#
# Youngs Moduli (GPa) = 17.63317 180.53484 16.94241
#
# Poissons Ratio (x) = 0.34014 0.69834
# Poissons Ratio (y) = 0.03322 0.07437
# Poissons Ratio (z) = 0.72682 0.79251
#
# Static dielectric constant tensor:
#      x y z
#    x 2.128600 0.011340 -0.031650 
#    y 0.011340 2.127490 -0.126530 
#    z -0.031650 -0.126530 2.260200 
# 
# From -- ./inp_files/251804.got.cif
#   From: 2010.05.17/outbox.cif.g08.bks.cpg/sg2_126_cif.got.tgz:251804.got - 2010.06.03 11:33:40.
