data_PCOD9007324
_publ_section_title
;
Structure prediction by ZEFSAII (Michael W. Deem and Ramdas Pophale) SiO2 
 PCOD9007324
Probable space group: P -1
;
_chemical_formula_sum "Si O2"
_cell_formula_units_Z 16
_cell_length_a 7.816564
_cell_length_b 17.823272
_cell_length_c 19.666260
_cell_angle_alpha 157.981648
_cell_angle_beta 125.207874
_cell_angle_gamma 65.053611
_cell_volume 780.377432
_symmetry_space_group_name_H-M "P -1"
_symmetry_group_IT_number 2
_symmetry_cell_setting 'triclinic'
loop_
_space_group_symop_operation_xyz
x,y,z
-x,-y,-z
loop_
_atom_site_type_symbol
_atom_site_label
_atom_site_fract_x
_atom_site_fract_y
_atom_site_fract_z
Si Si1 0.373470 0.267681 0.808700
Si Si2 0.917409 0.743094 0.905649
Si Si3 0.654149 0.982491 0.681084
Si Si4 0.896019 0.465663 0.345469
Si Si5 0.124104 0.373499 0.965457
Si Si6 0.721850 0.952626 0.530841
Si Si7 0.433400 0.549615 0.314132
Si Si8 0.769318 0.124726 0.152564
O O1 0.527937 0.136234 0.755658
O O2 0.260377 0.301117 0.879343
O O3 0.220429 0.146776 0.607848
O O4 0.500000 0.500000 0.000000
O O5 0.704899 0.585121 0.766880
O O6 0.014403 0.610438 0.765562
O O7 0.111183 0.872749 0.111866
O O8 0.858796 0.928798 0.009721
O O9 0.673410 0.844333 0.502554
O O10 0.511422 0.807089 0.555553
O O11 0.661286 0.502787 0.316141
O O12 0.833479 0.267651 0.218771
O O13 0.090377 0.688426 0.603800
O O14 0.925174 0.168129 0.774673
O O15 0.272637 0.488484 0.159841
O O16 0.000000 0.500000 0.000000
O O17 0.500000 0.000000 0.500000
O O18 0.500000 0.000000 0.000000
#
# Coordination Sequence:
#
# PCOD9007324 Si02
#       8
#     2   2   2   2   2   2   2   2
#     4  11  23  41  65  93 127 183 244 293 360 419
#     4  12  25  46  75 106 146 190 233 286 361 425
#     4  11  23  46  64  99 138 179 234 298 353 420
#     4  11  26  47  76 109 145 190 230 291 357 424
#     4  12  23  41  64  95 133 180 238 292 348 414
#     4  10  21  39  61  87 128 172 224 293 344 401
#     4  12  25  46  70 103 145 185 241 295 353 425
#     4  11  24  49  77 110 148 181 236 289 350 434
#
# _framework density 20.502897999999998
#
# number of rings (size 3 to 8) (size 9 to 14) (size 15 to 20)
#    0.000    0.750    3.750    5.250    0.000    1.500 
#    4.500    0.000    0.000    0.000    0.000    0.000 
#    0.000    0.000    0.000    0.000    0.000    0.000 
#
# Total GULP energy -89272.052273 kJ/mol
# GULP energy per Si atom -5579.503267 kJ/mol
# Density = 2.045623 g / cm^3
# Si number density = 20.502898 Si / 1000 Ang^3
#
#
#
# Elastic Constant Matrix: (Units=GPa)
#
#
# Indices 1 2 3 4 5 6 
#
# 1 110.2918 37.5300 33.0995 3.1658 8.2145 -0.1904
# 2 37.5300 104.4813 31.8147 17.4000 4.7050 -8.3058
# 3 33.0995 31.8147 88.8835 15.3382 32.2869 -1.8750
# 4 3.1658 17.4000 15.3382 42.1280 4.2000 2.6835
# 5 8.2145 4.7050 32.2869 4.2000 38.4795 2.3232
# 6 -0.1904 -8.3058 -1.8750 2.6835 2.3232 30.9002
#
#
#
# Elastic Compliance Matrix: (Units=1/GPa)
#
#
# Indices 1 2 3 4 5 6 
#
# 1 0.011181 -0.003358 -0.003664 0.001866 0.000973 -0.001291
# 2 -0.003358 0.012644 -0.003263 -0.004213 0.002164 0.003383
# 3 -0.003664 -0.003263 0.020145 -0.004298 -0.015365 0.001851
# 4 0.001866 -0.004213 -0.004298 0.027044 0.001001 -0.003806
# 5 0.000973 0.002164 -0.015365 0.001001 0.038499 -0.003326
# 6 -0.001291 0.003383 0.001851 -0.003806 -0.003326 0.033956
#
#
# Mechanical properties :
#
#
# Convention : Reuss Voigt Hill
#
# Bulk Modulus (GPa) = 42.73603 56.50500 49.62052
# Shear Modulus (GPa) = 29.09685 35.71573 32.40629
#
# Velocity S-wave (km/s) = 3.77126 4.17824 3.97995
# Velocity P-wave (km/s) = 6.31287 7.13416 6.73604
#
# Compressibility (1/GPa) = 0.02339946
#
# Stress axis : x y z
#
# Youngs Moduli (GPa) = 89.43857 79.08951 49.63985
#
# Poissons Ratio (x) = 0.26555 0.18190
# Poissons Ratio (y) = 0.30030 0.16198
# Poissons Ratio (z) = 0.32774 0.25808
#
# Static dielectric constant tensor:
#      x y z
#    x 1.825120 0.227000 0.089400 
#    y 0.227000 2.996840 0.616110 
#    z 0.089400 0.616110 2.085610 
# 
# From -- ./inp_files/591101.got.cif
#   From: 2010.05.17/outbox.cif.g08.bks.cpg/sg2_296_cif.got.tgz:591101.got - 2010.06.03 11:33:40.
