data_PCOD9007094
_publ_section_title
;
Structure prediction by ZEFSAII (Michael W. Deem and Ramdas Pophale) SiO2 
 PCOD9007094
Probable space group: P -1
;
_chemical_formula_sum "Si O2"
_cell_formula_units_Z 16
_cell_length_a 22.163566
_cell_length_b 16.406663
_cell_length_c 11.961083
_cell_angle_alpha 145.093570
_cell_angle_beta 150.465990
_cell_angle_gamma 17.011092
_cell_volume 625.099284
_symmetry_space_group_name_H-M "P -1"
_symmetry_group_IT_number 2
_symmetry_cell_setting 'triclinic'
loop_
_space_group_symop_operation_xyz
x,y,z
-x,-y,-z
loop_
_atom_site_type_symbol
_atom_site_label
_atom_site_fract_x
_atom_site_fract_y
_atom_site_fract_z
Si Si1 0.171440 0.845492 0.812186
Si Si2 0.484585 0.190435 0.391408
Si Si3 0.429830 0.372568 0.131164
Si Si4 0.285861 0.405485 0.550365
Si Si5 0.071045 0.079714 0.146274
Si Si6 0.673303 0.055486 0.958087
Si Si7 0.654963 0.443343 0.567467
Si Si8 0.084858 0.431547 0.931113
O O1 0.245204 0.613237 0.698936
O O2 0.191131 0.914969 0.036974
O O3 0.311908 0.795286 0.889636
O O4 0.897496 0.127668 0.645920
O O5 0.432460 0.204505 0.451587
O O6 0.748468 0.993364 0.582647
O O7 0.320260 0.492171 0.432434
O O8 0.365857 0.187816 0.119673
O O9 0.465292 0.507262 0.322570
O O10 0.429265 0.363977 0.253738
O O11 0.626946 0.101253 0.067035
O O12 0.172691 0.595539 0.914806
O O13 0.449043 0.218017 0.710764
O O14 0.027212 0.588110 0.338103
O O15 0.000000 0.000000 0.000000
O O16 0.919160 0.729893 0.956689
O O17 0.000000 0.500000 0.000000
#
# Coordination Sequence:
#
# PCOD9007094 Si02
#       8
#     2   2   2   2   2   2   2   2
#     4  11  23  37  69 104 130 168 222 283 331 387
#     4  11  21  40  65  92 134 173 225 262 336 390
#     4  10  23  36  60  98 133 171 211 267 344 386
#     4  11  24  40  66 103 133 171 219 280 337 385
#     4  11  21  38  61 100 140 169 210 276 337 395
#     4  12  22  43  69 101 132 168 228 284 326 391
#     4  10  21  39  59  99 135 174 205 277 332 394
#     4  10  25  44  65  99 134 180 217 278 334 390
#
# _framework density 25.595932999999999
#
# number of rings (size 3 to 8) (size 9 to 14) (size 15 to 20)
#    0.000    1.250    3.750    2.250    3.500    1.000 
#    0.000    0.000    0.000   15.750    0.000    0.000 
#    0.000    0.000    0.000    0.000    0.000    0.000 
#
# Total GULP energy -89496.762654 kJ/mol
# GULP energy per Si atom -5593.547666 kJ/mol
# Density = 2.553768 g / cm^3
# Si number density = 25.595933 Si / 1000 Ang^3
#
#
#
# Elastic Constant Matrix: (Units=GPa)
#
#
# Indices 1 2 3 4 5 6 
#
# 1 84.2189 13.7191 29.3717 5.4885 -4.7655 2.1314
# 2 13.7191 61.3627 36.7266 -1.4813 -1.9008 1.8190
# 3 29.3717 36.7266 178.5311 -41.0779 22.2483 -8.1544
# 4 5.4885 -1.4813 -41.0779 37.8750 -4.4630 1.8316
# 5 -4.7655 -1.9008 22.2483 -4.4630 41.9955 2.9844
# 6 2.1314 1.8190 -8.1544 1.8316 2.9844 35.8342
#
#
#
# Elastic Compliance Matrix: (Units=1/GPa)
#
#
# Indices 1 2 3 4 5 6 
#
# 1 0.013989 -0.000742 -0.003980 -0.005921 0.003151 -0.001660
# 2 -0.000742 0.019851 -0.005558 -0.004630 0.003429 -0.002277
# 3 -0.003980 -0.005558 0.010807 0.011302 -0.005430 0.002853
# 4 -0.005921 -0.004630 0.011302 0.038936 -0.002831 0.001405
# 5 0.003151 0.003429 -0.005430 -0.002831 0.027165 -0.003715
# 6 -0.001660 -0.002277 0.002853 0.001405 -0.003715 0.029007
#
#
# Mechanical properties :
#
#
# Convention : Reuss Voigt Hill
#
# Bulk Modulus (GPa) = 41.51558 53.74974 47.63266
# Shear Modulus (GPa) = 29.70123 39.42729 34.56426
#
# Velocity S-wave (km/s) = 3.41014 3.92902 3.67874
# Velocity P-wave (km/s) = 5.63562 6.45196 6.05756
#
# Compressibility (1/GPa) = 0.02408734
#
# Stress axis : x y z
#
# Youngs Moduli (GPa) = 71.48644 50.37507 92.53343
#
# Poissons Ratio (x) = 0.03737 0.36824
# Poissons Ratio (y) = 0.05303 0.51433
# Poissons Ratio (z) = 0.28448 0.28000
#
# Static dielectric constant tensor:
#      x y z
#    x 2.019680 -0.021270 0.035700 
#    y -0.021270 2.020210 -0.000730 
#    z 0.035700 -0.000730 2.044050 
# 
# From -- ./inp_files/475447.got.cif
#   From: 2010.05.17/outbox.cif.g08.bks.cpg/sg2_238_cif.got.tgz:475447.got - 2010.06.03 11:33:40.
