data_PCOD9007040
_publ_section_title
;
Structure prediction by ZEFSAII (Michael W. Deem and Ramdas Pophale) SiO2 
 PCOD9007040
Probable space group: P -1
;
_chemical_formula_sum "Si O2"
_cell_formula_units_Z 14
_cell_length_a 9.739354
_cell_length_b 11.167173
_cell_length_c 9.668509
_cell_angle_alpha 39.651969
_cell_angle_beta 74.967888
_cell_angle_gamma 91.690036
_cell_volume 601.582763
_symmetry_space_group_name_H-M "P -1"
_symmetry_group_IT_number 2
_symmetry_cell_setting 'triclinic'
loop_
_space_group_symop_operation_xyz
x,y,z
-x,-y,-z
loop_
_atom_site_type_symbol
_atom_site_label
_atom_site_fract_x
_atom_site_fract_y
_atom_site_fract_z
Si Si1 0.529455 0.579391 0.657174
Si Si2 0.248942 0.424809 0.199630
Si Si3 0.935949 0.425397 0.395764
Si Si4 0.264413 0.326036 0.751424
Si Si5 0.865137 0.085359 0.935650
Si Si6 0.282908 0.029314 0.629604
Si Si7 0.179465 0.645942 0.799034
O O1 0.588844 0.470401 0.858854
O O2 0.381752 0.459838 0.714727
O O3 0.663531 0.621622 0.467213
O O4 0.552203 0.800462 0.518872
O O5 0.210355 0.186259 0.445951
O O6 0.259414 0.500358 0.973025
O O7 0.110193 0.468809 0.268402
O O8 0.885761 0.617375 0.250480
O O9 0.827047 0.306541 0.402399
O O10 0.900627 0.290852 0.661573
O O11 0.239940 0.093030 0.980474
O O12 0.787133 0.069455 0.118492
O O13 0.000000 0.000000 0.000000
O O14 0.247774 0.849035 0.690915
O O15 0.000000 0.500000 0.000000
#
# Coordination Sequence:
#
# PCOD9007040 Si02
#       7
#     2   2   2   2   2   2   2
#     4   8  19  42  59  83 116 167 187 237 296 350
#     4   9  20  39  61  83 113 162 196 232 295 342
#     4  11  23  36  60  95 117 149 197 251 291 338
#     4  10  21  39  59  87 127 144 200 242 294 348
#     4  11  22  36  60  94 117 152 188 253 302 332
#     4   9  20  39  60  82 118 155 200 232 288 359
#     4  10  23  37  58  90 118 160 193 241 295 347
#
# _framework density 23.271944999999999
#
# number of rings (size 3 to 8) (size 9 to 14) (size 15 to 20)
#    0.857    1.429    1.429    0.000    6.000    4.571 
#    2.571    3.571    0.000    0.000    0.000    0.000 
#    0.000    0.000    0.000    0.000    0.000    0.000 
#
# Total GULP energy -78030.920766 kJ/mol
# GULP energy per Si atom -5573.637198 kJ/mol
# Density = 2.321898 g / cm^3
# Si number density = 23.271945 Si / 1000 Ang^3
#
#
#
# Elastic Constant Matrix: (Units=GPa)
#
#
# Indices 1 2 3 4 5 6 
#
# 1 76.0367 28.4708 19.4821 1.0446 17.3291 12.4961
# 2 28.4708 159.5386 45.7539 -11.8032 7.0220 21.8984
# 3 19.4821 45.7539 118.2785 1.7819 19.4298 9.4203
# 4 1.0446 -11.8032 1.7819 43.3515 5.6559 5.0710
# 5 17.3291 7.0220 19.4298 5.6559 30.9970 6.9793
# 6 12.4961 21.8984 9.4203 5.0710 6.9793 44.8791
#
#
#
# Elastic Compliance Matrix: (Units=1/GPa)
#
#
# Indices 1 2 3 4 5 6 
#
# 1 0.016198 -0.002103 -0.000385 0.000343 -0.007902 -0.002213
# 2 -0.002103 0.008007 -0.002753 0.002546 0.001353 -0.003241
# 3 -0.000385 -0.002753 0.010513 -0.000449 -0.005710 0.000183
# 4 0.000343 0.002546 -0.000449 0.024719 -0.004237 -0.003378
# 5 -0.007902 0.001353 -0.005710 -0.004237 0.041452 -0.003229
# 6 -0.002213 -0.003241 0.000183 -0.003378 -0.003229 0.025325
#
#
# Mechanical properties :
#
#
# Convention : Reuss Voigt Hill
#
# Bulk Modulus (GPa) = 41.26407 60.14083 50.70245
# Shear Modulus (GPa) = 34.53636 41.18866 37.86251
#
# Velocity S-wave (km/s) = 3.85650 4.21156 4.03793
# Velocity P-wave (km/s) = 6.13187 7.03906 6.60107
#
# Compressibility (1/GPa) = 0.02423416
#
# Stress axis : x y z
#
# Youngs Moduli (GPa) = 61.73770 124.89388 95.11672
#
# Poissons Ratio (x) = 0.26268 0.03665
# Poissons Ratio (y) = 0.12985 0.26189
# Poissons Ratio (z) = 0.02379 0.34387
#
# Static dielectric constant tensor:
#      x y z
#    x 1.982750 0.019610 -0.075510 
#    y 0.019610 1.927530 -0.007950 
#    z -0.075510 -0.007950 1.907890 
# 
# From -- ./inp_files/242114.got.cif
#   From: 2010.05.17/outbox.cif.g08.bks.cpg/sg2_122_cif.got.tgz:242114.got - 2010.06.03 11:33:40.
