data_PCOD9007919
_publ_section_title
;
Structure prediction by ZEFSAII (Michael W. Deem and Ramdas Pophale) SiO2 
 PCOD9007919
Probable space group: P -1
;
_chemical_formula_sum "Si O2"
_cell_formula_units_Z 12
_cell_length_a 9.225212
_cell_length_b 14.162601
_cell_length_c 9.405818
_cell_angle_alpha 67.745058
_cell_angle_beta 121.724379
_cell_angle_gamma 152.992650
_cell_volume 461.673947
_symmetry_space_group_name_H-M "P -1"
_symmetry_group_IT_number 2
_symmetry_cell_setting 'triclinic'
loop_
_space_group_symop_operation_xyz
x,y,z
-x,-y,-z
loop_
_atom_site_type_symbol
_atom_site_label
_atom_site_fract_x
_atom_site_fract_y
_atom_site_fract_z
Si Si1 0.327821 0.970345 0.559922
Si Si2 0.497969 0.768268 0.883942
Si Si3 0.817962 0.527966 0.592672
Si Si4 0.226891 0.150877 0.724106
Si Si5 0.710615 0.723520 0.779936
Si Si6 0.749873 0.120219 0.922505
O O1 0.030522 0.743493 0.613585
O O2 0.113233 0.952612 0.398045
O O3 0.500000 0.000000 0.500000
O O4 0.641784 0.148593 0.736162
O O5 0.675266 0.785999 0.853257
O O6 0.110855 0.593997 0.723322
O O7 0.668642 0.970088 0.885299
O O8 0.542211 0.737750 0.076651
O O9 0.497326 0.330537 0.642600
O O10 0.647493 0.460389 0.389912
O O11 0.035953 0.940486 0.728699
O O12 0.844835 0.684908 0.927917
O O13 0.500000 0.000000 0.000000
#
# Coordination Sequence:
#
# PCOD9007919 Si02
#       6
#     2   2   2   2   2   2
#     4  11  23  42  62  89 127 167 204 253 310 366
#     4  10  22  41  63  90 125 165 205 251 305 367
#     4  11  23  39  61  94 125 160 205 256 307 365
#     4  11  21  39  64  91 124 164 205 255 306 362
#     4  11  22  42  66  93 124 163 206 253 306 368
#     4  10  21  39  63  91 123 161 204 252 306 364
#
# _framework density 25.992369
#
# number of rings (size 3 to 8) (size 9 to 14) (size 15 to 20)
#    0.000    1.333    0.000    8.000    0.000    2.667 
#    0.000    8.333    0.000    0.000    0.000    0.000 
#    0.000    0.000    0.000    0.000    0.000    0.000 
#
# Total GULP energy -67174.149121 kJ/mol
# GULP energy per Si atom -5597.845760 kJ/mol
# Density = 2.593321 g / cm^3
# Si number density = 25.992369 Si / 1000 Ang^3
#
#
#
# Elastic Constant Matrix: (Units=GPa)
#
#
# Indices 1 2 3 4 5 6 
#
# 1 103.1313 12.2108 51.3287 19.6497 31.2146 15.6693
# 2 12.2108 67.9915 7.6169 9.9440 2.9660 -10.8207
# 3 51.3287 7.6169 214.9999 44.6822 30.9629 15.6827
# 4 19.6497 9.9440 44.6822 35.1227 14.6362 7.4095
# 5 31.2146 2.9660 30.9629 14.6362 52.4421 8.5820
# 6 15.6693 -10.8207 15.6827 7.4095 8.5820 37.9672
#
#
#
# Elastic Compliance Matrix: (Units=1/GPa)
#
#
# Indices 1 2 3 4 5 6 
#
# 1 0.013463 -0.002391 -0.001707 -0.001424 -0.005828 -0.003937
# 2 -0.002391 0.016948 0.000625 -0.005921 0.000674 0.006562
# 3 -0.001707 0.000625 0.006707 -0.007328 -0.000892 -0.000256
# 4 -0.001424 -0.005921 -0.007328 0.043826 -0.005854 -0.005302
# 5 -0.005828 0.000674 -0.000892 -0.005854 0.024909 -0.001522
# 6 -0.003937 0.006562 -0.000256 -0.005302 -0.001522 0.031318
#
#
# Mechanical properties :
#
#
# Convention : Reuss Voigt Hill
#
# Bulk Modulus (GPa) = 33.14246 58.71506 45.92876
# Shear Modulus (GPa) = 32.43120 46.10414 39.26767
#
# Velocity S-wave (km/s) = 3.53614 4.21617 3.89104
# Velocity P-wave (km/s) = 5.42687 6.80734 6.15592
#
# Compressibility (1/GPa) = 0.03017277
#
# Stress axis : x y z
#
# Youngs Moduli (GPa) = 74.28035 59.00422 149.10579
#
# Poissons Ratio (x) = 0.14105 0.25449
# Poissons Ratio (y) = 0.17757 -0.09322
# Poissons Ratio (z) = 0.12678 -0.03689
#
# Static dielectric constant tensor:
#      x y z
#    x 2.031880 0.010400 0.018590 
#    y 0.010400 2.076070 0.029350 
#    z 0.018590 0.029350 2.147940 
# 
# From -- ./inp_files/147775.got.cif
#   From: 2010.05.17/outbox.cif.g08.bks.cpg/sg2_74_cif.got.tgz:147775.got - 2010.06.03 11:33:40.
