data_PCOD9007320
_publ_section_title
;
Structure prediction by ZEFSAII (Michael W. Deem and Ramdas Pophale) SiO2 
 PCOD9007320
Probable space group: P -1
;
_chemical_formula_sum "Si O2"
_cell_formula_units_Z 16
_cell_length_a 18.856083
_cell_length_b 6.593330
_cell_length_c 10.044080
_cell_angle_alpha 43.853083
_cell_angle_beta 109.678471
_cell_angle_gamma 114.960502
_cell_volume 783.279897
_symmetry_space_group_name_H-M "P -1"
_symmetry_group_IT_number 2
_symmetry_cell_setting 'triclinic'
loop_
_space_group_symop_operation_xyz
x,y,z
-x,-y,-z
loop_
_atom_site_type_symbol
_atom_site_label
_atom_site_fract_x
_atom_site_fract_y
_atom_site_fract_z
Si Si1 0.758467 0.899206 0.911376
Si Si2 0.660404 0.504229 0.261841
Si Si3 0.110471 0.288511 0.026627
Si Si4 0.114010 0.535114 0.193876
Si Si5 0.736017 0.533812 0.566659
Si Si6 0.389739 0.205286 0.495195
Si Si7 0.520817 0.705428 0.209436
Si Si8 0.003154 0.389012 0.704633
O O1 0.700759 0.658978 0.080506
O O2 0.800720 0.740276 0.904632
O O3 0.836464 0.110013 0.933777
O O4 0.718533 0.164518 0.722300
O O5 0.720345 0.625381 0.364490
O O6 0.582658 0.602038 0.204458
O O7 0.640266 0.141177 0.406720
O O8 0.087261 0.417159 0.811752
O O9 0.096625 0.469749 0.060842
O O10 0.048522 0.961044 0.162527
O O11 0.175940 0.363631 0.371102
O O12 0.042425 0.464954 0.283740
O O13 0.679246 0.647793 0.574803
O O14 0.444763 0.422911 0.319348
O O15 0.439821 0.214325 0.658121
O O16 0.500000 0.000000 0.000000
O O17 0.000000 0.500000 0.500000
#
# Coordination Sequence:
#
# PCOD9007320 Si02
#       8
#     2   2   2   2   2   2   2   2
#     4   9  22  37  58  88 122 156 202 246 301 363
#     4  11  22  38  62  90 120 158 201 252 299 360
#     4  10  21  39  61  87 123 158 206 250 300 363
#     4   9  21  41  60  86 125 160 196 252 304 357
#     4   9  22  38  57  87 122 153 201 247 300 361
#     4  10  22  38  60  89 120 154 202 252 296 359
#     4  10  22  40  60  87 121 157 202 247 300 360
#     4  10  22  39  61  90 120 158 205 254 301 361
#
# _framework density 20.426926000000002
#
# number of rings (size 3 to 8) (size 9 to 14) (size 15 to 20)
#    0.750    1.500    0.000    1.500    3.500    4.000 
#    2.250    0.000    0.000    0.000    0.000    0.000 
#    0.000    0.000    0.000    0.000    0.000    0.000 
#
# Total GULP energy -89181.196878 kJ/mol
# GULP energy per Si atom -5573.824805 kJ/mol
# Density = 2.038043 g / cm^3
# Si number density = 20.426926 Si / 1000 Ang^3
#
#
#
# Elastic Constant Matrix: (Units=GPa)
#
#
# Indices 1 2 3 4 5 6 
#
# 1 83.4935 22.9414 36.0374 -6.3157 10.4348 -28.2639
# 2 22.9414 52.0550 20.3041 8.5577 -0.8842 -22.3163
# 3 36.0374 20.3041 90.7057 -4.9360 2.6316 -18.2987
# 4 -6.3157 8.5577 -4.9360 20.6209 -1.3168 -2.2965
# 5 10.4348 -0.8842 2.6316 -1.3168 32.5967 2.4086
# 6 -28.2639 -22.3163 -18.2987 -2.2965 2.4086 20.5261
#
#
#
# Elastic Compliance Matrix: (Units=1/GPa)
#
#
# Indices 1 2 3 4 5 6 
#
# 1 0.030438 0.007065 -0.002680 0.010497 -0.012596 0.049857
# 2 0.007065 0.040414 -0.001821 -0.009633 -0.005219 0.051579
# 3 -0.002680 -0.001821 0.014280 0.004154 -0.000739 0.007612
# 4 0.010497 -0.009633 0.004154 0.058145 -0.002680 0.014504
# 5 -0.012596 -0.005219 -0.000739 -0.002680 0.036609 -0.028272
# 6 0.049857 0.051579 0.007612 0.014504 -0.028272 0.185174
#
#
# Mechanical properties :
#
#
# Convention : Reuss Voigt Hill
#
# Bulk Modulus (GPa) = 11.07896 42.75777 26.91837
# Shear Modulus (GPa) = 12.81989 24.54683 18.68336
#
# Velocity S-wave (km/s) = 2.50791 3.47030 3.02759
# Velocity P-wave (km/s) = 3.71774 6.08562 5.04264
#
# Compressibility (1/GPa) = 0.09026116
#
# Stress axis : x y z
#
# Youngs Moduli (GPa) = 32.85371 24.74377 70.02752
#
# Poissons Ratio (x) = -0.17482 0.18766
# Poissons Ratio (y) = -0.23212 0.12752
# Poissons Ratio (z) = 0.08804 0.04506
#
# Static dielectric constant tensor:
#      x y z
#    x 1.749300 -0.009120 0.051690 
#    y -0.009120 1.738340 0.004500 
#    z 0.051690 0.004500 1.716940 
# 
# From -- ./inp_files/339588.got.cif
#   From: 2010.05.17/outbox.cif.g08.bks.cpg/sg2_170_cif.got.tgz:339588.got - 2010.06.03 11:33:40.
