data_PCOD9007780
_publ_section_title
;
Structure prediction by ZEFSAII (Michael W. Deem and Ramdas Pophale) SiO2 
 PCOD9007780
Probable space group: P -1
;
_chemical_formula_sum "Si O2"
_cell_formula_units_Z 16
_cell_length_a 9.585525
_cell_length_b 10.569290
_cell_length_c 10.021486
_cell_angle_alpha 89.018819
_cell_angle_beta 80.136291
_cell_angle_gamma 138.570639
_cell_volume 645.177684
_symmetry_space_group_name_H-M "P -1"
_symmetry_group_IT_number 2
_symmetry_cell_setting 'triclinic'
loop_
_space_group_symop_operation_xyz
x,y,z
-x,-y,-z
loop_
_atom_site_type_symbol
_atom_site_label
_atom_site_fract_x
_atom_site_fract_y
_atom_site_fract_z
Si Si1 0.967754 0.122217 0.040216
Si Si2 0.760564 0.702753 0.449550
Si Si3 0.220803 0.873406 0.703745
Si Si4 0.623888 0.197455 0.786314
Si Si5 0.799850 0.459926 0.516931
Si Si6 0.852328 0.106555 0.784123
Si Si7 0.380783 0.130987 0.430652
Si Si8 0.870537 0.509557 0.928088
O O1 0.812114 0.063635 0.947303
O O2 0.870511 0.064255 0.206020
O O3 0.146345 0.359892 0.010655
O O4 0.000000 0.000000 0.000000
O O5 0.500000 0.500000 0.500000
O O6 0.854475 0.645886 0.517031
O O7 0.762062 0.845957 0.498743
O O8 0.905251 0.781929 0.291511
O O9 0.026209 0.642603 0.769754
O O10 0.418663 0.975428 0.771969
O O11 0.305852 0.962536 0.541294
O O12 0.638913 0.311644 0.666131
O O13 0.825795 0.236876 0.755799
O O14 0.651717 0.293996 0.915805
O O15 0.639025 0.328800 0.417233
O O16 0.000000 0.500000 0.500000
O O17 0.686645 0.929317 0.710442
O O18 0.000000 0.500000 0.000000
#
# Coordination Sequence:
#
# PCOD9007780 Si02
#       8
#     2   2   2   2   2   2   2   2
#     4  10  23  44  68  96 134 182 229 282 340 416
#     4  10  22  41  60  91 136 178 221 282 345 408
#     4   9  23  43  67  96 143 171 225 286 343 410
#     4  11  22  40  65 102 132 180 227 280 349 406
#     4  10  21  39  62  96 138 172 225 283 341 411
#     4  12  23  38  69  97 131 176 237 276 336 421
#     4  10  23  41  66  99 135 181 225 286 354 402
#     4  10  22  41  67  92 132 183 219 279 345 397
#
# _framework density 24.79937
#
# number of rings (size 3 to 8) (size 9 to 14) (size 15 to 20)
#    0.750    1.000    2.500    1.125    1.750    6.000 
#    0.000    3.125    0.000    0.000    0.000    0.000 
#    0.000    0.000    0.000    0.000    0.000    0.000 
#
# Total GULP energy -89150.427935 kJ/mol
# GULP energy per Si atom -5571.901746 kJ/mol
# Density = 2.474293 g / cm^3
# Si number density = 24.799370 Si / 1000 Ang^3
#
#
#
# Elastic Constant Matrix: (Units=GPa)
#
#
# Indices 1 2 3 4 5 6 
#
# 1 113.9544 37.5706 -5.8386 1.1896 -6.3844 -16.9578
# 2 37.5706 96.1510 13.3353 23.2719 4.4970 15.2461
# 3 -5.8386 13.3353 50.9316 23.2304 18.2598 -3.4113
# 4 1.1896 23.2719 23.2304 40.6446 -3.3225 8.5700
# 5 -6.3844 4.4970 18.2598 -3.3225 38.3482 1.8388
# 6 -16.9578 15.2461 -3.4113 8.5700 1.8388 51.6500
#
#
#
# Elastic Compliance Matrix: (Units=1/GPa)
#
#
# Indices 1 2 3 4 5 6 
#
# 1 0.011831 -0.006076 0.002695 0.000478 0.001165 0.005735
# 2 -0.006076 0.015669 -0.000671 -0.007530 -0.002927 -0.005311
# 3 0.002695 -0.000671 0.040486 -0.026469 -0.021471 0.008913
# 4 0.000478 -0.007530 -0.026469 0.047155 0.018027 -0.007834
# 5 0.001165 -0.002927 -0.021471 0.018027 0.038617 -0.004537
# 6 0.005735 -0.005311 0.008913 -0.007834 -0.004537 0.024862
#
#
# Mechanical properties :
#
#
# Convention : Reuss Voigt Hill
#
# Bulk Modulus (GPa) = 16.69936 39.01906 27.85921
# Shear Modulus (GPa) = 24.19148 40.52655 32.35901
#
# Velocity S-wave (km/s) = 3.12667 4.04688 3.61616
# Velocity P-wave (km/s) = 4.44782 6.13224 5.35666
#
# Compressibility (1/GPa) = 0.05988254
#
# Stress axis : x y z
#
# Youngs Moduli (GPa) = 84.52670 63.81973 24.69966
#
# Poissons Ratio (x) = 0.38778 -0.06657
# Poissons Ratio (y) = 0.51360 0.01657
# Poissons Ratio (z) = -0.22783 0.04282
#
# Static dielectric constant tensor:
#      x y z
#    x 2.025240 0.010220 -0.035460 
#    y 0.010220 2.078950 -0.010870 
#    z -0.035460 -0.010870 2.038680 
# 
# From -- ./inp_files/387589.got.cif
#   From: 2010.05.17/outbox.cif.g08.bks.cpg/sg2_194_cif.got.tgz:387589.got - 2010.06.03 11:33:40.
