data_PCOD9007574
_publ_section_title
;
Structure prediction by ZEFSAII (Michael W. Deem and Ramdas Pophale) SiO2 
 PCOD9007574
Probable space group: P -1
;
_chemical_formula_sum "Si O2"
_cell_formula_units_Z 16
_cell_length_a 5.426477
_cell_length_b 7.559634
_cell_length_c 21.179910
_cell_angle_alpha 115.723068
_cell_angle_beta 99.246224
_cell_angle_gamma 62.659237
_cell_volume 694.493683
_symmetry_space_group_name_H-M "P -1"
_symmetry_group_IT_number 2
_symmetry_cell_setting 'triclinic'
loop_
_space_group_symop_operation_xyz
x,y,z
-x,-y,-z
loop_
_atom_site_type_symbol
_atom_site_label
_atom_site_fract_x
_atom_site_fract_y
_atom_site_fract_z
Si Si1 0.638317 0.653020 0.968863
Si Si2 0.968911 0.253340 0.094852
Si Si3 0.338452 0.482923 0.427517
Si Si4 0.382304 0.707447 0.334617
Si Si5 0.335568 0.803144 0.103736
Si Si6 0.343438 0.322806 0.777123
Si Si7 0.770743 0.829252 0.449302
Si Si8 0.186918 0.987942 0.641238
O O1 0.820353 0.741283 0.949667
O O2 0.762316 0.390024 0.930779
O O3 0.324194 0.727611 0.940766
O O4 0.585332 0.727023 0.050798
O O5 0.894909 0.464305 0.168388
O O6 0.110363 0.033858 0.106775
O O7 0.500000 0.500000 0.500000
O O8 0.306180 0.594813 0.373140
O O9 0.534482 0.233738 0.376954
O O10 0.019172 0.623861 0.458970
O O11 0.489881 0.599639 0.254748
O O12 0.645587 0.721456 0.377547
O O13 0.134880 0.948626 0.346083
O O14 0.452202 0.807209 0.178170
O O15 0.232641 0.167413 0.713117
O O16 0.500000 0.000000 0.500000
O O17 0.854061 0.980276 0.431546
#
# Coordination Sequence:
#
# PCOD9007574 Si02
#       8
#     2   2   2   2   2   2   2   2
#     4  10  24  44  68 106 141 180 242 304 349 427
#     4  11  24  44  70 101 143 184 241 296 362 417
#     4  11  23  39  67  99 121 170 224 273 343 416
#     4  10  23  42  58  87 131 164 212 276 332 404
#     4  10  23  43  70 100 138 187 235 293 362 418
#     4  10  25  42  61  93 127 178 225 275 343 425
#     4  10  21  39  62  88 126 158 203 271 328 397
#     4  10  23  41  61  87 130 167 215 274 336 408
#
# _framework density 23.038367000000001
#
# number of rings (size 3 to 8) (size 9 to 14) (size 15 to 20)
#    0.000    1.750    0.000    2.250    3.500   16.500 
#    0.000    0.000    0.000    0.000    0.000    0.000 
#    0.000    0.000    0.000    0.000    0.000    0.000 
#
# Total GULP energy -89089.918591 kJ/mol
# GULP energy per Si atom -5568.119912 kJ/mol
# Density = 2.298593 g / cm^3
# Si number density = 23.038367 Si / 1000 Ang^3
#
#
#
# Elastic Constant Matrix: (Units=GPa)
#
#
# Indices 1 2 3 4 5 6 
#
# 1 79.1581 47.9562 35.4133 -10.3440 -5.9181 -26.4065
# 2 47.9562 174.6823 48.0152 -11.3265 8.3904 -27.5263
# 3 35.4133 48.0152 127.9577 -15.5700 -8.7419 -9.9726
# 4 -10.3440 -11.3265 -15.5700 34.7259 2.1383 -2.5364
# 5 -5.9181 8.3904 -8.7419 2.1383 29.4966 -6.9852
# 6 -26.4065 -27.5263 -9.9726 -2.5364 -6.9852 36.5549
#
#
#
# Elastic Compliance Matrix: (Units=1/GPa)
#
#
# Indices 1 2 3 4 5 6 
#
# 1 0.021627 -0.002981 -0.002639 0.004880 0.007467 0.014424
# 2 -0.002981 0.007696 -0.001909 0.001133 -0.002804 0.002663
# 3 -0.002639 -0.001909 0.009794 0.002818 0.002722 0.000044
# 4 0.004880 0.001133 0.002818 0.032379 0.000938 0.007574
# 5 0.007467 -0.002804 0.002722 0.000938 0.039702 0.011677
# 6 0.014424 0.002663 0.000044 0.007574 0.011677 0.042550
#
#
# Mechanical properties :
#
#
# Convention : Reuss Voigt Hill
#
# Bulk Modulus (GPa) = 41.56391 71.61862 56.59127
# Shear Modulus (GPa) = 28.27641 36.84972 32.56306
#
# Velocity S-wave (km/s) = 3.50717 4.00371 3.76364
# Velocity P-wave (km/s) = 5.87203 7.24755 6.59575
#
# Compressibility (1/GPa) = 0.02405933
#
# Stress axis : x y z
#
# Youngs Moduli (GPa) = 46.23783 129.94236 102.10385
#
# Poissons Ratio (x) = 0.38742 0.26941
# Poissons Ratio (y) = 0.13786 0.19489
# Poissons Ratio (z) = 0.12200 0.24803
#
# Static dielectric constant tensor:
#      x y z
#    x 1.977560 0.087020 -0.124550 
#    y 0.087020 1.902440 -0.008220 
#    z -0.124550 -0.008220 1.947210 
# 
# From -- ./inp_files/141387.got.cif
#   From: 2010.05.17/outbox.cif.g08.bks.cpg/sg2_71_cif.got.tgz:141387.got - 2010.06.03 11:33:40.
