data_PCOD9007467
_publ_section_title
;
Structure prediction by ZEFSAII (Michael W. Deem and Ramdas Pophale) SiO2 
 PCOD9007467
Probable space group: P -1
;
_chemical_formula_sum "Si O2"
_cell_formula_units_Z 16
_cell_length_a 9.279121
_cell_length_b 11.733708
_cell_length_c 12.994845
_cell_angle_alpha 95.712978
_cell_angle_beta 30.587120
_cell_angle_gamma 86.683582
_cell_volume 686.980074
_symmetry_space_group_name_H-M "P -1"
_symmetry_group_IT_number 2
_symmetry_cell_setting 'triclinic'
loop_
_space_group_symop_operation_xyz
x,y,z
-x,-y,-z
loop_
_atom_site_type_symbol
_atom_site_label
_atom_site_fract_x
_atom_site_fract_y
_atom_site_fract_z
Si Si1 0.473046 0.767223 0.541006
Si Si2 0.834322 0.605075 0.719019
Si Si3 0.001900 0.662127 0.334169
Si Si4 0.182194 0.069855 0.011763
Si Si5 0.488762 0.621597 0.317128
Si Si6 0.473312 0.762956 0.137089
Si Si7 0.707341 0.364657 0.072779
Si Si8 0.127075 0.116886 0.819433
O O1 0.126967 0.826340 0.773888
O O2 0.529217 0.665188 0.410109
O O3 0.625653 0.864150 0.408254
O O4 0.657194 0.713466 0.524210
O O5 0.891449 0.463280 0.684132
O O6 0.611070 0.647902 0.765937
O O7 0.145162 0.629745 0.518825
O O8 0.679449 0.671517 0.922072
O O9 0.147104 0.757521 0.305283
O O10 0.146704 0.630517 0.128679
O O11 0.094110 0.954268 0.095295
O O12 0.440934 0.113628 0.908336
O O13 0.248448 0.054754 0.847210
O O14 0.546031 0.709394 0.202048
O O15 0.667797 0.486049 0.169992
O O16 0.921570 0.249344 0.981933
#
# Coordination Sequence:
#
# PCOD9007467 Si02
#       8
#     2   2   2   2   2   2   2   2
#     4  11  24  40  63  99 125 159 209 261 307 370
#     4  11  21  38  60  94 131 168 196 250 322 375
#     4  10  22  39  61  92 135 164 197 253 320 370
#     4  11  23  44  67  86 126 169 213 254 308 363
#     4  12  22  35  66  95 128 161 201 259 314 374
#     4  11  21  41  63  91 127 165 207 253 309 374
#     4  10  21  39  61  95 128 160 207 255 310 372
#     4  10  24  42  66  89 122 170 211 259 302 362
#
# _framework density 23.290341999999999
#
# number of rings (size 3 to 8) (size 9 to 14) (size 15 to 20)
#    0.000    1.250    5.000    1.500    1.750    3.500 
#    0.000    5.625    0.000    2.250    0.000    0.000 
#    0.000    0.000    0.000    0.000    0.000    0.000 
#
# Total GULP energy -89526.531423 kJ/mol
# GULP energy per Si atom -5595.408214 kJ/mol
# Density = 2.323733 g / cm^3
# Si number density = 23.290342 Si / 1000 Ang^3
#
#
#
# Elastic Constant Matrix: (Units=GPa)
#
#
# Indices 1 2 3 4 5 6 
#
# 1 96.1902 18.2489 20.9518 -14.4893 -5.5649 11.3249
# 2 18.2489 60.2223 -2.4122 -21.0939 -8.8172 20.9687
# 3 20.9518 -2.4122 47.3228 -9.2360 -3.8333 5.4790
# 4 -14.4893 -21.0939 -9.2360 34.6154 3.0111 -5.6991
# 5 -5.5649 -8.8172 -3.8333 3.0111 26.1569 -10.7222
# 6 11.3249 20.9687 5.4790 -5.6991 -10.7222 35.9728
#
#
#
# Elastic Compliance Matrix: (Units=1/GPa)
#
#
# Indices 1 2 3 4 5 6 
#
# 1 0.012501 -0.002933 -0.005176 0.001867 0.000261 -0.001064
# 2 -0.002933 0.028358 0.007573 0.015618 0.002724 -0.013474
# 3 -0.005176 0.007573 0.026199 0.008453 0.002380 -0.004726
# 4 0.001867 0.015618 0.008453 0.040681 0.000409 -0.004412
# 5 0.000261 0.002724 0.002380 0.000409 0.044086 0.011173
# 6 -0.001064 -0.013474 -0.004726 -0.004412 0.011173 0.039339
#
#
# Mechanical properties :
#
#
# Convention : Reuss Voigt Hill
#
# Bulk Modulus (GPa) = 15.15451 30.81250 22.98351
# Shear Modulus (GPa) = 23.33918 30.47880 26.90899
#
# Velocity S-wave (km/s) = 3.16903 3.62144 3.40276
# Velocity P-wave (km/s) = 4.46220 5.54481 5.03270
#
# Compressibility (1/GPa) = 0.06598695
#
# Stress axis : x y z
#
# Youngs Moduli (GPa) = 79.99076 35.26329 38.16955
#
# Poissons Ratio (x) = 0.10343 0.19755
# Poissons Ratio (y) = 0.23461 -0.28906
# Poissons Ratio (z) = 0.41401 -0.26705
#
# Static dielectric constant tensor:
#      x y z
#    x 1.870960 0.007050 0.002540 
#    y 0.007050 1.888170 -0.039120 
#    z 0.002540 -0.039120 1.914400 
# 
# From -- ./inp_files/294172.got.cif
#   From: 2010.05.17/outbox.cif.g08.bks.cpg/sg2_148_cif.got.tgz:294172.got - 2010.06.03 11:33:40.
