data_PCOD9007634
_publ_section_title
;
Structure prediction by ZEFSAII (Michael W. Deem and Ramdas Pophale) SiO2 
 PCOD9007634
Probable space group: P -1
;
_chemical_formula_sum "Si O2"
_cell_formula_units_Z 16
_cell_length_a 16.889285
_cell_length_b 13.638401
_cell_length_c 7.433627
_cell_angle_alpha 83.911099
_cell_angle_beta 101.757065
_cell_angle_gamma 152.968791
_cell_volume 750.836585
_symmetry_space_group_name_H-M "P -1"
_symmetry_group_IT_number 2
_symmetry_cell_setting 'triclinic'
loop_
_space_group_symop_operation_xyz
x,y,z
-x,-y,-z
loop_
_atom_site_type_symbol
_atom_site_label
_atom_site_fract_x
_atom_site_fract_y
_atom_site_fract_z
Si Si1 0.307875 0.994177 0.575887
Si Si2 0.060732 0.171237 0.224896
Si Si3 0.456047 0.567548 0.477412
Si Si4 0.995242 0.660076 0.779817
Si Si5 0.565073 0.713577 0.893251
Si Si6 0.220991 0.242592 0.962482
Si Si7 0.738604 0.101545 0.856549
Si Si8 0.596359 0.146273 0.693555
O O1 0.396484 0.200021 0.592105
O O2 0.462291 0.087381 0.698422
O O3 0.132054 0.788569 0.655200
O O4 0.260539 0.919873 0.355820
O O5 0.252312 0.359689 0.363547
O O6 0.009681 0.227617 0.219520
O O7 0.102915 0.189168 0.033569
O O8 0.894889 0.915780 0.235497
O O9 0.500000 0.500000 0.500000
O O10 0.467315 0.615057 0.677658
O O11 0.794134 0.404819 0.697253
O O12 0.071632 0.694361 0.992290
O O13 0.413117 0.504185 0.989894
O O14 0.637707 0.899021 0.938850
O O15 0.721999 0.803332 0.926825
O O16 0.635157 0.091420 0.840336
O O17 0.500000 0.000000 0.500000
#
# Coordination Sequence:
#
# PCOD9007634 Si02
#       8
#     2   2   2   2   2   2   2   2
#     4  10  25  44  68  98 135 174 218 279 327 388
#     4  11  23  39  61  94 132 169 221 266 320 393
#     4  11  22  39  61  90 130 170 212 271 321 387
#     4  12  24  44  72  97 131 180 220 268 340 395
#     4  10  21  39  62  90 125 172 218 260 330 389
#     4  10  22  39  62  92 132 175 209 273 323 388
#     4  10  23  43  68  98 132 170 226 279 323 395
#     4  10  23  47  70  98 137 169 221 285 330 387
#
# _framework density 21.309564999999999
#
# number of rings (size 3 to 8) (size 9 to 14) (size 15 to 20)
#    0.000    1.500    3.750    0.375    3.500    3.000 
#    2.250    3.750    0.000    0.000    0.000    0.000 
#    0.000    0.000    0.000    0.000    0.000    0.000 
#
# Total GULP energy -89211.784146 kJ/mol
# GULP energy per Si atom -5575.736509 kJ/mol
# Density = 2.126106 g / cm^3
# Si number density = 21.309565 Si / 1000 Ang^3
#
#
#
# Elastic Constant Matrix: (Units=GPa)
#
#
# Indices 1 2 3 4 5 6 
#
# 1 130.2417 70.3818 24.7150 -6.7649 21.8171 1.8078
# 2 70.3818 116.8637 34.9414 20.3306 7.9844 -2.6861
# 3 24.7150 34.9414 77.9327 25.7642 10.8967 11.4536
# 4 -6.7649 20.3306 25.7642 36.7019 -1.4867 6.1709
# 5 21.8171 7.9844 10.8967 -1.4867 25.7924 10.1006
# 6 1.8078 -2.6861 11.4536 6.1709 10.1006 32.5023
#
#
#
# Elastic Compliance Matrix: (Units=1/GPa)
#
#
# Indices 1 2 3 4 5 6 
#
# 1 0.015137 -0.009433 -0.002548 0.009460 -0.008284 0.000055
# 2 -0.009433 0.016564 -0.001849 -0.010235 0.001463 0.004034
# 3 -0.002548 -0.001849 0.020015 -0.013228 -0.005360 -0.002887
# 4 0.009460 -0.010235 -0.013228 0.045419 0.006219 -0.007267
# 5 -0.008284 0.001463 -0.005360 0.006219 0.054017 -0.015497
# 6 0.000055 0.004034 -0.002887 -0.007267 -0.015497 0.038310
#
#
# Mechanical properties :
#
#
# Convention : Reuss Voigt Hill
#
# Bulk Modulus (GPa) = 41.56791 65.01271 53.29031
# Shear Modulus (GPa) = 22.20808 31.99930 27.10369
#
# Velocity S-wave (km/s) = 3.23176 3.87930 3.57024
# Velocity P-wave (km/s) = 5.78574 7.11620 6.48518
#
# Compressibility (1/GPa) = 0.02405702
#
# Stress axis : x y z
#
# Youngs Moduli (GPa) = 66.06150 60.37086 49.96137
#
# Poissons Ratio (x) = 0.56948 0.12732
# Poissons Ratio (y) = 0.62317 0.09236
# Poissons Ratio (z) = 0.16834 0.11161
#
# Static dielectric constant tensor:
#      x y z
#    x 1.764690 0.007570 0.000120 
#    y 0.007570 1.889600 0.001400 
#    z 0.000120 0.001400 1.838410 
# 
# From -- ./inp_files/307389.got.cif
#   From: 2010.05.17/outbox.cif.g08.bks.cpg/sg2_154_cif.got.tgz:307389.got - 2010.06.03 11:33:40.
