data_PCOD9007026
_publ_section_title
;
Structure prediction by ZEFSAII (Michael W. Deem and Ramdas Pophale) SiO2 
 PCOD9007026
Probable space group: P -1
;
_chemical_formula_sum "Si O2"
_cell_formula_units_Z 16
_cell_length_a 26.010286
_cell_length_b 5.218040
_cell_length_c 9.164424
_cell_angle_alpha 91.095640
_cell_angle_beta 52.715396
_cell_angle_gamma 59.911189
_cell_volume 756.293568
_symmetry_space_group_name_H-M "P -1"
_symmetry_group_IT_number 2
_symmetry_cell_setting 'triclinic'
loop_
_space_group_symop_operation_xyz
x,y,z
-x,-y,-z
loop_
_atom_site_type_symbol
_atom_site_label
_atom_site_fract_x
_atom_site_fract_y
_atom_site_fract_z
Si Si1 0.459009 0.983469 0.928489
Si Si2 0.980897 0.616859 0.365413
Si Si3 0.523568 0.730118 0.336724
Si Si4 0.269426 0.733700 0.567022
Si Si5 0.084083 0.420017 0.916751
Si Si6 0.598719 0.353273 0.477857
Si Si7 0.699123 0.859579 0.666937
Si Si8 0.887460 0.349835 0.404602
O O1 0.424508 0.293487 0.886276
O O2 0.531379 0.672588 0.700972
O O3 0.385060 0.983786 0.098953
O O4 0.500000 0.000000 0.000000
O O5 0.934303 0.479357 0.388318
O O6 0.000000 0.500000 0.500000
O O7 0.922771 0.008309 0.421346
O O8 0.064345 0.474406 0.123983
O O9 0.579890 0.402504 0.337330
O O10 0.434372 0.848034 0.432548
O O11 0.500000 0.000000 0.500000
O O12 0.313556 0.735161 0.636552
O O13 0.291285 0.391290 0.475011
O O14 0.169119 0.039485 0.743509
O O15 0.305127 0.848067 0.390661
O O16 0.096907 0.645559 0.798895
O O17 0.000000 0.500000 0.000000
O O18 0.786891 0.617596 0.600391
#
# Coordination Sequence:
#
# PCOD9007026 Si02
#       8
#     2   2   2   2   2   2   2   2
#     4  11  21  36  61  90 120 161 209 259 311 361
#     4  11  22  40  65  94 126 157 207 260 317 367
#     4   9  21  39  58  80 119 167 205 250 310 376
#     4  11  23  38  62  93 123 157 209 261 302 374
#     4   9  20  40  66  90 119 168 207 248 314 380
#     4  10  21  39  59  85 124 165 209 254 313 372
#     4  11  23  38  61  95 123 158 206 260 309 356
#     4  10  21  41  63  88 127 165 201 254 307 387
#
# _framework density 21.155805000000001
#
# number of rings (size 3 to 8) (size 9 to 14) (size 15 to 20)
#    0.000    1.750    1.250    3.750    3.500    4.000 
#    2.250    2.500    0.000    0.000    0.000    0.000 
#    0.000    0.000    0.000    0.000    0.000    0.000 
#
# Total GULP energy -89120.529892 kJ/mol
# GULP energy per Si atom -5570.033118 kJ/mol
# Density = 2.110765 g / cm^3
# Si number density = 21.155805 Si / 1000 Ang^3
#
#
#
# Elastic Constant Matrix: (Units=GPa)
#
#
# Indices 1 2 3 4 5 6 
#
# 1 100.5287 21.2702 34.1096 -8.4418 -1.5335 1.8190
# 2 21.2702 78.7449 30.6881 -18.2017 9.3573 -3.7230
# 3 34.1096 30.6881 95.5291 -22.8248 -6.0178 -19.5856
# 4 -8.4418 -18.2017 -22.8248 33.0197 -6.2787 2.2023
# 5 -1.5335 9.3573 -6.0178 -6.2787 35.2838 -1.3789
# 6 1.8190 -3.7230 -19.5856 2.2023 -1.3789 36.4922
#
#
#
# Elastic Compliance Matrix: (Units=1/GPa)
#
#
# Indices 1 2 3 4 5 6 
#
# 1 0.011838 -0.001783 -0.004512 -0.000877 -0.000061 -0.003143
# 2 -0.001783 0.016310 -0.003779 0.005182 -0.004154 -0.000745
# 3 -0.004512 -0.003779 0.017812 0.009595 0.005905 0.009043
# 4 -0.000877 0.005182 0.009595 0.040761 0.007616 0.003550
# 5 -0.000061 -0.004154 0.005905 0.007616 0.031940 0.003496
# 6 -0.003143 -0.000745 0.009043 0.003550 0.003496 0.032255
#
#
# Mechanical properties :
#
#
# Convention : Reuss Voigt Hill
#
# Bulk Modulus (GPa) = 38.74291 49.65984 44.20138
# Shear Modulus (GPa) = 27.82918 33.54146 30.68532
#
# Velocity S-wave (km/s) = 3.63083 3.98609 3.81260
# Velocity P-wave (km/s) = 5.99418 6.68652 6.34979
#
# Compressibility (1/GPa) = 0.02581117
#
# Stress axis : x y z
#
# Youngs Moduli (GPa) = 84.47471 61.31208 56.14346
#
# Poissons Ratio (x) = 0.10935 0.25330
# Poissons Ratio (y) = 0.15066 0.21216
# Poissons Ratio (z) = 0.38113 0.23169
#
# Static dielectric constant tensor:
#      x y z
#    x 1.817790 -0.019050 0.033030 
#    y -0.019050 1.938370 -0.013170 
#    z 0.033030 -0.013170 1.773940 
# 
# From -- ./inp_files/355999.got.cif
#   From: 2010.05.17/outbox.cif.g08.bks.cpg/sg2_178_cif.got.tgz:355999.got - 2010.06.03 11:33:40.
