data_PCOD9007842
_publ_section_title
;
Structure prediction by ZEFSAII (Michael W. Deem and Ramdas Pophale) SiO2 
 PCOD9007842
Probable space group: P -1
;
_chemical_formula_sum "Si O2"
_cell_formula_units_Z 12
_cell_length_a 12.850699
_cell_length_b 10.816475
_cell_length_c 6.882792
_cell_angle_alpha 89.086514
_cell_angle_beta 90.794903
_cell_angle_gamma 33.160541
_cell_volume 522.589023
_symmetry_space_group_name_H-M "P -1"
_symmetry_group_IT_number 2
_symmetry_cell_setting 'triclinic'
loop_
_space_group_symop_operation_xyz
x,y,z
-x,-y,-z
loop_
_atom_site_type_symbol
_atom_site_label
_atom_site_fract_x
_atom_site_fract_y
_atom_site_fract_z
Si Si1 0.843779 0.970822 0.425367
Si Si2 0.154056 0.497020 0.323404
Si Si3 0.017910 0.159246 0.131261
Si Si4 0.873732 0.559436 0.223390
Si Si5 0.563342 0.027718 0.327175
Si Si6 0.704950 0.262838 0.092536
O O1 0.711852 0.979813 0.416429
O O2 0.724049 0.198434 0.316603
O O3 0.915267 0.928883 0.642484
O O4 0.029896 0.745506 0.309736
O O5 0.152908 0.466999 0.556675
O O6 0.368320 0.288730 0.256065
O O7 0.044184 0.488486 0.233310
O O8 0.935653 0.379099 0.108495
O O9 0.848631 0.233951 0.075494
O O10 0.205071 0.941322 0.018617
O O11 0.680357 0.829706 0.179244
O O12 0.500000 0.000000 0.500000
O O13 0.500000 0.500000 0.000000
#
# Coordination Sequence:
#
# PCOD9007842 Si02
#       6
#     2   2   2   2   2   2
#     4  10  21  39  63  88 117 156 195 237 296 351
#     4   8  15  29  55  88 117 145 186 233 285 351
#     4  10  22  41  62  82 118 158 194 245 294 339
#     4   8  15  30  54  85 114 149 188 230 287 348
#     4   9  16  29  58  95 120 146 189 235 287 356
#     4  11  26  42  58  86 117 153 207 252 285 340
#
# _framework density 22.962592999999998
#
# number of rings (size 3 to 8) (size 9 to 14) (size 15 to 20)
#    0.000    2.667    0.000    3.500    0.000    8.667 
#    0.000    3.333    0.000   13.000    0.000    0.000 
#    0.000    0.000    0.000    0.000    0.000    0.000 
#
# Total GULP energy -67058.148042 kJ/mol
# GULP energy per Si atom -5588.179004 kJ/mol
# Density = 2.291033 g / cm^3
# Si number density = 22.962593 Si / 1000 Ang^3
#
#
#
# Elastic Constant Matrix: (Units=GPa)
#
#
# Indices 1 2 3 4 5 6 
#
# 1 41.6639 24.9801 11.1832 0.5828 2.3478 -14.0383
# 2 24.9801 179.4960 44.4892 -11.3536 14.9967 -30.1357
# 3 11.1832 44.4892 63.3007 -7.8163 4.3332 -1.7810
# 4 0.5828 -11.3536 -7.8163 40.1493 8.4711 2.2325
# 5 2.3478 14.9967 4.3332 8.4711 26.0630 -3.7979
# 6 -14.0383 -30.1357 -1.7810 2.2325 -3.7979 33.6480
#
#
#
# Elastic Compliance Matrix: (Units=1/GPa)
#
#
# Indices 1 2 3 4 5 6 
#
# 1 0.029779 -0.001468 -0.004328 -0.002600 0.001360 0.011206
# 2 -0.001468 0.008487 -0.005055 0.001855 -0.003611 0.006190
# 3 -0.004328 -0.005055 0.020511 0.003374 -0.002039 -0.005701
# 4 -0.002600 0.001855 0.003374 0.028587 -0.011033 -0.002387
# 5 0.001360 -0.003611 -0.002039 -0.011033 0.044686 0.003001
# 6 0.011206 0.006190 -0.005701 -0.002387 0.003001 0.040134
#
#
# Mechanical properties :
#
#
# Convention : Reuss Voigt Hill
#
# Bulk Modulus (GPa) = 26.97285 49.52952 38.25119
# Shear Modulus (GPa) = 24.24320 33.55927 28.90123
#
# Velocity S-wave (km/s) = 3.25279 3.82707 3.55156
# Velocity P-wave (km/s) = 5.08718 6.41445 5.78898
#
# Compressibility (1/GPa) = 0.03707431
#
# Stress axis : x y z
#
# Youngs Moduli (GPa) = 33.58061 117.83208 48.75531
#
# Poissons Ratio (x) = 0.17301 0.21101
# Poissons Ratio (y) = 0.04931 0.24645
# Poissons Ratio (z) = 0.14533 0.59562
#
# Static dielectric constant tensor:
#      x y z
#    x 1.795980 0.027810 -0.019780 
#    y 0.027810 1.913310 -0.023670 
#    z -0.019780 -0.023670 1.966290 
# 
# From -- ./inp_files/300961.got.cif
#   From: 2010.05.17/outbox.cif.g08.bks.cpg/sg2_151_cif.got.tgz:300961.got - 2010.06.03 11:33:40.
