data_PCOD9007252
_publ_section_title
;
Structure prediction by ZEFSAII (Michael W. Deem and Ramdas Pophale) SiO2 
 PCOD9007252
Probable space group: P -1
;
_chemical_formula_sum "Si O2"
_cell_formula_units_Z 16
_cell_length_a 15.378286
_cell_length_b 5.580738
_cell_length_c 15.503315
_cell_angle_alpha 62.137150
_cell_angle_beta 145.327726
_cell_angle_gamma 105.057830
_cell_volume 648.312245
_symmetry_space_group_name_H-M "P -1"
_symmetry_group_IT_number 2
_symmetry_cell_setting 'triclinic'
loop_
_space_group_symop_operation_xyz
x,y,z
-x,-y,-z
loop_
_atom_site_type_symbol
_atom_site_label
_atom_site_fract_x
_atom_site_fract_y
_atom_site_fract_z
Si Si1 0.707071 0.967416 0.076847
Si Si2 0.041815 0.694878 0.308239
Si Si3 0.384207 0.430392 0.155254
Si Si4 0.178318 0.456856 0.622580
Si Si5 0.891451 0.807331 0.798540
Si Si6 0.096907 0.281625 0.991868
Si Si7 0.427411 0.737656 0.828999
Si Si8 0.424683 0.332269 0.398432
O O1 0.723711 0.837700 0.208520
O O2 0.863705 0.784256 0.187267
O O3 0.535700 0.952603 0.903396
O O4 0.713908 0.284943 0.017660
O O5 0.157522 0.470944 0.500024
O O6 0.015435 0.649680 0.193872
O O7 0.119430 0.958085 0.320967
O O8 0.523544 0.330958 0.219119
O O9 0.426550 0.468547 0.282401
O O10 0.272683 0.215600 0.108582
O O11 0.248191 0.703043 0.680719
O O12 0.000000 0.500000 0.500000
O O13 0.747498 0.664636 0.705416
O O14 0.056359 0.586852 0.952924
O O15 0.897912 0.907024 0.886681
O O16 0.500000 0.500000 0.000000
O O17 0.500000 0.500000 0.500000
O O18 0.500000 0.000000 0.500000
#
# Coordination Sequence:
#
# PCOD9007252 Si02
#       8
#     2   2   2   2   2   2   2   2
#     4  10  21  41  66  95 128 172 228 284 346 428
#     4  11  20  38  68  91 137 175 221 292 350 409
#     4  11  23  41  70  96 132 181 233 286 355 420
#     4   9  22  39  60  95 126 166 222 284 348 412
#     4  10  23  39  65  94 133 175 233 280 342 413
#     4  10  21  39  61 100 122 173 234 278 341 420
#     4  10  22  41  67  91 131 176 231 284 357 423
#     4  11  29  47  68 106 150 186 237 293 355 426
#
# _framework density 24.679466000000001
#
# number of rings (size 3 to 8) (size 9 to 14) (size 15 to 20)
#    0.000    1.750    2.500    0.375    5.250    2.000 
#    0.000    3.125    0.000    0.000    0.000    0.000 
#    0.000    0.000    0.000    0.000    0.000    0.000 
#
# Total GULP energy -89124.447535 kJ/mol
# GULP energy per Si atom -5570.277971 kJ/mol
# Density = 2.462329 g / cm^3
# Si number density = 24.679466 Si / 1000 Ang^3
#
#
#
# Elastic Constant Matrix: (Units=GPa)
#
#
# Indices 1 2 3 4 5 6 
#
# 1 119.5041 24.5480 45.7236 6.3989 -13.6263 22.9301
# 2 24.5480 41.4993 40.9094 10.9299 -6.3566 8.4844
# 3 45.7236 40.9094 136.9093 21.4060 -30.4790 6.5898
# 4 6.3989 10.9299 21.4060 49.9564 10.6845 -2.7385
# 5 -13.6263 -6.3566 -30.4790 10.6845 54.8679 -0.6581
# 6 22.9301 8.4844 6.5898 -2.7385 -0.6581 17.4362
#
#
#
# Elastic Compliance Matrix: (Units=1/GPa)
#
#
# Indices 1 2 3 4 5 6 
#
# 1 0.012854 -0.001262 -0.002549 -0.001499 0.001736 -0.015497
# 2 -0.001262 0.038565 -0.009798 -0.004740 -0.000535 -0.014168
# 3 -0.002549 -0.009798 0.013041 -0.004325 0.006351 0.002752
# 4 -0.001499 -0.004740 -0.004325 0.025368 -0.008149 0.009589
# 5 0.001736 -0.000535 0.006351 -0.008149 0.023652 -0.004810
# 6 -0.015497 -0.014168 0.002752 0.009589 -0.004810 0.084910
#
#
# Mechanical properties :
#
#
# Convention : Reuss Voigt Hill
#
# Bulk Modulus (GPa) = 26.85145 57.80829 42.32987
# Shear Modulus (GPa) = 21.00638 36.90087 28.95362
#
# Velocity S-wave (km/s) = 2.92064 3.87098 3.42890
# Velocity P-wave (km/s) = 4.71988 6.59195 5.73285
#
# Compressibility (1/GPa) = 0.03724193
#
# Stress axis : x y z
#
# Youngs Moduli (GPa) = 77.79606 25.93020 76.68136
#
# Poissons Ratio (x) = 0.03271 0.19547
# Poissons Ratio (y) = 0.09815 0.75135
# Poissons Ratio (z) = 0.19831 0.25407
#
# Static dielectric constant tensor:
#      x y z
#    x 2.054850 0.010280 0.050010 
#    y 0.010280 2.155070 0.050530 
#    z 0.050010 0.050530 2.019730 
# 
# From -- ./inp_files/525566.got.cif
#   From: 2010.05.17/outbox.cif.g08.bks.cpg/sg2_263_cif.got.tgz:525566.got - 2010.06.03 11:33:40.
