data_PCOD9007205
_publ_section_title
;
Structure prediction by ZEFSAII (Michael W. Deem and Ramdas Pophale) SiO2 
 PCOD9007205
Probable space group: P -1
;
_chemical_formula_sum "Si O2"
_cell_formula_units_Z 16
_cell_length_a 6.932123
_cell_length_b 22.543014
_cell_length_c 14.186987
_cell_angle_alpha 19.637187
_cell_angle_beta 106.114454
_cell_angle_gamma 107.686439
_cell_volume 709.584939
_symmetry_space_group_name_H-M "P -1"
_symmetry_group_IT_number 2
_symmetry_cell_setting 'triclinic'
loop_
_space_group_symop_operation_xyz
x,y,z
-x,-y,-z
loop_
_atom_site_type_symbol
_atom_site_label
_atom_site_fract_x
_atom_site_fract_y
_atom_site_fract_z
Si Si1 0.296168 0.823851 0.315975
Si Si2 0.966347 0.243158 0.149475
Si Si3 0.485304 0.235676 0.753296
Si Si4 0.577182 0.163932 0.080284
Si Si5 0.496544 0.251483 0.350799
Si Si6 0.875030 0.636043 0.563653
Si Si7 0.215845 0.443999 0.131659
Si Si8 0.290671 0.074675 0.329853
O O1 0.369221 0.743364 0.349035
O O2 0.377619 0.734448 0.554632
O O3 0.055667 0.785697 0.339557
O O4 0.375351 0.032525 0.026967
O O5 0.787667 0.209309 0.096289
O O6 0.176350 0.194329 0.207164
O O7 0.877952 0.102579 0.429755
O O8 0.962896 0.449111 0.862861
O O9 0.314370 0.365593 0.528006
O O10 0.580984 0.248653 0.850339
O O11 0.376075 0.185826 0.082832
O O12 0.545551 0.951559 0.377035
O O13 0.293427 0.333055 0.223564
O O14 0.625862 0.377181 0.105899
O O15 0.791800 0.671877 0.602234
O O16 0.000000 0.500000 0.000000
O O17 0.500000 0.000000 0.500000
#
# Coordination Sequence:
#
# PCOD9007205 Si02
#       8
#     2   2   2   2   2   2   2   2
#     4  10  21  41  61  87 121 163 205 252 305 362
#     4  10  23  40  63  95 123 158 205 250 308 365
#     4  10  23  41  62  87 122 166 208 249 304 365
#     4  10  22  41  64  86 122 167 203 251 296 369
#     4  10  21  39  60  90 124 155 202 251 310 365
#     4  12  23  39  63  92 126 160 203 257 308 365
#     4  11  22  36  60  97 124 155 198 256 316 366
#     4   9  20  42  63  89 119 162 205 247 302 359
#
# _framework density 22.548393999999998
#
# number of rings (size 3 to 8) (size 9 to 14) (size 15 to 20)
#    0.000    1.750    2.500    1.125    0.000    7.500 
#    0.000    1.250    0.000    0.000    0.000    0.000 
#    0.000    0.000    0.000    0.000    0.000    0.000 
#
# Total GULP energy -89376.473932 kJ/mol
# GULP energy per Si atom -5586.029621 kJ/mol
# Density = 2.249707 g / cm^3
# Si number density = 22.548394 Si / 1000 Ang^3
#
#
#
# Elastic Constant Matrix: (Units=GPa)
#
#
# Indices 1 2 3 4 5 6 
#
# 1 134.0672 27.5370 13.8247 7.2572 3.2307 -12.9825
# 2 27.5370 76.2882 -2.9842 18.2261 -6.2464 -6.2291
# 3 13.8247 -2.9842 30.9005 7.4428 4.6221 -7.5813
# 4 7.2572 18.2261 7.4428 38.0742 -4.7714 3.9966
# 5 3.2307 -6.2464 4.6221 -4.7714 34.4065 -3.1682
# 6 -12.9825 -6.2291 -7.5813 3.9966 -3.1682 26.2440
#
#
#
# Elastic Compliance Matrix: (Units=1/GPa)
#
#
# Indices 1 2 3 4 5 6 
#
# 1 0.008722 -0.003202 -0.003578 0.000234 -0.000666 0.002405
# 2 -0.003202 0.017428 0.006618 -0.009439 0.001830 0.006123
# 3 -0.003578 0.006618 0.041541 -0.012561 -0.004573 0.013162
# 4 0.000234 -0.009439 -0.012561 0.034782 0.003800 -0.010591
# 5 -0.000666 0.001830 -0.004573 0.003800 0.030777 0.001921
# 6 0.002405 0.006123 0.013162 -0.010591 0.001921 0.046394
#
#
# Mechanical properties :
#
#
# Convention : Reuss Voigt Hill
#
# Bulk Modulus (GPa) = 14.84452 35.33454 25.08953
# Shear Modulus (GPa) = 24.70065 33.27015 28.98540
#
# Velocity S-wave (km/s) = 3.31335 3.84539 3.58924
# Velocity P-wave (km/s) = 4.60819 5.95152 5.32241
#
# Compressibility (1/GPa) = 0.06736491
#
# Stress axis : x y z
#
# Youngs Moduli (GPa) = 114.65383 57.37926 24.07281
#
# Poissons Ratio (x) = 0.18375 0.08614
# Poissons Ratio (y) = 0.36716 -0.15931
# Poissons Ratio (z) = 0.41025 -0.37972
#
# Static dielectric constant tensor:
#      x y z
#    x 1.831050 -0.001220 0.000030 
#    y -0.001220 1.895400 0.024340 
#    z 0.000030 0.024340 1.871280 
# 
# From -- ./inp_files/78184.got.cif
#   From: 2010.05.17/outbox.cif.g08.bks.cpg/sg2_40_cif.got.tgz:78184.got - 2010.06.03 11:33:40.
