data_PCOD9007476
_publ_section_title
;
Structure prediction by ZEFSAII (Michael W. Deem and Ramdas Pophale) SiO2 
 PCOD9007476
Probable space group: P -1
;
_chemical_formula_sum "Si O2"
_cell_formula_units_Z 10
_cell_length_a 5.119616
_cell_length_b 7.261837
_cell_length_c 11.030082
_cell_angle_alpha 109.249256
_cell_angle_beta 74.958923
_cell_angle_gamma 108.325269
_cell_volume 361.914893
_symmetry_space_group_name_H-M "P -1"
_symmetry_group_IT_number 2
_symmetry_cell_setting 'triclinic'
loop_
_space_group_symop_operation_xyz
x,y,z
-x,-y,-z
loop_
_atom_site_type_symbol
_atom_site_label
_atom_site_fract_x
_atom_site_fract_y
_atom_site_fract_z
Si Si1 0.413302 0.058515 0.689558
Si Si2 0.732026 0.377447 0.435603
Si Si3 0.636203 0.454528 0.842294
Si Si4 0.014013 0.240143 0.896497
Si Si5 0.382176 0.783086 0.839510
O O1 0.385987 0.859988 0.570148
O O2 0.511419 0.985556 0.792741
O O3 0.590136 0.286944 0.700629
O O4 0.101320 0.080704 0.761832
O O5 0.500000 0.500000 0.500000
O O6 0.786373 0.353486 0.279397
O O7 0.000000 0.500000 0.500000
O O8 0.600043 0.664084 0.837847
O O9 0.331551 0.358613 0.923874
O O10 0.883530 0.396361 0.873299
O O11 0.817655 0.171611 0.021101
#
# Coordination Sequence:
#
# PCOD9007476 Si02
#       5
#     2   2   2   2   2
#     4   8  23  38  65  85 126 148 208 236 306 346
#     4  10  24  41  61  84 117 160 209 245 283 349
#     4  10  22  38  59  98 124 149 193 245 303 368
#     4  10  21  39  61  96 125 148 193 249 299 368
#     4  10  21  41  64  89 122 164 189 246 309 344
#
# _framework density 27.630806
#
# number of rings (size 3 to 8) (size 9 to 14) (size 15 to 20)
#    2.400    0.000    0.000    1.800    2.800    4.000 
#    3.600    2.000    0.000    0.000    0.000    0.000 
#    0.000    0.000    0.000    0.000    0.000    0.000 
#
# Total GULP energy -55840.633536 kJ/mol
# GULP energy per Si atom -5584.063354 kJ/mol
# Density = 2.756792 g / cm^3
# Si number density = 27.630806 Si / 1000 Ang^3
#
#
#
# Elastic Constant Matrix: (Units=GPa)
#
#
# Indices 1 2 3 4 5 6 
#
# 1 173.7351 47.7121 16.9312 8.9278 12.2376 -42.2092
# 2 47.7121 179.7271 5.3559 28.5789 -13.3491 -27.6015
# 3 16.9312 5.3559 68.4993 21.4444 9.6053 -20.6385
# 4 8.9278 28.5789 21.4444 54.7685 -5.9987 -12.9127
# 5 12.2376 -13.3491 9.6053 -5.9987 31.1379 -2.0919
# 6 -42.2092 -27.6015 -20.6385 -12.9127 -2.0919 52.1109
#
#
#
# Elastic Compliance Matrix: (Units=1/GPa)
#
#
# Indices 1 2 3 4 5 6 
#
# 1 0.007694 -0.001514 0.000208 0.000384 -0.003295 0.005476
# 2 -0.001514 0.006961 0.001033 -0.002947 0.002844 0.002254
# 3 0.000208 0.001033 0.019685 -0.007513 -0.006730 0.006380
# 4 0.000384 -0.002947 -0.007513 0.023732 0.005602 0.001880
# 5 -0.003295 0.002844 -0.006730 0.005602 0.037723 -0.000926
# 6 0.005476 0.002254 0.006380 0.001880 -0.000926 0.027774
#
#
# Mechanical properties :
#
#
# Convention : Reuss Voigt Hill
#
# Bulk Modulus (GPa) = 29.59100 62.43999 46.01549
# Shear Modulus (GPa) = 36.93329 51.06760 44.00045
#
# Velocity S-wave (km/s) = 3.66002 4.30375 3.99487
# Velocity P-wave (km/s) = 5.34730 6.88065 6.16186
#
# Compressibility (1/GPa) = 0.03379406
#
# Stress axis : x y z
#
# Youngs Moduli (GPa) = 129.97207 143.65618 50.80135
#
# Poissons Ratio (x) = 0.21744 -0.01057
# Poissons Ratio (y) = 0.19673 -0.05246
# Poissons Ratio (z) = -0.02706 -0.14836
#
# Static dielectric constant tensor:
#      x y z
#    x 2.132180 0.167290 -0.053430 
#    y 0.167290 2.123590 0.003580 
#    z -0.053430 0.003580 2.492940 
# 
# From -- ./inp_files/360384.got.cif
#   From: 2010.05.17/outbox.cif.g08.bks.cpg/sg2_181_cif.got.tgz:360384.got - 2010.06.03 11:33:40.
