data_PCOD9007074
_publ_section_title
;
Structure prediction by ZEFSAII (Michael W. Deem and Ramdas Pophale) SiO2 
 PCOD9007074
Probable space group: P -1
;
_chemical_formula_sum "Si O2"
_cell_formula_units_Z 16
_cell_length_a 15.109168
_cell_length_b 15.848095
_cell_length_c 11.958613
_cell_angle_alpha 62.564573
_cell_angle_beta 43.812859
_cell_angle_gamma 25.984905
_cell_volume 681.821108
_symmetry_space_group_name_H-M "P -1"
_symmetry_group_IT_number 2
_symmetry_cell_setting 'triclinic'
loop_
_space_group_symop_operation_xyz
x,y,z
-x,-y,-z
loop_
_atom_site_type_symbol
_atom_site_label
_atom_site_fract_x
_atom_site_fract_y
_atom_site_fract_z
Si Si1 0.606872 0.061571 0.833844
Si Si2 0.327040 0.594357 0.485582
Si Si3 0.772097 0.778027 0.732478
Si Si4 0.463030 0.714752 0.673897
Si Si5 0.441135 0.426668 0.092979
Si Si6 0.516537 0.643176 0.162108
Si Si7 0.301490 0.020321 0.582886
Si Si8 0.281122 0.098278 0.800881
O O1 0.545578 0.214807 0.806717
O O2 0.656158 0.968613 0.731555
O O3 0.321201 0.206499 0.075014
O O4 0.970026 0.796735 0.716272
O O5 0.500000 0.500000 0.500000
O O6 0.522645 0.388268 0.353173
O O7 0.289960 0.715621 0.373487
O O8 0.158161 0.508163 0.527321
O O9 0.536602 0.890341 0.788590
O O10 0.377534 0.745755 0.860970
O O11 0.278146 0.923889 0.646536
O O12 0.500000 0.500000 0.000000
O O13 0.518157 0.332669 0.956575
O O14 0.041771 0.692676 0.309739
O O15 0.896044 0.356245 0.019266
O O16 0.607846 0.869540 0.348304
O O17 0.336631 0.003096 0.695128
#
# Coordination Sequence:
#
# PCOD9007074 Si02
#       8
#     2   2   2   2   2   2   2   2
#     4  10  23  39  62  90 119 168 209 252 314 359
#     4  11  24  43  61  90 126 160 215 260 301 377
#     4  10  21  40  63  90 126 159 211 259 298 376
#     4  11  23  42  67  94 125 167 205 255 319 366
#     4  11  23  43  63  94 133 158 209 258 303 387
#     4  11  23  40  62  92 126 165 206 256 316 364
#     4  10  23  39  62  96 126 162 203 251 316 367
#     4  10  21  39  59  92 129 156 205 256 301 375
#
# _framework density 23.466567000000001
#
# number of rings (size 3 to 8) (size 9 to 14) (size 15 to 20)
#    0.000    1.500    2.500    1.875    1.750    3.500 
#    0.000    0.000    0.000    0.000    0.000    0.000 
#    0.000    0.000    0.000    0.000    0.000    0.000 
#
# Total GULP energy -89396.390851 kJ/mol
# GULP energy per Si atom -5587.274428 kJ/mol
# Density = 2.341316 g / cm^3
# Si number density = 23.466567 Si / 1000 Ang^3
#
#
#
# Elastic Constant Matrix: (Units=GPa)
#
#
# Indices 1 2 3 4 5 6 
#
# 1 71.2002 4.5152 -5.3183 9.5638 -6.3831 -5.7117
# 2 4.5152 47.3462 0.0986 -9.6317 7.7842 17.5192
# 3 -5.3183 0.0986 75.8087 -1.1292 -8.9015 1.3416
# 4 9.5638 -9.6317 -1.1292 25.3637 2.7006 -13.8919
# 5 -6.3831 7.7842 -8.9015 2.7006 27.1577 -8.5204
# 6 -5.7117 17.5192 1.3416 -13.8919 -8.5204 41.4271
#
#
#
# Elastic Compliance Matrix: (Units=1/GPa)
#
#
# Indices 1 2 3 4 5 6 
#
# 1 0.016562 -0.005843 0.001952 -0.007052 0.008165 0.004006
# 2 -0.005843 0.031447 -0.002007 0.007674 -0.016468 -0.014853
# 3 0.001952 -0.002007 0.014024 -0.000578 0.006238 0.001753
# 4 -0.007052 0.007674 -0.000578 0.052235 -0.005412 0.012204
# 5 0.008165 -0.016468 0.006238 -0.005412 0.051257 0.016615
# 6 0.004006 -0.014853 0.001753 0.012204 0.016615 0.038425
#
#
# Mechanical properties :
#
#
# Convention : Reuss Voigt Hill
#
# Bulk Modulus (GPa) = 19.90573 21.43848 20.67211
# Shear Modulus (GPa) = 21.50625 31.79367 26.64996
#
# Velocity S-wave (km/s) = 3.03060 3.68482 3.37361
# Velocity P-wave (km/s) = 4.55489 5.22106 4.89931
#
# Compressibility (1/GPa) = 0.05023678
#
# Stress axis : x y z
#
# Youngs Moduli (GPa) = 60.37958 31.79954 71.30868
#
# Poissons Ratio (x) = 0.18580 -0.13922
# Poissons Ratio (y) = 0.35279 0.14314
# Poissons Ratio (z) = -0.11788 0.06383
#
# Static dielectric constant tensor:
#      x y z
#    x 1.897210 -0.004370 0.020770 
#    y -0.004370 1.919670 -0.015990 
#    z 0.020770 -0.015990 1.872620 
# 
# From -- ./inp_files/455628.got.cif
#   From: 2010.05.17/outbox.cif.g08.bks.cpg/sg2_228_cif.got.tgz:455628.got - 2010.06.03 11:33:40.
