data_PCOD9007927
_publ_section_title
;
Structure prediction by ZEFSAII (Michael W. Deem and Ramdas Pophale) SiO2 
 PCOD9007927
Probable space group: P -1
;
_chemical_formula_sum "Si O2"
_cell_formula_units_Z 16
_cell_length_a 13.271910
_cell_length_b 13.301646
_cell_length_c 9.385971
_cell_angle_alpha 84.781371
_cell_angle_beta 152.723507
_cell_angle_gamma 87.050995
_cell_volume 723.756365
_symmetry_space_group_name_H-M "P -1"
_symmetry_group_IT_number 2
_symmetry_cell_setting 'triclinic'
loop_
_space_group_symop_operation_xyz
x,y,z
-x,-y,-z
loop_
_atom_site_type_symbol
_atom_site_label
_atom_site_fract_x
_atom_site_fract_y
_atom_site_fract_z
Si Si1 0.941971 0.876343 0.869579
Si Si2 0.519190 0.970456 0.861611
Si Si3 0.740997 0.493848 0.742978
Si Si4 0.835649 0.666975 0.652231
Si Si5 0.597419 0.420840 0.306837
Si Si6 0.312753 0.273944 0.851477
Si Si7 0.851461 0.417812 0.333584
Si Si8 0.249155 0.003384 0.125775
O O1 0.905660 0.767569 0.784414
O O2 0.918730 0.898188 0.008535
O O3 0.725493 0.966107 0.519719
O O4 0.164200 0.904093 0.081984
O O5 0.714457 0.993383 0.999537
O O6 0.575302 0.845339 0.949174
O O7 0.500000 0.000000 0.000000
O O8 0.500000 0.500000 0.500000
O O9 0.745082 0.606528 0.672702
O O10 0.758417 0.413023 0.644330
O O11 0.947915 0.431833 0.112088
O O12 0.677955 0.703638 0.309650
O O13 0.761434 0.415471 0.380335
O O14 0.452286 0.339962 0.105504
O O15 0.395684 0.531965 0.057471
O O16 0.039053 0.310512 0.537463
O O17 0.000000 0.500000 0.500000
O O18 0.500000 0.000000 0.500000
#
# Coordination Sequence:
#
# PCOD9007927 Si02
#       8
#     2   2   2   2   2   2   2   2
#     4  10  22  44  68  96 135 177 228 278 343 404
#     4  11  23  42  64  99 139 175 229 281 332 406
#     4  11  25  41  62  94 130 170 218 273 333 404
#     4  11  24  42  63  94 131 170 219 276 335 402
#     4  10  21  39  63  91 125 164 215 269 323 401
#     4  11  23  40  66  96 130 175 218 272 338 391
#     4   9  18  35  60  87 120 160 206 262 323 384
#     4   9  22  43  69  96 129 177 223 285 337 407
#
# _framework density 22.106888000000001
#
# number of rings (size 3 to 8) (size 9 to 14) (size 15 to 20)
#    0.000    1.750    1.250    3.000    0.000   11.500 
#    2.250    0.000    0.000    0.000    0.000    0.000 
#    0.000    0.000    0.000    0.000    0.000    0.000 
#
# Total GULP energy -89190.131879 kJ/mol
# GULP energy per Si atom -5574.383242 kJ/mol
# Density = 2.205657 g / cm^3
# Si number density = 22.106888 Si / 1000 Ang^3
#
#
#
# Elastic Constant Matrix: (Units=GPa)
#
#
# Indices 1 2 3 4 5 6 
#
# 1 134.2819 38.1593 26.4669 7.7734 12.0970 12.6223
# 2 38.1593 144.0706 45.6596 2.8375 9.3995 13.8368
# 3 26.4669 45.6596 67.0965 -10.0539 4.7997 15.7929
# 4 7.7734 2.8375 -10.0539 40.6040 -0.0968 -2.8333
# 5 12.0970 9.3995 4.7997 -0.0968 39.8499 11.6755
# 6 12.6223 13.8368 15.7929 -2.8333 11.6755 28.5692
#
#
#
# Elastic Compliance Matrix: (Units=1/GPa)
#
#
# Indices 1 2 3 4 5 6 
#
# 1 0.008701 -0.001226 -0.002488 -0.002300 -0.001638 -0.001434
# 2 -0.001226 0.009299 -0.005953 -0.001924 -0.000973 -0.000464
# 3 -0.002488 -0.005953 0.022759 0.005916 0.002022 -0.008838
# 4 -0.002300 -0.001924 0.005916 0.026757 0.000130 0.001278
# 5 -0.001638 -0.000973 0.002022 0.000130 0.029027 -0.011773
# 6 -0.001434 -0.000464 -0.008838 0.001278 -0.011773 0.045685
#
#
# Mechanical properties :
#
#
# Convention : Reuss Voigt Hill
#
# Bulk Modulus (GPa) = 46.67804 62.89119 54.78462
# Shear Modulus (GPa) = 29.63779 37.48216 33.55997
#
# Velocity S-wave (km/s) = 3.66547 4.12211 3.90048
# Velocity P-wave (km/s) = 6.25098 7.15305 6.71718
#
# Compressibility (1/GPa) = 0.02142335
#
# Stress axis : x y z
#
# Youngs Moduli (GPa) = 114.92472 107.54325 43.93937
#
# Poissons Ratio (x) = 0.13189 0.10931
# Poissons Ratio (y) = 0.14094 0.26159
# Poissons Ratio (z) = 0.28590 0.64026
#
# Static dielectric constant tensor:
#      x y z
#    x 2.053270 -0.026180 -0.079090 
#    y -0.026180 1.815940 -0.001880 
#    z -0.079090 -0.001880 1.911230 
# 
# From -- ./inp_files/273038.got.cif
#   From: 2010.05.17/outbox.cif.g08.bks.cpg/sg2_137_cif.got.tgz:273038.got - 2010.06.03 11:33:40.
