data_PCOD9007535
_publ_section_title
;
Structure prediction by ZEFSAII (Michael W. Deem and Ramdas Pophale) SiO2 
 PCOD9007535
Probable space group: P -1
;
_chemical_formula_sum "Si O2"
_cell_formula_units_Z 8
_cell_length_a 11.806656
_cell_length_b 5.365174
_cell_length_c 6.396531
_cell_angle_alpha 75.077059
_cell_angle_beta 66.490078
_cell_angle_gamma 59.086920
_cell_volume 318.059788
_symmetry_space_group_name_H-M "P -1"
_symmetry_group_IT_number 2
_symmetry_cell_setting 'triclinic'
loop_
_space_group_symop_operation_xyz
x,y,z
-x,-y,-z
loop_
_atom_site_type_symbol
_atom_site_label
_atom_site_fract_x
_atom_site_fract_y
_atom_site_fract_z
Si Si1 0.654204 0.085998 0.565523
Si Si2 0.048070 0.251085 0.400751
Si Si3 0.345271 0.328665 0.715492
Si Si4 0.951294 0.344750 0.951083
O O1 0.499667 0.151097 0.734965
O O2 0.651018 0.397188 0.462953
O O3 0.784027 0.912970 0.655673
O O4 0.680242 0.885817 0.379672
O O5 0.012028 0.349457 0.151560
O O6 0.982883 0.376553 0.664824
O O7 0.000000 0.000000 0.500000
O O8 0.216378 0.482811 0.930601
O O9 0.000000 0.000000 0.000000
#
# Coordination Sequence:
#
# PCOD9007535 Si02
#       4
#     2   2   2   2
#     4  10  21  39  62  87 119 157 196 242 298 356
#     4  12  24  39  61  89 122 158 200 247 296 353
#     4  10  21  39  62  87 119 157 196 242 298 356
#     4  12  24  39  61  89 122 158 200 247 296 353
#
# _framework density 25.152505999999999
#
# number of rings (size 3 to 8) (size 9 to 14) (size 15 to 20)
#    0.000    1.000    0.000    9.000    0.000    1.000 
#    0.000    0.000    0.000   15.000    0.000    0.000 
#    0.000    0.000    0.000    0.000    0.000    0.000 
#
# Total GULP energy -44704.649042 kJ/mol
# GULP energy per Si atom -5588.081130 kJ/mol
# Density = 2.509526 g / cm^3
# Si number density = 25.152506 Si / 1000 Ang^3
#
#
#
# Elastic Constant Matrix: (Units=GPa)
#
#
# Indices 1 2 3 4 5 6 
#
# 1 185.7976 95.0483 78.3289 6.3703 7.1695 -21.8979
# 2 95.0483 215.1245 84.2926 -4.2421 10.9237 17.9566
# 3 78.3289 84.2926 196.3510 -20.7897 7.4358 -24.1319
# 4 6.3703 -4.2421 -20.7897 76.7559 -0.7570 2.8831
# 5 7.1695 10.9237 7.4358 -0.7570 44.9122 18.6376
# 6 -21.8979 17.9566 -24.1319 2.8831 18.6376 97.3035
#
#
#
# Elastic Compliance Matrix: (Units=1/GPa)
#
#
# Indices 1 2 3 4 5 6 
#
# 1 0.008005 -0.003007 -0.001735 -0.001395 -0.001194 0.002196
# 2 -0.003007 0.007010 -0.002110 0.000162 0.000178 -0.002533
# 3 -0.001735 -0.002110 0.007174 0.001886 -0.001174 0.001947
# 4 -0.001395 0.000162 0.001886 0.013678 0.000237 -0.000327
# 5 -0.001194 0.000178 -0.001174 0.000237 0.024834 -0.005357
# 6 0.002196 -0.002533 0.001947 -0.000327 -0.005357 0.012757
#
#
# Mechanical properties :
#
#
# Convention : Reuss Voigt Hill
#
# Bulk Modulus (GPa) = 117.86983 123.62361 120.74672
# Shear Modulus (GPa) = 55.56095 66.43455 60.99775
#
# Velocity S-wave (km/s) = 4.70506 5.14490 4.92989
# Velocity P-wave (km/s) = 8.74532 9.19509 8.97302
#
# Compressibility (1/GPa) = 0.00848394
#
# Stress axis : x y z
#
# Youngs Moduli (GPa) = 124.92735 142.66197 139.38378
#
# Poissons Ratio (x) = 0.42900 0.24181
# Poissons Ratio (y) = 0.37567 0.29416
# Poissons Ratio (z) = 0.21673 0.30108
#
# Static dielectric constant tensor:
#      x y z
#    x 1.854260 -0.012040 -0.002950 
#    y -0.012040 1.895870 -0.034650 
#    z -0.002950 -0.034650 1.978580 
# 
# From -- ./inp_files/57178.got.cif
#   From: 2010.05.17/outbox.cif.g08.bks.cpg/sg2_29_cif.got.tgz:57178.got - 2010.06.03 11:33:40.
