data_PCOD9007382
_publ_section_title
;
Structure prediction by ZEFSAII (Michael W. Deem and Ramdas Pophale) SiO2 
 PCOD9007382
Probable space group: P -1
;
_chemical_formula_sum "Si O2"
_cell_formula_units_Z 16
_cell_length_a 14.068662
_cell_length_b 15.629916
_cell_length_c 9.112036
_cell_angle_alpha 66.608831
_cell_angle_beta 128.556708
_cell_angle_gamma 151.960233
_cell_volume 669.610347
_symmetry_space_group_name_H-M "P -1"
_symmetry_group_IT_number 2
_symmetry_cell_setting 'triclinic'
loop_
_space_group_symop_operation_xyz
x,y,z
-x,-y,-z
loop_
_atom_site_type_symbol
_atom_site_label
_atom_site_fract_x
_atom_site_fract_y
_atom_site_fract_z
Si Si1 0.532285 0.022184 0.191227
Si Si2 0.416469 0.575703 0.424487
Si Si3 0.787274 0.361024 0.758006
Si Si4 0.213749 0.250578 0.555024
Si Si5 0.319021 0.792063 0.524246
Si Si6 0.253270 0.264155 0.913822
Si Si7 0.232532 0.053966 0.161761
Si Si8 0.942133 0.163489 0.128088
O O1 0.459047 0.869016 0.273939
O O2 0.756832 0.220885 0.376533
O O3 0.295268 0.930033 0.063320
O O4 0.500000 0.000000 0.000000
O O5 0.319284 0.605586 0.380567
O O6 0.393801 0.467444 0.576316
O O7 0.680299 0.747764 0.468638
O O8 0.195662 0.400304 0.210511
O O9 0.877402 0.371794 0.684603
O O10 0.000000 0.500000 0.000000
O O11 0.227916 0.219369 0.749675
O O12 0.049409 0.882506 0.674968
O O13 0.506620 0.829182 0.679563
O O14 0.500000 0.000000 0.500000
O O15 0.500000 0.500000 0.000000
O O16 0.294648 0.204587 0.102056
O O17 0.964731 0.105511 0.788564
O O18 0.061239 0.912633 0.950875
#
# Coordination Sequence:
#
# PCOD9007382 Si02
#       8
#     2   2   2   2   2   2   2   2
#     4  10  21  39  61  90 128 164 209 265 326 395
#     4   9  19  34  63  89 124 159 212 273 315 383
#     4  11  20  38  67  89 117 170 217 262 331 383
#     4   9  20  36  59  89 122 164 206 265 317 378
#     4   9  22  41  64  90 130 171 213 266 334 398
#     4  11  24  39  62  95 132 165 223 269 325 397
#     4  10  23  40  64  91 129 179 205 274 340 385
#     4   9  18  38  60  82 127 160 212 253 322 390
#
# _framework density 23.894494000000002
#
# number of rings (size 3 to 8) (size 9 to 14) (size 15 to 20)
#    0.750    1.500    1.250    0.750    1.750    5.500 
#    0.000    0.625    0.000    0.000    0.000    0.000 
#    0.000    0.000    0.000    0.000    0.000    0.000 
#
# Total GULP energy -89081.097602 kJ/mol
# GULP energy per Si atom -5567.568600 kJ/mol
# Density = 2.384011 g / cm^3
# Si number density = 23.894494 Si / 1000 Ang^3
#
#
#
# Elastic Constant Matrix: (Units=GPa)
#
#
# Indices 1 2 3 4 5 6 
#
# 1 77.5127 31.4273 28.1325 2.9178 -16.4846 -29.5113
# 2 31.4273 96.7464 15.6804 -0.6715 -13.6335 -22.7133
# 3 28.1325 15.6804 96.7550 13.0845 -27.1048 -9.3768
# 4 2.9178 -0.6715 13.0845 31.7803 -10.9892 -9.0469
# 5 -16.4846 -13.6335 -27.1048 -10.9892 47.3271 2.5051
# 6 -29.5113 -22.7133 -9.3768 -9.0469 2.5051 32.6256
#
#
#
# Elastic Compliance Matrix: (Units=1/GPa)
#
#
# Indices 1 2 3 4 5 6 
#
# 1 0.024065 -0.001176 -0.003972 0.007732 0.006428 0.021458
# 2 -0.001176 0.013512 -0.000521 0.004510 0.003747 0.009156
# 3 -0.003972 -0.000521 0.013438 -0.003763 0.005371 -0.001549
# 4 0.007732 0.004510 -0.003763 0.041654 0.010461 0.019800
# 5 0.006428 0.003747 0.005371 0.010461 0.029391 0.010611
# 6 0.021458 0.009156 -0.001549 0.019800 0.010611 0.060665
#
#
# Mechanical properties :
#
#
# Convention : Reuss Voigt Hill
#
# Bulk Modulus (GPa) = 25.20338 46.83273 36.01805
# Shear Modulus (GPa) = 24.12090 35.39820 29.75955
#
# Velocity S-wave (km/s) = 3.18067 3.85312 3.53293
# Velocity P-wave (km/s) = 4.90505 6.27995 5.63459
#
# Compressibility (1/GPa) = 0.03967722
#
# Stress axis : x y z
#
# Youngs Moduli (GPa) = 41.55346 74.01024 74.41597
#
# Poissons Ratio (x) = 0.08707 0.29557
# Poissons Ratio (y) = 0.04888 0.03874
# Poissons Ratio (z) = 0.16505 0.03853
#
# Static dielectric constant tensor:
#      x y z
#    x 2.042680 0.029880 -0.162240 
#    y 0.029880 1.974460 0.020590 
#    z -0.162240 0.020590 2.106750 
# 
# From -- ./inp_files/314981.got.cif
#   From: 2010.05.17/outbox.cif.g08.bks.cpg/sg2_158_cif.got.tgz:314981.got - 2010.06.03 11:33:40.
