data_PCOD9007245
_publ_section_title
;
Structure prediction by ZEFSAII (Michael W. Deem and Ramdas Pophale) SiO2 
 PCOD9007245
Probable space group: P -1
;
_chemical_formula_sum "Si O2"
_cell_formula_units_Z 14
_cell_length_a 5.205449
_cell_length_b 12.464063
_cell_length_c 17.948509
_cell_angle_alpha 35.223765
_cell_angle_beta 106.168430
_cell_angle_gamma 85.786393
_cell_volume 541.591765
_symmetry_space_group_name_H-M "P -1"
_symmetry_group_IT_number 2
_symmetry_cell_setting 'triclinic'
loop_
_space_group_symop_operation_xyz
x,y,z
-x,-y,-z
loop_
_atom_site_type_symbol
_atom_site_label
_atom_site_fract_x
_atom_site_fract_y
_atom_site_fract_z
Si Si1 0.831960 0.262251 0.330683
Si Si2 0.996395 0.222127 0.202931
Si Si3 0.165760 0.548573 0.084753
Si Si4 0.224505 0.774567 0.425505
Si Si5 0.681248 0.745535 0.347992
Si Si6 0.584204 0.292188 0.797729
Si Si7 0.142210 0.342181 0.857890
O O1 0.791063 0.296656 0.218295
O O2 0.467428 0.420524 0.235965
O O3 0.991694 0.389303 0.304617
O O4 0.000000 0.000000 0.500000
O O5 0.174213 0.348795 0.156663
O O6 0.841532 0.293653 0.068692
O O7 0.216882 0.960095 0.369987
O O8 0.866170 0.689851 0.035648
O O9 0.456253 0.735184 0.397563
O O10 0.357870 0.550582 0.608912
O O11 0.859923 0.864133 0.321985
O O12 0.479120 0.822177 0.212091
O O13 0.000000 0.500000 0.500000
O O14 0.924637 0.264077 0.847940
O O15 0.459938 0.241986 0.891395
#
# Coordination Sequence:
#
# PCOD9007245 Si02
#       7
#     2   2   2   2   2   2   2
#     4  11  23  39  63  98 131 163 218 268 312 377
#     4  10  24  39  66  90 131 177 212 259 314 382
#     4  10  23  44  59  93 131 178 212 256 312 386
#     4  11  22  38  63  97 124 168 213 262 319 386
#     4  10  21  39  60  95 131 161 205 272 327 381
#     4  11  20  37  63  93 128 157 207 266 330 360
#     4  11  22  37  62  91 122 170 203 254 319 374
#
# _framework density 25.849727999999999
#
# number of rings (size 3 to 8) (size 9 to 14) (size 15 to 20)
#    0.000    1.429    1.429    5.571    4.000    1.143 
#    0.000    0.000    0.000    5.143    0.000    0.000 
#    0.000    0.000    0.000    0.000    0.000    0.000 
#
# Total GULP energy -78168.324751 kJ/mol
# GULP energy per Si atom -5583.451768 kJ/mol
# Density = 2.579089 g / cm^3
# Si number density = 25.849728 Si / 1000 Ang^3
#
#
#
# Elastic Constant Matrix: (Units=GPa)
#
#
# Indices 1 2 3 4 5 6 
#
# 1 161.5326 34.2724 31.1364 16.6916 -9.9256 4.2876
# 2 34.2724 96.2011 14.7038 10.3839 -10.4928 -4.7165
# 3 31.1364 14.7038 73.1237 3.1229 -6.0532 5.9719
# 4 16.6916 10.3839 3.1229 36.1078 0.7490 -8.9924
# 5 -9.9256 -10.4928 -6.0532 0.7490 30.8971 4.6298
# 6 4.2876 -4.7165 5.9719 -8.9924 4.6298 42.7916
#
#
#
# Elastic Compliance Matrix: (Units=1/GPa)
#
#
# Indices 1 2 3 4 5 6 
#
# 1 0.007516 -0.001864 -0.002442 -0.003120 0.001595 -0.001446
# 2 -0.001864 0.011888 -0.001312 -0.002293 0.003108 0.000862
# 3 -0.002442 -0.001312 0.015370 -0.000459 0.002148 -0.002374
# 4 -0.003120 -0.002293 -0.000459 0.031704 -0.003717 0.007188
# 5 0.001595 0.003108 0.002148 -0.003717 0.035149 -0.004701
# 6 -0.001446 0.000862 -0.002374 0.007188 -0.004701 0.025959
#
#
# Mechanical properties :
#
#
# Convention : Reuss Voigt Hill
#
# Bulk Modulus (GPa) = 42.48442 54.56475 48.52458
# Shear Modulus (GPa) = 34.09038 38.67564 36.38301
#
# Velocity S-wave (km/s) = 3.63546 3.87223 3.75571
# Velocity P-wave (km/s) = 5.83891 6.41456 6.13349
#
# Compressibility (1/GPa) = 0.02353804
#
# Stress axis : x y z
#
# Youngs Moduli (GPa) = 133.05316 84.11563 65.06038
#
# Poissons Ratio (x) = 0.15683 0.15887
# Poissons Ratio (y) = 0.24807 0.08535
# Poissons Ratio (z) = 0.32491 0.11035
#
# Static dielectric constant tensor:
#      x y z
#    x 2.080200 -0.005310 0.030680 
#    y -0.005310 2.130070 0.037880 
#    z 0.030680 0.037880 2.066060 
# 
# From -- ./inp_files/76716.got.cif
#   From: 2010.05.17/outbox.cif.g08.bks.cpg/sg2_39_cif.got.tgz:76716.got - 2010.06.03 11:33:40.
