data_PCOD9007234
_publ_section_title
;
Structure prediction by ZEFSAII (Michael W. Deem and Ramdas Pophale) SiO2 
 PCOD9007234
Probable space group: P -1
;
_chemical_formula_sum "Si O2"
_cell_formula_units_Z 14
_cell_length_a 32.406855
_cell_length_b 11.391387
_cell_length_c 6.791941
_cell_angle_alpha 125.777581
_cell_angle_beta 138.755286
_cell_angle_gamma 25.517489
_cell_volume 672.033593
_symmetry_space_group_name_H-M "P -1"
_symmetry_group_IT_number 2
_symmetry_cell_setting 'triclinic'
loop_
_space_group_symop_operation_xyz
x,y,z
-x,-y,-z
loop_
_atom_site_type_symbol
_atom_site_label
_atom_site_fract_x
_atom_site_fract_y
_atom_site_fract_z
Si Si1 0.403011 0.300015 0.549845
Si Si2 0.001612 0.245599 0.266112
Si Si3 0.076364 0.338769 0.316405
Si Si4 0.664385 0.092793 0.342794
Si Si5 0.393900 0.036412 0.727350
Si Si6 0.511179 0.662068 0.397104
Si Si7 0.802108 0.392638 0.611022
O O1 0.386706 0.453438 0.475451
O O2 0.276666 0.481458 0.349608
O O3 0.500000 0.000000 0.500000
O O4 0.483198 0.191249 0.920317
O O5 0.955847 0.455486 0.465639
O O6 0.886539 0.081753 0.574675
O O7 0.046829 0.253828 0.252967
O O8 0.891799 0.352414 0.919471
O O9 0.217873 0.067416 0.487460
O O10 0.000000 0.500000 0.000000
O O11 0.689856 0.915562 0.415661
O O12 0.576343 0.384050 0.423145
O O13 0.589548 0.176210 0.972159
O O14 0.444657 0.880520 0.546731
O O15 0.304734 0.352388 0.681245
#
# Coordination Sequence:
#
# PCOD9007234 Si02
#       7
#     2   2   2   2   2   2   2
#     4  11  23  38  61  93 125 161 199 255 313 369
#     4  10  25  44  65  89 127 167 211 261 305 363
#     4  11  23  44  64  91 120 168 215 255 308 361
#     4  10  22  38  63  90 124 159 206 258 300 373
#     4  11  22  38  63  94 125 162 202 251 320 374
#     4  10  21  39  60  93 125 163 199 249 319 369
#     4  11  22  44  64  93 128 165 206 259 314 369
#
# _framework density 20.832291000000001
#
# number of rings (size 3 to 8) (size 9 to 14) (size 15 to 20)
#    0.000    1.429    1.429    3.429    2.000    2.286 
#    2.571    2.143    0.000    0.000    0.000    0.000 
#    0.000    0.000    0.000    0.000    0.000    0.000 
#
# Total GULP energy -78169.789315 kJ/mol
# GULP energy per Si atom -5583.556380 kJ/mol
# Density = 2.078488 g / cm^3
# Si number density = 20.832291 Si / 1000 Ang^3
#
#
#
# Elastic Constant Matrix: (Units=GPa)
#
#
# Indices 1 2 3 4 5 6 
#
# 1 117.5435 38.4474 46.3193 -11.8928 12.9832 -4.6036
# 2 38.4474 99.1455 27.1205 3.4282 -0.2259 3.3327
# 3 46.3193 27.1205 29.2460 12.0732 11.0419 -2.4263
# 4 -11.8928 3.4282 12.0732 13.0630 -4.4123 11.1856
# 5 12.9832 -0.2259 11.0419 -4.4123 28.8644 -7.7339
# 6 -4.6036 3.3327 -2.4263 11.1856 -7.7339 39.6036
#
#
#
# Elastic Compliance Matrix: (Units=1/GPa)
#
#
# Indices 1 2 3 4 5 6 
#
# 1 -0.000126 -0.005360 0.022495 -0.030245 -0.011015 0.008206
# 2 -0.005360 0.012233 0.000809 -0.009602 0.001083 0.001321
# 3 0.022495 0.000809 -0.042527 0.081593 0.013126 -0.020541
# 4 -0.030245 -0.009602 0.081593 -0.038842 -0.021176 0.009126
# 5 -0.011015 0.001083 0.013126 -0.021176 0.034611 0.012173
# 6 0.008206 0.001321 -0.020541 0.009126 0.012173 0.024634
#
#
# Mechanical properties :
#
#
# Convention : Reuss Voigt Hill
#
# Bulk Modulus (GPa) = 182.85685 52.18993 117.52339
# Shear Modulus (GPa) = -113.42995 25.24272 -44.09361
#
# Velocity S-wave (km/s) = -7.38697 3.48474 -4.60564
# Velocity P-wave (km/s) = 3.89998 6.42635 5.31544
#
# Compressibility (1/GPa) = 0.00546876
#
# Stress axis : x y z
#
# Youngs Moduli (GPa) = -7953.09979 81.74308 -23.51472
#
# Poissons Ratio (x) = 0.43811 0.52896
# Poissons Ratio (y) = -42.62565 0.01902
# Poissons Ratio (z) = 178.90213 -0.06611
#
# Static dielectric constant tensor:
#      x y z
#    x 1.796250 0.023450 0.060310 
#    y 0.023450 1.721930 0.018630 
#    z 0.060310 0.018630 1.713030 
# 
# From -- ./inp_files/126912.got.cif
#   From: 2010.05.17/outbox.cif.g08.bks.cpg/sg2_64_cif.got.tgz:126912.got - 2010.06.03 11:33:40.
