data_PCOD9007054
_publ_section_title
;
Structure prediction by ZEFSAII (Michael W. Deem and Ramdas Pophale) SiO2 
 PCOD9007054
Probable space group: P -1
;
_chemical_formula_sum "Si O2"
_cell_formula_units_Z 14
_cell_length_a 7.950787
_cell_length_b 17.402635
_cell_length_c 5.320349
_cell_angle_alpha 99.341276
_cell_angle_beta 48.523861
_cell_angle_gamma 109.682397
_cell_volume 517.391497
_symmetry_space_group_name_H-M "P -1"
_symmetry_group_IT_number 2
_symmetry_cell_setting 'triclinic'
loop_
_space_group_symop_operation_xyz
x,y,z
-x,-y,-z
loop_
_atom_site_type_symbol
_atom_site_label
_atom_site_fract_x
_atom_site_fract_y
_atom_site_fract_z
Si Si1 0.092000 0.220364 0.310860
Si Si2 0.287571 0.481114 0.503226
Si Si3 0.144980 0.667329 0.058532
Si Si4 0.313506 0.815119 0.651868
Si Si5 0.726141 0.905045 0.625084
Si Si6 0.494619 0.630635 0.080589
Si Si7 0.679715 0.954728 0.193734
O O1 0.966785 0.274985 0.629148
O O2 0.914740 0.171697 0.244243
O O3 0.158535 0.160084 0.409919
O O4 0.313037 0.285035 0.985003
O O5 0.500000 0.500000 0.500000
O O6 0.303789 0.568827 0.416367
O O7 0.050453 0.420790 0.823659
O O8 0.348207 0.425607 0.195784
O O9 0.361220 0.653586 0.988498
O O10 0.232516 0.719808 0.748609
O O11 0.518690 0.858014 0.274534
O O12 0.452927 0.859494 0.785711
O O13 0.746235 0.973710 0.851640
O O14 0.833010 0.946941 0.278277
O O15 0.500000 0.000000 0.500000
#
# Coordination Sequence:
#
# PCOD9007054 Si02
#       7
#     2   2   2   2   2   2   2
#     4  11  23  41  65  97 132 173 227 274 333 402
#     4  10  22  37  58  87 127 171 224 274 338 397
#     4  11  22  40  61  94 127 174 223 280 334 399
#     4  10  23  37  69  94 136 169 225 271 338 394
#     4  10  23  42  70  99 136 176 220 275 331 393
#     4  10  21  39  59  89 129 171 221 281 333 393
#     4  10  22  45  72  99 138 179 218 274 336 397
#
# _framework density 27.058814999999999
#
# number of rings (size 3 to 8) (size 9 to 14) (size 15 to 20)
#    0.857    0.857    1.429    2.571    2.000    1.714 
#    0.000    1.429    0.000    0.000    0.000    0.000 
#    0.000    0.000    0.000    0.000    0.000    0.000 
#
# Total GULP energy -78256.637456 kJ/mol
# GULP energy per Si atom -5589.759818 kJ/mol
# Density = 2.699723 g / cm^3
# Si number density = 27.058815 Si / 1000 Ang^3
#
#
#
# Elastic Constant Matrix: (Units=GPa)
#
#
# Indices 1 2 3 4 5 6 
#
# 1 190.1205 34.0305 12.2417 -8.9145 25.4035 10.1492
# 2 34.0305 119.1212 39.1989 7.2419 6.6437 -20.8595
# 3 12.2417 39.1989 104.1244 -10.3067 14.2692 -1.3494
# 4 -8.9145 7.2419 -10.3067 56.6032 -1.9419 -2.9007
# 5 25.4035 6.6437 14.2692 -1.9419 33.5011 -15.1517
# 6 10.1492 -20.8595 -1.3494 -2.9007 -15.1517 56.3279
#
#
#
# Elastic Compliance Matrix: (Units=1/GPa)
#
#
# Indices 1 2 3 4 5 6 
#
# 1 0.006879 -0.002773 0.001258 0.001221 -0.006961 -0.004046
# 2 -0.002773 0.011684 -0.004822 -0.002368 0.004301 0.005746
# 3 0.001258 -0.004822 0.012403 0.002673 -0.006648 -0.003366
# 4 0.001221 -0.002368 0.002673 0.018615 -0.000625 -0.000242
# 5 -0.006961 0.004301 -0.006648 -0.000625 0.043572 0.014376
# 6 -0.004046 0.005746 -0.003366 -0.000242 0.014376 0.024384
#
#
# Mechanical properties :
#
#
# Convention : Reuss Voigt Hill
#
# Bulk Modulus (GPa) = 54.67259 64.92315 59.79787
# Shear Modulus (GPa) = 36.68134 51.14612 43.91373
#
# Velocity S-wave (km/s) = 3.68586 4.35234 4.03289
# Velocity P-wave (km/s) = 6.19379 7.02158 6.62064
#
# Compressibility (1/GPa) = 0.01829070
#
# Stress axis : x y z
#
# Youngs Moduli (GPa) = 145.37916 85.58629 80.62395
#
# Poissons Ratio (x) = 0.23737 -0.10140
# Poissons Ratio (y) = 0.40320 0.38876
# Poissons Ratio (z) = -0.18285 0.41269
#
# Static dielectric constant tensor:
#      x y z
#    x 2.060490 0.015650 -0.035370 
#    y 0.015650 2.138580 0.007010 
#    z -0.035370 0.007010 2.246980 
# 
# From -- ./inp_files/10247.got.cif
#   From: 2010.05.17/outbox.cif.g08.bks.cpg/sg2_6_cif.got.tgz:10247.got - 2010.06.03 11:33:40.
