data_PCOD9007436
_publ_section_title
;
Structure prediction by ZEFSAII (Michael W. Deem and Ramdas Pophale) SiO2 
 PCOD9007436
Probable space group: P -1
;
_chemical_formula_sum "Si O2"
_cell_formula_units_Z 14
_cell_length_a 12.259990
_cell_length_b 8.639048
_cell_length_c 8.190989
_cell_angle_alpha 113.351888
_cell_angle_beta 50.151297
_cell_angle_gamma 118.945949
_cell_volume 578.019779
_symmetry_space_group_name_H-M "P -1"
_symmetry_group_IT_number 2
_symmetry_cell_setting 'triclinic'
loop_
_space_group_symop_operation_xyz
x,y,z
-x,-y,-z
loop_
_atom_site_type_symbol
_atom_site_label
_atom_site_fract_x
_atom_site_fract_y
_atom_site_fract_z
Si Si1 0.172936 0.663509 0.247456
Si Si2 0.893667 0.318902 0.114155
Si Si3 0.806898 0.659395 0.056988
Si Si4 0.824840 0.551986 0.517762
Si Si5 0.623419 0.661288 0.541289
Si Si6 0.612224 0.024436 0.637007
Si Si7 0.308937 0.049177 0.841053
O O1 0.174136 0.532954 0.343726
O O2 0.270074 0.853316 0.298982
O O3 0.003196 0.659917 0.368682
O O4 0.239472 0.555669 0.007371
O O5 0.785079 0.390728 0.357001
O O6 0.803982 0.129803 0.041487
O O7 0.000000 0.500000 0.000000
O O8 0.013364 0.275615 0.101949
O O9 0.763895 0.703555 0.297873
O O10 0.742553 0.777231 0.048883
O O11 0.697120 0.636858 0.632308
O O12 0.500000 0.500000 0.500000
O O13 0.562278 0.825331 0.669947
O O14 0.472143 0.094002 0.780360
O O15 0.674990 0.009334 0.387920
#
# Coordination Sequence:
#
# PCOD9007436 Si02
#       7
#     2   2   2   2   2   2   2
#     4  10  22  41  64  93 124 167 203 256 322 367
#     4  11  19  36  64  93 121 158 209 264 298 360
#     4  10  23  38  64  94 120 165 211 260 307 369
#     4  10  21  40  64  89 129 164 202 254 317 377
#     4  11  23  41  65  93 124 166 211 258 311 372
#     4  10  22  39  64  88 124 169 208 254 311 378
#     4  10  21  39  61  93 123 165 214 254 303 379
#
# _framework density 24.220624999999998
#
# number of rings (size 3 to 8) (size 9 to 14) (size 15 to 20)
#    0.000    1.714    2.857    1.286    4.000    1.143 
#    0.000    3.571    0.000    0.000    0.000    0.000 
#    0.000    0.000    0.000    0.000    0.000    0.000 
#
# Total GULP energy -78103.094698 kJ/mol
# GULP energy per Si atom -5578.792478 kJ/mol
# Density = 2.416550 g / cm^3
# Si number density = 24.220625 Si / 1000 Ang^3
#
#
#
# Elastic Constant Matrix: (Units=GPa)
#
#
# Indices 1 2 3 4 5 6 
#
# 1 142.8877 46.6209 -2.1044 1.6632 -14.6935 -4.0311
# 2 46.6209 113.2897 -9.8265 2.1579 -19.8887 12.7321
# 3 -2.1044 -9.8265 21.5973 -1.6284 0.4271 -2.3641
# 4 1.6632 2.1579 -1.6284 24.1086 -3.6891 0.9536
# 5 -14.6935 -19.8887 0.4271 -3.6891 33.2930 11.7069
# 6 -4.0311 12.7321 -2.3641 0.9536 11.7069 42.9182
#
#
#
# Elastic Compliance Matrix: (Units=1/GPa)
#
#
# Indices 1 2 3 4 5 6 
#
# 1 0.008261 -0.003429 -0.000630 -0.000201 0.001066 0.001472
# 2 -0.003429 0.012781 0.004714 0.000928 0.008326 -0.006146
# 3 -0.000630 0.004714 0.048650 0.003200 0.002061 0.000589
# 4 -0.000201 0.000928 0.003200 0.042670 0.006114 -0.002734
# 5 0.001066 0.008326 0.002061 0.006114 0.040895 -0.013547
# 6 0.001472 -0.006146 0.000589 -0.002734 -0.013547 0.029050
#
#
# Mechanical properties :
#
#
# Convention : Reuss Voigt Hill
#
# Bulk Modulus (GPa) = 14.08391 38.57274 26.32832
# Shear Modulus (GPa) = 24.43005 36.26960 30.34983
#
# Velocity S-wave (km/s) = 3.17937 3.87391 3.54369
# Velocity P-wave (km/s) = 4.39378 5.99748 5.25714
#
# Compressibility (1/GPa) = 0.07100302
#
# Stress axis : x y z
#
# Youngs Moduli (GPa) = 121.04373 78.23818 20.55478
#
# Poissons Ratio (x) = 0.26827 0.01295
# Poissons Ratio (y) = 0.41505 -0.09689
# Poissons Ratio (z) = 0.07628 -0.36881
#
# Static dielectric constant tensor:
#      x y z
#    x 1.992760 -0.033080 0.079080 
#    y -0.033080 1.981060 -0.042090 
#    z 0.079080 -0.042090 2.012170 
# 
# From -- ./inp_files/156923.got.cif
#   From: 2010.05.17/outbox.cif.g08.bks.cpg/sg2_79_cif.got.tgz:156923.got - 2010.06.03 11:33:40.
