data_PCOD9007219
_publ_section_title
;
Structure prediction by ZEFSAII (Michael W. Deem and Ramdas Pophale) SiO2 
 PCOD9007219
Probable space group: P -1
;
_chemical_formula_sum "Si O2"
_cell_formula_units_Z 12
_cell_length_a 13.966195
_cell_length_b 19.081303
_cell_length_c 16.460445
_cell_angle_alpha 158.033965
_cell_angle_beta 157.525533
_cell_angle_gamma 22.447015
_cell_volume 553.513325
_symmetry_space_group_name_H-M "P -1"
_symmetry_group_IT_number 2
_symmetry_cell_setting 'triclinic'
loop_
_space_group_symop_operation_xyz
x,y,z
-x,-y,-z
loop_
_atom_site_type_symbol
_atom_site_label
_atom_site_fract_x
_atom_site_fract_y
_atom_site_fract_z
Si Si1 0.311168 0.516380 0.082544
Si Si2 0.594913 0.382613 0.333266
Si Si3 0.307158 0.527679 0.801631
Si Si4 0.672548 0.747809 0.875300
Si Si5 0.162467 0.179917 0.343640
Si Si6 0.782064 0.854399 0.462219
O O1 0.502860 0.405742 0.192387
O O2 0.484921 0.588263 0.235718
O O3 0.253601 0.352583 0.807025
O O4 0.001890 0.682234 0.049577
O O5 0.587723 0.603575 0.593870
O O6 0.390863 0.325135 0.165637
O O7 0.920247 0.198084 0.402712
O O8 0.127761 0.417035 0.575942
O O9 0.105173 0.767384 0.867492
O O10 0.500000 0.500000 0.000000
O O11 0.500000 0.000000 0.000000
O O12 0.171791 0.114486 0.373395
O O13 0.470592 0.039534 0.395668
#
# Coordination Sequence:
#
# PCOD9007219 Si02
#       6
#     2   2   2   2   2   2
#     4  11  22  40  63  89 124 166 205 257 314 366
#     4  10  22  44  65  89 132 158 202 271 310 366
#     4  11  22  38  59  90 127 166 202 256 300 366
#     4  10  24  43  66  93 119 160 215 258 319 377
#     4  10  22  37  58  88 128 164 209 247 301 368
#     4  10  21  39  60  91 122 166 206 250 310 368
#
# _framework density 21.679696
#
# number of rings (size 3 to 8) (size 9 to 14) (size 15 to 20)
#    0.000    1.667    3.333    0.500    2.333    2.667 
#    3.000    0.000    0.000    0.000    0.000    0.000 
#    0.000    0.000    0.000    0.000    0.000    0.000 
#
# Total GULP energy -66874.511575 kJ/mol
# GULP energy per Si atom -5572.875965 kJ/mol
# Density = 2.163035 g / cm^3
# Si number density = 21.679696 Si / 1000 Ang^3
#
#
#
# Elastic Constant Matrix: (Units=GPa)
#
#
# Indices 1 2 3 4 5 6 
#
# 1 115.9312 33.0074 29.6166 -13.7513 3.8736 -7.6889
# 2 33.0074 147.6134 11.6643 -26.7330 4.4325 -23.0453
# 3 29.6166 11.6643 49.5301 -5.8126 -1.5135 -4.9824
# 4 -13.7513 -26.7330 -5.8126 32.1703 -1.9041 3.1668
# 5 3.8736 4.4325 -1.5135 -1.9041 33.3634 -12.3871
# 6 -7.6889 -23.0453 -4.9824 3.1668 -12.3871 28.1020
#
#
#
# Elastic Compliance Matrix: (Units=1/GPa)
#
#
# Indices 1 2 3 4 5 6 
#
# 1 0.010878 -0.001544 -0.005932 0.002235 -0.001254 -0.000146
# 2 -0.001544 0.009402 0.000305 0.006592 0.002117 0.007532
# 3 -0.005932 0.000305 0.024424 0.001915 0.003448 0.004261
# 4 0.002235 0.006592 0.001915 0.037692 0.002255 0.003103
# 5 -0.001254 0.002117 0.003448 0.002255 0.036794 0.017968
# 6 -0.000146 0.007532 0.004261 0.003103 0.017968 0.050047
#
#
# Mechanical properties :
#
#
# Convention : Reuss Voigt Hill
#
# Bulk Modulus (GPa) = 32.93589 51.29458 42.11523
# Shear Modulus (GPa) = 25.81345 34.64623 30.22984
#
# Velocity S-wave (km/s) = 3.45436 4.00196 3.73820
# Velocity P-wave (km/s) = 5.57989 6.71310 6.17256
#
# Compressibility (1/GPa) = 0.03036202
#
# Stress axis : x y z
#
# Youngs Moduli (GPa) = 91.92792 106.36445 40.94413
#
# Poissons Ratio (x) = 0.16423 0.24287
# Poissons Ratio (y) = 0.14194 -0.01249
# Poissons Ratio (z) = 0.54528 -0.03245
#
# Static dielectric constant tensor:
#      x y z
#    x 1.807050 0.025870 0.004810 
#    y 0.025870 1.909190 -0.075270 
#    z 0.004810 -0.075270 1.937670 
# 
# From -- ./inp_files/29284.got.cif
#   From: 2010.05.17/outbox.cif.g08.bks.cpg/sg2_15_cif.got.tgz:29284.got - 2010.06.03 11:33:40.
