data_PCOD9007299
_publ_section_title
;
Structure prediction by ZEFSAII (Michael W. Deem and Ramdas Pophale) SiO2 
 PCOD9007299
Probable space group: P -1
;
_chemical_formula_sum "Si O2"
_cell_formula_units_Z 14
_cell_length_a 5.091273
_cell_length_b 24.412897
_cell_length_c 16.002723
_cell_angle_alpha 154.822270
_cell_angle_beta 71.985826
_cell_angle_gamma 91.456390
_cell_volume 625.616563
_symmetry_space_group_name_H-M "P -1"
_symmetry_group_IT_number 2
_symmetry_cell_setting 'triclinic'
loop_
_space_group_symop_operation_xyz
x,y,z
-x,-y,-z
loop_
_atom_site_type_symbol
_atom_site_label
_atom_site_fract_x
_atom_site_fract_y
_atom_site_fract_z
Si Si1 0.653815 0.576560 0.541202
Si Si2 0.298591 0.245112 0.084467
Si Si3 0.285543 0.093855 0.731335
Si Si4 0.983661 0.230232 0.561637
Si Si5 0.615696 0.560028 0.948001
Si Si6 0.783802 0.429387 0.158357
Si Si7 0.781566 0.015271 0.254260
O O1 0.500000 0.500000 0.500000
O O2 0.549969 0.734880 0.820122
O O3 0.609406 0.577284 0.447519
O O4 0.072551 0.425505 0.311656
O O5 0.493962 0.126023 0.820731
O O6 0.108717 0.167029 0.027712
O O7 0.500000 0.000000 0.500000
O O8 0.213158 0.993591 0.657529
O O9 0.928969 0.270518 0.982460
O O10 0.856177 0.381067 0.721565
O O11 0.962648 0.098803 0.334565
O O12 0.379307 0.139461 0.430838
O O13 0.703877 0.315954 0.784902
O O14 0.459224 0.550489 0.863886
O O15 0.870735 0.604633 0.963099
#
# Coordination Sequence:
#
# PCOD9007299 Si02
#       7
#     2   2   2   2   2   2   2
#     4  10  21  39  61  86 124 167 205 247 305 375
#     4   8  21  34  57  89 118 162 200 239 310 363
#     4   9  18  34  57  93 127 149 187 248 321 374
#     4  11  22  41  63  85 130 163 215 237 309 371
#     4  11  24  40  61  92 119 174 204 258 292 361
#     4  11  24  38  62  92 128 153 210 256 305 363
#     4  10  22  36  62  92 119 167 193 255 301 377
#
# _framework density 22.377925999999999
#
# number of rings (size 3 to 8) (size 9 to 14) (size 15 to 20)
#    0.857    1.143    0.000    3.429    8.000    3.429 
#    0.000    2.857    0.000    5.143    0.000    0.000 
#    0.000    0.000    0.000    0.000    0.000    0.000 
#
# Total GULP energy -78030.442876 kJ/mol
# GULP energy per Si atom -5573.603063 kJ/mol
# Density = 2.232699 g / cm^3
# Si number density = 22.377926 Si / 1000 Ang^3
#
#
#
# Elastic Constant Matrix: (Units=GPa)
#
#
# Indices 1 2 3 4 5 6 
#
# 1 109.2482 34.1426 23.5469 15.0480 5.2921 -16.4660
# 2 34.1426 68.3911 21.9193 14.8409 0.7916 -22.1616
# 3 23.5469 21.9193 77.2326 1.6040 19.1804 -19.0984
# 4 15.0480 14.8409 1.6040 44.6366 -3.7600 -2.1848
# 5 5.2921 0.7916 19.1804 -3.7600 33.4813 0.5296
# 6 -16.4660 -22.1616 -19.0984 -2.1848 0.5296 31.1031
#
#
#
# Elastic Compliance Matrix: (Units=1/GPa)
#
#
# Indices 1 2 3 4 5 6 
#
# 1 0.011441 -0.003990 -0.001480 -0.002471 -0.001178 0.002152
# 2 -0.003990 0.022401 -0.002164 -0.005385 0.000544 0.012132
# 3 -0.001480 -0.002164 0.019050 0.000095 -0.010769 0.009562
# 4 -0.002471 -0.005385 0.000095 0.025139 0.003340 -0.003378
# 5 -0.001178 0.000544 -0.010769 0.003340 0.036700 -0.007238
# 6 0.002152 0.012132 0.009562 -0.003378 -0.007238 0.047692
#
#
# Mechanical properties :
#
#
# Convention : Reuss Voigt Hill
#
# Bulk Modulus (GPa) = 26.57893 46.00994 36.29444
# Shear Modulus (GPa) = 26.28341 33.52839 29.90590
#
# Velocity S-wave (km/s) = 3.43085 3.87496 3.65965
# Velocity P-wave (km/s) = 5.25332 6.37381 5.84050
#
# Compressibility (1/GPa) = 0.03762378
#
# Stress axis : x y z
#
# Youngs Moduli (GPa) = 87.40312 44.64044 52.49258
#
# Poissons Ratio (x) = 0.17813 0.07768
# Poissons Ratio (y) = 0.34878 0.11361
# Poissons Ratio (z) = 0.12934 0.09661
#
# Static dielectric constant tensor:
#      x y z
#    x 1.966320 0.013580 -0.077100 
#    y 0.013580 1.771150 -0.020570 
#    z -0.077100 -0.020570 1.961290 
# 
# From -- ./inp_files/64921.got.cif
#   From: 2010.05.17/outbox.cif.g08.bks.cpg/sg2_33_cif.got.tgz:64921.got - 2010.06.03 11:33:40.
