data_PCOD9007145
_publ_section_title
;
Structure prediction by ZEFSAII (Michael W. Deem and Ramdas Pophale) SiO2 
 PCOD9007145
Probable space group: P -1
;
_chemical_formula_sum "Si O2"
_cell_formula_units_Z 12
_cell_length_a 18.456434
_cell_length_b 9.111902
_cell_length_c 9.050503
_cell_angle_alpha 90.313913
_cell_angle_beta 118.916702
_cell_angle_gamma 140.228336
_cell_volume 630.032359
_symmetry_space_group_name_H-M "P -1"
_symmetry_group_IT_number 2
_symmetry_cell_setting 'triclinic'
loop_
_space_group_symop_operation_xyz
x,y,z
-x,-y,-z
loop_
_atom_site_type_symbol
_atom_site_label
_atom_site_fract_x
_atom_site_fract_y
_atom_site_fract_z
Si Si1 0.855561 0.374633 0.276344
Si Si2 0.486737 0.633133 0.903732
Si Si3 0.835019 0.658660 0.763795
Si Si4 0.982338 0.624875 0.068818
Si Si5 0.166000 0.341154 0.595011
Si Si6 0.639940 0.624885 0.551558
O O1 0.918135 0.502749 0.171732
O O2 0.831321 0.490709 0.337632
O O3 0.000000 0.500000 0.500000
O O4 0.672729 0.003355 0.092294
O O5 0.336777 0.512543 0.807871
O O6 0.429704 0.502781 0.682133
O O7 0.500000 0.500000 0.000000
O O8 0.847788 0.675267 0.597961
O O9 0.672890 0.511030 0.642574
O O10 0.847096 0.517771 0.846208
O O11 0.000000 0.000000 0.000000
O O12 0.172698 0.000422 0.261355
O O13 0.000000 0.500000 0.000000
O O14 0.000000 0.000000 0.500000
O O15 0.500000 0.500000 0.500000
#
# Coordination Sequence:
#
# PCOD9007145 Si02
#       6
#     2   2   2   2   2   2
#     4  12  24  41  62  90 122 162 209 258 308 366
#     4  11  24  41  61  88 122 161 206 256 308 364
#     4   9  20  38  59  86 118 156 196 239 299 363
#     4  11  22  39  62  89 121 161 203 252 305 362
#     4  11  22  40  64  92 124 160 202 254 308 367
#     4  10  21  39  60  87 120 158 202 249 301 362
#
# _framework density 19.046641999999999
#
# number of rings (size 3 to 8) (size 9 to 14) (size 15 to 20)
#    0.000    1.333    0.000    7.500    0.000    5.333 
#    0.000    9.167    0.000    0.000    0.000    0.000 
#    0.000    0.000    0.000    0.000    0.000    0.000 
#
# Total GULP energy -67032.096803 kJ/mol
# GULP energy per Si atom -5586.008067 kJ/mol
# Density = 1.900329 g / cm^3
# Si number density = 19.046642 Si / 1000 Ang^3
#
#
#
# Elastic Constant Matrix: (Units=GPa)
#
#
# Indices 1 2 3 4 5 6 
#
# 1 211.0519 79.6467 85.4368 -13.8761 20.3706 -18.6342
# 2 79.6467 123.8863 68.1510 -3.0821 22.4659 -10.9451
# 3 85.4368 68.1510 133.7948 -5.1667 22.6354 -13.4285
# 4 -13.8761 -3.0821 -5.1667 47.6069 -8.1650 5.0079
# 5 20.3706 22.4659 22.6354 -8.1650 46.4147 1.1654
# 6 -18.6342 -10.9451 -13.4285 5.0079 1.1654 38.1932
#
#
#
# Elastic Compliance Matrix: (Units=1/GPa)
#
#
# Indices 1 2 3 4 5 6 
#
# 1 0.007244 -0.002840 -0.002948 0.001423 -0.000155 0.001502
# 2 -0.002840 0.012797 -0.004104 -0.001101 -0.003168 0.001080
# 3 -0.002948 -0.004104 0.012069 -0.000470 -0.002733 0.001774
# 4 0.001423 -0.001101 -0.000470 0.022305 0.004133 -0.002837
# 5 -0.000155 -0.003168 -0.002733 0.004133 0.025288 -0.003258
# 6 0.001502 0.001080 0.001774 -0.002837 -0.003258 0.028321
#
#
# Mechanical properties :
#
#
# Convention : Reuss Voigt Hill
#
# Bulk Modulus (GPa) = 81.10901 103.91132 92.51016
# Shear Modulus (GPa) = 37.90327 42.14288 40.02308
#
# Velocity S-wave (km/s) = 4.46581 4.70895 4.58899
# Velocity P-wave (km/s) = 8.32275 9.17825 8.76095
#
# Compressibility (1/GPa) = 0.01232909
#
# Stress axis : x y z
#
# Youngs Moduli (GPa) = 138.04274 78.14120 82.85800
#
# Poissons Ratio (x) = 0.22189 0.24422
# Poissons Ratio (y) = 0.39199 0.34001
# Poissons Ratio (z) = 0.40688 0.32065
#
# Static dielectric constant tensor:
#      x y z
#    x 1.666230 -0.026410 0.024020 
#    y -0.026410 1.636910 -0.005810 
#    z 0.024020 -0.005810 1.649080 
# 
# From -- ./inp_files/146345.got.cif
#   From: 2010.05.17/outbox.cif.g08.bks.cpg/sg2_74_cif.got.tgz:146345.got - 2010.06.03 11:33:40.
