data_PCOD9007827
_publ_section_title
;
Structure prediction by ZEFSAII (Michael W. Deem and Ramdas Pophale) SiO2 
 PCOD9007827
Probable space group: P -1
;
_chemical_formula_sum "Si O2"
_cell_formula_units_Z 14
_cell_length_a 11.478815
_cell_length_b 16.915314
_cell_length_c 13.369947
_cell_angle_alpha 33.414575
_cell_angle_beta 159.128318
_cell_angle_gamma 139.454306
_cell_volume 506.668973
_symmetry_space_group_name_H-M "P -1"
_symmetry_group_IT_number 2
_symmetry_cell_setting 'triclinic'
loop_
_space_group_symop_operation_xyz
x,y,z
-x,-y,-z
loop_
_atom_site_type_symbol
_atom_site_label
_atom_site_fract_x
_atom_site_fract_y
_atom_site_fract_z
Si Si1 0.354869 0.810199 0.497756
Si Si2 0.216595 0.620620 0.406923
Si Si3 0.981153 0.350333 0.455879
Si Si4 0.901643 0.879600 0.476223
Si Si5 0.224011 0.909366 0.011024
Si Si6 0.815322 0.416679 0.022895
Si Si7 0.643875 0.911584 0.874974
O O1 0.386560 0.685413 0.571172
O O2 0.324421 0.740070 0.658543
O O3 0.966579 0.865819 0.114072
O O4 0.537746 0.954804 0.478907
O O5 0.087381 0.759761 0.090431
O O6 0.963162 0.501046 0.343537
O O7 0.490222 0.521734 0.670118
O O8 0.967390 0.384092 0.291169
O O9 0.307931 0.246297 0.862386
O O10 0.530094 0.860125 0.232799
O O11 0.146395 0.739209 0.832583
O O12 0.000000 0.000000 0.500000
O O13 0.954771 0.951476 0.335631
O O14 0.334337 0.983202 0.122226
O O15 0.000000 0.500000 0.000000
#
# Coordination Sequence:
#
# PCOD9007827 Si02
#       7
#     2   2   2   2   2   2   2
#     4   8  17  37  62  92 114 156 198 241 292 363
#     4  11  23  36  66  89 124 153 197 240 308 350
#     4  10  21  39  63  86 123 160 187 247 303 346
#     4  11  24  39  61  79 117 159 209 239 288 348
#     4  10  21  40  56  88 114 162 194 245 291 351
#     4  12  26  42  55  93 125 152 201 252 286 356
#     4   8  16  35  63  84 118 151 197 241 292 349
#
# _framework density 27.631453
#
# number of rings (size 3 to 8) (size 9 to 14) (size 15 to 20)
#    0.857    1.143    2.857    0.429    4.000    1.143 
#    0.000    0.000    0.000    3.429    0.000    0.000 
#    0.000    0.000    0.000    0.000    0.000    0.000 
#
# Total GULP energy -77948.845873 kJ/mol
# GULP energy per Si atom -5567.774705 kJ/mol
# Density = 2.756856 g / cm^3
# Si number density = 27.631453 Si / 1000 Ang^3
#
#
#
# Elastic Constant Matrix: (Units=GPa)
#
#
# Indices 1 2 3 4 5 6 
#
# 1 118.8212 24.9863 15.7866 -13.2091 -25.8807 -4.9438
# 2 24.9863 64.9755 42.6925 -30.4149 -13.0401 3.9519
# 3 15.7866 42.6925 177.8333 -46.8802 -6.0299 7.8149
# 4 -13.2091 -30.4149 -46.8802 51.3962 -3.2870 -6.6016
# 5 -25.8807 -13.0401 -6.0299 -3.2870 53.8724 -5.8305
# 6 -4.9438 3.9519 7.8149 -6.6016 -5.8305 43.2576
#
#
#
# Elastic Compliance Matrix: (Units=1/GPa)
#
#
# Indices 1 2 3 4 5 6 
#
# 1 0.010233 -0.002305 0.000260 0.002102 0.004764 0.002296
# 2 -0.002305 0.024581 -0.002303 0.012262 0.005387 0.000505
# 3 0.000260 -0.002303 0.007704 0.005758 0.000763 -0.000170
# 4 0.002102 0.012262 0.005758 0.033494 0.007115 0.004150
# 5 0.004764 0.005387 0.000763 0.007115 0.023120 0.004117
# 6 0.002296 0.000505 -0.000170 0.004150 0.004117 0.024553
#
#
# Mechanical properties :
#
#
# Convention : Reuss Voigt Hill
#
# Bulk Modulus (GPa) = 29.56789 58.72897 44.14843
# Shear Modulus (GPa) = 34.80536 48.24955 41.52746
#
# Velocity S-wave (km/s) = 3.55297 4.18327 3.88094
# Velocity P-wave (km/s) = 5.24934 6.68083 6.00787
#
# Compressibility (1/GPa) = 0.03382048
#
# Stress axis : x y z
#
# Youngs Moduli (GPa) = 97.72155 40.68223 129.79549
#
# Poissons Ratio (x) = 0.09379 -0.03373
# Poissons Ratio (y) = 0.22528 0.29898
# Poissons Ratio (z) = -0.02540 0.09371
#
# Static dielectric constant tensor:
#      x y z
#    x 2.642920 0.211310 -0.086260 
#    y 0.211310 2.354600 0.069060 
#    z -0.086260 0.069060 2.172320 
# 
# From -- ./inp_files/485081.got.cif
#   From: 2010.05.17/outbox.cif.g08.bks.cpg/sg2_243_cif.got.tgz:485081.got - 2010.06.03 11:33:40.
