data_PCOD9007160
_publ_section_title
;
Structure prediction by ZEFSAII (Michael W. Deem and Ramdas Pophale) SiO2 
 PCOD9007160
Probable space group: P -1
;
_chemical_formula_sum "Si O2"
_cell_formula_units_Z 16
_cell_length_a 11.210215
_cell_length_b 10.287032
_cell_length_c 8.107134
_cell_angle_alpha 85.586207
_cell_angle_beta 54.844410
_cell_angle_gamma 73.843461
_cell_volume 730.049599
_symmetry_space_group_name_H-M "P -1"
_symmetry_group_IT_number 2
_symmetry_cell_setting 'triclinic'
loop_
_space_group_symop_operation_xyz
x,y,z
-x,-y,-z
loop_
_atom_site_type_symbol
_atom_site_label
_atom_site_fract_x
_atom_site_fract_y
_atom_site_fract_z
Si Si1 0.443606 0.943410 0.317328
Si Si2 0.414657 0.466931 0.408757
Si Si3 0.115066 0.574278 0.828840
Si Si4 0.420051 0.841406 0.703556
Si Si5 0.644183 0.274683 0.771298
Si Si6 0.179143 0.741682 0.023744
Si Si7 0.961091 0.170965 0.347976
Si Si8 0.905370 0.890722 0.403780
O O1 0.553589 0.039526 0.215690
O O2 0.274413 0.047219 0.466552
O O3 0.471932 0.862563 0.475395
O O4 0.448670 0.834795 0.178764
O O5 0.500000 0.500000 0.500000
O O6 0.237735 0.496089 0.603022
O O7 0.483041 0.311530 0.314019
O O8 0.430705 0.572459 0.244479
O O9 0.023740 0.721068 0.809369
O O10 0.209227 0.606772 0.905616
O O11 0.000000 0.500000 0.000000
O O12 0.243899 0.842878 0.850532
O O13 0.724995 0.268262 0.883530
O O14 0.784348 0.221343 0.537138
O O15 0.001209 0.784121 0.207214
O O16 0.056476 0.170923 0.437815
O O17 0.984629 0.013064 0.305663
#
# Coordination Sequence:
#
# PCOD9007160 Si02
#       8
#     2   2   2   2   2   2   2   2
#     4  10  21  39  60  88 117 159 194 242 289 357
#     4  11  20  43  63  79 116 172 189 231 302 359
#     4  11  24  40  59  88 120 150 202 247 284 349
#     4  11  23  38  60  87 122 156 198 235 298 351
#     4   9  19  38  64  83 119 153 197 239 294 351
#     4  11  22  38  59  92 115 151 196 247 290 343
#     4   8  17  38  60  83 116 155 185 239 303 349
#     4   9  18  36  63  85 112 151 196 238 297 344
#
# _framework density 21.916319000000001
#
# number of rings (size 3 to 8) (size 9 to 14) (size 15 to 20)
#    0.000    2.000    2.500    2.250    1.750    3.000 
#    4.500    1.875    0.000    0.000    0.000    0.000 
#    0.000    0.000    0.000    0.000    0.000    0.000 
#
# Total GULP energy -89268.001664 kJ/mol
# GULP energy per Si atom -5579.250104 kJ/mol
# Density = 2.186644 g / cm^3
# Si number density = 21.916319 Si / 1000 Ang^3
#
#
#
# Elastic Constant Matrix: (Units=GPa)
#
#
# Indices 1 2 3 4 5 6 
#
# 1 52.9162 41.6622 10.6659 -11.3363 0.5466 11.0045
# 2 41.6622 83.1884 14.7867 -14.5152 16.0669 3.4066
# 3 10.6659 14.7867 54.0555 -5.5605 7.6051 6.8487
# 4 -11.3363 -14.5152 -5.5605 28.3081 -1.8111 -6.2509
# 5 0.5466 16.0669 7.6051 -1.8111 31.2978 -3.6835
# 6 11.0045 3.4066 6.8487 -6.2509 -3.6835 40.7455
#
#
#
# Elastic Compliance Matrix: (Units=1/GPa)
#
#
# Indices 1 2 3 4 5 6 
#
# 1 0.035790 -0.018343 -0.002085 0.003658 0.008753 -0.006430
# 2 -0.018343 0.024330 -0.001326 0.004782 -0.011234 0.002861
# 3 -0.002085 -0.001326 0.020439 0.001565 -0.004503 -0.002929
# 4 0.003658 0.004782 0.001565 0.040558 -0.000014 0.004570
# 5 0.008753 -0.011234 -0.004503 -0.000014 0.038995 0.002855
# 6 -0.006430 0.002861 -0.002929 0.004570 0.002855 0.027491
#
#
# Mechanical properties :
#
#
# Convention : Reuss Voigt Hill
#
# Bulk Modulus (GPa) = 26.98910 36.04329 31.51620
# Shear Modulus (GPa) = 20.53710 28.27330 24.40520
#
# Velocity S-wave (km/s) = 3.06448 3.59563 3.34063
# Velocity P-wave (km/s) = 4.98625 5.80686 5.41213
#
# Compressibility (1/GPa) = 0.03705199
#
# Stress axis : x y z
#
# Youngs Moduli (GPa) = 27.94071 41.10150 48.92544
#
# Poissons Ratio (x) = 0.75391 0.10200
# Poissons Ratio (y) = 0.51251 0.06488
# Poissons Ratio (z) = 0.05825 0.05451
#
# Static dielectric constant tensor:
#      x y z
#    x 1.831240 -0.008160 -0.002140 
#    y -0.008160 1.841640 -0.000790 
#    z -0.002140 -0.000790 1.811660 
# 
# From -- ./inp_files/238896.got.cif
#   From: 2010.05.17/outbox.cif.g08.bks.cpg/sg2_120_cif.got.tgz:238896.got - 2010.06.03 11:33:40.
