data_PCOD9007621
_publ_section_title
;
Structure prediction by ZEFSAII (Michael W. Deem and Ramdas Pophale) SiO2 
 PCOD9007621
Probable space group: P -1
;
_chemical_formula_sum "Si O2"
_cell_formula_units_Z 16
_cell_length_a 7.936400
_cell_length_b 7.278707
_cell_length_c 17.844930
_cell_angle_alpha 69.265065
_cell_angle_beta 125.994701
_cell_angle_gamma 100.779517
_cell_volume 779.702739
_symmetry_space_group_name_H-M "P -1"
_symmetry_group_IT_number 2
_symmetry_cell_setting 'triclinic'
loop_
_space_group_symop_operation_xyz
x,y,z
-x,-y,-z
loop_
_atom_site_type_symbol
_atom_site_label
_atom_site_fract_x
_atom_site_fract_y
_atom_site_fract_z
Si Si1 0.178261 0.119678 0.428303
Si Si2 0.408771 0.732763 0.560378
Si Si3 0.359535 0.497057 0.730375
Si Si4 0.765893 0.291433 0.926558
Si Si5 0.775559 0.201288 0.225998
Si Si6 0.075705 0.512699 0.432438
Si Si7 0.156499 0.487541 0.928629
Si Si8 0.416590 0.089399 0.043184
O O1 0.366599 0.194818 0.415082
O O2 0.126337 0.295996 0.446029
O O3 0.972820 0.086285 0.329993
O O4 0.265732 0.922277 0.518449
O O5 0.419483 0.578121 0.652661
O O6 0.282073 0.639491 0.471235
O O7 0.538589 0.355478 0.828280
O O8 0.340212 0.682770 0.753900
O O9 0.127526 0.411344 0.677183
O O10 0.941427 0.384662 0.907476
O O11 0.765553 0.056437 0.960855
O O12 0.790025 0.383408 0.002670
O O13 0.857408 0.367812 0.166450
O O14 0.605946 0.085100 0.152192
O O15 0.000000 0.500000 0.500000
O O16 0.327625 0.312992 0.984277
O O17 0.500000 0.000000 0.000000
#
# Coordination Sequence:
#
# PCOD9007621 Si02
#       8
#     2   2   2   2   2   2   2   2
#     4  10  22  39  63  88 122 161 197 251 306 360
#     4  10  21  41  61  89 122 157 201 249 307 360
#     4  10  21  39  62  90 120 160 201 251 300 360
#     4  11  23  40  64  89 125 161 202 252 306 365
#     4  11  22  40  64  90 124 161 205 253 303 364
#     4   9  20  36  60  85 116 154 201 244 294 353
#     4  11  23  43  61  89 127 160 199 256 311 356
#     4  12  23  40  65  91 122 163 208 250 300 367
#
# _framework density 20.520641999999999
#
# number of rings (size 3 to 8) (size 9 to 14) (size 15 to 20)
#    0.000    1.500    2.500    2.625    1.750    4.500 
#    2.250    0.000    0.000    0.000    0.000    0.000 
#    0.000    0.000    0.000    0.000    0.000    0.000 
#
# Total GULP energy -89385.177439 kJ/mol
# GULP energy per Si atom -5586.573590 kJ/mol
# Density = 2.047394 g / cm^3
# Si number density = 20.520642 Si / 1000 Ang^3
#
#
#
# Elastic Constant Matrix: (Units=GPa)
#
#
# Indices 1 2 3 4 5 6 
#
# 1 54.9916 14.4705 5.2387 8.0639 8.5661 -2.5544
# 2 14.4705 71.4858 10.8605 12.7379 11.1629 3.1685
# 3 5.2387 10.8605 62.3010 12.3450 13.4091 -11.6486
# 4 8.0639 12.7379 12.3450 35.1550 4.1518 3.7201
# 5 8.5661 11.1629 13.4091 4.1518 28.9927 -3.9790
# 6 -2.5544 3.1685 -11.6486 3.7201 -3.9790 33.7401
#
#
#
# Elastic Compliance Matrix: (Units=1/GPa)
#
#
# Indices 1 2 3 4 5 6 
#
# 1 0.020188 -0.002981 0.000843 -0.003532 -0.004432 0.001966
# 2 -0.002981 0.016309 -0.001243 -0.004009 -0.004563 -0.002282
# 3 0.000843 -0.001243 0.020447 -0.006819 -0.007272 0.007134
# 4 -0.003532 -0.004009 -0.006819 0.033721 0.000095 -0.005952
# 5 -0.004432 -0.004563 -0.007272 0.000095 0.041241 0.002436
# 6 0.001966 -0.002282 0.007134 -0.005952 0.002436 0.033408
#
#
# Mechanical properties :
#
#
# Convention : Reuss Voigt Hill
#
# Bulk Modulus (GPa) = 19.92654 27.76864 23.84759
# Shear Modulus (GPa) = 26.48264 30.12483 28.30373
#
# Velocity S-wave (km/s) = 3.59630 3.83564 3.71790
# Velocity P-wave (km/s) = 5.19385 5.76000 5.48424
#
# Compressibility (1/GPa) = 0.05018433
#
# Stress axis : x y z
#
# Youngs Moduli (GPa) = 49.53424 61.31598 48.90668
#
# Poissons Ratio (x) = 0.18275 -0.04124
# Poissons Ratio (y) = 0.14764 0.06077
# Poissons Ratio (z) = -0.04177 0.07619
#
# Static dielectric constant tensor:
#      x y z
#    x 1.743090 0.029250 0.017900 
#    y 0.029250 1.746270 0.006040 
#    z 0.017900 0.006040 1.715930 
# 
# From -- ./inp_files/37948.got.cif
#   From: 2010.05.17/outbox.cif.g08.bks.cpg/sg2_19_cif.got.tgz:37948.got - 2010.06.03 11:33:40.
