data_PCOD9007130
_publ_section_title
;
Structure prediction by ZEFSAII (Michael W. Deem and Ramdas Pophale) SiO2 
 PCOD9007130
Probable space group: P -1
;
_chemical_formula_sum "Si O2"
_cell_formula_units_Z 16
_cell_length_a 5.117288
_cell_length_b 23.293030
_cell_length_c 5.775619
_cell_angle_alpha 122.750728
_cell_angle_beta 83.894582
_cell_angle_gamma 98.631151
_cell_volume 572.178352
_symmetry_space_group_name_H-M "P -1"
_symmetry_group_IT_number 2
_symmetry_cell_setting 'triclinic'
loop_
_space_group_symop_operation_xyz
x,y,z
-x,-y,-z
loop_
_atom_site_type_symbol
_atom_site_label
_atom_site_fract_x
_atom_site_fract_y
_atom_site_fract_z
Si Si1 0.330744 0.578150 0.561620
Si Si2 0.073443 0.670148 0.456565
Si Si3 0.874968 0.547062 0.920296
Si Si4 0.004820 0.205625 0.566802
Si Si5 0.364165 0.042925 0.413418
Si Si6 0.183537 0.918188 0.923770
Si Si7 0.320591 0.292820 0.067567
Si Si8 0.553311 0.167844 0.903690
O O1 0.364401 0.502983 0.286194
O O2 0.531032 0.631356 0.801412
O O3 0.283240 0.622854 0.433366
O O4 0.079797 0.565465 0.729490
O O5 0.128563 0.737861 0.447392
O O6 0.948916 0.694972 0.757556
O O7 0.865787 0.617686 0.214607
O O8 0.000000 0.500000 0.000000
O O9 0.048777 0.135586 0.275095
O O10 0.792917 0.181960 0.731319
O O11 0.260007 0.248428 0.747028
O O12 0.593968 0.060742 0.242729
O O13 0.320849 0.114674 0.693754
O O14 0.500000 0.000000 0.500000
O O15 0.133267 0.989763 0.207766
O O16 0.328230 0.871244 0.983987
O O17 0.453394 0.241229 0.112810
#
# Coordination Sequence:
#
# PCOD9007130 Si02
#       8
#     2   2   2   2   2   2   2   2
#     4  10  22  43  64  86 118 152 194 242 291 347
#     4  11  23  40  60  86 119 154 194 239 292 347
#     4   9  20  41  66  86 112 153 194 241 293 343
#     4  11  23  38  58  86 121 156 195 240 291 347
#     4   8  16  32  60  88 111 151 200 242 291 344
#     4   9  17  35  61  84 114 156 197 242 292 342
#     4  12  24  36  58  90 120 153 194 238 289 351
#     4  10  21  39  60  86 120 156 196 242 292 347
#
# _framework density 27.963305999999999
#
# number of rings (size 3 to 8) (size 9 to 14) (size 15 to 20)
#    0.000    2.000    0.000    3.750    0.000    5.500 
#    0.000    9.375    0.000   30.750    0.000    0.000 
#    0.000    0.000    0.000    0.000    0.000    0.000 
#
# Total GULP energy -89579.007101 kJ/mol
# GULP energy per Si atom -5598.687944 kJ/mol
# Density = 2.789966 g / cm^3
# Si number density = 27.963306 Si / 1000 Ang^3
#
#
#
# Elastic Constant Matrix: (Units=GPa)
#
#
# Indices 1 2 3 4 5 6 
#
# 1 61.7888 28.8926 28.8499 11.0726 13.4991 11.2169
# 2 28.8926 207.8058 58.9090 6.0728 10.5368 9.5156
# 3 28.8499 58.9090 172.3544 59.5871 47.6166 23.6134
# 4 11.0726 6.0728 59.5871 81.3198 14.1713 11.3969
# 5 13.4991 10.5368 47.6166 14.1713 49.0592 13.2331
# 6 11.2169 9.5156 23.6134 11.3969 13.2331 28.3932
#
#
#
# Elastic Compliance Matrix: (Units=1/GPa)
#
#
# Indices 1 2 3 4 5 6 
#
# 1 0.019075 -0.002024 -0.000961 -0.000665 -0.002433 -0.004657
# 2 -0.002024 0.005688 -0.002442 0.001443 0.001367 -0.000292
# 3 -0.000961 -0.002442 0.011508 -0.006441 -0.007960 -0.002078
# 4 -0.000665 0.001443 -0.006441 0.017030 0.001903 -0.002587
# 5 -0.002433 0.001367 -0.007960 0.001903 0.029990 -0.007619
# 6 -0.004657 -0.000292 -0.002078 -0.002587 -0.007619 0.043475
#
#
# Mechanical properties :
#
#
# Convention : Reuss Voigt Hill
#
# Bulk Modulus (GPa) = 39.34215 75.02800 57.18508
# Shear Modulus (GPa) = 34.22506 53.44093 43.83299
#
# Velocity S-wave (km/s) = 3.50226 4.37637 3.96348
# Velocity P-wave (km/s) = 5.51853 7.24057 6.43739
#
# Compressibility (1/GPa) = 0.02541803
#
# Stress axis : x y z
#
# Youngs Moduli (GPa) = 52.42355 175.82056 86.89709
#
# Poissons Ratio (x) = 0.35580 0.08352
# Poissons Ratio (y) = 0.10609 0.21217
# Poissons Ratio (z) = 0.05038 0.42930
#
# Static dielectric constant tensor:
#      x y z
#    x 2.183440 -0.002360 0.119930 
#    y -0.002360 2.127100 0.008490 
#    z 0.119930 0.008490 2.269220 
# 
# From -- ./inp_files/13440.got.cif
#   From: 2010.05.17/outbox.cif.g08.bks.cpg/sg2_7_cif.got.tgz:13440.got - 2010.06.03 11:33:40.
