data_PCOD9007589
_publ_section_title
;
Structure prediction by ZEFSAII (Michael W. Deem and Ramdas Pophale) SiO2 
 PCOD9007589
Probable space group: P -1
;
_chemical_formula_sum "Si O2"
_cell_formula_units_Z 16
_cell_length_a 8.178186
_cell_length_b 5.907691
_cell_length_c 18.944599
_cell_angle_alpha 89.514472
_cell_angle_beta 126.501127
_cell_angle_gamma 86.436405
_cell_volume 733.152147
_symmetry_space_group_name_H-M "P -1"
_symmetry_group_IT_number 2
_symmetry_cell_setting 'triclinic'
loop_
_space_group_symop_operation_xyz
x,y,z
-x,-y,-z
loop_
_atom_site_type_symbol
_atom_site_label
_atom_site_fract_x
_atom_site_fract_y
_atom_site_fract_z
Si Si1 0.821413 0.365263 0.917596
Si Si2 0.996486 0.999438 0.853291
Si Si3 0.733132 0.030831 0.568356
Si Si4 0.959912 0.317497 0.723942
Si Si5 0.038263 0.404305 0.398881
Si Si6 0.725143 0.323447 0.439028
Si Si7 0.599938 0.245480 0.000504
Si Si8 0.301004 0.342636 0.248451
O O1 0.658134 0.275591 0.931949
O O2 0.700772 0.528164 0.827792
O O3 0.948905 0.162872 0.907587
O O4 0.000000 0.500000 0.000000
O O5 0.070428 0.136895 0.804632
O O6 0.780528 0.902119 0.782521
O O7 0.170301 0.799447 0.910767
O O8 0.873183 0.807229 0.623072
O O9 0.500000 0.000000 0.500000
O O10 0.770954 0.210193 0.637599
O O11 0.791387 0.106219 0.504564
O O12 0.065777 0.410677 0.682221
O O13 0.870258 0.513077 0.751127
O O14 0.230833 0.483509 0.492709
O O15 0.877381 0.343333 0.414360
O O16 0.504109 0.330678 0.347644
O O17 0.500000 0.500000 0.000000
O O18 0.500000 0.000000 0.000000
#
# Coordination Sequence:
#
# PCOD9007589 Si02
#       8
#     2   2   2   2   2   2   2   2
#     4  11  24  48  75 101 139 191 243 295 363 441
#     4  11  24  44  74  98 137 182 239 291 351 445
#     4  11  20  36  62  88 127 172 228 270 337 414
#     4  10  22  38  61  97 124 175 217 288 335 410
#     4  10  21  39  62  88 139 174 220 280 350 415
#     4  10  22  38  59  94 128 177 221 282 349 411
#     4  12  28  47  76 111 146 186 238 304 377 439
#     4  11  23  41  69  95 132 174 241 285 344 424
#
# _framework density 21.823573
#
# number of rings (size 3 to 8) (size 9 to 14) (size 15 to 20)
#    0.000    1.250    1.250    4.500    3.500    4.000 
#    2.250    0.000    0.000    0.000    0.000    0.000 
#    0.000    0.000    0.000    0.000    0.000    0.000 
#
# Total GULP energy -89141.420523 kJ/mol
# GULP energy per Si atom -5571.338783 kJ/mol
# Density = 2.177390 g / cm^3
# Si number density = 21.823573 Si / 1000 Ang^3
#
#
#
# Elastic Constant Matrix: (Units=GPa)
#
#
# Indices 1 2 3 4 5 6 
#
# 1 71.5903 44.7508 39.0926 -5.2037 -28.8932 13.7648
# 2 44.7508 94.1245 39.4427 -2.4505 -11.8512 2.5036
# 3 39.0926 39.4427 101.7302 -15.0235 -18.0116 4.3136
# 4 -5.2037 -2.4505 -15.0235 53.6569 11.9771 -8.6687
# 5 -28.8932 -11.8512 -18.0116 11.9771 37.9644 -12.1289
# 6 13.7648 2.5036 4.3136 -8.6687 -12.1289 34.0452
#
#
#
# Elastic Compliance Matrix: (Units=1/GPa)
#
#
# Indices 1 2 3 4 5 6 
#
# 1 0.031141 -0.010402 -0.005173 -0.003721 0.017266 -0.005966
# 2 -0.010402 0.016345 -0.003063 0.000025 -0.003600 0.002116
# 3 -0.005173 -0.003063 0.013602 0.003208 0.001127 0.001812
# 4 -0.003721 0.000025 0.003208 0.021343 -0.006713 0.004139
# 5 0.017266 -0.003600 0.001127 -0.006713 0.043188 0.006818
# 6 -0.005966 0.002116 0.001812 0.004139 0.006818 0.034883
#
#
# Mechanical properties :
#
#
# Convention : Reuss Voigt Hill
#
# Bulk Modulus (GPa) = 41.99812 57.11302 49.55557
# Shear Modulus (GPa) = 24.30560 34.74390 29.52475
#
# Velocity S-wave (km/s) = 3.34088 3.99436 3.68215
# Velocity P-wave (km/s) = 5.84535 6.89205 6.39017
#
# Compressibility (1/GPa) = 0.02381059
#
# Stress axis : x y z
#
# Youngs Moduli (GPa) = 32.11232 61.18249 73.51922
#
# Poissons Ratio (x) = 0.63642 0.38032
# Poissons Ratio (y) = 0.33403 0.22520
# Poissons Ratio (z) = 0.16612 0.18741
#
# Static dielectric constant tensor:
#      x y z
#    x 1.794240 0.070700 -0.018960 
#    y 0.070700 1.920120 -0.013830 
#    z -0.018960 -0.013830 1.776860 
# 
# From -- ./inp_files/90124.got.cif
#   From: 2010.05.17/outbox.cif.g08.bks.cpg/sg2_46_cif.got.tgz:90124.got - 2010.06.03 11:33:40.
