data_PCOD9007577
_publ_section_title
;
Structure prediction by ZEFSAII (Michael W. Deem and Ramdas Pophale) SiO2 
 PCOD9007577
Probable space group: P -1
;
_chemical_formula_sum "Si O2"
_cell_formula_units_Z 14
_cell_length_a 14.108487
_cell_length_b 11.323344
_cell_length_c 9.187251
_cell_angle_alpha 153.925254
_cell_angle_beta 70.444512
_cell_angle_gamma 102.473876
_cell_volume 595.076901
_symmetry_space_group_name_H-M "P -1"
_symmetry_group_IT_number 2
_symmetry_cell_setting 'triclinic'
loop_
_space_group_symop_operation_xyz
x,y,z
-x,-y,-z
loop_
_atom_site_type_symbol
_atom_site_label
_atom_site_fract_x
_atom_site_fract_y
_atom_site_fract_z
Si Si1 0.334025 0.121933 0.653276
Si Si2 0.728942 0.317689 0.010596
Si Si3 0.867461 0.579345 0.053502
Si Si4 0.142786 0.031724 0.243039
Si Si5 0.546874 0.934398 0.206909
Si Si6 0.043879 0.521013 0.662676
Si Si7 0.485230 0.388455 0.542430
O O1 0.236416 0.349843 0.912027
O O2 0.351486 0.070216 0.757321
O O3 0.309816 0.869413 0.295838
O O4 0.448288 0.139173 0.559360
O O5 0.748230 0.160919 0.980453
O O6 0.836431 0.371540 0.956172
O O7 0.638619 0.584781 0.356497
O O8 0.886404 0.816024 0.417036
O O9 0.958099 0.499795 0.805318
O O10 0.134773 0.266169 0.383601
O O11 0.074864 0.815336 0.989680
O O12 0.524598 0.628174 0.879037
O O13 0.544687 0.088218 0.224993
O O14 0.000000 0.500000 0.500000
O O15 0.500000 0.500000 0.500000
#
# Coordination Sequence:
#
# PCOD9007577 Si02
#       7
#     2   2   2   2   2   2   2
#     4   9  21  36  64  94 121 159 214 269 305 361
#     4  10  22  40  69  94 122 163 224 260 302 385
#     4  11  22  42  72  95 129 166 229 260 310 392
#     4  11  24  46  70  94 125 177 216 259 320 395
#     4  10  21  39  62  88 126 165 207 260 315 365
#     4  12  27  45  65  98 136 164 207 273 335 378
#     4  11  23  41  60  91 130 169 209 255 313 375
#
# _framework density 23.526368999999999
#
# number of rings (size 3 to 8) (size 9 to 14) (size 15 to 20)
#    0.000    1.429    2.857    1.714    6.000    1.714 
#    5.143    0.000    0.000    0.000    0.000    0.000 
#    0.000    0.000    0.000    0.000    0.000    0.000 
#
# Total GULP energy -78068.239300 kJ/mol
# GULP energy per Si atom -5576.302807 kJ/mol
# Density = 2.347282 g / cm^3
# Si number density = 23.526369 Si / 1000 Ang^3
#
#
#
# Elastic Constant Matrix: (Units=GPa)
#
#
# Indices 1 2 3 4 5 6 
#
# 1 85.5497 39.5255 26.4251 1.0712 22.4329 -29.9451
# 2 39.5255 113.0265 32.9060 20.2241 16.0991 -27.5679
# 3 26.4251 32.9060 30.4837 13.2415 17.9454 -17.4827
# 4 1.0712 20.2241 13.2415 37.5468 -3.0656 1.8728
# 5 22.4329 16.0991 17.9454 -3.0656 27.0838 -4.0034
# 6 -29.9451 -27.5679 -17.4827 1.8728 -4.0034 49.4127
#
#
#
# Elastic Compliance Matrix: (Units=1/GPa)
#
#
# Indices 1 2 3 4 5 6 
#
# 1 0.019785 -0.002348 -0.002736 0.000261 -0.011857 0.008741
# 2 -0.002348 0.013941 -0.008771 -0.004562 -0.000547 0.003380
# 3 -0.002736 -0.008771 0.140634 -0.053736 -0.086129 0.038265
# 4 0.000261 -0.004562 -0.053736 0.052387 0.041065 -0.020058
# 5 -0.011857 -0.000547 -0.086129 0.041065 0.104191 -0.031079
# 6 0.008741 0.003380 0.038265 -0.020058 -0.031079 0.039202
#
#
# Mechanical properties :
#
#
# Convention : Reuss Voigt Hill
#
# Bulk Modulus (GPa) = 6.81895 47.41922 27.11909
# Shear Modulus (GPa) = 11.19239 31.48889 21.34064
#
# Velocity S-wave (km/s) = 2.18351 3.66245 3.01507
# Velocity P-wave (km/s) = 3.04330 6.17125 4.86549
#
# Compressibility (1/GPa) = 0.14665020
#
# Stress axis : x y z
#
# Youngs Moduli (GPa) = 50.54422 71.73218 7.11065
#
# Poissons Ratio (x) = 0.16842 0.01945
# Poissons Ratio (y) = 0.11867 0.06237
# Poissons Ratio (z) = 0.13829 0.62914
#
# Static dielectric constant tensor:
#      x y z
#    x 1.945430 -0.015960 -0.032950 
#    y -0.015960 2.015930 -0.015050 
#    z -0.032950 -0.015050 1.939870 
# 
# From -- ./inp_files/308936.got.cif
#   From: 2010.05.17/outbox.cif.g08.bks.cpg/sg2_155_cif.got.tgz:308936.got - 2010.06.03 11:33:40.
