data_PCOD9007198
_publ_section_title
;
Structure prediction by ZEFSAII (Michael W. Deem and Ramdas Pophale) SiO2 
 PCOD9007198
Probable space group: P -1
;
_chemical_formula_sum "Si O2"
_cell_formula_units_Z 14
_cell_length_a 6.998535
_cell_length_b 18.609527
_cell_length_c 5.360623
_cell_angle_alpha 107.331749
_cell_angle_beta 66.593270
_cell_angle_gamma 108.048445
_cell_volume 596.831824
_symmetry_space_group_name_H-M "P -1"
_symmetry_group_IT_number 2
_symmetry_cell_setting 'triclinic'
loop_
_space_group_symop_operation_xyz
x,y,z
-x,-y,-z
loop_
_atom_site_type_symbol
_atom_site_label
_atom_site_fract_x
_atom_site_fract_y
_atom_site_fract_z
Si Si1 0.857215 0.155486 0.774927
Si Si2 0.284050 0.695372 0.559363
Si Si3 0.428787 0.205457 0.165538
Si Si4 0.991097 0.087254 0.150619
Si Si5 0.125529 0.296455 0.530874
Si Si6 0.707720 0.467203 0.845020
Si Si7 0.024038 0.591809 0.955655
O O1 0.863138 0.097732 0.480736
O O2 0.058331 0.226782 0.691107
O O3 0.634259 0.183261 0.911887
O O4 0.895022 0.120901 0.989993
O O5 0.475997 0.767789 0.578777
O O6 0.088248 0.714201 0.531409
O O7 0.334873 0.616097 0.347730
O O8 0.180669 0.667675 0.850397
O O9 0.229646 0.136420 0.138818
O O10 0.324093 0.280869 0.251812
O O11 0.000000 0.000000 0.000000
O O12 0.138733 0.377625 0.744434
O O13 0.891536 0.542452 0.751294
O O14 0.500000 0.500000 0.000000
O O15 0.814621 0.451959 0.036480
#
# Coordination Sequence:
#
# PCOD9007198 Si02
#       7
#     2   2   2   2   2   2   2
#     4  11  24  46  71 106 139 177 233 276 333 415
#     4  11  22  41  61  96 131 177 231 285 339 413
#     4  11  23  41  70  97 134 181 220 282 342 400
#     4  11  27  48  72 105 143 180 224 279 338 406
#     4  10  23  41  64  98 138 174 230 286 340 401
#     4  10  22  38  59  89 127 177 227 280 349 402
#     4  10  21  39  60  89 133 169 226 291 332 405
#
# _framework density 23.457194000000001
#
# number of rings (size 3 to 8) (size 9 to 14) (size 15 to 20)
#    0.000    1.429    1.429    3.429    0.000    7.429 
#    0.000    0.000    0.000    0.000    0.000    0.000 
#    0.000    0.000    0.000    0.000    0.000    0.000 
#
# Total GULP energy -78029.105250 kJ/mol
# GULP energy per Si atom -5573.507518 kJ/mol
# Density = 2.340380 g / cm^3
# Si number density = 23.457194 Si / 1000 Ang^3
#
#
#
# Elastic Constant Matrix: (Units=GPa)
#
#
# Indices 1 2 3 4 5 6 
#
# 1 153.9820 46.2962 86.8461 18.8462 -22.7066 5.0550
# 2 46.2962 80.5436 58.7279 33.9043 -4.9524 -1.3717
# 3 86.8461 58.7279 140.6011 52.1373 -20.5848 -1.6703
# 4 18.8462 33.9043 52.1373 48.2595 -8.5552 3.3951
# 5 -22.7066 -4.9524 -20.5848 -8.5552 44.8509 3.7990
# 6 5.0550 -1.3717 -1.6703 3.3951 3.7990 32.5924
#
#
#
# Elastic Compliance Matrix: (Units=1/GPa)
#
#
# Indices 1 2 3 4 5 6 
#
# 1 0.012035 -0.004159 -0.008138 0.007936 0.003728 -0.003720
# 2 -0.004159 0.021314 -0.002571 -0.011378 -0.003355 0.002987
# 3 -0.008138 -0.002571 0.019343 -0.015975 0.001115 0.003679
# 4 0.007936 -0.011378 -0.015975 0.044213 0.004512 -0.007660
# 5 0.003728 -0.003355 0.001115 0.004512 0.025533 -0.004108
# 6 -0.003720 0.002987 0.003679 -0.007660 -0.004108 0.032850
#
#
# Mechanical properties :
#
#
# Convention : Reuss Voigt Hill
#
# Bulk Modulus (GPa) = 43.55787 84.31855 63.93821
# Shear Modulus (GPa) = 25.95026 37.35768 31.65397
#
# Velocity S-wave (km/s) = 3.32969 3.99506 3.67745
# Velocity P-wave (km/s) = 5.77857 7.56996 6.73410
#
# Compressibility (1/GPa) = 0.02295796
#
# Stress axis : x y z
#
# Youngs Moduli (GPa) = 83.09167 46.91646 51.69705
#
# Poissons Ratio (x) = 0.19511 0.42071
# Poissons Ratio (y) = 0.34556 0.13290
# Poissons Ratio (z) = 0.67620 0.12061
#
# Static dielectric constant tensor:
#      x y z
#    x 1.874400 0.001830 -0.008180 
#    y 0.001830 2.060270 -0.015960 
#    z -0.008180 -0.015960 1.978130 
# 
# From -- ./inp_files/11464.got.cif
#   From: 2010.05.17/outbox.cif.g08.bks.cpg/sg2_6_cif.got.tgz:11464.got - 2010.06.03 11:33:40.
