data_PCOD9007439
_publ_section_title
;
Structure prediction by ZEFSAII (Michael W. Deem and Ramdas Pophale) SiO2 
 PCOD9007439
Probable space group: P -1
;
_chemical_formula_sum "Si O2"
_cell_formula_units_Z 16
_cell_length_a 8.227138
_cell_length_b 15.966606
_cell_length_c 10.127062
_cell_angle_alpha 39.761046
_cell_angle_beta 104.235862
_cell_angle_gamma 104.005002
_cell_volume 821.690235
_symmetry_space_group_name_H-M "P -1"
_symmetry_group_IT_number 2
_symmetry_cell_setting 'triclinic'
loop_
_space_group_symop_operation_xyz
x,y,z
-x,-y,-z
loop_
_atom_site_type_symbol
_atom_site_label
_atom_site_fract_x
_atom_site_fract_y
_atom_site_fract_z
Si Si1 0.735574 0.790312 0.705325
Si Si2 0.129427 0.498150 0.913189
Si Si3 0.620425 0.884707 0.007532
Si Si4 0.039605 0.589325 0.274267
Si Si5 0.708728 0.954480 0.239279
Si Si6 0.428965 0.604204 0.259582
Si Si7 0.072043 0.120215 0.116210
Si Si8 0.562857 0.382527 0.065438
O O1 0.722281 0.851031 0.485332
O O2 0.851580 0.879551 0.720619
O O3 0.552685 0.752155 0.779887
O O4 0.802881 0.646247 0.887718
O O5 0.258388 0.622230 0.823530
O O6 0.044654 0.496503 0.757467
O O7 0.000000 0.500000 0.000000
O O8 0.783532 0.922970 0.901918
O O9 0.457561 0.968544 0.857277
O O10 0.676654 0.894733 0.159527
O O11 0.548488 0.737252 0.138032
O O12 0.237116 0.619746 0.245876
O O13 0.000000 0.500000 0.500000
O O14 0.956326 0.726856 0.102858
O O15 0.888248 0.042108 0.165300
O O16 0.500000 0.500000 0.500000
O O17 0.427872 0.573304 0.139275
O O18 0.500000 0.500000 0.000000
#
# Coordination Sequence:
#
# PCOD9007439 Si02
#       8
#     2   2   2   2   2   2   2   2
#     4  10  23  40  67  90 128 170 215 272 320 389
#     4  10  21  39  61  93 130 166 210 264 326 383
#     4  11  25  44  67  94 134 172 221 271 325 395
#     4  11  24  39  64  98 131 168 216 273 331 397
#     4  11  25  45  65  96 131 175 223 270 325 391
#     4  12  24  41  70  96 133 177 214 273 340 389
#     4  11  22  46  65  94 130 170 222 274 325 388
#     4  10  22  41  63  94 131 168 213 271 322 398
#
# _framework density 19.472059000000002
#
# number of rings (size 3 to 8) (size 9 to 14) (size 15 to 20)
#    0.000    1.250    3.750    1.500    7.000    1.500 
#    2.250    0.000    0.000    0.000    0.000    0.000 
#    0.000    0.000    0.000    0.000    0.000    0.000 
#
# Total GULP energy -89217.018457 kJ/mol
# GULP energy per Si atom -5576.063654 kJ/mol
# Density = 1.942774 g / cm^3
# Si number density = 19.472059 Si / 1000 Ang^3
#
#
#
# Elastic Constant Matrix: (Units=GPa)
#
#
# Indices 1 2 3 4 5 6 
#
# 1 131.5986 48.6394 29.3311 19.1816 -11.7166 11.1224
# 2 48.6394 102.7289 35.5589 31.0778 -4.6971 13.3513
# 3 29.3311 35.5589 85.2544 34.8406 -13.4621 6.7548
# 4 19.1816 31.0778 34.8406 27.4980 0.3023 -0.4024
# 5 -11.7166 -4.6971 -13.4621 0.3023 25.0192 3.7016
# 6 11.1224 13.3513 6.7548 -0.4024 3.7016 38.8680
#
#
#
# Elastic Compliance Matrix: (Units=1/GPa)
#
#
# Indices 1 2 3 4 5 6 
#
# 1 0.009837 -0.003066 0.000509 -0.004128 0.004701 -0.002341
# 2 -0.003066 0.018268 0.005474 -0.025618 0.006316 -0.007216
# 3 0.000509 0.005474 0.033928 -0.049921 0.021679 -0.010504
# 4 -0.004128 -0.025618 -0.049921 0.132222 -0.038710 0.023712
# 5 0.004701 0.006316 0.021679 -0.038710 0.057435 -0.013153
# 6 -0.002341 -0.007216 -0.010504 0.023712 -0.013153 0.032200
#
#
# Mechanical properties :
#
#
# Convention : Reuss Voigt Hill
#
# Bulk Modulus (GPa) = 14.73481 60.73783 37.73632
# Shear Modulus (GPa) = 16.62912 32.01387 24.32150
#
# Velocity S-wave (km/s) = 2.92550 4.05914 3.53802
# Velocity P-wave (km/s) = 4.35832 7.29581 6.00932
#
# Compressibility (1/GPa) = 0.06786651
#
# Stress axis : x y z
#
# Youngs Moduli (GPa) = 101.66204 54.74135 29.47437
#
# Poissons Ratio (x) = 0.16781 -0.01501
# Poissons Ratio (y) = 0.31165 -0.16133
# Poissons Ratio (z) = -0.05178 -0.29963
#
# Static dielectric constant tensor:
#      x y z
#    x 1.743740 0.020160 0.030080 
#    y 0.020160 1.716080 0.003470 
#    z 0.030080 0.003470 1.635730 
# 
# From -- ./inp_files/205437.got.cif
#   From: 2010.05.17/outbox.cif.g08.bks.cpg/sg2_103_cif.got.tgz:205437.got - 2010.06.03 11:33:40.
