data_PCOD9007088
_publ_section_title
;
Structure prediction by ZEFSAII (Michael W. Deem and Ramdas Pophale) SiO2 
 PCOD9007088
Probable space group: P -1
;
_chemical_formula_sum "Si O2"
_cell_formula_units_Z 16
_cell_length_a 5.983250
_cell_length_b 12.030825
_cell_length_c 19.683626
_cell_angle_alpha 37.131217
_cell_angle_beta 115.813884
_cell_angle_gamma 117.616475
_cell_volume 752.083345
_symmetry_space_group_name_H-M "P -1"
_symmetry_group_IT_number 2
_symmetry_cell_setting 'triclinic'
loop_
_space_group_symop_operation_xyz
x,y,z
-x,-y,-z
loop_
_atom_site_type_symbol
_atom_site_label
_atom_site_fract_x
_atom_site_fract_y
_atom_site_fract_z
Si Si1 0.584399 0.655000 0.876338
Si Si2 0.088584 0.728188 0.778490
Si Si3 0.575957 0.489299 0.325014
Si Si4 0.424223 0.266515 0.658547
Si Si5 0.750857 0.912307 0.557119
Si Si6 0.682866 0.396947 0.888874
Si Si7 0.897781 0.498375 0.563855
Si Si8 0.872035 0.137856 0.135341
O O1 0.372073 0.767958 0.768706
O O2 0.627558 0.531803 0.876728
O O3 0.825295 0.807896 0.861697
O O4 0.500000 0.500000 0.000000
O O5 0.138482 0.732389 0.863308
O O6 0.901674 0.864232 0.667793
O O7 0.953020 0.519094 0.838784
O O8 0.551680 0.600001 0.337011
O O9 0.381645 0.289234 0.394313
O O10 0.515383 0.608699 0.194602
O O11 0.862912 0.458377 0.376487
O O12 0.712118 0.299108 0.653902
O O13 0.271770 0.345212 0.539636
O O14 0.265157 0.067389 0.758522
O O15 0.500000 0.000000 0.500000
O O16 0.000000 0.000000 0.500000
O O17 0.725847 0.206299 0.020166
O O18 0.000000 0.500000 0.500000
#
# Coordination Sequence:
#
# PCOD9007088 Si02
#       8
#     2   2   2   2   2   2   2   2
#     4  11  19  38  65  90 130 178 216 274 342 395
#     4  10  22  38  63  92 129 175 215 280 346 396
#     4  10  24  42  65  89 136 177 214 277 349 404
#     4  10  23  40  66  93 124 177 222 278 338 406
#     4  11  28  43  67 103 136 174 230 288 346 413
#     4  10  21  39  59  95 132 172 218 279 339 400
#     4   9  21  44  65  86 123 171 222 272 344 395
#     4  11  22  37  63  97 131 166 238 271 326 413
#
# _framework density 21.274239999999999
#
# number of rings (size 3 to 8) (size 9 to 14) (size 15 to 20)
#    0.000    1.750    2.500    0.750    8.750    5.500 
#    0.000    0.625    0.000    0.000    0.000    0.000 
#    0.000    0.000    0.000    0.000    0.000    0.000 
#
# Total GULP energy -89098.220164 kJ/mol
# GULP energy per Si atom -5568.638760 kJ/mol
# Density = 2.122582 g / cm^3
# Si number density = 21.274240 Si / 1000 Ang^3
#
#
#
# Elastic Constant Matrix: (Units=GPa)
#
#
# Indices 1 2 3 4 5 6 
#
# 1 109.9380 32.3738 55.9000 2.3000 2.7555 37.5321
# 2 32.3738 71.9474 44.3957 14.9164 3.5458 29.1335
# 3 55.9000 44.3957 136.9074 20.1559 1.9276 35.6669
# 4 2.3000 14.9164 20.1559 36.6791 9.7445 -2.9189
# 5 2.7555 3.5458 1.9276 9.7445 35.5364 0.1521
# 6 37.5321 29.1335 35.6669 -2.9189 0.1521 40.0113
#
#
#
# Elastic Compliance Matrix: (Units=1/GPa)
#
#
# Indices 1 2 3 4 5 6 
#
# 1 0.014334 -0.000370 -0.003057 0.000358 -0.000962 -0.010421
# 2 -0.000370 0.023771 -0.001931 -0.010006 0.000574 -0.015972
# 3 -0.003057 -0.001931 0.011890 -0.006524 0.001603 -0.006808
# 4 0.000358 -0.010006 -0.006524 0.038618 -0.009332 0.015619
# 5 -0.000962 0.000574 0.001603 -0.009332 0.030637 -0.001741
# 6 -0.010421 -0.015972 -0.006808 0.015619 -0.001741 0.053613
#
#
# Mechanical properties :
#
#
# Convention : Reuss Voigt Hill
#
# Bulk Modulus (GPa) = 25.45935 64.90353 45.18144
# Shear Modulus (GPa) = 25.42322 34.85359 30.13841
#
# Velocity S-wave (km/s) = 3.46066 4.05198 3.76794
# Velocity P-wave (km/s) = 5.28786 7.24332 6.34142
#
# Compressibility (1/GPa) = 0.03927830
#
# Stress axis : x y z
#
# Youngs Moduli (GPa) = 69.76565 42.06825 84.10465
#
# Poissons Ratio (x) = 0.01558 0.25707
# Poissons Ratio (y) = 0.02584 0.16242
# Poissons Ratio (z) = 0.21324 0.08124
#
# Static dielectric constant tensor:
#      x y z
#    x 2.009750 0.033040 0.005940 
#    y 0.033040 1.739000 -0.010650 
#    z 0.005940 -0.010650 1.833790 
# 
# From -- ./inp_files/583040.got.cif
#   From: 2010.05.17/outbox.cif.g08.bks.cpg/sg2_292_cif.got.tgz:583040.got - 2010.06.03 11:33:40.
