data_PCOD9007417
_publ_section_title
;
Structure prediction by ZEFSAII (Michael W. Deem and Ramdas Pophale) SiO2 
 PCOD9007417
Probable space group: P -1
;
_chemical_formula_sum "Si O2"
_cell_formula_units_Z 16
_cell_length_a 10.594854
_cell_length_b 13.594600
_cell_length_c 7.495681
_cell_angle_alpha 73.653334
_cell_angle_beta 134.441815
_cell_angle_gamma 88.264975
_cell_volume 697.739855
_symmetry_space_group_name_H-M "P -1"
_symmetry_group_IT_number 2
_symmetry_cell_setting 'triclinic'
loop_
_space_group_symop_operation_xyz
x,y,z
-x,-y,-z
loop_
_atom_site_type_symbol
_atom_site_label
_atom_site_fract_x
_atom_site_fract_y
_atom_site_fract_z
Si Si1 0.479223 0.205527 0.641070
Si Si2 0.723773 0.166943 0.531701
Si Si3 0.197123 0.407013 0.084631
Si Si4 0.170494 0.613584 0.185758
Si Si5 0.914668 0.924429 0.227446
Si Si6 0.147263 0.827879 0.847200
Si Si7 0.535733 0.401758 0.217602
Si Si8 0.508414 0.020910 0.287174
O O1 0.607497 0.183197 0.595277
O O2 0.305166 0.312604 0.380630
O O3 0.425588 0.097818 0.676076
O O4 0.626378 0.215464 0.927292
O O5 0.948002 0.116736 0.784657
O O6 0.670480 0.287095 0.339851
O O7 0.648333 0.088449 0.375648
O O8 0.180921 0.523671 0.091537
O O9 0.336548 0.388646 0.067892
O O10 0.998569 0.394583 0.854218
O O11 0.361723 0.584121 0.503363
O O12 0.116218 0.733584 0.986445
O O13 0.023802 0.851521 0.536062
O O14 0.894795 0.050402 0.176773
O O15 0.706826 0.919629 0.008003
O O16 0.500000 0.500000 0.000000
O O17 0.500000 0.000000 0.500000
#
# Coordination Sequence:
#
# PCOD9007417 Si02
#       8
#     2   2   2   2   2   2   2   2
#     4   9  19  39  62  90 120 155 205 250 301 369
#     4  10  21  39  61  92 114 168 199 237 323 353
#     4  10  23  41  66  92 117 163 212 251 308 366
#     4  11  23  43  66  90 118 170 207 251 311 359
#     4  10  23  39  59  92 128 158 200 254 297 362
#     4  10  21  41  61  89 125 162 204 248 304 359
#     4  11  25  43  64  92 126 158 204 263 306 362
#     4   9  20  37  58  89 123 153 199 244 298 365
#
# _framework density 22.931182
#
# number of rings (size 3 to 8) (size 9 to 14) (size 15 to 20)
#    0.000    2.000    2.500    0.375    3.500    8.000 
#    6.750    1.875    0.000    0.000    0.000    0.000 
#    0.000    0.000    0.000    0.000    0.000    0.000 
#
# Total GULP energy -89368.736791 kJ/mol
# GULP energy per Si atom -5585.546049 kJ/mol
# Density = 2.287899 g / cm^3
# Si number density = 22.931182 Si / 1000 Ang^3
#
#
#
# Elastic Constant Matrix: (Units=GPa)
#
#
# Indices 1 2 3 4 5 6 
#
# 1 32.4917 -5.1908 7.4583 -6.1899 1.0056 4.2307
# 2 -5.1908 76.4053 9.9792 -7.6665 -2.4963 24.1538
# 3 7.4583 9.9792 86.5799 -9.3165 -15.6654 12.9907
# 4 -6.1899 -7.6665 -9.3165 35.8167 2.5306 -0.5017
# 5 1.0056 -2.4963 -15.6654 2.5306 35.4343 -5.8580
# 6 4.2307 24.1538 12.9907 -0.5017 -5.8580 27.0977
#
#
#
# Elastic Compliance Matrix: (Units=1/GPa)
#
#
# Indices 1 2 3 4 5 6 
#
# 1 0.035289 0.006831 -0.002052 0.007138 -0.003806 -0.011306
# 2 0.006831 0.020174 0.000185 0.005436 -0.002309 -0.019536
# 3 -0.002052 0.000185 0.013716 0.002821 0.005062 -0.005273
# 4 0.007138 0.005436 0.002821 0.031090 -0.001977 -0.007165
# 5 -0.003806 -0.002309 0.005062 -0.001977 0.031710 0.007044
# 6 -0.011306 -0.019536 -0.005273 -0.007165 0.007044 0.060001
#
#
# Mechanical properties :
#
#
# Convention : Reuss Voigt Hill
#
# Bulk Modulus (GPa) = 12.64087 24.44116 18.54101
# Shear Modulus (GPa) = 23.98996 31.88509 27.93753
#
# Velocity S-wave (km/s) = 3.23797 3.73294 3.49423
# Velocity P-wave (km/s) = 4.41630 5.40939 4.93787
#
# Compressibility (1/GPa) = 0.07910846
#
# Stress axis : x y z
#
# Youngs Moduli (GPa) = 28.33735 49.56882 72.90686
#
# Poissons Ratio (x) = -0.33863 0.14957
# Poissons Ratio (y) = -0.19358 -0.01347
# Poissons Ratio (z) = 0.05813 -0.00915
#
# Static dielectric constant tensor:
#      x y z
#    x 1.937090 -0.027150 -0.023560 
#    y -0.027150 1.894740 0.010400 
#    z -0.023560 0.010400 1.860150 
# 
# From -- ./inp_files/272724.got.cif
#   From: 2010.05.17/outbox.cif.g08.bks.cpg/sg2_137_cif.got.tgz:272724.got - 2010.06.03 11:33:40.
