data_PCOD9007098
_publ_section_title
;
Structure prediction by ZEFSAII (Michael W. Deem and Ramdas Pophale) SiO2 
 PCOD9007098
Probable space group: P -1
;
_chemical_formula_sum "Si O2"
_cell_formula_units_Z 16
_cell_length_a 5.351590
_cell_length_b 5.562288
_cell_length_c 20.299385
_cell_angle_alpha 100.441515
_cell_angle_beta 98.130654
_cell_angle_gamma 97.218332
_cell_volume 581.128222
_symmetry_space_group_name_H-M "P -1"
_symmetry_group_IT_number 2
_symmetry_cell_setting 'triclinic'
loop_
_space_group_symop_operation_xyz
x,y,z
-x,-y,-z
loop_
_atom_site_type_symbol
_atom_site_label
_atom_site_fract_x
_atom_site_fract_y
_atom_site_fract_z
Si Si1 0.052934 0.267068 0.336458
Si Si2 0.852618 0.332906 0.831021
Si Si3 0.561716 0.358555 0.706463
Si Si4 0.816198 0.645365 0.957856
Si Si5 0.732898 0.263282 0.208165
Si Si6 0.285361 0.093633 0.453453
Si Si7 0.781470 0.953417 0.083883
Si Si8 0.824060 0.644989 0.421037
O O1 0.198018 0.514009 0.320192
O O2 0.267627 0.151498 0.378255
O O3 0.878311 0.132467 0.265187
O O4 0.874291 0.374325 0.388654
O O5 0.665305 0.202093 0.761057
O O6 0.695104 0.460126 0.887255
O O7 0.046292 0.546632 0.811226
O O8 0.036958 0.178921 0.868578
O O9 0.450498 0.576049 0.753366
O O10 0.358091 0.268414 0.638307
O O11 0.654398 0.772574 0.012131
O O12 0.015161 0.849477 0.937581
O O13 0.000000 0.500000 0.000000
O O14 0.614505 0.085669 0.135529
O O15 0.258589 0.341908 0.505914
O O16 0.500000 0.000000 0.500000
O O17 0.061078 0.862410 0.439132
#
# Coordination Sequence:
#
# PCOD9007098 Si02
#       8
#     2   2   2   2   2   2   2   2
#     4  10  22  41  60  82 117 155 190 234 290 345
#     4   9  18  35  56  82 114 148 190 236 285 339
#     4  10  21  39  60  82 117 155 190 238 289 340
#     4   8  15  30  56  84 111 148 191 233 281 335
#     4   9  20  35  53  81 114 150 190 233 283 340
#     4  11  24  40  62  89 114 146 193 240 288 346
#     4   9  16  31  57  82 111 152 190 232 284 333
#     4  10  23  41  60  85 116 151 189 236 291 345
#
# _framework density 27.532648999999999
#
# number of rings (size 3 to 8) (size 9 to 14) (size 15 to 20)
#    0.000    2.500    0.000    1.125    0.000   10.000 
#    0.000   10.625    0.000   25.500    0.000    0.000 
#    0.000    0.000    0.000    0.000    0.000    0.000 
#
# Total GULP energy -89473.547226 kJ/mol
# GULP energy per Si atom -5592.096702 kJ/mol
# Density = 2.746998 g / cm^3
# Si number density = 27.532649 Si / 1000 Ang^3
#
#
#
# Elastic Constant Matrix: (Units=GPa)
#
#
# Indices 1 2 3 4 5 6 
#
# 1 43.4888 4.0821 11.7042 7.8397 9.5908 3.1845
# 2 4.0821 58.4763 41.7766 -13.2434 2.7977 -2.6400
# 3 11.7042 41.7766 174.7992 -2.3139 2.8749 -1.9943
# 4 7.8397 -13.2434 -2.3139 62.0964 -19.4410 4.3460
# 5 9.5908 2.7977 2.8749 -19.4410 49.1898 8.8192
# 6 3.1845 -2.6400 -1.9943 4.3460 8.8192 37.9264
#
#
#
# Elastic Compliance Matrix: (Units=1/GPa)
#
#
# Indices 1 2 3 4 5 6 
#
# 1 0.026225 -0.001965 -0.001246 -0.006070 -0.007327 -0.000005
# 2 -0.001965 0.021983 -0.005071 0.005139 0.001366 0.000522
# 3 -0.001246 -0.005071 0.007013 -0.000750 -0.000221 0.000258
# 4 -0.006070 0.005139 -0.000750 0.021377 0.010095 -0.003969
# 5 -0.007327 0.001366 -0.000221 0.010095 0.026886 -0.006710
# 6 -0.000005 0.000522 0.000258 -0.003969 -0.006710 0.028432
#
#
# Mechanical properties :
#
#
# Convention : Reuss Voigt Hill
#
# Bulk Modulus (GPa) = 25.86869 43.54334 34.70601
# Shear Modulus (GPa) = 30.98582 44.45595 37.72088
#
# Velocity S-wave (km/s) = 3.35837 4.02265 3.70542
# Velocity P-wave (km/s) = 4.94512 6.11760 5.56234
#
# Compressibility (1/GPa) = 0.03865678
#
# Stress axis : x y z
#
# Youngs Moduli (GPa) = 38.13211 45.49030 142.59531
#
# Poissons Ratio (x) = 0.08937 0.17772
# Poissons Ratio (y) = 0.07491 0.72307
# Poissons Ratio (z) = 0.04752 0.23067
#
# Static dielectric constant tensor:
#      x y z
#    x 2.191430 -0.095500 -0.054740 
#    y -0.095500 2.221200 0.021710 
#    z -0.054740 0.021710 2.161470 
# 
# From -- ./inp_files/11287.got.cif
#   From: 2010.05.17/outbox.cif.g08.bks.cpg/sg2_6_cif.got.tgz:11287.got - 2010.06.03 11:33:40.
