data_PCOD9007533
_publ_section_title
;
Structure prediction by ZEFSAII (Michael W. Deem and Ramdas Pophale) SiO2 
 PCOD9007533
Probable space group: P -1
;
_chemical_formula_sum "Si O2"
_cell_formula_units_Z 14
_cell_length_a 4.896908
_cell_length_b 12.537129
_cell_length_c 14.374927
_cell_angle_alpha 63.749356
_cell_angle_beta 124.450969
_cell_angle_gamma 96.029592
_cell_volume 639.987188
_symmetry_space_group_name_H-M "P -1"
_symmetry_group_IT_number 2
_symmetry_cell_setting 'triclinic'
loop_
_space_group_symop_operation_xyz
x,y,z
-x,-y,-z
loop_
_atom_site_type_symbol
_atom_site_label
_atom_site_fract_x
_atom_site_fract_y
_atom_site_fract_z
Si Si1 0.292772 0.631546 0.434583
Si Si2 0.333494 0.383966 0.020843
Si Si3 0.442086 0.247818 0.729055
Si Si4 0.739434 0.275136 0.972902
Si Si5 0.620208 0.819073 0.760990
Si Si6 0.859277 0.932098 0.378965
Si Si7 0.590370 0.812990 0.542208
O O1 0.500000 0.500000 0.500000
O O2 0.315010 0.715388 0.316486
O O3 0.471103 0.692645 0.528365
O O4 0.897520 0.646999 0.374558
O O5 0.068228 0.610283 0.048849
O O6 0.482284 0.301332 0.169166
O O7 0.500000 0.500000 0.000000
O O8 0.442602 0.309698 0.976196
O O9 0.612128 0.235805 0.866367
O O10 0.318574 0.129080 0.713771
O O11 0.035302 0.178493 0.116551
O O12 0.696201 0.802332 0.673362
O O13 0.342711 0.935891 0.687148
O O14 0.839022 0.849913 0.498953
O O15 0.249861 0.918052 0.433887
#
# Coordination Sequence:
#
# PCOD9007533 Si02
#       7
#     2   2   2   2   2   2   2
#     4  10  21  39  62  87 117 162 207 252 303 359
#     4  10  23  41  58  86 124 158 208 245 303 360
#     4  10  21  41  59  89 124 155 204 252 305 359
#     4  10  23  39  61  88 121 161 201 248 309 360
#     4  10  24  37  65  89 125 160 209 242 315 366
#     4  10  22  38  63  89 124 161 199 258 303 361
#     4  10  22  38  60  91 123 157 205 256 305 357
#
# _framework density 21.875439
#
# number of rings (size 3 to 8) (size 9 to 14) (size 15 to 20)
#    0.857    1.143    0.000    2.571    4.000    1.714 
#    2.571    0.714    0.000    0.000    0.000    0.000 
#    0.000    0.000    0.000    0.000    0.000    0.000 
#
# Total GULP energy -78219.596157 kJ/mol
# GULP energy per Si atom -5587.114011 kJ/mol
# Density = 2.182565 g / cm^3
# Si number density = 21.875439 Si / 1000 Ang^3
#
#
#
# Elastic Constant Matrix: (Units=GPa)
#
#
# Indices 1 2 3 4 5 6 
#
# 1 88.3022 12.1815 3.8675 5.8525 -5.9402 -5.9185
# 2 12.1815 101.3298 69.1086 18.1322 -4.1371 -13.8798
# 3 3.8675 69.1086 100.6559 36.6918 -15.2375 -0.1783
# 4 5.8525 18.1322 36.6918 34.7128 -7.7160 -4.1055
# 5 -5.9402 -4.1371 -15.2375 -7.7160 31.4671 0.5886
# 6 -5.9185 -13.8798 -0.1783 -4.1055 0.5886 30.6303
#
#
#
# Elastic Compliance Matrix: (Units=1/GPa)
#
#
# Indices 1 2 3 4 5 6 
#
# 1 0.011978 -0.002629 0.002814 -0.002976 0.002536 0.000692
# 2 -0.002629 0.023942 -0.020799 0.010159 -0.005147 0.011681
# 3 0.002814 -0.020799 0.034862 -0.026022 0.008528 -0.012330
# 4 -0.002976 0.010159 -0.026022 0.053021 0.000969 0.010965
# 5 0.002536 -0.005147 0.008528 0.000969 0.035992 -0.002355
# 6 0.000692 0.011681 -0.012330 0.010965 -0.002355 0.039517
#
#
# Mechanical properties :
#
#
# Convention : Reuss Voigt Hill
#
# Bulk Modulus (GPa) = 33.83449 51.17813 42.50631
# Shear Modulus (GPa) = 19.96879 33.03739 26.50309
#
# Velocity S-wave (km/s) = 3.02460 3.89041 3.48450
# Velocity P-wave (km/s) = 5.26290 6.60503 5.97179
#
# Compressibility (1/GPa) = 0.02955564
#
# Stress axis : x y z
#
# Youngs Moduli (GPa) = 83.48428 41.76778 28.68471
#
# Poissons Ratio (x) = 0.10979 -0.08073
# Poissons Ratio (y) = 0.21945 0.59661
# Poissons Ratio (z) = -0.23495 0.86872
#
# Static dielectric constant tensor:
#      x y z
#    x 1.793390 0.034120 0.013540 
#    y 0.034120 1.815050 -0.009830 
#    z 0.013540 -0.009830 1.782200 
# 
# From -- ./inp_files/76894.got.cif
#   From: 2010.05.17/outbox.cif.g08.bks.cpg/sg2_39_cif.got.tgz:76894.got - 2010.06.03 11:33:40.
