data_PCOD9007461
_publ_section_title
;
Structure prediction by ZEFSAII (Michael W. Deem and Ramdas Pophale) SiO2 
 PCOD9007461
Probable space group: P -1
;
_chemical_formula_sum "Si O2"
_cell_formula_units_Z 12
_cell_length_a 10.015465
_cell_length_b 10.774393
_cell_length_c 13.537298
_cell_angle_alpha 158.884842
_cell_angle_beta 116.026033
_cell_angle_gamma 65.421857
_cell_volume 472.786872
_symmetry_space_group_name_H-M "P -1"
_symmetry_group_IT_number 2
_symmetry_cell_setting 'triclinic'
loop_
_space_group_symop_operation_xyz
x,y,z
-x,-y,-z
loop_
_atom_site_type_symbol
_atom_site_label
_atom_site_fract_x
_atom_site_fract_y
_atom_site_fract_z
Si Si1 0.957590 0.610802 0.678356
Si Si2 0.535620 0.705511 0.372294
Si Si3 0.333536 0.515688 0.424507
Si Si4 0.739628 0.739049 0.992820
Si Si5 0.034146 0.381993 0.754127
Si Si6 0.349381 0.679859 0.040425
O O1 0.008725 0.409442 0.646740
O O2 0.000000 0.500000 0.500000
O O3 0.781939 0.577671 0.599829
O O4 0.000000 0.000000 0.000000
O O5 0.376281 0.550894 0.228554
O O6 0.500000 0.000000 0.500000
O O7 0.623431 0.918845 0.639608
O O8 0.643100 0.422699 0.147827
O O9 0.500000 0.500000 0.500000
O O10 0.307771 0.247505 0.128122
O O11 0.292100 0.925978 0.701519
O O12 0.911471 0.620380 0.949228
O O13 0.201306 0.526259 0.927704
O O14 0.000000 0.000000 0.500000
O O15 0.500000 0.500000 0.000000
#
# Coordination Sequence:
#
# PCOD9007461 Si02
#       6
#     2   2   2   2   2   2
#     4  11  26  49  72 107 150 197 250 306 371 448
#     4  10  21  39  61  94 139 179 225 287 356 432
#     4  11  25  47  72  99 135 189 247 304 360 433
#     4  11  24  44  68 103 142 184 241 303 366 434
#     4  11  25  47  77 112 153 200 247 309 375 445
#     4  10  22  40  63 101 144 191 240 297 363 438
#
# _framework density 25.381415000000001
#
# number of rings (size 3 to 8) (size 9 to 14) (size 15 to 20)
#    0.000    1.333    0.000    5.500    0.000   12.000 
#    0.000   13.333    0.000    0.000    0.000    0.000 
#    0.000    0.000    0.000    0.000    0.000    0.000 
#
# Total GULP energy -67061.891530 kJ/mol
# GULP energy per Si atom -5588.490961 kJ/mol
# Density = 2.532365 g / cm^3
# Si number density = 25.381415 Si / 1000 Ang^3
#
#
#
# Elastic Constant Matrix: (Units=GPa)
#
#
# Indices 1 2 3 4 5 6 
#
# 1 237.3327 33.0257 52.6089 -1.0721 40.7145 -7.0228
# 2 33.0257 107.2547 31.7740 10.5034 10.6474 4.5743
# 3 52.6089 31.7740 174.7465 -23.0678 8.4368 7.4201
# 4 -1.0721 10.5034 -23.0678 20.5791 8.5049 2.3819
# 5 40.7145 10.6474 8.4368 8.5049 51.1890 -7.6435
# 6 -7.0228 4.5743 7.4201 2.3819 -7.6435 52.9716
#
#
#
# Elastic Compliance Matrix: (Units=1/GPa)
#
#
# Indices 1 2 3 4 5 6 
#
# 1 0.005292 -0.001055 -0.001060 0.001231 -0.003973 0.000313
# 2 -0.001055 0.011431 -0.003026 -0.009464 0.000502 -0.000205
# 3 -0.001060 -0.003026 0.008360 0.011981 -0.002180 -0.001904
# 4 0.001231 -0.009464 0.011981 0.073438 -0.014088 -0.006033
# 5 -0.003973 0.000502 -0.002180 -0.014088 0.025904 0.004107
# 6 0.000313 -0.000205 -0.001904 -0.006033 0.004107 0.020068
#
#
# Mechanical properties :
#
#
# Convention : Reuss Voigt Hill
#
# Bulk Modulus (GPa) = 67.56702 83.79459 75.68081
# Shear Modulus (GPa) = 31.30760 51.74296 41.52528
#
# Velocity S-wave (km/s) = 3.51591 4.52000 4.04920
# Velocity P-wave (km/s) = 6.56968 7.76701 7.19330
#
# Compressibility (1/GPa) = 0.01480012
#
# Stress axis : x y z
#
# Youngs Moduli (GPa) = 188.97864 87.48518 119.62357
#
# Poissons Ratio (x) = 0.09228 0.12683
# Poissons Ratio (y) = 0.19934 0.36195
# Poissons Ratio (z) = 0.20036 0.26471
#
# Static dielectric constant tensor:
#      x y z
#    x 2.158060 0.167170 0.501530 
#    y 0.167170 2.204360 0.137140 
#    z 0.501530 0.137140 2.176390 
# 
# From -- ./inp_files/501329.got.cif
#   From: 2010.05.17/outbox.cif.g08.bks.cpg/sg2_251_cif.got.tgz:501329.got - 2010.06.03 11:33:40.
