data_PCOD9007583
_publ_section_title
;
Structure prediction by ZEFSAII (Michael W. Deem and Ramdas Pophale) SiO2 
 PCOD9007583
Probable space group: P -1
;
_chemical_formula_sum "Si O2"
_cell_formula_units_Z 13
_cell_length_a 14.749219
_cell_length_b 17.554591
_cell_length_c 15.191832
_cell_angle_alpha 20.542058
_cell_angle_beta 24.562283
_cell_angle_gamma 28.985051
_cell_volume 566.510813
_symmetry_space_group_name_H-M "P -1"
_symmetry_group_IT_number 2
_symmetry_cell_setting 'triclinic'
loop_
_space_group_symop_operation_xyz
x,y,z
-x,-y,-z
loop_
_atom_site_type_symbol
_atom_site_label
_atom_site_fract_x
_atom_site_fract_y
_atom_site_fract_z
Si Si1 0.455488 0.755161 0.813493
Si Si2 0.177083 0.777326 0.581799
Si Si3 0.973976 0.009068 0.800453
Si Si4 0.381264 0.630209 0.824423
Si Si5 0.947988 0.431062 0.261180
Si Si6 0.386755 0.222603 0.709683
Si Si7 0.000000 0.000000 0.000000
O O1 0.509631 0.670149 0.758425
O O2 0.500000 0.000000 0.500000
O O3 0.617114 0.626266 0.882341
O O4 0.199471 0.788010 0.031444
O O5 0.166628 0.663787 0.619321
O O6 0.407519 0.845382 0.333778
O O7 0.000000 0.000000 0.500000
O O8 0.114672 0.589730 0.906496
O O9 0.152768 0.793101 0.854857
O O10 0.044211 0.218501 0.463086
O O11 0.746928 0.965057 0.003017
O O12 0.955617 0.032518 0.896399
O O13 0.517040 0.679953 0.567504
O O14 0.774538 0.587639 0.303820
#
# Coordination Sequence:
#
# PCOD9007583 Si02
#       7
#     2   2   2   2   2   2   1
#     4  10  21  39  62  88 127 177 225 276 328 389
#     4  11  26  48  71 100 138 177 225 287 347 410
#     4  11  25  44  69 102 140 183 230 282 338 406
#     4  10  23  39  60  94 131 172 223 276 332 392
#     4  11  25  44  70 102 134 179 228 281 346 413
#     4  12  24  42  69 101 135 178 228 280 342 410
#     4  10  22  42  68  98 136 182 230 274 332 400
#
# _framework density 22.947489000000001
#
# number of rings (size 3 to 8) (size 9 to 14) (size 15 to 20)
#    0.000    1.231    0.000    5.077    0.000   12.308 
#    0.000    8.462    0.000    0.000    0.000    0.000 
#    0.000    0.000    0.000    0.000    0.000    0.000 
#
# Total GULP energy -72410.576075 kJ/mol
# GULP energy per Si atom -5570.044313 kJ/mol
# Density = 2.289526 g / cm^3
# Si number density = 22.947489 Si / 1000 Ang^3
#
#
#
# Elastic Constant Matrix: (Units=GPa)
#
#
# Indices 1 2 3 4 5 6 
#
# 1 128.5838 44.1003 67.0874 10.4119 1.9213 14.4141
# 2 44.1003 104.4689 26.0057 -0.1202 19.4965 8.1501
# 3 67.0874 26.0057 112.0321 -15.1855 13.8865 -9.4045
# 4 10.4119 -0.1202 -15.1855 31.2017 -2.1845 17.2019
# 5 1.9213 19.4965 13.8865 -2.1845 21.9009 3.7112
# 6 14.4141 8.1501 -9.4045 17.2019 3.7112 51.2145
#
#
#
# Elastic Compliance Matrix: (Units=1/GPa)
#
#
# Indices 1 2 3 4 5 6 
#
# 1 0.016726 -0.005960 -0.011431 -0.008269 0.010918 -0.003872
# 2 -0.005960 0.013976 0.002256 0.002170 -0.013148 0.000092
# 3 -0.011431 0.002256 0.018433 0.009809 -0.012366 0.003845
# 4 -0.008269 0.002170 0.009809 0.045909 -0.000885 -0.011573
# 5 0.010918 -0.013148 -0.012366 -0.000885 0.065465 -0.007698
# 6 -0.003872 0.000092 0.003845 -0.011573 -0.007698 0.025752
#
#
# Mechanical properties :
#
#
# Convention : Reuss Voigt Hill
#
# Bulk Modulus (GPa) = 53.01057 68.83017 60.92037
# Shear Modulus (GPa) = 22.43987 34.72285 28.58136
#
# Velocity S-wave (km/s) = 3.13050 3.89413 3.53301
# Velocity P-wave (km/s) = 6.01811 7.09075 6.57634
#
# Compressibility (1/GPa) = 0.01886416
#
# Stress axis : x y z
#
# Youngs Moduli (GPa) = 59.78777 71.55316 54.25114
#
# Poissons Ratio (x) = 0.42645 0.62017
# Poissons Ratio (y) = 0.35633 -0.12241
# Poissons Ratio (z) = 0.68346 -0.16145
#
# Static dielectric constant tensor:
#      x y z
#    x 1.883110 -0.109490 0.049530 
#    y -0.109490 4.799470 -3.243710 
#    z 0.049530 -3.243710 5.452870 
# 
# From -- ./inp_files/317043.got.cif
#   From: 2010.05.17/outbox.cif.g08.bks.cpg/sg2_159_cif.got.tgz:317043.got - 2010.06.03 11:33:40.
