data_PCOD9007286
_publ_section_title
;
Structure prediction by ZEFSAII (Michael W. Deem and Ramdas Pophale) SiO2 
 PCOD9007286
Probable space group: P -1
;
_chemical_formula_sum "Si O2"
_cell_formula_units_Z 16
_cell_length_a 5.462446
_cell_length_b 11.410026
_cell_length_c 16.121696
_cell_angle_alpha 64.235197
_cell_angle_beta 85.134292
_cell_angle_gamma 63.213455
_cell_volume 800.066399
_symmetry_space_group_name_H-M "P -1"
_symmetry_group_IT_number 2
_symmetry_cell_setting 'triclinic'
loop_
_space_group_symop_operation_xyz
x,y,z
-x,-y,-z
loop_
_atom_site_type_symbol
_atom_site_label
_atom_site_fract_x
_atom_site_fract_y
_atom_site_fract_z
Si Si1 0.115249 0.640818 0.535767
Si Si2 0.284933 0.004333 0.254199
Si Si3 0.592041 0.612155 0.806499
Si Si4 0.949624 0.381262 0.988008
Si Si5 0.225625 0.837049 0.864521
Si Si6 0.398189 0.313356 0.580952
Si Si7 0.000481 0.719304 0.700902
Si Si8 0.528016 0.901490 0.952640
O O1 0.261401 0.462433 0.594142
O O2 0.343434 0.678905 0.474824
O O3 0.842858 0.679018 0.476310
O O4 0.031405 0.724256 0.599955
O O5 0.187677 0.125344 0.294411
O O6 0.402538 0.040301 0.154195
O O7 0.984669 0.027786 0.224209
O O8 0.481065 0.841192 0.327826
O O9 0.716301 0.462462 0.901111
O O10 0.505391 0.743500 0.835829
O O11 0.843399 0.620025 0.749059
O O12 0.312604 0.649939 0.751754
O O13 0.869334 0.288165 0.082781
O O14 0.000000 0.500000 0.000000
O O15 0.237175 0.259937 0.981998
O O16 0.258193 0.887568 0.938481
O O17 0.500000 0.000000 0.000000
#
# Coordination Sequence:
#
# PCOD9007286 Si02
#       8
#     2   2   2   2   2   2   2   2
#     4  10  23  44  65  98 124 162 199 266 318 383
#     4  10  23  40  61  93 120 171 205 262 313 380
#     4  11  21  37  62  93 123 169 208 265 311 367
#     4  11  21  37  61  88 119 171 222 264 316 369
#     4  10  21  39  61  85 131 163 215 270 313 366
#     4  10  23  43  69  90 130 161 205 251 325 388
#     4  11  23  39  64  94 132 155 215 260 314 373
#     4  11  24  41  59  89 132 170 218 265 317 373
#
# _framework density 19.998338
#
# number of rings (size 3 to 8) (size 9 to 14) (size 15 to 20)
#    0.000    1.500    2.500    2.625    3.500    4.000 
#    2.250    0.000    0.000    0.000    0.000    0.000 
#    0.000    0.000    0.000    0.000    0.000    0.000 
#
# Total GULP energy -89144.991942 kJ/mol
# GULP energy per Si atom -5571.561996 kJ/mol
# Density = 1.995282 g / cm^3
# Si number density = 19.998338 Si / 1000 Ang^3
#
#
#
# Elastic Constant Matrix: (Units=GPa)
#
#
# Indices 1 2 3 4 5 6 
#
# 1 97.8380 36.5679 34.1968 -5.2950 6.5670 6.0359
# 2 36.5679 126.7808 61.6369 -0.2974 16.8952 6.8951
# 3 34.1968 61.6369 88.4492 -18.8546 14.5481 -2.4148
# 4 -5.2950 -0.2974 -18.8546 41.8134 -8.7335 10.1352
# 5 6.5670 16.8952 14.5481 -8.7335 26.0903 1.3972
# 6 6.0359 6.8951 -2.4148 10.1352 1.3972 19.1524
#
#
#
# Elastic Compliance Matrix: (Units=1/GPa)
#
#
# Indices 1 2 3 4 5 6 
#
# 1 0.012396 -0.001650 -0.003620 0.001112 0.000575 -0.004400
# 2 -0.001650 0.013527 -0.009058 -0.004496 -0.004650 -0.002773
# 3 -0.003620 -0.009058 0.021179 0.007707 -0.002623 0.003185
# 4 0.001112 -0.004496 0.007707 0.033645 0.010471 -0.016328
# 5 0.000575 -0.004650 -0.002623 0.010471 0.046579 -0.007777
# 6 -0.004400 -0.002773 0.003185 -0.016328 -0.007777 0.064207
#
#
# Mechanical properties :
#
#
# Convention : Reuss Voigt Hill
#
# Bulk Modulus (GPa) = 54.21324 64.20789 59.21056
# Shear Modulus (GPa) = 22.09069 29.45566 25.77317
#
# Velocity S-wave (km/s) = 3.32720 3.84201 3.59383
# Velocity P-wave (km/s) = 6.47519 7.20123 6.84784
#
# Compressibility (1/GPa) = 0.01844568
#
# Stress axis : x y z
#
# Youngs Moduli (GPa) = 80.67020 73.92480 47.21606
#
# Poissons Ratio (x) = 0.12198 0.17094
# Poissons Ratio (y) = 0.13311 0.42768
# Poissons Ratio (z) = 0.29206 0.66961
#
# Static dielectric constant tensor:
#      x y z
#    x 1.860650 -0.010420 0.001400 
#    y -0.010420 1.694860 0.022650 
#    z 0.001400 0.022650 1.709630 
# 
# From -- ./inp_files/127152.got.cif
#   From: 2010.05.17/outbox.cif.g08.bks.cpg/sg2_64_cif.got.tgz:127152.got - 2010.06.03 11:33:40.
