data_PCOD9007779
_publ_section_title
;
Structure prediction by ZEFSAII (Michael W. Deem and Ramdas Pophale) SiO2 
 PCOD9007779
Probable space group: P -1
;
_chemical_formula_sum "Si O2"
_cell_formula_units_Z 16
_cell_length_a 14.236960
_cell_length_b 9.338165
_cell_length_c 14.486630
_cell_angle_alpha 40.447010
_cell_angle_beta 139.036404
_cell_angle_gamma 139.209177
_cell_volume 739.921099
_symmetry_space_group_name_H-M "P -1"
_symmetry_group_IT_number 2
_symmetry_cell_setting 'triclinic'
loop_
_space_group_symop_operation_xyz
x,y,z
-x,-y,-z
loop_
_atom_site_type_symbol
_atom_site_label
_atom_site_fract_x
_atom_site_fract_y
_atom_site_fract_z
Si Si1 0.366205 0.901455 0.528183
Si Si2 0.521503 0.795397 0.174915
Si Si3 0.522191 0.502434 0.155963
Si Si4 0.783825 0.760201 0.484502
Si Si5 0.021830 0.737713 0.529874
Si Si6 0.729713 0.871791 0.980204
Si Si7 0.998586 0.756238 0.292286
Si Si8 0.587676 0.240856 0.678274
O O1 0.372101 0.647391 0.683832
O O2 0.191748 0.862097 0.384024
O O3 0.500000 0.000000 0.500000
O O4 0.436674 0.077736 0.582445
O O5 0.468990 0.558182 0.188097
O O6 0.704183 0.862171 0.298295
O O7 0.448233 0.763332 0.237837
O O8 0.500000 0.000000 0.000000
O O9 0.626962 0.750497 0.056264
O O10 0.367140 0.333937 0.065988
O O11 0.904451 0.688535 0.552575
O O12 0.661119 0.514655 0.561104
O O13 0.859358 0.981678 0.502470
O O14 0.072736 0.515597 0.671903
O O15 0.957239 0.732101 0.381966
O O16 0.908106 0.902327 0.108619
O O17 0.707692 0.112871 0.820484
#
# Coordination Sequence:
#
# PCOD9007779 Si02
#       8
#     2   2   2   2   2   2   2   2
#     4  11  23  42  71  99 134 176 227 281 342 406
#     4  12  23  37  67  99 133 177 230 273 331 402
#     4  10  21  39  62  96 134 180 225 276 333 399
#     4  11  24  44  66  96 136 176 222 277 342 407
#     4  10  23  40  69  96 130 175 222 277 340 409
#     4  10  22  40  66  96 136 175 227 279 331 401
#     4  11  21  40  70 100 127 175 230 277 332 403
#     4  11  24  44  68 100 140 178 223 280 342 406
#
# _framework density 21.623927999999999
#
# number of rings (size 3 to 8) (size 9 to 14) (size 15 to 20)
#    0.000    1.250    1.250    5.625    1.750    1.000 
#    0.000    7.500    5.500    0.000    0.000    0.000 
#    0.000    0.000    0.000    0.000    0.000    0.000 
#
# Total GULP energy -89373.140342 kJ/mol
# GULP energy per Si atom -5585.821271 kJ/mol
# Density = 2.157471 g / cm^3
# Si number density = 21.623928 Si / 1000 Ang^3
#
#
#
# Elastic Constant Matrix: (Units=GPa)
#
#
# Indices 1 2 3 4 5 6 
#
# 1 120.5678 69.4282 34.5519 9.1788 -3.0758 -21.6548
# 2 69.4282 107.2932 49.7759 -9.5899 7.7970 -21.2167
# 3 34.5519 49.7759 120.1002 6.3919 22.2316 4.4758
# 4 9.1788 -9.5899 6.3919 28.0776 3.7125 -1.9792
# 5 -3.0758 7.7970 22.2316 3.7125 29.4577 2.3546
# 6 -21.6548 -21.2167 4.4758 -1.9792 2.3546 37.8425
#
#
#
# Elastic Compliance Matrix: (Units=1/GPa)
#
#
# Indices 1 2 3 4 5 6 
#
# 1 0.016072 -0.010819 -0.000875 -0.009404 0.006199 0.002357
# 2 -0.010819 0.022478 -0.006383 0.013861 -0.004663 0.008181
# 3 -0.000875 -0.006383 0.012991 -0.004275 -0.007237 -0.005389
# 4 -0.009404 0.013861 -0.004275 0.045816 -0.007660 0.005768
# 5 0.006199 -0.004663 -0.007237 -0.007660 0.042355 -0.001247
# 6 0.002357 0.008181 -0.005389 0.005768 -0.001247 0.033378
#
#
# Mechanical properties :
#
#
# Convention : Reuss Voigt Hill
#
# Bulk Modulus (GPa) = 64.98516 72.83035 68.90776
# Shear Modulus (GPa) = 23.32374 32.02258 27.67316
#
# Velocity S-wave (km/s) = 3.28778 3.85240 3.58124
# Velocity P-wave (km/s) = 6.67310 7.31721 7.00257
#
# Compressibility (1/GPa) = 0.01538813
#
# Stress axis : x y z
#
# Youngs Moduli (GPa) = 62.21847 44.48788 76.97448
#
# Poissons Ratio (x) = 0.48133 0.06732
# Poissons Ratio (y) = 0.67317 0.49132
# Poissons Ratio (z) = 0.05441 0.28396
#
# Static dielectric constant tensor:
#      x y z
#    x 1.867260 -0.040770 -0.014110 
#    y -0.040770 1.937350 0.031150 
#    z -0.014110 0.031150 1.791330 
# 
# From -- ./inp_files/529310.got.cif
#   From: 2010.05.17/outbox.cif.g08.bks.cpg/sg2_265_cif.got.tgz:529310.got - 2010.06.03 11:33:40.
