data_PCOD9007175
_publ_section_title
;
Structure prediction by ZEFSAII (Michael W. Deem and Ramdas Pophale) SiO2 
 PCOD9007175
Probable space group: P -1
;
_chemical_formula_sum "Si O2"
_cell_formula_units_Z 16
_cell_length_a 19.200280
_cell_length_b 19.622807
_cell_length_c 8.377329
_cell_angle_alpha 127.755381
_cell_angle_beta 42.859008
_cell_angle_gamma 158.761481
_cell_volume 744.772388
_symmetry_space_group_name_H-M "P -1"
_symmetry_group_IT_number 2
_symmetry_cell_setting 'triclinic'
loop_
_space_group_symop_operation_xyz
x,y,z
-x,-y,-z
loop_
_atom_site_type_symbol
_atom_site_label
_atom_site_fract_x
_atom_site_fract_y
_atom_site_fract_z
Si Si1 0.853153 0.970533 0.639723
Si Si2 0.635950 0.524289 0.885293
Si Si3 0.864798 0.254145 0.912377
Si Si4 0.497517 0.068175 0.456230
Si Si5 0.143174 0.920665 0.523924
Si Si6 0.086995 0.822229 0.959493
Si Si7 0.365282 0.664898 0.535352
Si Si8 0.447937 0.553751 0.733741
O O1 0.611529 0.748976 0.665308
O O2 0.938077 0.087409 0.510277
O O3 0.000000 0.000000 0.500000
O O4 0.824346 0.017805 0.897919
O O5 0.631978 0.432702 0.661808
O O6 0.909761 0.753642 0.783062
O O7 0.500000 0.500000 0.000000
O O8 0.505539 0.409840 0.105220
O O9 0.828970 0.156309 0.695037
O O10 0.114668 0.488233 0.791577
O O11 0.628873 0.129254 0.168300
O O12 0.890640 0.223585 0.992431
O O13 0.624283 0.258321 0.519686
O O14 0.500000 0.000000 0.500000
O O15 0.228209 0.892636 0.672245
O O16 0.393321 0.137168 0.487515
O O17 0.817543 0.626149 0.101349
O O18 0.500000 0.500000 0.500000
#
# Coordination Sequence:
#
# PCOD9007175 Si02
#       8
#     2   2   2   2   2   2   2   2
#     4  11  21  37  61  90 125 168 215 256 309 379
#     4  11  26  41  61  95 134 167 214 263 311 383
#     4   9  21  40  64  92 123 162 211 264 315 382
#     4  10  21  40  65  91 123 166 211 268 327 375
#     4  10  23  40  63  93 126 168 213 261 320 384
#     4  10  21  39  60  88 128 161 209 262 311 372
#     4  11  22  41  66  89 128 165 208 264 325 377
#     4  12  24  38  63  90 123 170 211 255 315 375
#
# _framework density 21.483073000000001
#
# number of rings (size 3 to 8) (size 9 to 14) (size 15 to 20)
#    0.000    1.500    1.250    3.375    5.250    1.000 
#    0.000    2.500    0.000   18.000    0.000    0.000 
#    0.000    0.000    0.000    0.000    0.000    0.000 
#
# Total GULP energy -89157.478151 kJ/mol
# GULP energy per Si atom -5572.342384 kJ/mol
# Density = 2.143418 g / cm^3
# Si number density = 21.483073 Si / 1000 Ang^3
#
#
#
# Elastic Constant Matrix: (Units=GPa)
#
#
# Indices 1 2 3 4 5 6 
#
# 1 77.2530 20.2502 28.4685 -1.8756 -20.5583 -9.1008
# 2 20.2502 112.3536 38.6511 -19.1579 -16.0176 0.1935
# 3 28.4685 38.6511 124.5447 -28.5426 -19.5378 -0.6863
# 4 -1.8756 -19.1579 -28.5426 29.9004 2.5709 -0.9640
# 5 -20.5583 -16.0176 -19.5378 2.5709 31.8983 -2.6604
# 6 -9.1008 0.1935 -0.6863 -0.9640 -2.6604 33.0694
#
#
#
# Elastic Compliance Matrix: (Units=1/GPa)
#
#
# Indices 1 2 3 4 5 6 
#
# 1 0.017417 -0.001364 -0.002720 -0.003026 0.009571 0.005427
# 2 -0.001364 0.011011 -0.001335 0.005402 0.003393 -0.000037
# 3 -0.002720 -0.001335 0.012033 0.010108 0.004143 0.000137
# 4 -0.003026 0.005402 0.010108 0.046111 0.003317 0.000956
# 5 0.009571 0.003393 0.004143 0.003317 0.042007 0.006176
# 6 0.005427 -0.000037 0.000137 0.000956 0.006176 0.032261
#
#
# Mechanical properties :
#
#
# Convention : Reuss Voigt Hill
#
# Bulk Modulus (GPa) = 33.75939 54.32122 44.04030
# Shear Modulus (GPa) = 27.54036 34.09239 30.81637
#
# Velocity S-wave (km/s) = 3.58433 3.98797 3.79152
# Velocity P-wave (km/s) = 5.73397 6.82244 6.30175
#
# Compressibility (1/GPa) = 0.02962139
#
# Stress axis : x y z
#
# Youngs Moduli (GPa) = 57.41453 90.82179 83.10732
#
# Poissons Ratio (x) = 0.12392 0.22606
# Poissons Ratio (y) = 0.07834 0.11095
# Poissons Ratio (z) = 0.15617 0.12125
#
# Static dielectric constant tensor:
#      x y z
#    x 1.729090 0.043570 -0.010350 
#    y 0.043570 1.763360 -0.017670 
#    z -0.010350 -0.017670 1.781050 
# 
# From -- ./inp_files/312979.got.cif
#   From: 2010.05.17/outbox.cif.g08.bks.cpg/sg2_157_cif.got.tgz:312979.got - 2010.06.03 11:33:40.
