data_PCOD9007595
_publ_section_title
;
Structure prediction by ZEFSAII (Michael W. Deem and Ramdas Pophale) SiO2 
 PCOD9007595
Probable space group: P -1
;
_chemical_formula_sum "Si O2"
_cell_formula_units_Z 14
_cell_length_a 25.183514
_cell_length_b 11.529610
_cell_length_c 5.375491
_cell_angle_alpha 76.828405
_cell_angle_beta 90.048467
_cell_angle_gamma 153.773908
_cell_volume 591.686825
_symmetry_space_group_name_H-M "P -1"
_symmetry_group_IT_number 2
_symmetry_cell_setting 'triclinic'
loop_
_space_group_symop_operation_xyz
x,y,z
-x,-y,-z
loop_
_atom_site_type_symbol
_atom_site_label
_atom_site_fract_x
_atom_site_fract_y
_atom_site_fract_z
Si Si1 0.164077 0.560695 0.049285
Si Si2 0.381246 0.588904 0.226242
Si Si3 0.192485 0.323020 0.694809
Si Si4 0.621202 0.180645 0.193764
Si Si5 0.334042 0.147896 0.697068
Si Si6 0.364053 0.301168 0.122112
Si Si7 0.020290 0.196906 0.710240
O O1 0.061348 0.349885 0.385175
O O2 0.255051 0.629524 0.037470
O O3 0.093608 0.404429 0.854336
O O4 0.269916 0.888716 0.892590
O O5 0.239944 0.326814 0.491130
O O6 0.395140 0.496648 0.122561
O O7 0.494313 0.831334 0.327185
O O8 0.408798 0.755403 0.962028
O O9 0.321125 0.670270 0.607150
O O10 0.077316 0.179245 0.685540
O O11 0.134130 0.137508 0.031619
O O12 0.500000 0.500000 0.500000
O O13 0.280103 0.071390 0.462323
O O14 0.297893 0.159930 0.919406
O O15 0.500000 0.500000 0.000000
#
# Coordination Sequence:
#
# PCOD9007595 Si02
#       7
#     2   2   2   2   2   2   2
#     4  11  21  41  65  95 126 160 213 259 308 370
#     4  11  22  38  60  93 132 161 202 257 320 379
#     4  10  22  39  60  91 132 167 208 246 316 376
#     4  10  22  36  60  96 130 162 194 260 327 374
#     4  10  21  39  62  89 120 160 206 254 306 364
#     4  10  22  39  60  87 121 166 204 246 302 375
#     4  10  23  38  67  91 127 169 210 252 302 376
#
# _framework density 23.661168
#
# number of rings (size 3 to 8) (size 9 to 14) (size 15 to 20)
#    0.000    1.714    1.429    3.000    4.000    2.857 
#    5.143    0.000    0.000    5.143    0.000    0.000 
#    0.000    0.000    0.000    0.000    0.000    0.000 
#
# Total GULP energy -78210.898395 kJ/mol
# GULP energy per Si atom -5586.492742 kJ/mol
# Density = 2.360731 g / cm^3
# Si number density = 23.661168 Si / 1000 Ang^3
#
#
#
# Elastic Constant Matrix: (Units=GPa)
#
#
# Indices 1 2 3 4 5 6 
#
# 1 83.9631 40.6723 35.5056 4.3327 -10.7212 -41.5476
# 2 40.6723 110.0327 57.2575 4.1596 -13.1256 -26.1809
# 3 35.5056 57.2575 169.9101 19.4302 -5.1345 -19.0423
# 4 4.3327 4.1596 19.4302 41.5826 -7.9557 0.4070
# 5 -10.7212 -13.1256 -5.1345 -7.9557 32.7418 4.3978
# 6 -41.5476 -26.1809 -19.0423 0.4070 4.3978 36.4889
#
#
#
# Elastic Compliance Matrix: (Units=1/GPa)
#
#
# Indices 1 2 3 4 5 6 
#
# 1 0.029392 -0.002183 -0.001678 -0.001595 0.003994 0.030561
# 2 -0.002183 0.013237 -0.003500 0.001200 0.003700 0.004726
# 3 -0.001678 -0.003500 0.007738 -0.003384 -0.001540 -0.000161
# 4 -0.001595 0.001200 -0.003384 0.026954 0.006489 -0.003803
# 5 0.003994 0.003700 -0.001540 0.006489 0.034375 0.002183
# 6 0.030561 0.004726 -0.000161 -0.003803 0.002183 0.065290
#
#
# Mechanical properties :
#
#
# Convention : Reuss Voigt Hill
#
# Bulk Modulus (GPa) = 28.05484 70.08630 49.07057
# Shear Modulus (GPa) = 24.55906 37.52736 31.04321
#
# Velocity S-wave (km/s) = 3.22522 3.98682 3.62607
# Velocity P-wave (km/s) = 5.07464 7.13289 6.18992
#
# Compressibility (1/GPa) = 0.03564447
#
# Stress axis : x y z
#
# Youngs Moduli (GPa) = 34.02288 75.54582 129.23003
#
# Poissons Ratio (x) = 0.16490 0.21687
# Poissons Ratio (y) = 0.07426 0.45235
# Poissons Ratio (z) = 0.05710 0.26444
#
# Static dielectric constant tensor:
#      x y z
#    x 1.861670 0.026360 -0.005190 
#    y 0.026360 1.978030 -0.002290 
#    z -0.005190 -0.002290 1.940900 
# 
# From -- ./inp_files/126705.got.cif
#   From: 2010.05.17/outbox.cif.g08.bks.cpg/sg2_64_cif.got.tgz:126705.got - 2010.06.03 11:33:40.
