data_PCOD9007111
_publ_section_title
;
Structure prediction by ZEFSAII (Michael W. Deem and Ramdas Pophale) SiO2 
 PCOD9007111
Probable space group: P -1
;
_chemical_formula_sum "Si O2"
_cell_formula_units_Z 16
_cell_length_a 18.598719
_cell_length_b 12.330619
_cell_length_c 20.932930
_cell_angle_alpha 29.844556
_cell_angle_beta 19.589565
_cell_angle_gamma 29.257609
_cell_volume 755.791085
_symmetry_space_group_name_H-M "P -1"
_symmetry_group_IT_number 2
_symmetry_cell_setting 'triclinic'
loop_
_space_group_symop_operation_xyz
x,y,z
-x,-y,-z
loop_
_atom_site_type_symbol
_atom_site_label
_atom_site_fract_x
_atom_site_fract_y
_atom_site_fract_z
Si Si1 0.421265 0.258954 0.459565
Si Si2 0.893057 0.577936 0.186149
Si Si3 0.915246 0.420037 0.837598
Si Si4 0.472631 0.320302 0.894815
Si Si5 0.640169 0.263053 0.040092
Si Si6 0.571986 0.115986 0.549960
Si Si7 0.790206 0.861266 0.892728
Si Si8 0.051444 0.114194 0.121189
O O1 0.522077 0.424586 0.250871
O O2 0.511300 0.217195 0.477681
O O3 0.149667 0.390119 0.620074
O O4 0.500000 0.000000 0.500000
O O5 0.624956 0.696768 0.340951
O O6 0.978463 0.659541 0.139390
O O7 0.977998 0.302849 0.249478
O O8 0.014901 0.669704 0.981175
O O9 0.716452 0.657191 0.903219
O O10 0.783281 0.298404 0.963654
O O11 0.712309 0.133819 0.806126
O O12 0.391972 0.230424 0.943534
O O13 0.479431 0.121127 0.272427
O O14 0.500000 0.500000 0.000000
O O15 0.814306 0.101802 0.925021
O O16 0.834422 0.084855 0.353130
O O17 0.795149 0.838342 0.975848
#
# Coordination Sequence:
#
# PCOD9007111 Si02
#       8
#     2   2   2   2   2   2   2   2
#     4  11  22  37  63  91 117 156 200 247 297 352
#     4   9  21  39  59  86 114 153 199 246 297 346
#     4  10  21  39  60  84 118 154 198 246 294 351
#     4  10  22  41  61  89 121 157 201 244 297 351
#     4  11  24  39  58  87 122 158 198 247 299 352
#     4  10  22  37  56  87 118 152 202 243 293 356
#     4  10  21  40  63  85 123 162 196 246 294 354
#     4  11  22  38  60  87 120 157 197 244 299 352
#
# _framework density 21.169872000000002
#
# number of rings (size 3 to 8) (size 9 to 14) (size 15 to 20)
#    0.000    1.750    0.000    4.125    0.000   10.000 
#    0.000   17.500    0.000    0.000    0.000    0.000 
#    0.000    0.000    0.000    0.000    0.000    0.000 
#
# Total GULP energy -89131.587446 kJ/mol
# GULP energy per Si atom -5570.724215 kJ/mol
# Density = 2.112169 g / cm^3
# Si number density = 21.169872 Si / 1000 Ang^3
#
#
#
# Elastic Constant Matrix: (Units=GPa)
#
#
# Indices 1 2 3 4 5 6 
#
# 1 92.5018 28.0040 11.1793 10.2315 -3.7522 24.0662
# 2 28.0040 133.2385 32.8537 6.5225 2.1710 0.5721
# 3 11.1793 32.8537 74.6228 21.3819 6.0468 5.0922
# 4 10.2315 6.5225 21.3819 18.8919 -1.7461 0.6027
# 5 -3.7522 2.1710 6.0468 -1.7461 15.5179 -3.9669
# 6 24.0662 0.5721 5.0922 0.6027 -3.9669 25.3910
#
#
#
# Elastic Compliance Matrix: (Units=1/GPa)
#
#
# Indices 1 2 3 4 5 6 
#
# 1 0.017212 -0.003894 0.004021 -0.012223 -0.002620 -0.017151
# 2 -0.003894 0.009371 -0.005437 0.005028 0.001635 0.004706
# 3 0.004021 -0.005437 0.025814 -0.030518 -0.014417 -0.010394
# 4 -0.012223 0.005028 -0.030518 0.093937 0.023675 0.019061
# 5 -0.002620 0.001635 -0.014417 0.023675 0.076122 0.016669
# 6 -0.017151 0.004706 -0.010394 0.019061 0.016669 0.059771
#
#
# Mechanical properties :
#
#
# Convention : Reuss Voigt Hill
#
# Bulk Modulus (GPa) = 23.93679 49.38191 36.65935
# Shear Modulus (GPa) = 16.29874 27.18190 21.74032
#
# Velocity S-wave (km/s) = 2.77772 3.58717 3.20808
# Velocity P-wave (km/s) = 4.64965 6.36665 5.57465
#
# Compressibility (1/GPa) = 0.04177669
#
# Stress axis : x y z
#
# Youngs Moduli (GPa) = 58.10046 106.70702 38.73902
#
# Poissons Ratio (x) = 0.41555 -0.15577
# Poissons Ratio (y) = 0.22626 0.21062
# Poissons Ratio (z) = -0.23362 0.58014
#
# Static dielectric constant tensor:
#      x y z
#    x 1.774470 -0.007210 -0.026650 
#    y -0.007210 1.835620 0.045120 
#    z -0.026650 0.045120 1.832420 
# 
# From -- ./inp_files/600012.got.cif
#   From: 2010.05.17/outbox.cif.g08.bks.cpg/sg2_301_cif.got.tgz:600012.got - 2010.06.03 11:33:40.
