data_PCOD9007405
_publ_section_title
;
Structure prediction by ZEFSAII (Michael W. Deem and Ramdas Pophale) SiO2 
 PCOD9007405
Probable space group: P -1
;
_chemical_formula_sum "Si O2"
_cell_formula_units_Z 11
_cell_length_a 5.592953
_cell_length_b 8.774360
_cell_length_c 18.886086
_cell_angle_alpha 50.496662
_cell_angle_beta 138.588292
_cell_angle_gamma 127.660248
_cell_volume 456.462439
_symmetry_space_group_name_H-M "P -1"
_symmetry_group_IT_number 2
_symmetry_cell_setting 'triclinic'
loop_
_space_group_symop_operation_xyz
x,y,z
-x,-y,-z
loop_
_atom_site_type_symbol
_atom_site_label
_atom_site_fract_x
_atom_site_fract_y
_atom_site_fract_z
Si Si1 0.551557 0.433863 0.425328
Si Si2 0.449751 0.448089 0.761316
Si Si3 0.519511 0.240505 0.209940
Si Si4 0.500000 0.500000 0.000000
Si Si5 0.370903 0.801258 0.363080
Si Si6 0.687256 0.229420 0.997414
O O1 0.405950 0.433787 0.313418
O O2 0.457986 0.619985 0.390647
O O3 0.469881 0.229088 0.514800
O O4 0.000000 0.500000 0.500000
O O5 0.310552 0.602721 0.736174
O O6 0.086858 0.258854 0.720243
O O7 0.751258 0.361281 0.898535
O O8 0.546497 0.016179 0.301790
O O9 0.604396 0.322766 0.125567
O O10 0.077480 0.230105 0.118021
O O11 0.474123 0.348000 0.966924
O O12 0.500000 0.000000 0.000000
#
# Coordination Sequence:
#
# PCOD9007405 Si02
#       6
#     2   2   2   1   2   2
#     4   9  21  41  63  90 121 159 214 263 311 383
#     4  10  21  39  61  91 127 161 208 263 305 382
#     4  11  24  41  62  95 131 164 214 259 313 386
#     4  10  24  38  58  94 128 166 214 254 302 384
#     4  10  21  40  64  89 122 166 208 258 323 370
#     4  11  23  42  63  95 133 171 212 259 319 379
#
# _framework density 24.098371
#
# number of rings (size 3 to 8) (size 9 to 14) (size 15 to 20)
#    0.000    1.818    1.818    2.182    2.545    7.273 
#    0.000    8.182    0.000    0.000    0.000    0.000 
#    0.000    0.000    0.000    0.000    0.000    0.000 
#
# Total GULP energy -61247.023930 kJ/mol
# GULP energy per Si atom -5567.911266 kJ/mol
# Density = 2.404352 g / cm^3
# Si number density = 24.098371 Si / 1000 Ang^3
#
#
#
# Elastic Constant Matrix: (Units=GPa)
#
#
# Indices 1 2 3 4 5 6 
#
# 1 52.6545 8.1538 33.5764 2.6420 -13.9839 -13.1132
# 2 8.1538 110.5210 59.9458 -12.8657 -14.2574 1.8776
# 3 33.5764 59.9458 217.0695 -38.5807 -54.9503 -12.2416
# 4 2.6420 -12.8657 -38.5807 40.4540 5.1508 -7.5087
# 5 -13.9839 -14.2574 -54.9503 5.1508 62.6961 7.9423
# 6 -13.1132 1.8776 -12.2416 -7.5087 7.9423 22.7733
#
#
#
# Elastic Compliance Matrix: (Units=1/GPa)
#
#
# Indices 1 2 3 4 5 6 
#
# 1 0.024321 -0.000401 -0.003210 -0.002938 0.001385 0.010860
# 2 -0.000401 0.010793 -0.003064 0.000018 0.000029 -0.002772
# 3 -0.003210 -0.003064 0.008873 0.007756 0.005232 0.003906
# 4 -0.002938 0.000018 0.007756 0.034579 0.001619 0.013312
# 5 0.001385 0.000029 0.005232 0.001619 0.021127 -0.003226
# 6 0.010860 -0.002772 0.003906 0.013312 -0.003226 0.058007
#
#
# Mechanical properties :
#
#
# Convention : Reuss Voigt Hill
#
# Bulk Modulus (GPa) = 32.64211 64.84410 48.74310
# Shear Modulus (GPa) = 27.58454 43.75596 35.67025
#
# Velocity S-wave (km/s) = 3.38696 4.26575 3.85150
# Velocity P-wave (km/s) = 5.37309 7.15742 6.32846
#
# Compressibility (1/GPa) = 0.03063528
#
# Stress axis : x y z
#
# Youngs Moduli (GPa) = 41.11708 92.65618 112.70376
#
# Poissons Ratio (x) = 0.03714 0.36182
# Poissons Ratio (y) = 0.01648 0.34536
# Poissons Ratio (z) = 0.13200 0.28393
#
# Static dielectric constant tensor:
#      x y z
#    x 1.779160 -0.089000 0.013690 
#    y -0.089000 1.802260 0.028810 
#    z 0.013690 0.028810 1.956060 
# 
# From -- ./inp_files/546123.got.cif
#   From: 2010.05.17/outbox.cif.g08.bks.cpg/sg2_274_cif.got.tgz:546123.got - 2010.06.03 11:33:40.
