data_PCOD9007931
_publ_section_title
;
Structure prediction by ZEFSAII (Michael W. Deem and Ramdas Pophale) SiO2 
 PCOD9007931
Probable space group: P -1
;
_chemical_formula_sum "Si O2"
_cell_formula_units_Z 14
_cell_length_a 18.631606
_cell_length_b 17.011239
_cell_length_c 10.277141
_cell_angle_alpha 142.121742
_cell_angle_beta 25.971613
_cell_angle_gamma 153.327872
_cell_volume 638.681873
_symmetry_space_group_name_H-M "P -1"
_symmetry_group_IT_number 2
_symmetry_cell_setting 'triclinic'
loop_
_space_group_symop_operation_xyz
x,y,z
-x,-y,-z
loop_
_atom_site_type_symbol
_atom_site_label
_atom_site_fract_x
_atom_site_fract_y
_atom_site_fract_z
Si Si1 0.492628 0.985919 0.650307
Si Si2 0.140829 0.465340 0.380035
Si Si3 0.685155 0.357725 0.924208
Si Si4 0.649927 0.483817 0.650379
Si Si5 0.864655 0.058021 0.312445
Si Si6 0.889058 0.298562 0.907988
Si Si7 0.510961 0.239317 0.317703
O O1 0.679847 0.989232 0.410655
O O2 0.500000 0.000000 0.500000
O O3 0.571306 0.165476 0.811804
O O4 0.252920 0.826520 0.900894
O O5 0.297128 0.543920 0.101465
O O6 0.276954 0.573296 0.427633
O O7 0.942838 0.462043 0.678403
O O8 0.025905 0.266214 0.324375
O O9 0.557334 0.332297 0.227986
O O10 0.530989 0.349166 0.548772
O O11 0.889069 0.663735 0.440309
O O12 0.500000 0.500000 0.000000
O O13 0.722047 0.958325 0.545598
O O14 0.000000 0.000000 0.000000
O O15 0.701377 0.231502 0.017422
O O16 0.000000 0.500000 0.000000
#
# Coordination Sequence:
#
# PCOD9007931 Si02
#       7
#     2   2   2   2   2   2   2
#     4  10  23  39  65  98 132 169 217 276 325 383
#     4  10  22  38  64  91 128 166 209 265 324 378
#     4  10  22  38  63  94 127 163 216 269 320 376
#     4  11  22  37  62  94 125 165 216 263 320 382
#     4  10  22  40  63  93 127 168 213 261 326 383
#     4   9  20  35  63  90 122 164 220 259 312 380
#     4  10  21  39  63  91 125 167 216 267 310 388
#
# _framework density 21.920147
#
# number of rings (size 3 to 8) (size 9 to 14) (size 15 to 20)
#    0.000    2.000    1.429    0.857    8.000    5.143 
#    0.000    4.286    0.000    1.714    0.000    0.000 
#    0.000    0.000    0.000    0.000    0.000    0.000 
#
# Total GULP energy -78123.324950 kJ/mol
# GULP energy per Si atom -5580.237496 kJ/mol
# Density = 2.187026 g / cm^3
# Si number density = 21.920147 Si / 1000 Ang^3
#
#
#
# Elastic Constant Matrix: (Units=GPa)
#
#
# Indices 1 2 3 4 5 6 
#
# 1 91.3836 35.5726 47.2226 -12.6856 49.7055 -10.8237
# 2 35.5726 102.4299 52.7416 -21.4760 19.4289 -10.2293
# 3 47.2226 52.7416 137.0743 -18.6112 24.2894 -5.6691
# 4 -12.6856 -21.4760 -18.6112 40.1370 -5.7993 14.7643
# 5 49.7055 19.4289 24.2894 -5.7993 51.8385 -9.7479
# 6 -10.8237 -10.2293 -5.6691 14.7643 -9.7479 30.3181
#
#
#
# Elastic Compliance Matrix: (Units=1/GPa)
#
#
# Indices 1 2 3 4 5 6 
#
# 1 0.026291 -0.002507 -0.003875 0.002086 -0.022290 -0.000367
# 2 -0.002507 0.013596 -0.003672 0.004465 -0.000336 0.000723
# 3 -0.003875 -0.003672 0.010234 0.002220 0.000222 -0.001719
# 4 0.002086 0.004465 0.002220 0.034005 -0.003749 -0.015099
# 5 -0.022290 -0.000336 0.000222 -0.003749 0.041615 0.007176
# 6 -0.000367 0.000723 -0.001719 -0.015099 0.007176 0.042436
#
#
# Mechanical properties :
#
#
# Convention : Reuss Voigt Hill
#
# Bulk Modulus (GPa) = 33.31793 66.88458 50.10126
# Shear Modulus (GPa) = 25.21559 37.48212 31.34885
#
# Velocity S-wave (km/s) = 3.39534 4.13963 3.78582
# Velocity P-wave (km/s) = 5.53207 7.30943 6.48196
#
# Compressibility (1/GPa) = 0.03001387
#
# Stress axis : x y z
#
# Youngs Moduli (GPa) = 38.03568 73.54941 97.71085
#
# Poissons Ratio (x) = 0.18436 0.37865
# Poissons Ratio (y) = 0.09534 0.35880
# Poissons Ratio (z) = 0.14740 0.27008
#
# Static dielectric constant tensor:
#      x y z
#    x 1.846210 0.017750 0.003200 
#    y 0.017750 1.855640 -0.001050 
#    z 0.003200 -0.001050 1.902770 
# 
# From -- ./inp_files/336606.got.cif
#   From: 2010.05.17/outbox.cif.g08.bks.cpg/sg2_169_cif.got.tgz:336606.got - 2010.06.03 11:33:40.
