data_PCOD9007135
_publ_section_title
;
Structure prediction by ZEFSAII (Michael W. Deem and Ramdas Pophale) SiO2 
 PCOD9007135
Probable space group: P -1
;
_chemical_formula_sum "Si O2"
_cell_formula_units_Z 14
_cell_length_a 14.124459
_cell_length_b 7.456055
_cell_length_c 13.798504
_cell_angle_alpha 93.080398
_cell_angle_beta 31.301752
_cell_angle_gamma 112.444687
_cell_volume 574.567686
_symmetry_space_group_name_H-M "P -1"
_symmetry_group_IT_number 2
_symmetry_cell_setting 'triclinic'
loop_
_space_group_symop_operation_xyz
x,y,z
-x,-y,-z
loop_
_atom_site_type_symbol
_atom_site_label
_atom_site_fract_x
_atom_site_fract_y
_atom_site_fract_z
Si Si1 0.752561 0.947977 0.198754
Si Si2 0.679155 0.155046 0.965714
Si Si3 0.981574 0.691331 0.483038
Si Si4 0.710937 0.587094 0.890089
Si Si5 0.399073 0.628684 0.629963
Si Si6 0.493902 0.702190 0.223415
Si Si7 0.911272 0.397138 0.957996
O O1 0.631067 0.892599 0.408599
O O2 0.566547 0.752701 0.274178
O O3 0.819347 0.174714 0.096837
O O4 0.000000 0.000000 0.000000
O O5 0.644561 0.340758 0.971514
O O6 0.781640 0.120439 0.780313
O O7 0.885337 0.322928 0.869061
O O8 0.504551 0.908772 0.169805
O O9 0.937885 0.761512 0.625426
O O10 0.753878 0.545525 0.604347
O O11 0.000000 0.500000 0.500000
O O12 0.500000 0.500000 0.000000
O O13 0.701228 0.716224 0.991270
O O14 0.500000 0.500000 0.500000
O O15 0.270684 0.561423 0.845536
O O16 0.187612 0.573973 0.747209
#
# Coordination Sequence:
#
# PCOD9007135 Si02
#       7
#     2   2   2   2   2   2   2
#     4  11  22  40  61  90 130 164 211 261 306 382
#     4  10  21  39  60  86 122 156 203 254 306 384
#     4   9  19  38  61  85 119 155 200 256 308 369
#     4   9  20  37  59  89 117 155 199 251 309 369
#     4  11  22  38  63  87 122 168 208 263 312 365
#     4  10  22  38  61  89 120 164 201 255 315 360
#     4  10  23  40  60  91 120 168 213 255 322 364
#
# _framework density 24.366143999999998
#
# number of rings (size 3 to 8) (size 9 to 14) (size 15 to 20)
#    0.000    2.000    1.429    1.286    2.000    5.714 
#    0.000   10.000    0.000    0.000    0.000    0.000 
#    0.000    0.000    0.000    0.000    0.000    0.000 
#
# Total GULP energy -77950.132260 kJ/mol
# GULP energy per Si atom -5567.866590 kJ/mol
# Density = 2.431069 g / cm^3
# Si number density = 24.366144 Si / 1000 Ang^3
#
#
#
# Elastic Constant Matrix: (Units=GPa)
#
#
# Indices 1 2 3 4 5 6 
#
# 1 84.9190 24.4848 15.2045 2.2088 9.1188 -7.0383
# 2 24.4848 67.7626 6.0458 17.8398 2.7525 -9.6647
# 3 15.2045 6.0458 103.6265 24.6983 11.9550 0.3216
# 4 2.2088 17.8398 24.6983 37.9367 8.1274 3.0422
# 5 9.1188 2.7525 11.9550 8.1274 33.0166 -1.2399
# 6 -7.0383 -9.6647 0.3216 3.0422 -1.2399 40.4087
#
#
#
# Elastic Compliance Matrix: (Units=1/GPa)
#
#
# Indices 1 2 3 4 5 6 
#
# 1 0.014184 -0.005753 -0.002310 0.004095 -0.003583 0.000695
# 2 -0.005753 0.020238 0.002121 -0.011397 0.002117 0.004744
# 3 -0.002310 0.002121 0.012071 -0.008377 -0.001825 0.000583
# 4 0.004095 -0.011397 -0.008377 0.038818 -0.006894 -0.005080
# 5 -0.003583 0.002117 -0.001825 -0.006894 0.033513 0.001444
# 6 0.000695 0.004744 0.000583 -0.005080 0.001444 0.026425
#
#
# Mechanical properties :
#
#
# Convention : Reuss Voigt Hill
#
# Bulk Modulus (GPa) = 28.89520 38.64202 33.76861
# Shear Modulus (GPa) = 29.64370 36.31061 32.97716
#
# Velocity S-wave (km/s) = 3.49175 3.86451 3.68285
# Velocity P-wave (km/s) = 5.30481 5.98380 5.65451
#
# Compressibility (1/GPa) = 0.03460782
#
# Stress axis : x y z
#
# Youngs Moduli (GPa) = 70.50152 49.41238 82.84583
#
# Poissons Ratio (x) = 0.28425 0.19141
# Poissons Ratio (y) = 0.40556 -0.17568
# Poissons Ratio (z) = 0.16289 -0.10478
#
# Static dielectric constant tensor:
#      x y z
#    x 2.025000 -0.015010 -0.042540 
#    y -0.015010 2.068760 0.051740 
#    z -0.042540 0.051740 2.201130 
# 
# From -- ./inp_files/529754.got.cif
#   From: 2010.05.17/outbox.cif.g08.bks.cpg/sg2_265_cif.got.tgz:529754.got - 2010.06.03 11:33:40.
