data_PCOD9007270
_publ_section_title
;
Structure prediction by ZEFSAII (Michael W. Deem and Ramdas Pophale) SiO2 
 PCOD9007270
Probable space group: P -1
;
_chemical_formula_sum "Si O2"
_cell_formula_units_Z 16
_cell_length_a 12.143262
_cell_length_b 8.999572
_cell_length_c 14.620414
_cell_angle_alpha 149.452570
_cell_angle_beta 77.298269
_cell_angle_gamma 97.013966
_cell_volume 784.880321
_symmetry_space_group_name_H-M "P -1"
_symmetry_group_IT_number 2
_symmetry_cell_setting 'triclinic'
loop_
_space_group_symop_operation_xyz
x,y,z
-x,-y,-z
loop_
_atom_site_type_symbol
_atom_site_label
_atom_site_fract_x
_atom_site_fract_y
_atom_site_fract_z
Si Si1 0.563716 0.292434 0.301174
Si Si2 0.165422 0.471537 0.822106
Si Si3 0.174806 0.843575 0.847021
Si Si4 0.414990 0.299676 0.661428
Si Si5 0.032517 0.382984 0.532052
Si Si6 0.923836 0.483786 0.787122
Si Si7 0.189174 0.770290 0.167354
Si Si8 0.557537 0.279519 0.950368
O O1 0.500000 0.500000 0.500000
O O2 0.698435 0.185080 0.231534
O O3 0.557198 0.507463 0.328406
O O4 0.506832 0.991906 0.151829
O O5 0.181041 0.757114 0.907642
O O6 0.280886 0.254118 0.661836
O O7 0.045620 0.384622 0.762781
O O8 0.163964 0.558287 0.975027
O O9 0.111574 0.600860 0.679843
O O10 0.103642 0.162783 0.018639
O O11 0.500000 0.000000 0.500000
O O12 0.427881 0.511367 0.856320
O O13 0.000000 0.500000 0.500000
O O14 0.934278 0.380100 0.625199
O O15 0.100335 0.062597 0.336556
O O16 0.827440 0.372470 0.807199
O O17 0.316068 0.845492 0.172572
O O18 0.500000 0.500000 0.000000
#
# Coordination Sequence:
#
# PCOD9007270 Si02
#       8
#     2   2   2   2   2   2   2   2
#     4  11  22  40  63  89 119 160 207 253 303 358
#     4   9  20  38  61  84 117 155 193 240 297 357
#     4  10  21  39  61  84 115 155 196 242 297 359
#     4  10  22  40  63  91 122 158 204 253 305 361
#     4  11  22  38  59  87 119 152 191 240 295 360
#     4  11  21  37  60  88 117 154 192 237 298 358
#     4  11  22  38  58  86 118 151 195 246 292 348
#     4  11  23  40  61  87 121 161 203 253 303 357
#
# _framework density 20.385273999999999
#
# number of rings (size 3 to 8) (size 9 to 14) (size 15 to 20)
#    0.000    1.500    0.000    6.375    0.000    3.000 
#    0.000    6.250    0.000    0.000    0.000    0.000 
#    0.000    0.000    0.000    0.000    0.000    0.000 
#
# Total GULP energy -89368.437090 kJ/mol
# GULP energy per Si atom -5585.527318 kJ/mol
# Density = 2.033888 g / cm^3
# Si number density = 20.385274 Si / 1000 Ang^3
#
#
#
# Elastic Constant Matrix: (Units=GPa)
#
#
# Indices 1 2 3 4 5 6 
#
# 1 58.6775 33.6956 17.9173 -7.4532 -14.9044 8.0560
# 2 33.6956 120.6536 44.2140 -21.4840 -10.1339 3.1515
# 3 17.9173 44.2140 85.3830 -3.2228 -26.8509 4.6729
# 4 -7.4532 -21.4840 -3.2228 45.4367 -3.3788 -2.2969
# 5 -14.9044 -10.1339 -26.8509 -3.3788 26.2096 -0.1100
# 6 8.0560 3.1515 4.6729 -2.2969 -0.1100 34.2454
#
#
#
# Elastic Compliance Matrix: (Units=1/GPa)
#
#
# Indices 1 2 3 4 5 6 
#
# 1 0.024476 -0.006218 0.003190 0.002145 0.015036 -0.005429
# 2 -0.006218 0.012829 -0.006840 0.004262 -0.005027 0.001485
# 3 0.003190 -0.006840 0.021390 0.000226 0.021100 -0.002957
# 4 0.002145 0.004262 0.000226 0.024900 0.006312 0.000763
# 5 0.015036 -0.005027 0.021100 0.006312 0.067169 -0.005315
# 6 -0.005429 0.001485 -0.002957 0.000763 -0.005315 0.030779
#
#
# Mechanical properties :
#
#
# Convention : Reuss Voigt Hill
#
# Bulk Modulus (GPa) = 25.66717 50.70754 38.18735
# Shear Modulus (GPa) = 23.33571 32.43748 27.88659
#
# Velocity S-wave (km/s) = 3.38706 3.99334 3.70263
# Velocity P-wave (km/s) = 5.28343 6.79639 6.08710
#
# Compressibility (1/GPa) = 0.03896028
#
# Stress axis : x y z
#
# Youngs Moduli (GPa) = 40.85651 77.94771 46.75066
#
# Poissons Ratio (x) = 0.48468 -0.14915
# Poissons Ratio (y) = 0.25405 0.31976
# Poissons Ratio (z) = -0.13035 0.53315
#
# Static dielectric constant tensor:
#      x y z
#    x 1.808140 -0.029530 0.008250 
#    y -0.029530 1.871250 -0.031020 
#    z 0.008250 -0.031020 1.697950 
# 
# From -- ./inp_files/187952.got.cif
#   From: 2010.05.17/outbox.cif.g08.bks.cpg/sg2_94_cif.got.tgz:187952.got - 2010.06.03 11:33:40.
