data_PCOD9007247
_publ_section_title
;
Structure prediction by ZEFSAII (Michael W. Deem and Ramdas Pophale) SiO2 
 PCOD9007247
Probable space group: P -1
;
_chemical_formula_sum "Si O2"
_cell_formula_units_Z 14
_cell_length_a 8.403017
_cell_length_b 14.497019
_cell_length_c 8.722741
_cell_angle_alpha 57.655053
_cell_angle_beta 129.520124
_cell_angle_gamma 140.374694
_cell_volume 520.586373
_symmetry_space_group_name_H-M "P -1"
_symmetry_group_IT_number 2
_symmetry_cell_setting 'triclinic'
loop_
_space_group_symop_operation_xyz
x,y,z
-x,-y,-z
loop_
_atom_site_type_symbol
_atom_site_label
_atom_site_fract_x
_atom_site_fract_y
_atom_site_fract_z
Si Si1 0.821740 0.544414 0.820707
Si Si2 0.925431 0.136221 0.315499
Si Si3 0.425141 0.704185 0.689772
Si Si4 0.672676 0.634032 0.103460
Si Si5 0.408814 0.058090 0.217287
Si Si6 0.099440 0.071097 0.760817
Si Si7 0.829589 0.513771 0.510925
O O1 0.540776 0.423575 0.841094
O O2 0.760435 0.533379 0.614897
O O3 0.976690 0.710010 0.817216
O O4 0.000000 0.500000 0.000000
O O5 0.612490 0.039287 0.281364
O O6 0.951449 0.054113 0.270631
O O7 0.107029 0.163043 0.549321
O O8 0.421134 0.824631 0.645440
O O9 0.404314 0.649386 0.554465
O O10 0.120536 0.556869 0.679950
O O11 0.680275 0.743363 0.906328
O O12 0.889846 0.633297 0.320595
O O13 0.500000 0.500000 0.000000
O O14 0.118449 0.951145 0.228476
O O15 0.341232 0.112624 0.981775
#
# Coordination Sequence:
#
# PCOD9007247 Si02
#       7
#     2   2   2   2   2   2   2
#     4  12  23  43  65 101 137 179 223 276 350 412
#     4  11  24  47  70  99 143 176 229 297 339 408
#     4  10  21  39  63  95 138 167 220 275 338 407
#     4  10  22  38  61  92 132 170 220 264 324 417
#     4  11  22  46  72 101 133 180 232 296 339 402
#     4  10  26  45  73 101 131 183 243 276 351 404
#     4  10  21  39  60  95 136 173 217 266 339 413
#
# _framework density 26.892754
#
# number of rings (size 3 to 8) (size 9 to 14) (size 15 to 20)
#    0.000    1.429    2.857    1.286    6.000    0.000 
#    2.571    4.286    0.000    0.000    0.000    0.000 
#    0.000    0.000    0.000    0.000    0.000    0.000 
#
# Total GULP energy -77962.070619 kJ/mol
# GULP energy per Si atom -5568.719330 kJ/mol
# Density = 2.683155 g / cm^3
# Si number density = 26.892754 Si / 1000 Ang^3
#
#
#
# Elastic Constant Matrix: (Units=GPa)
#
#
# Indices 1 2 3 4 5 6 
#
# 1 135.1953 23.2599 29.8877 -17.7660 2.0803 -1.7449
# 2 23.2599 69.0915 17.3418 3.6390 -3.2393 -26.6849
# 3 29.8877 17.3418 143.6105 10.2310 8.7717 2.8845
# 4 -17.7660 3.6390 10.2310 42.8042 -9.6132 -2.4507
# 5 2.0803 -3.2393 8.7717 -9.6132 33.9483 4.2588
# 6 -1.7449 -26.6849 2.8845 -2.4507 4.2588 41.8807
#
#
#
# Elastic Compliance Matrix: (Units=1/GPa)
#
#
# Indices 1 2 3 4 5 6 
#
# 1 0.008935 -0.003299 -0.001826 0.004587 0.001090 -0.001446
# 2 -0.003299 0.021445 -0.002083 -0.001790 0.000585 0.013506
# 3 -0.001826 -0.002083 0.008037 -0.003248 -0.002850 -0.001857
# 4 0.004587 -0.001790 -0.003248 0.028069 0.008327 0.000070
# 5 0.001090 0.000585 -0.002850 0.008327 0.032821 -0.002236
# 6 -0.001446 0.013506 -0.001857 0.000070 -0.002236 0.032782
#
#
# Mechanical properties :
#
#
# Convention : Reuss Voigt Hill
#
# Bulk Modulus (GPa) = 41.66068 54.31956 47.99012
# Shear Modulus (GPa) = 32.36160 42.22048 37.29104
#
# Velocity S-wave (km/s) = 3.47271 3.96657 3.72782
# Velocity P-wave (km/s) = 5.62180 6.42033 6.03429
#
# Compressibility (1/GPa) = 0.02400345
#
# Stress axis : x y z
#
# Youngs Moduli (GPa) = 111.91629 46.63123 124.41704
#
# Poissons Ratio (x) = 0.15384 0.22712
# Poissons Ratio (y) = 0.36922 0.25910
# Poissons Ratio (z) = 0.20430 0.09711
#
# Static dielectric constant tensor:
#      x y z
#    x 2.107260 -0.029660 0.045950 
#    y -0.029660 2.267760 -0.106860 
#    z 0.045950 -0.106860 2.152800 
# 
# From -- ./inp_files/200448.got.cif
#   From: 2010.05.17/outbox.cif.g08.bks.cpg/sg2_101_cif.got.tgz:200448.got - 2010.06.03 11:33:40.
