data_PCOD9007846
_publ_section_title
;
Structure prediction by ZEFSAII (Michael W. Deem and Ramdas Pophale) SiO2 
 PCOD9007846
Probable space group: P -1
;
_chemical_formula_sum "Si O2"
_cell_formula_units_Z 16
_cell_length_a 14.481080
_cell_length_b 17.980263
_cell_length_c 7.345759
_cell_angle_alpha 95.560096
_cell_angle_beta 76.281702
_cell_angle_gamma 156.178721
_cell_volume 714.457612
_symmetry_space_group_name_H-M "P -1"
_symmetry_group_IT_number 2
_symmetry_cell_setting 'triclinic'
loop_
_space_group_symop_operation_xyz
x,y,z
-x,-y,-z
loop_
_atom_site_type_symbol
_atom_site_label
_atom_site_fract_x
_atom_site_fract_y
_atom_site_fract_z
Si Si1 0.699470 0.424724 0.613416
Si Si2 0.628515 0.380061 0.043549
Si Si3 0.181049 0.237988 0.466760
Si Si4 0.216669 0.789738 0.253912
Si Si5 0.374275 0.796174 0.882103
Si Si6 0.330541 0.486494 0.621684
Si Si7 0.279546 0.720591 0.487121
Si Si8 0.082450 0.054100 0.181676
O O1 0.543176 0.370402 0.558751
O O2 0.585737 0.259836 0.611260
O O3 0.955268 0.614307 0.427403
O O4 0.749350 0.475745 0.812210
O O5 0.617235 0.284508 0.082908
O O6 0.751434 0.519267 0.177037
O O7 0.356197 0.217090 0.105200
O O8 0.151359 0.302383 0.549307
O O9 0.468452 0.423545 0.364845
O O10 0.073061 0.127825 0.304122
O O11 0.070728 0.111614 0.655703
O O12 0.366597 0.851849 0.353373
O O13 0.364287 0.970805 0.173881
O O14 0.202996 0.721511 0.077041
O O15 0.288010 0.740001 0.701233
O O16 0.000000 0.500000 0.500000
O O17 0.000000 0.000000 0.000000
#
# Coordination Sequence:
#
# PCOD9007846 Si02
#       8
#     2   2   2   2   2   2   2   2
#     4  11  22  38  59  93 126 159 208 257 311 368
#     4  11  23  38  65  93 124 164 213 253 311 368
#     4   9  21  40  64  90 124 163 208 246 320 370
#     4  10  24  40  62  90 125 166 209 257 320 361
#     4  11  22  42  64  89 125 165 211 262 303 374
#     4  10  21  40  63  91 124 164 205 263 301 375
#     4  10  21  39  63  88 119 163 208 252 309 367
#     4  10  21  40  65  93 127 164 201 256 311 371
#
# _framework density 22.39461
#
# number of rings (size 3 to 8) (size 9 to 14) (size 15 to 20)
#    0.000    1.750    2.500    1.125    1.750    5.000 
#    0.000    5.000    5.500    0.000    0.000    0.000 
#    0.000    0.000    0.000    0.000    0.000    0.000 
#
# Total GULP energy -89323.680463 kJ/mol
# GULP energy per Si atom -5582.730029 kJ/mol
# Density = 2.234364 g / cm^3
# Si number density = 22.394610 Si / 1000 Ang^3
#
#
#
# Elastic Constant Matrix: (Units=GPa)
#
#
# Indices 1 2 3 4 5 6 
#
# 1 92.9693 27.3499 48.0197 22.4593 -10.7331 -17.8128
# 2 27.3499 51.0825 42.6595 19.3297 -20.5176 -13.5908
# 3 48.0197 42.6595 201.5017 46.9558 -3.0328 -16.0989
# 4 22.4593 19.3297 46.9558 45.2403 3.3599 -6.6696
# 5 -10.7331 -20.5176 -3.0328 3.3599 29.4071 12.3248
# 6 -17.8128 -13.5908 -16.0989 -6.6696 12.3248 23.1134
#
#
#
# Elastic Compliance Matrix: (Units=1/GPa)
#
#
# Indices 1 2 3 4 5 6 
#
# 1 0.014715 -0.003449 -0.001426 -0.003285 0.000133 0.007300
# 2 -0.003449 0.042098 -0.004455 -0.013969 0.029592 -0.000818
# 3 -0.001426 -0.004455 0.007410 -0.004592 -0.003077 0.001758
# 4 -0.003285 -0.013969 -0.004592 0.036779 -0.018319 0.006437
# 5 0.000133 0.029592 -0.003077 -0.018319 0.067294 -0.025809
# 6 0.007300 -0.000818 0.001758 0.006437 -0.025809 0.065255
#
#
# Mechanical properties :
#
#
# Convention : Reuss Voigt Hill
#
# Bulk Modulus (GPa) = 21.94781 64.62351 43.28566
# Shear Modulus (GPa) = 18.69875 34.72045 26.70960
#
# Velocity S-wave (km/s) = 2.89271 3.94177 3.45727
# Velocity P-wave (km/s) = 4.58026 7.04529 5.94201
#
# Compressibility (1/GPa) = 0.04556264
#
# Stress axis : x y z
#
# Youngs Moduli (GPa) = 67.95768 23.75435 134.95463
#
# Poissons Ratio (x) = 0.08193 0.19240
# Poissons Ratio (y) = 0.23438 0.60126
# Poissons Ratio (z) = 0.09689 0.10583
#
# Static dielectric constant tensor:
#      x y z
#    x 2.044930 0.028080 -0.015640 
#    y 0.028080 1.876930 0.001540 
#    z -0.015640 0.001540 1.820540 
# 
# From -- ./inp_files/99798.got.cif
#   From: 2010.05.17/outbox.cif.g08.bks.cpg/sg2_50_cif.got.tgz:99798.got - 2010.06.03 11:33:40.
