data_PCOD9007874
_publ_section_title
;
Structure prediction by ZEFSAII (Michael W. Deem and Ramdas Pophale) SiO2 
 PCOD9007874
Probable space group: P -1
;
_chemical_formula_sum "Si O2"
_cell_formula_units_Z 16
_cell_length_a 16.558914
_cell_length_b 6.503992
_cell_length_c 19.709935
_cell_angle_alpha 118.722419
_cell_angle_beta 159.256798
_cell_angle_gamma 64.787462
_cell_volume 657.445982
_symmetry_space_group_name_H-M "P -1"
_symmetry_group_IT_number 2
_symmetry_cell_setting 'triclinic'
loop_
_space_group_symop_operation_xyz
x,y,z
-x,-y,-z
loop_
_atom_site_type_symbol
_atom_site_label
_atom_site_fract_x
_atom_site_fract_y
_atom_site_fract_z
Si Si1 0.347108 0.583871 0.987138
Si Si2 0.458451 0.283776 0.358346
Si Si3 0.745168 0.283695 0.717536
Si Si4 0.862977 0.692509 0.065650
Si Si5 0.212405 0.850264 0.124039
Si Si6 0.631218 0.335087 0.284565
Si Si7 0.628078 0.881667 0.143476
Si Si8 0.109293 0.541386 0.357686
O O1 0.269197 0.342087 0.845901
O O2 0.104739 0.655348 0.837023
O O3 0.531487 0.506461 0.175960
O O4 0.464887 0.761034 0.053986
O O5 0.556115 0.262240 0.507184
O O6 0.239851 0.436116 0.211588
O O7 0.653194 0.438449 0.494697
O O8 0.382547 0.016343 0.236851
O O9 0.680638 0.177079 0.721725
O O10 0.969953 0.202529 0.844612
O O11 0.981979 0.727657 0.238735
O O12 0.844015 0.409599 0.990859
O O13 0.605137 0.758820 0.878442
O O14 0.000000 0.000000 0.000000
O O15 0.794261 0.442266 0.487787
O O16 0.749653 0.114698 0.310106
O O17 0.500000 0.000000 0.000000
#
# Coordination Sequence:
#
# PCOD9007874 Si02
#       8
#     2   2   2   2   2   2   2   2
#     4   9  20  42  65  96 124 154 199 243 297 363
#     4  10  22  40  60  84 119 158 209 258 309 366
#     4  10  21  41  59  82 118 157 208 265 309 366
#     4  10  22  41  58  86 123 160 209 258 303 363
#     4  12  23  36  61  87 112 164 213 258 318 361
#     4  10  21  39  63  89 125 165 196 246 301 358
#     4   9  19  41  70  93 124 158 195 242 296 361
#     4  10  22  39  60  88 125 162 196 251 305 352
#
# _framework density 24.336601000000002
#
# number of rings (size 3 to 8) (size 9 to 14) (size 15 to 20)
#    0.000    2.000    1.250    1.500    1.750    2.500 
#    2.250   16.875    0.000    0.000    0.000    0.000 
#    0.000    0.000    0.000    0.000    0.000    0.000 
#
# Total GULP energy -89088.655918 kJ/mol
# GULP energy per Si atom -5568.040995 kJ/mol
# Density = 2.428121 g / cm^3
# Si number density = 24.336601 Si / 1000 Ang^3
#
#
#
# Elastic Constant Matrix: (Units=GPa)
#
#
# Indices 1 2 3 4 5 6 
#
# 1 118.2096 35.7049 41.9338 -1.1886 -13.8005 32.8786
# 2 35.7049 95.0170 21.1285 -1.3036 -2.7316 1.5370
# 3 41.9338 21.1285 100.7407 -26.0923 -20.5785 11.3926
# 4 -1.1886 -1.3036 -26.0923 21.2338 1.1030 0.2982
# 5 -13.8005 -2.7316 -20.5785 1.1030 42.9486 -1.7470
# 6 32.8786 1.5370 11.3926 0.2982 -1.7470 42.5138
#
#
#
# Elastic Compliance Matrix: (Units=1/GPa)
#
#
# Indices 1 2 3 4 5 6 
#
# 1 0.014282 -0.004093 -0.005194 -0.005786 0.001606 -0.009399
# 2 -0.004093 0.012398 -0.002034 -0.001944 -0.001320 0.003222
# 3 -0.005194 -0.002034 0.020468 0.024373 0.007332 -0.001264
# 4 -0.005786 -0.001944 0.024373 0.076235 0.007648 -0.002207
# 5 0.001606 -0.001320 0.007332 0.007648 0.026947 -0.002106
# 6 -0.009399 0.003222 -0.001264 -0.002207 -0.002106 0.030942
#
#
# Mechanical properties :
#
#
# Convention : Reuss Voigt Hill
#
# Bulk Modulus (GPa) = 40.80577 56.83350 48.81964
# Shear Modulus (GPa) = 23.57570 35.68590 29.63080
#
# Velocity S-wave (km/s) = 3.11583 3.83345 3.49311
# Velocity P-wave (km/s) = 5.45419 6.55725 6.03099
#
# Compressibility (1/GPa) = 0.02450634
#
# Stress axis : x y z
#
# Youngs Moduli (GPa) = 70.01923 80.65802 48.85558
#
# Poissons Ratio (x) = 0.33013 0.25375
# Poissons Ratio (y) = 0.28658 0.09938
# Poissons Ratio (z) = 0.36367 0.16407
#
# Static dielectric constant tensor:
#      x y z
#    x 2.026090 -0.044790 -0.002050 
#    y -0.044790 2.016650 0.033540 
#    z -0.002050 0.033540 1.946010 
# 
# From -- ./inp_files/575409.got.cif
#   From: 2010.05.17/outbox.cif.g08.bks.cpg/sg2_288_cif.got.tgz:575409.got - 2010.06.03 11:33:40.
