data_PCOD9007966
_publ_section_title
;
Structure prediction by ZEFSAII (Michael W. Deem and Ramdas Pophale) SiO2 
 PCOD9007966
Probable space group: P -1
;
_chemical_formula_sum "Si O2"
_cell_formula_units_Z 16
_cell_length_a 10.754333
_cell_length_b 12.877834
_cell_length_c 8.803117
_cell_angle_alpha 59.346369
_cell_angle_beta 137.820648
_cell_angle_gamma 96.986999
_cell_volume 631.179478
_symmetry_space_group_name_H-M "P -1"
_symmetry_group_IT_number 2
_symmetry_cell_setting 'triclinic'
loop_
_space_group_symop_operation_xyz
x,y,z
-x,-y,-z
loop_
_atom_site_type_symbol
_atom_site_label
_atom_site_fract_x
_atom_site_fract_y
_atom_site_fract_z
Si Si1 0.782895 0.880014 0.187067
Si Si2 0.810641 0.089088 0.466434
Si Si3 0.732488 0.973407 0.762826
Si Si4 0.804137 0.469271 0.646283
Si Si5 0.651200 0.249878 0.639983
Si Si6 0.218561 0.482189 0.046965
Si Si7 0.568336 0.384559 0.023940
Si Si8 0.480483 0.850320 0.124943
O O1 0.710769 0.797140 0.301660
O O2 0.976803 0.906495 0.384307
O O3 0.813041 0.855259 0.051317
O O4 0.575197 0.022117 0.909724
O O5 0.833279 0.972387 0.691118
O O6 0.657186 0.236715 0.284384
O O7 0.685513 0.094141 0.200055
O O8 0.740767 0.103491 0.753833
O O9 0.500000 0.000000 0.500000
O O10 0.788789 0.330487 0.701857
O O11 0.780932 0.497622 0.785640
O O12 0.619516 0.576104 0.294677
O O13 0.024071 0.466790 0.817748
O O14 0.426676 0.348920 0.296106
O O15 0.588864 0.239706 0.765729
O O16 0.244091 0.605443 0.902848
O O17 0.500000 0.500000 0.000000
#
# Coordination Sequence:
#
# PCOD9007966 Si02
#       8
#     2   2   2   2   2   2   2   2
#     4  10  23  41  61  90 122 161 207 260 310 369
#     4  12  22  39  67  89 120 170 209 250 320 373
#     4  11  23  45  60  87 131 168 210 261 306 371
#     4  10  21  41  66  94 127 162 210 264 313 377
#     4  10  21  40  64  91 126 169 201 256 320 368
#     4  10  21  41  66  95 122 162 214 259 314 382
#     4  11  24  41  60  93 135 165 206 262 315 373
#     4  10  21  39  63  92 127 152 205 263 311 366
#
# _framework density 25.349367999999998
#
# number of rings (size 3 to 8) (size 9 to 14) (size 15 to 20)
#    0.000    1.500    1.250    5.250    0.000    4.500 
#    9.000    0.000    0.000    0.000    0.000    0.000 
#    0.000    0.000    0.000    0.000    0.000    0.000 
#
# Total GULP energy -89380.775404 kJ/mol
# GULP energy per Si atom -5586.298463 kJ/mol
# Density = 2.529167 g / cm^3
# Si number density = 25.349368 Si / 1000 Ang^3
#
#
#
# Elastic Constant Matrix: (Units=GPa)
#
#
# Indices 1 2 3 4 5 6 
#
# 1 125.6123 8.1170 67.1537 23.4888 -6.7564 26.7986
# 2 8.1170 62.6539 20.5128 15.2595 19.1046 12.8911
# 3 67.1537 20.5128 73.5609 24.5395 12.9844 31.3624
# 4 23.4888 15.2595 24.5395 43.7930 15.0992 15.6250
# 5 -6.7564 19.1046 12.9844 15.0992 38.4093 9.2199
# 6 26.7986 12.8911 31.3624 15.6250 9.2199 46.7594
#
#
#
# Elastic Compliance Matrix: (Units=1/GPa)
#
#
# Indices 1 2 3 4 5 6 
#
# 1 0.018827 0.001272 -0.018168 -0.004050 0.010326 0.000362
# 2 0.001272 0.020200 -0.004169 -0.002471 -0.007138 -0.001269
# 3 -0.018168 -0.004169 0.039138 -0.003003 -0.010378 -0.011639
# 4 -0.004050 -0.002471 -0.003003 0.032463 -0.010319 -0.003797
# 5 0.010326 -0.007138 -0.010378 -0.010319 0.039276 -0.001285
# 6 0.000362 -0.001269 -0.011639 -0.003797 -0.001285 0.030857
#
#
# Mechanical properties :
#
#
# Convention : Reuss Voigt Hill
#
# Bulk Modulus (GPa) = 27.74997 50.37710 39.06354
# Shear Modulus (GPa) = 21.28538 36.86194 29.07366
#
# Velocity S-wave (km/s) = 2.90087 3.81748 3.39029
# Velocity P-wave (km/s) = 4.71071 6.27273 5.54698
#
# Compressibility (1/GPa) = 0.03603607
#
# Stress axis : x y z
#
# Youngs Moduli (GPa) = 53.11492 49.50400 25.55052
#
# Poissons Ratio (x) = -0.06299 0.46420
# Poissons Ratio (y) = -0.06758 0.10653
# Poissons Ratio (z) = 0.96498 0.20640
#
# Static dielectric constant tensor:
#      x y z
#    x 2.111820 -0.029370 -0.045620 
#    y -0.029370 2.103150 -0.075120 
#    z -0.045620 -0.075120 2.012050 
# 
# From -- ./inp_files/272251.got.cif
#   From: 2010.05.17/outbox.cif.g08.bks.cpg/sg2_137_cif.got.tgz:272251.got - 2010.06.03 11:33:40.
