data_PCOD9007396
_publ_section_title
;
Structure prediction by ZEFSAII (Michael W. Deem and Ramdas Pophale) SiO2 
 PCOD9007396
Probable space group: P -1
;
_chemical_formula_sum "Si O2"
_cell_formula_units_Z 16
_cell_length_a 13.699597
_cell_length_b 11.090121
_cell_length_c 12.918754
_cell_angle_alpha 51.278922
_cell_angle_beta 31.907105
_cell_angle_gamma 69.886607
_cell_volume 721.236704
_symmetry_space_group_name_H-M "P -1"
_symmetry_group_IT_number 2
_symmetry_cell_setting 'triclinic'
loop_
_space_group_symop_operation_xyz
x,y,z
-x,-y,-z
loop_
_atom_site_type_symbol
_atom_site_label
_atom_site_fract_x
_atom_site_fract_y
_atom_site_fract_z
Si Si1 0.959835 0.072624 0.149685
Si Si2 0.339404 0.734781 0.446343
Si Si3 0.551832 0.568070 0.033651
Si Si4 0.725614 0.752379 0.394310
Si Si5 0.379750 0.064255 0.154742
Si Si6 0.199829 0.167263 0.087913
Si Si7 0.919204 0.586089 0.808277
Si Si8 0.325799 0.755891 0.676068
O O1 0.058758 0.067689 0.172908
O O2 0.760058 0.104931 0.321387
O O3 0.134779 0.232410 0.840146
O O4 0.886120 0.892676 0.252953
O O5 0.285623 0.663794 0.648840
O O6 0.163006 0.646950 0.565385
O O7 0.349942 0.926021 0.343575
O O8 0.558634 0.745291 0.211127
O O9 0.409288 0.424167 0.325040
O O10 0.500000 0.500000 0.000000
O O11 0.531931 0.743569 0.981281
O O12 0.792568 0.610520 0.814011
O O13 0.562418 0.816113 0.461946
O O14 0.196134 0.051813 0.251650
O O15 0.500000 0.000000 0.000000
O O16 0.131778 0.309017 0.111907
O O17 0.806395 0.385756 0.044679
#
# Coordination Sequence:
#
# PCOD9007396 Si02
#       8
#     2   2   2   2   2   2   2   2
#     4  11  22  39  65  92 124 169 213 261 324 382
#     4  11  21  37  64  88 128 167 207 266 316 377
#     4  10  23  43  67  94 129 172 215 263 322 382
#     4  10  24  43  61  92 131 166 211 266 319 386
#     4   9  22  41  61  94 126 165 216 257 318 380
#     4  10  21  39  61  91 124 163 211 264 315 375
#     4  10  23  39  59  96 125 160 211 260 322 383
#     4  11  22  38  60  94 123 163 210 265 325 371
#
# _framework density 22.184118000000002
#
# number of rings (size 3 to 8) (size 9 to 14) (size 15 to 20)
#    0.000    1.750    2.500    0.750    1.750    7.500 
#    0.000    0.000    0.000   12.750    0.000    0.000 
#    0.000    0.000    0.000    0.000    0.000    0.000 
#
# Total GULP energy -89227.997774 kJ/mol
# GULP energy per Si atom -5576.749861 kJ/mol
# Density = 2.213363 g / cm^3
# Si number density = 22.184118 Si / 1000 Ang^3
#
#
#
# Elastic Constant Matrix: (Units=GPa)
#
#
# Indices 1 2 3 4 5 6 
#
# 1 103.3812 40.7456 25.4362 5.0263 -27.2122 12.6951
# 2 40.7456 66.6124 16.0662 4.0005 -3.1976 2.0227
# 3 25.4362 16.0662 61.2058 7.6836 -11.2028 -4.1452
# 4 5.0263 4.0005 7.6836 20.6307 3.4136 -0.9435
# 5 -27.2122 -3.1976 -11.2028 3.4136 34.6661 -5.6834
# 6 12.6951 2.0227 -4.1452 -0.9435 -5.6834 29.5702
#
#
#
# Elastic Compliance Matrix: (Units=1/GPa)
#
#
# Indices 1 2 3 4 5 6 
#
# 1 0.018016 -0.009404 -0.002729 -0.003760 0.011893 -0.005308
# 2 -0.009404 0.021075 -0.002720 0.000287 -0.006175 0.001037
# 3 -0.002729 -0.002720 0.020488 -0.007159 0.005770 0.005110
# 4 -0.003760 0.000287 -0.007159 0.053746 -0.010483 0.000291
# 5 0.011893 -0.006175 0.005770 -0.010483 0.041115 0.003693
# 6 -0.005308 0.001037 0.005110 0.000291 0.003693 0.037461
#
#
# Mechanical properties :
#
#
# Convention : Reuss Voigt Hill
#
# Bulk Modulus (GPa) = 33.47604 43.96615 38.72109
# Shear Modulus (GPa) = 21.59220 26.90349 24.24785
#
# Velocity S-wave (km/s) = 3.12319 3.48621 3.30968
# Velocity P-wave (km/s) = 5.30364 6.00556 5.66548
#
# Compressibility (1/GPa) = 0.02987211
#
# Stress axis : x y z
#
# Youngs Moduli (GPa) = 55.50682 47.44893 48.81000
#
# Poissons Ratio (x) = 0.44620 0.13322
# Poissons Ratio (y) = 0.52197 0.13277
# Poissons Ratio (z) = 0.15150 0.12907
#
# Static dielectric constant tensor:
#      x y z
#    x 1.833870 -0.016950 0.039050 
#    y -0.016950 1.819990 0.001030 
#    z 0.039050 0.001030 1.915980 
# 
# From -- ./inp_files/532388.got.cif
#   From: 2010.05.17/outbox.cif.g08.bks.cpg/sg2_267_cif.got.tgz:532388.got - 2010.06.03 11:33:40.
