data_PCOD9007613
_publ_section_title
;
Structure prediction by ZEFSAII (Michael W. Deem and Ramdas Pophale) SiO2 
 PCOD9007613
Probable space group: P -1
;
_chemical_formula_sum "Si O2"
_cell_formula_units_Z 16
_cell_length_a 7.437184
_cell_length_b 18.589041
_cell_length_c 9.762212
_cell_angle_alpha 132.644381
_cell_angle_beta 104.521284
_cell_angle_gamma 43.550858
_cell_volume 602.265371
_symmetry_space_group_name_H-M "P -1"
_symmetry_group_IT_number 2
_symmetry_cell_setting 'triclinic'
loop_
_space_group_symop_operation_xyz
x,y,z
-x,-y,-z
loop_
_atom_site_type_symbol
_atom_site_label
_atom_site_fract_x
_atom_site_fract_y
_atom_site_fract_z
Si Si1 0.425956 0.444732 0.735308
Si Si2 0.667052 0.193371 0.094772
Si Si3 0.004460 0.110948 0.317620
Si Si4 0.698060 0.832866 0.877822
Si Si5 0.358028 0.060446 0.728116
Si Si6 0.258866 0.515170 0.491529
Si Si7 0.701071 0.537091 0.954871
Si Si8 0.654850 0.773595 0.294315
O O1 0.740091 0.258221 0.550246
O O2 0.263842 0.481713 0.610648
O O3 0.499292 0.530184 0.858967
O O4 0.277764 0.481729 0.898534
O O5 0.870874 0.166447 0.209267
O O6 0.507208 0.171691 0.119298
O O7 0.390474 0.375958 0.243565
O O8 0.880563 0.047594 0.845145
O O9 0.296956 0.055375 0.320786
O O10 0.937741 0.691393 0.638565
O O11 0.832680 0.827477 0.033922
O O12 0.500000 0.000000 0.000000
O O13 0.283611 0.166679 0.729759
O O14 0.384758 0.935793 0.533906
O O15 0.500000 0.500000 0.500000
O O16 0.035589 0.375789 0.762009
O O17 0.587608 0.694315 0.117900
#
# Coordination Sequence:
#
# PCOD9007613 Si02
#       8
#     2   2   2   2   2   2   2   2
#     4  10  21  39  62  89 133 164 206 270 314 373
#     4   9  21  40  64  84 128 168 216 258 312 374
#     4   9  18  36  62  88 120 172 204 256 319 365
#     4  11  25  41  65  96 130 169 212 261 317 381
#     4  10  21  39  62  89 133 164 206 270 314 373
#     4  11  25  41  65  96 130 169 212 261 317 381
#     4  10  21  39  64  91 120 166 214 258 318 382
#     4  10  21  39  64  91 120 166 214 258 318 382
#
# _framework density 26.566362999999999
#
# number of rings (size 3 to 8) (size 9 to 14) (size 15 to 20)
#    0.000    2.000    1.250    1.125    8.750    4.000 
#    0.000    5.625    0.000    0.000    0.000    0.000 
#    0.000    0.000    0.000    0.000    0.000    0.000 
#
# Total GULP energy -89489.851726 kJ/mol
# GULP energy per Si atom -5593.115733 kJ/mol
# Density = 2.650590 g / cm^3
# Si number density = 26.566363 Si / 1000 Ang^3
#
#
#
# Elastic Constant Matrix: (Units=GPa)
#
#
# Indices 1 2 3 4 5 6 
#
# 1 59.7613 10.3178 41.6223 20.3550 17.5570 4.5245
# 2 10.3178 79.3021 52.8692 16.6636 8.0847 -0.7017
# 3 41.6223 52.8692 220.1649 35.8486 19.0622 4.8848
# 4 20.3550 16.6636 35.8486 64.9354 2.1859 0.1510
# 5 17.5570 8.0847 19.0622 2.1859 49.3834 10.5151
# 6 4.5245 -0.7017 4.8848 0.1510 10.5151 26.7764
#
#
#
# Elastic Compliance Matrix: (Units=1/GPa)
#
#
# Indices 1 2 3 4 5 6 
#
# 1 0.022499 0.000875 -0.002998 -0.005398 -0.006618 -0.000603
# 2 0.000875 0.015427 -0.003375 -0.002314 -0.001768 0.001579
# 3 -0.002998 -0.003375 0.006248 -0.001621 -0.000622 -0.000468
# 4 -0.005398 -0.002314 -0.001621 0.018511 0.002054 0.000236
# 5 -0.006618 -0.001768 -0.000622 0.002054 0.024870 -0.008593
# 6 -0.000603 0.001579 -0.000468 0.000236 -0.008593 0.040948
#
#
# Mechanical properties :
#
#
# Convention : Reuss Voigt Hill
#
# Bulk Modulus (GPa) = 30.14199 63.20521 46.67360
# Shear Modulus (GPa) = 33.20984 45.18030 39.19507
#
# Velocity S-wave (km/s) = 3.53947 4.12838 3.84521
# Velocity P-wave (km/s) = 5.29852 6.82406 6.10910
#
# Compressibility (1/GPa) = 0.03317631
#
# Stress axis : x y z
#
# Youngs Moduli (GPa) = 44.44716 64.82256 160.06312
#
# Poissons Ratio (x) = -0.05673 0.47992
# Poissons Ratio (y) = -0.03890 0.54024
# Poissons Ratio (z) = 0.13327 0.21879
#
# Static dielectric constant tensor:
#      x y z
#    x 2.035380 0.014760 0.023570 
#    y 0.014760 2.225910 -0.036770 
#    z 0.023570 -0.036770 2.121680 
# 
# From -- ./inp_files/404941.got.cif
#   From: 2010.05.17/outbox.cif.g08.bks.cpg/sg2_203_cif.got.tgz:404941.got - 2010.06.03 11:33:40.
