data_PCOD9007504
_publ_section_title
;
Structure prediction by ZEFSAII (Michael W. Deem and Ramdas Pophale) SiO2 
 PCOD9007504
Probable space group: P -1
;
_chemical_formula_sum "Si O2"
_cell_formula_units_Z 16
_cell_length_a 20.945199
_cell_length_b 7.734326
_cell_length_c 9.156382
_cell_angle_alpha 133.145198
_cell_angle_beta 142.594642
_cell_angle_gamma 60.940719
_cell_volume 651.858245
_symmetry_space_group_name_H-M "P -1"
_symmetry_group_IT_number 2
_symmetry_cell_setting 'triclinic'
loop_
_space_group_symop_operation_xyz
x,y,z
-x,-y,-z
loop_
_atom_site_type_symbol
_atom_site_label
_atom_site_fract_x
_atom_site_fract_y
_atom_site_fract_z
Si Si1 0.120534 0.575800 0.809020
Si Si2 0.791672 0.567100 0.553895
Si Si3 0.151082 0.852374 0.737157
Si Si4 0.387075 0.856101 0.669764
Si Si5 0.440254 0.647017 0.356971
Si Si6 0.250315 0.252081 0.705179
Si Si7 0.580134 0.590409 0.329742
Si Si8 0.910599 0.641667 0.094272
O O1 0.162180 0.781475 0.887720
O O2 0.181193 0.345079 0.759595
O O3 0.123912 0.586064 0.995647
O O4 0.000000 0.500000 0.500000
O O5 0.771342 0.293461 0.299580
O O6 0.819709 0.720483 0.549085
O O7 0.690093 0.670980 0.495196
O O8 0.884820 0.577489 0.844411
O O9 0.031685 0.739444 0.408741
O O10 0.155009 0.130822 0.875662
O O11 0.387820 0.817964 0.473059
O O12 0.385215 0.617188 0.622255
O O13 0.296790 0.006429 0.646995
O O14 0.500000 0.000000 0.000000
O O15 0.500000 0.500000 0.500000
O O16 0.521345 0.740709 0.428857
O O17 0.353303 0.455815 0.010673
O O18 0.500000 0.500000 0.000000
#
# Coordination Sequence:
#
# PCOD9007504 Si02
#       8
#     2   2   2   2   2   2   2   2
#     4   9  21  40  65  93 126 165 210 263 314 377
#     4  11  23  39  60  91 126 160 208 264 314 370
#     4   9  21  43  63  91 129 161 203 268 314 380
#     4  11  22  39  64  87 119 170 212 254 315 378
#     4  10  21  39  62  81 122 163 200 259 316 362
#     4  11  22  41  62  88 127 163 209 261 320 376
#     4  11  22  42  59  89 128 162 208 263 310 376
#     4  10  21  40  67  92 122 166 212 251 327 379
#
# _framework density 24.545211999999999
#
# number of rings (size 3 to 8) (size 9 to 14) (size 15 to 20)
#    0.000    1.750    3.750    0.375    5.250    2.000 
#    0.000    1.250    0.000    9.000    0.000    0.000 
#    0.000    0.000    0.000    0.000    0.000    0.000 
#
# Total GULP energy -89298.746365 kJ/mol
# GULP energy per Si atom -5581.171648 kJ/mol
# Density = 2.448935 g / cm^3
# Si number density = 24.545212 Si / 1000 Ang^3
#
#
#
# Elastic Constant Matrix: (Units=GPa)
#
#
# Indices 1 2 3 4 5 6 
#
# 1 61.3204 20.1254 8.6964 -9.0438 -9.8457 6.3331
# 2 20.1254 113.4715 18.5142 -14.0845 -5.7960 -7.9152
# 3 8.6964 18.5142 95.4855 -26.1662 -14.0618 13.2862
# 4 -9.0438 -14.0845 -26.1662 35.0447 6.0094 -3.4772
# 5 -9.8457 -5.7960 -14.0618 6.0094 29.4117 -19.0677
# 6 6.3331 -7.9152 13.2862 -3.4772 -19.0677 41.2730
#
#
#
# Elastic Compliance Matrix: (Units=1/GPa)
#
#
# Indices 1 2 3 4 5 6 
#
# 1 0.018466 -0.002834 0.000560 0.003160 0.004442 -0.001239
# 2 -0.002834 0.010259 -0.001263 0.002401 0.002756 0.004285
# 3 0.000560 -0.001263 0.014041 0.009339 0.003013 -0.002670
# 4 0.003160 0.002401 0.009339 0.037588 -0.002278 -0.000916
# 5 0.004442 0.002756 0.003013 -0.002278 0.052939 0.023143
# 6 -0.001239 0.004285 -0.002670 -0.000916 0.023143 0.036714
#
#
# Mechanical properties :
#
#
# Convention : Reuss Voigt Hill
#
# Bulk Modulus (GPa) = 28.01760 40.54994 34.28377
# Shear Modulus (GPa) = 26.45792 36.00866 31.23329
#
# Velocity S-wave (km/s) = 3.28674 3.83434 3.57105
# Velocity P-wave (km/s) = 5.08360 6.01326 5.56787
#
# Compressibility (1/GPa) = 0.03569184
#
# Stress axis : x y z
#
# Youngs Moduli (GPa) = 54.15474 97.47337 71.21955
#
# Poissons Ratio (x) = 0.27621 -0.03989
# Poissons Ratio (y) = 0.15346 0.08998
# Poissons Ratio (z) = -0.03034 0.12315
#
# Static dielectric constant tensor:
#      x y z
#    x 2.181450 0.011450 -0.074560 
#    y 0.011450 1.979280 0.007780 
#    z -0.074560 0.007780 1.949020 
# 
# From -- ./inp_files/343089.got.cif
#   From: 2010.05.17/outbox.cif.g08.bks.cpg/sg2_172_cif.got.tgz:343089.got - 2010.06.03 11:33:40.
