data_PCOD9007688
_publ_section_title
;
Structure prediction by ZEFSAII (Michael W. Deem and Ramdas Pophale) SiO2 
 PCOD9007688
Probable space group: P -1
;
_chemical_formula_sum "Si O2"
_cell_formula_units_Z 16
_cell_length_a 10.970017
_cell_length_b 8.549927
_cell_length_c 15.860687
_cell_angle_alpha 137.287969
_cell_angle_beta 92.239850
_cell_angle_gamma 119.670231
_cell_volume 640.056520
_symmetry_space_group_name_H-M "P -1"
_symmetry_group_IT_number 2
_symmetry_cell_setting 'triclinic'
loop_
_space_group_symop_operation_xyz
x,y,z
-x,-y,-z
loop_
_atom_site_type_symbol
_atom_site_label
_atom_site_fract_x
_atom_site_fract_y
_atom_site_fract_z
Si Si1 0.022292 0.192169 0.262124
Si Si2 0.551986 0.550575 0.167228
Si Si3 0.776307 0.595471 0.329031
Si Si4 0.402711 0.630637 0.071333
Si Si5 0.234126 0.870370 0.158071
Si Si6 0.999006 0.481016 0.738067
Si Si7 0.787532 0.793782 0.576725
Si Si8 0.791573 0.888111 0.896643
O O1 0.062651 0.507658 0.350550
O O2 0.080878 0.189588 0.356774
O O3 0.140679 0.198430 0.203823
O O4 0.794657 0.809056 0.096100
O O5 0.686122 0.634084 0.273993
O O6 0.576945 0.801624 0.202959
O O7 0.376414 0.401717 0.157519
O O8 0.540935 0.333199 0.009603
O O9 0.803525 0.373374 0.211431
O O10 0.694880 0.507362 0.386317
O O11 0.000000 0.000000 0.500000
O O12 0.328097 0.771852 0.147800
O O13 0.299902 0.174888 0.339976
O O14 0.284201 0.007480 0.118792
O O15 0.000000 0.500000 0.000000
O O16 0.874710 0.130449 0.654548
O O17 0.032060 0.755977 0.904091
#
# Coordination Sequence:
#
# PCOD9007688 Si02
#       8
#     2   2   2   2   2   2   2   2
#     4  11  21  38  67 100 122 163 210 266 317 381
#     4  11  25  39  61  95 134 160 204 277 324 357
#     4  10  23  43  62  81 128 183 211 249 316 395
#     4  11  21  39  61  98 134 155 207 269 322 377
#     4  11  19  36  68  94 123 172 206 255 322 378
#     4  11  20  35  67  92 121 169 211 256 322 377
#     4  10  21  39  62  92 124 164 221 251 300 385
#     4  11  21  37  64 101 128 152 213 271 316 375
#
# _framework density 24.997790999999999
#
# number of rings (size 3 to 8) (size 9 to 14) (size 15 to 20)
#    0.000    1.250    5.000    2.625    1.750    2.500 
#    0.000    3.125    0.000    0.000    0.000    0.000 
#    0.000    0.000    0.000    0.000    0.000    0.000 
#
# Total GULP energy -89138.923578 kJ/mol
# GULP energy per Si atom -5571.182724 kJ/mol
# Density = 2.494090 g / cm^3
# Si number density = 24.997791 Si / 1000 Ang^3
#
#
#
# Elastic Constant Matrix: (Units=GPa)
#
#
# Indices 1 2 3 4 5 6 
#
# 1 125.5548 31.8153 34.0255 -22.8264 4.9473 -26.1296
# 2 31.8153 123.3841 38.9914 -28.1707 21.4880 -18.4295
# 3 34.0255 38.9914 74.4334 -44.2332 9.8339 -6.4563
# 4 -22.8264 -28.1707 -44.2332 40.6739 -2.6615 15.4917
# 5 4.9473 21.4880 9.8339 -2.6615 46.2063 -21.0786
# 6 -26.1296 -18.4295 -6.4563 15.4917 -21.0786 60.6096
#
#
#
# Elastic Compliance Matrix: (Units=1/GPa)
#
#
# Indices 1 2 3 4 5 6 
#
# 1 0.010287 -0.001269 -0.006112 -0.003601 0.003033 0.005373
# 2 -0.001269 0.010768 -0.001800 0.004553 -0.004280 -0.000117
# 3 -0.006112 -0.001800 0.051047 0.056398 -0.013872 -0.016984
# 4 -0.003601 0.004553 0.056398 0.095451 -0.019852 -0.025461
# 5 0.003033 -0.004280 -0.013872 -0.019852 0.031806 0.014664
# 6 0.005373 -0.000117 -0.016984 -0.025461 0.014664 0.028579
#
#
# Mechanical properties :
#
#
# Convention : Reuss Voigt Hill
#
# Bulk Modulus (GPa) = 18.60815 59.22629 38.91722
# Shear Modulus (GPa) = 18.92421 44.06728 31.49574
#
# Velocity S-wave (km/s) = 2.75441 4.20318 3.55342
# Velocity P-wave (km/s) = 4.19235 6.87748 5.69541
#
# Compressibility (1/GPa) = 0.05373989
#
# Stress axis : x y z
#
# Youngs Moduli (GPa) = 97.21385 92.86643 19.58983
#
# Poissons Ratio (x) = 0.11782 0.11974
# Poissons Ratio (y) = 0.12334 0.03526
# Poissons Ratio (z) = 0.59420 0.16715
#
# Static dielectric constant tensor:
#      x y z
#    x 2.102000 -0.019720 -0.041650 
#    y -0.019720 2.099290 0.118040 
#    z -0.041650 0.118040 2.130150 
# 
# From -- ./inp_files/514700.got.cif
#   From: 2010.05.17/outbox.cif.g08.bks.cpg/sg2_258_cif.got.tgz:514700.got - 2010.06.03 11:33:40.
