data_PCOD9007169
_publ_section_title
;
Structure prediction by ZEFSAII (Michael W. Deem and Ramdas Pophale) SiO2 
 PCOD9007169
Probable space group: P -1
;
_chemical_formula_sum "Si O2"
_cell_formula_units_Z 15
_cell_length_a 18.107962
_cell_length_b 7.249630
_cell_length_c 6.874769
_cell_angle_alpha 64.031509
_cell_angle_beta 121.558483
_cell_angle_gamma 137.399345
_cell_volume 518.365633
_symmetry_space_group_name_H-M "P -1"
_symmetry_group_IT_number 2
_symmetry_cell_setting 'triclinic'
loop_
_space_group_symop_operation_xyz
x,y,z
-x,-y,-z
loop_
_atom_site_type_symbol
_atom_site_label
_atom_site_fract_x
_atom_site_fract_y
_atom_site_fract_z
Si Si1 0.959572 0.207128 0.626542
Si Si2 0.364498 0.162378 0.579016
Si Si3 0.937466 0.641901 0.924234
Si Si4 0.438103 0.694672 0.977775
Si Si5 0.281985 0.479644 0.186993
Si Si6 0.408200 0.083668 0.250014
Si Si7 0.000000 0.000000 0.500000
Si Si8 0.212375 0.939051 0.819332
O O1 0.000000 0.500000 0.500000
O O2 0.865575 0.003674 0.413655
O O3 0.046354 0.168416 0.695161
O O4 0.952804 0.196703 0.853930
O O5 0.483777 0.348598 0.777330
O O6 0.322972 0.325553 0.397018
O O7 0.389686 0.078298 0.455819
O O8 0.264451 0.922457 0.697830
O O9 0.846719 0.670301 0.860056
O O10 0.952235 0.717800 0.687620
O O11 0.868488 0.326229 0.034400
O O12 0.313621 0.517487 0.984816
O O13 0.500000 0.000000 0.000000
O O14 0.468433 0.723098 0.779826
O O15 0.353075 0.780890 0.242088
O O16 0.328510 0.136583 0.013927
#
# Coordination Sequence:
#
# PCOD9007169 Si02
#       8
#     2   2   2   2   2   2   1   2
#     4  10  23  41  62  89 123 161 203 252 309 367
#     4  11  21  38  65  89 121 167 202 249 313 363
#     4  10  23  42  62  90 124 162 207 256 311 365
#     4   9  20  40  59  87 128 158 201 261 301 359
#     4  10  21  39  60  88 124 157 205 258 296 362
#     4   9  21  39  61  91 124 162 205 247 304 364
#     4  12  24  40  64  88 118 160 208 260 308 362
#     4   9  21  41  61  91 128 159 204 257 303 368
#
# _framework density 28.937104000000001
#
# number of rings (size 3 to 8) (size 9 to 14) (size 15 to 20)
#    0.000    2.133    0.000    2.400    0.000   11.200 
#    0.000   12.000    0.000    0.000    0.000    0.000 
#    0.000    0.000    0.000    0.000    0.000    0.000 
#
# Total GULP energy -83639.763859 kJ/mol
# GULP energy per Si atom -5575.984257 kJ/mol
# Density = 2.887124 g / cm^3
# Si number density = 28.937104 Si / 1000 Ang^3
#
#
#
# Elastic Constant Matrix: (Units=GPa)
#
#
# Indices 1 2 3 4 5 6 
#
# 1 150.5345 34.2939 65.0391 5.7015 -33.5449 -5.1359
# 2 34.2939 62.8015 21.4838 -8.0279 -19.8875 -11.3693
# 3 65.0391 21.4838 204.3879 2.3959 -29.7476 12.3929
# 4 5.7015 -8.0279 2.3959 47.9543 -1.9695 -0.3677
# 5 -33.5449 -19.8875 -29.7476 -1.9695 89.7016 -1.6578
# 6 -5.1359 -11.3693 12.3929 -0.3677 -1.6578 62.2269
#
#
#
# Elastic Compliance Matrix: (Units=1/GPa)
#
#
# Indices 1 2 3 4 5 6 
#
# 1 0.008892 -0.003631 -0.002207 -0.001478 0.001766 0.000548
# 2 -0.003631 0.020326 -0.000809 0.004028 0.003036 0.003680
# 3 -0.002207 -0.000809 0.005906 -0.000142 0.000923 -0.001482
# 4 -0.001478 0.004028 -0.000142 0.021749 0.000785 0.000792
# 5 0.001766 0.003036 0.000923 0.000785 0.012821 0.000863
# 6 0.000548 0.003680 -0.001482 0.000792 0.000863 0.017111
#
#
# Mechanical properties :
#
#
# Convention : Reuss Voigt Hill
#
# Bulk Modulus (GPa) = 45.81104 73.26193 59.53649
# Shear Modulus (GPa) = 46.56605 59.77037 53.16821
#
# Velocity S-wave (km/s) = 4.01586 4.54974 4.29111
# Velocity P-wave (km/s) = 6.11297 7.27824 6.72091
#
# Compressibility (1/GPa) = 0.02182880
#
# Stress axis : x y z
#
# Youngs Moduli (GPa) = 112.46243 49.19928 169.32264
#
# Poissons Ratio (x) = 0.17865 0.37365
# Poissons Ratio (y) = 0.40836 0.13705
# Poissons Ratio (z) = 0.24817 0.03982
#
# Static dielectric constant tensor:
#      x y z
#    x 1.690800 -0.120190 0.015930 
#    y -0.120190 2.586070 -0.087950 
#    z 0.015930 -0.087950 2.214000 
# 
# From -- ./inp_files/106347.got.cif
#   From: 2010.05.17/outbox.cif.g08.bks.cpg/sg2_54_cif.got.tgz:106347.got - 2010.06.03 11:33:40.
