data_PCOD9007090
_publ_section_title
;
Structure prediction by ZEFSAII (Michael W. Deem and Ramdas Pophale) SiO2 
 PCOD9007090
Probable space group: P -1
;
_chemical_formula_sum "Si O2"
_cell_formula_units_Z 14
_cell_length_a 7.144166
_cell_length_b 7.110530
_cell_length_c 21.956899
_cell_angle_alpha 48.395417
_cell_angle_beta 125.547224
_cell_angle_gamma 88.753912
_cell_volume 503.611435
_symmetry_space_group_name_H-M "P -1"
_symmetry_group_IT_number 2
_symmetry_cell_setting 'triclinic'
loop_
_space_group_symop_operation_xyz
x,y,z
-x,-y,-z
loop_
_atom_site_type_symbol
_atom_site_label
_atom_site_fract_x
_atom_site_fract_y
_atom_site_fract_z
Si Si1 0.185013 0.799420 0.208039
Si Si2 0.162203 0.726578 0.858269
Si Si3 0.753941 0.432719 0.321340
Si Si4 0.712216 0.711228 0.475243
Si Si5 0.696195 0.762404 0.820050
Si Si6 0.844544 0.049114 0.605730
Si Si7 0.703336 0.185621 0.946534
O O1 0.488644 0.474814 0.300695
O O2 0.271122 0.038639 0.167024
O O3 0.980874 0.433446 0.112409
O O4 0.867043 0.934780 0.088319
O O5 0.092849 0.794304 0.759785
O O6 0.500000 0.500000 0.000000
O O7 0.921577 0.107773 0.761540
O O8 0.566007 0.706721 0.171944
O O9 0.959751 0.440988 0.404426
O O10 0.008726 0.100219 0.400309
O O11 0.757460 0.401758 0.522692
O O12 0.461402 0.880173 0.446566
O O13 0.650819 0.515361 0.886052
O O14 0.433189 0.024012 0.664859
O O15 0.000000 0.000000 0.000000
#
# Coordination Sequence:
#
# PCOD9007090 Si02
#       7
#     2   2   2   2   2   2   2
#     4   9  21  39  64  94 128 162 213 267 318 372
#     4   9  19  37  66  93 124 171 214 257 323 382
#     4  11  23  39  67  94 129 167 215 266 316 377
#     4  10  23  44  63  94 131 173 217 256 325 380
#     4   9  21  40  63  92 129 167 211 266 317 378
#     4  10  22  43  66  92 130 174 215 262 315 386
#     4  10  21  39  59  98 129 158 211 270 323 374
#
# _framework density 27.799209999999999
#
# number of rings (size 3 to 8) (size 9 to 14) (size 15 to 20)
#    0.857    1.429    0.000    1.714    2.000    3.429 
#    5.143    5.714    0.000   18.857    0.000    0.000 
#    0.000    0.000    0.000    0.000    0.000    0.000 
#
# Total GULP energy -78197.319845 kJ/mol
# GULP energy per Si atom -5585.522846 kJ/mol
# Density = 2.773594 g / cm^3
# Si number density = 27.799210 Si / 1000 Ang^3
#
#
#
# Elastic Constant Matrix: (Units=GPa)
#
#
# Indices 1 2 3 4 5 6 
#
# 1 74.5071 20.9362 49.4555 -14.3596 23.3350 -10.8897
# 2 20.9362 105.2414 24.1174 5.3911 0.3503 -22.8011
# 3 49.4555 24.1174 210.8101 41.5214 32.1615 15.5750
# 4 -14.3596 5.3911 41.5214 42.8563 -1.1330 14.3778
# 5 23.3350 0.3503 32.1615 -1.1330 37.0092 2.5043
# 6 -10.8897 -22.8011 15.5750 14.3778 2.5043 32.4903
#
#
#
# Elastic Compliance Matrix: (Units=1/GPa)
#
#
# Indices 1 2 3 4 5 6 
#
# 1 0.025564 -0.003207 -0.007315 0.014397 -0.009574 0.004191
# 2 -0.003207 0.012869 -0.000642 -0.005592 0.001569 0.010618
# 3 -0.007315 -0.000642 0.009399 -0.010787 -0.003721 -0.002348
# 4 0.014397 -0.005592 -0.010787 0.043934 0.002613 -0.013571
# 5 -0.009574 0.001569 -0.003721 0.002613 0.036647 -0.004305
# 6 0.004191 0.010618 -0.002348 -0.013571 -0.004305 0.047097
#
#
# Mechanical properties :
#
#
# Convention : Reuss Voigt Hill
#
# Bulk Modulus (GPa) = 39.21064 64.39743 51.80403
# Shear Modulus (GPa) = 24.23195 42.20781 33.21988
#
# Velocity S-wave (km/s) = 2.95562 3.90078 3.46062
# Velocity P-wave (km/s) = 5.07771 6.59572 5.88586
#
# Compressibility (1/GPa) = 0.02550328
#
# Stress axis : x y z
#
# Youngs Moduli (GPa) = 39.11757 77.70811 106.39524
#
# Poissons Ratio (x) = 0.24919 0.77828
# Poissons Ratio (y) = 0.12544 0.06835
# Poissons Ratio (z) = 0.28614 0.04992
#
# Static dielectric constant tensor:
#      x y z
#    x 2.233020 -0.052230 -0.041860 
#    y -0.052230 2.270840 -0.075180 
#    z -0.041860 -0.075180 2.285770 
# 
# From -- ./inp_files/616412.got.cif
#   From: 2010.05.17/outbox.cif.g08.bks.cpg/sg2_309_cif.got.tgz:616412.got - 2010.06.03 11:33:40.
