data_PCOD9007293
_publ_section_title
;
Structure prediction by ZEFSAII (Michael W. Deem and Ramdas Pophale) SiO2 
 PCOD9007293
Probable space group: P -1
;
_chemical_formula_sum "Si O2"
_cell_formula_units_Z 14
_cell_length_a 18.527636
_cell_length_b 20.773954
_cell_length_c 18.714244
_cell_angle_alpha 160.822577
_cell_angle_beta 163.518447
_cell_angle_gamma 19.165273
_cell_volume 610.086802
_symmetry_space_group_name_H-M "P -1"
_symmetry_group_IT_number 2
_symmetry_cell_setting 'triclinic'
loop_
_space_group_symop_operation_xyz
x,y,z
-x,-y,-z
loop_
_atom_site_type_symbol
_atom_site_label
_atom_site_fract_x
_atom_site_fract_y
_atom_site_fract_z
Si Si1 0.506773 0.589786 0.455233
Si Si2 0.583376 0.700686 0.788617
Si Si3 0.927684 0.631331 0.820195
Si Si4 0.958497 0.970447 0.304777
Si Si5 0.877506 0.353314 0.135854
Si Si6 0.769384 0.701661 0.113836
Si Si7 0.589064 0.789093 0.411623
O O1 0.665589 0.668240 0.749131
O O2 0.626907 0.620937 0.526548
O O3 0.509444 0.352784 0.212093
O O4 0.191473 0.762824 0.347915
O O5 0.500000 0.500000 0.500000
O O6 0.808574 0.679014 0.040119
O O7 0.301821 0.908180 0.761451
O O8 0.068587 0.602647 0.847987
O O9 0.100971 0.441426 0.842126
O O10 0.877503 0.863979 0.048350
O O11 0.130956 0.105915 0.583808
O O12 0.728679 0.579386 0.273490
O O13 0.175850 0.224321 0.322150
O O14 0.676650 0.230146 0.824027
O O15 0.500000 0.000000 0.500000
#
# Coordination Sequence:
#
# PCOD9007293 Si02
#       7
#     2   2   2   2   2   2   2
#     4  10  23  39  61  86 126 171 224 286 341 398
#     4  10  21  39  61  86 120 172 231 289 334 400
#     4  11  25  42  61  95 136 174 209 281 344 402
#     4  11  23  39  59  90 122 171 229 280 345 401
#     4  10  24  44  75 106 153 176 231 282 341 416
#     4  10  22  39  60  86 124 166 225 273 334 402
#     4  10  22  47  77 113 136 188 228 277 337 421
#
# _framework density 22.947555000000001
#
# number of rings (size 3 to 8) (size 9 to 14) (size 15 to 20)
#    0.000    1.714    0.000    3.429    4.000    9.714 
#    2.571    0.000    0.000    0.000    0.000    0.000 
#    0.000    0.000    0.000    0.000    0.000    0.000 
#
# Total GULP energy -77956.305094 kJ/mol
# GULP energy per Si atom -5568.307507 kJ/mol
# Density = 2.289532 g / cm^3
# Si number density = 22.947555 Si / 1000 Ang^3
#
#
#
# Elastic Constant Matrix: (Units=GPa)
#
#
# Indices 1 2 3 4 5 6 
#
# 1 135.6416 26.2268 33.3558 -15.4134 20.6131 -2.1074
# 2 26.2268 54.2550 22.1825 -18.4440 9.7475 22.4194
# 3 33.3558 22.1825 116.3705 0.6560 31.6252 2.7123
# 4 -15.4134 -18.4440 0.6560 36.8818 8.3379 4.0717
# 5 20.6131 9.7475 31.6252 8.3379 34.3056 -0.1290
# 6 -2.1074 22.4194 2.7123 4.0717 -0.1290 30.0432
#
#
#
# Elastic Compliance Matrix: (Units=1/GPa)
#
#
# Indices 1 2 3 4 5 6 
#
# 1 0.009331 -0.003779 -0.000852 0.002666 -0.004384 0.003171
# 2 -0.003779 0.058148 -0.003579 0.037496 -0.020247 -0.048503
# 3 -0.000852 -0.003579 0.012067 -0.000383 -0.009496 0.001533
# 4 0.002666 0.037496 -0.000383 0.056751 -0.025829 -0.035561
# 5 -0.004384 -0.020247 -0.009496 -0.025829 0.052642 0.019386
# 6 0.003171 -0.048503 0.001533 -0.035561 0.019386 0.074467
#
#
# Mechanical properties :
#
#
# Convention : Reuss Voigt Hill
#
# Bulk Modulus (GPa) = 15.84138 52.19971 34.02054
# Shear Modulus (GPa) = 16.61857 35.21292 25.91575
#
# Velocity S-wave (km/s) = 2.69401 3.92151 3.36422
# Velocity P-wave (km/s) = 4.07372 6.58036 5.47249
#
# Compressibility (1/GPa) = 0.06312581
#
# Stress axis : x y z
#
# Youngs Moduli (GPa) = 107.17113 17.19735 82.87124
#
# Poissons Ratio (x) = 0.06499 0.07060
# Poissons Ratio (y) = 0.40499 0.29664
# Poissons Ratio (z) = 0.09130 0.06156
#
# Static dielectric constant tensor:
#      x y z
#    x 1.919430 0.101570 -0.009250 
#    y 0.101570 2.056890 -0.083180 
#    z -0.009250 -0.083180 1.902300 
# 
# From -- ./inp_files/576391.got.cif
#   From: 2010.05.17/outbox.cif.g08.bks.cpg/sg2_289_cif.got.tgz:576391.got - 2010.06.03 11:33:40.
