data_PCOD9007147
_publ_section_title
;
Structure prediction by ZEFSAII (Michael W. Deem and Ramdas Pophale) SiO2 
 PCOD9007147
Probable space group: P -1
;
_chemical_formula_sum "Si O2"
_cell_formula_units_Z 14
_cell_length_a 9.922478
_cell_length_b 9.059618
_cell_length_c 8.711550
_cell_angle_alpha 134.738431
_cell_angle_beta 93.547116
_cell_angle_gamma 81.137573
_cell_volume 548.415483
_symmetry_space_group_name_H-M "P -1"
_symmetry_group_IT_number 2
_symmetry_cell_setting 'triclinic'
loop_
_space_group_symop_operation_xyz
x,y,z
-x,-y,-z
loop_
_atom_site_type_symbol
_atom_site_label
_atom_site_fract_x
_atom_site_fract_y
_atom_site_fract_z
Si Si1 0.095227 0.686937 0.484806
Si Si2 0.183131 0.831611 0.895026
Si Si3 0.495905 0.708155 0.874688
Si Si4 0.587243 0.999572 0.656712
Si Si5 0.310951 0.607239 0.167899
Si Si6 0.255345 0.273107 0.323721
Si Si7 0.891819 0.525523 0.152064
O O1 0.110681 0.852751 0.739300
O O2 0.207688 0.679720 0.353318
O O3 0.142897 0.470198 0.423125
O O4 0.952171 0.686415 0.388095
O O5 0.343443 0.722549 0.808392
O O6 0.113950 0.683599 0.898147
O O7 0.195418 0.062998 0.123420
O O8 0.546670 0.505262 0.834830
O O9 0.615483 0.702598 0.756431
O O10 0.497605 0.911799 0.133460
O O11 0.676912 0.183953 0.771717
O O12 0.500000 0.000000 0.500000
O O13 0.676260 0.778473 0.543683
O O14 0.248355 0.445725 0.933927
O O15 0.000000 0.500000 0.000000
#
# Coordination Sequence:
#
# PCOD9007147 Si02
#       7
#     2   2   2   2   2   2   2
#     4  10  24  38  66  85 117 164 204 236 290 361
#     4  11  21  39  65  87 120 157 199 244 299 349
#     4  10  22  38  61  88 123 155 191 242 307 362
#     4  11  22  33  57  90 125 151 194 244 297 356
#     4  10  21  39  60  87 120 161 187 249 304 343
#     4  10  23  41  58  94 122 154 194 248 296 360
#     4  10  21  41  60  86 120 157 207 246 289 343
#
# _framework density 25.528092000000001
#
# number of rings (size 3 to 8) (size 9 to 14) (size 15 to 20)
#    0.000    1.714    2.857    2.571    6.000    1.714 
#    0.000    0.000    0.000    4.286    0.000    0.000 
#    0.000    0.000    0.000    0.000    0.000    0.000 
#
# Total GULP energy -78347.731479 kJ/mol
# GULP energy per Si atom -5596.266534 kJ/mol
# Density = 2.546999 g / cm^3
# Si number density = 25.528092 Si / 1000 Ang^3
#
#
#
# Elastic Constant Matrix: (Units=GPa)
#
#
# Indices 1 2 3 4 5 6 
#
# 1 135.8382 23.5825 27.3768 -19.9788 5.5345 1.7664
# 2 23.5825 77.0808 10.9358 -14.1300 -6.5274 1.9870
# 3 27.3768 10.9358 103.7852 -32.8119 35.7501 1.5285
# 4 -19.9788 -14.1300 -32.8119 44.2756 -7.6760 2.5359
# 5 5.5345 -6.5274 35.7501 -7.6760 45.2528 -9.3369
# 6 1.7664 1.9870 1.5285 2.5359 -9.3369 35.0991
#
#
#
# Elastic Compliance Matrix: (Units=1/GPa)
#
#
# Indices 1 2 3 4 5 6 
#
# 1 0.008285 -0.001939 -0.001286 0.002192 0.000011 -0.000407
# 2 -0.001939 0.014741 -0.001309 0.003550 0.004027 0.000135
# 3 -0.001286 -0.001309 0.018183 0.010396 -0.013673 -0.005041
# 4 0.002192 0.003550 0.010396 0.032058 -0.003350 -0.003971
# 5 0.000011 0.004027 -0.013673 -0.003350 0.034955 0.009908
# 6 -0.000407 0.000135 -0.005041 -0.003971 0.009908 0.031646
#
#
# Mechanical properties :
#
#
# Convention : Reuss Voigt Hill
#
# Bulk Modulus (GPa) = 31.11248 48.94383 40.02816
# Shear Modulus (GPa) = 31.31878 41.91277 36.61578
#
# Velocity S-wave (km/s) = 3.50642 4.05635 3.79137
# Velocity P-wave (km/s) = 5.34858 6.41504 5.90593
#
# Compressibility (1/GPa) = 0.03214145
#
# Stress axis : x y z
#
# Youngs Moduli (GPa) = 120.70451 67.83981 54.99630
#
# Poissons Ratio (x) = 0.13155 0.07072
# Poissons Ratio (y) = 0.23405 0.07197
# Poissons Ratio (z) = 0.15520 0.08877
#
# Static dielectric constant tensor:
#      x y z
#    x 2.039730 0.017330 -0.034960 
#    y 0.017330 2.010810 0.002490 
#    z -0.034960 0.002490 2.126850 
# 
# From -- ./inp_files/169257.got.cif
#   From: 2010.05.17/outbox.cif.g08.bks.cpg/sg2_85_cif.got.tgz:169257.got - 2010.06.03 11:33:40.
