data_PCOD9007904
_publ_section_title
;
Structure prediction by ZEFSAII (Michael W. Deem and Ramdas Pophale) SiO2 
 PCOD9007904
Probable space group: P -1
;
_chemical_formula_sum "Si O2"
_cell_formula_units_Z 16
_cell_length_a 23.553110
_cell_length_b 5.026931
_cell_length_c 6.665525
_cell_angle_alpha 75.519305
_cell_angle_beta 110.489304
_cell_angle_gamma 106.429977
_cell_volume 698.991234
_symmetry_space_group_name_H-M "P -1"
_symmetry_group_IT_number 2
_symmetry_cell_setting 'triclinic'
loop_
_space_group_symop_operation_xyz
x,y,z
-x,-y,-z
loop_
_atom_site_type_symbol
_atom_site_label
_atom_site_fract_x
_atom_site_fract_y
_atom_site_fract_z
Si Si1 0.141383 0.865304 0.099601
Si Si2 0.776207 0.723149 0.163885
Si Si3 0.701944 0.118884 0.183945
Si Si4 0.490206 0.288187 0.842185
Si Si5 0.365961 0.086116 0.484610
Si Si6 0.123915 0.250608 0.370073
Si Si7 0.008887 0.806955 0.860198
Si Si8 0.611317 0.333013 0.747420
O O1 0.142049 0.542230 0.209586
O O2 0.131229 0.003035 0.274673
O O3 0.081313 0.879221 0.882895
O O4 0.199246 0.063833 0.026414
O O5 0.754247 0.395215 0.146905
O O6 0.830486 0.740340 0.390773
O O7 0.721085 0.841008 0.178329
O O8 0.688267 0.080222 0.409874
O O9 0.641541 0.180398 0.988449
O O10 0.422704 0.235594 0.669792
O O11 0.544036 0.369634 0.727705
O O12 0.500000 0.500000 0.000000
O O13 0.500000 0.000000 0.000000
O O14 0.349181 0.352007 0.301109
O O15 0.388638 0.867939 0.406024
O O16 0.051001 0.203245 0.350941
O O17 0.000000 0.500000 0.000000
O O18 0.000000 0.000000 0.000000
#
# Coordination Sequence:
#
# PCOD9007904 Si02
#       8
#     2   2   2   2   2   2   2   2
#     4  10  21  39  63  90 127 162 211 267 325 384
#     4  12  26  41  64  93 122 176 220 264 318 382
#     4  12  28  45  64  93 134 168 226 268 312 372
#     4  12  24  44  76 103 139 166 204 273 332 382
#     4  12  26  46  72  99 132 175 216 263 327 391
#     4  10  21  39  63  90 127 162 211 267 325 384
#     4   8  16  33  58  89 120 160 200 261 328 385
#     4  12  26  46  72  99 132 175 216 263 327 391
#
# _framework density 22.890132000000001
#
# number of rings (size 3 to 8) (size 9 to 14) (size 15 to 20)
#    0.000    1.000    1.250    5.250    1.750    6.500 
#    0.000    0.000    0.000   10.500    0.000    0.000 
#    0.000    0.000    0.000    0.000    0.000    0.000 
#
# Total GULP energy -89492.455687 kJ/mol
# GULP energy per Si atom -5593.278480 kJ/mol
# Density = 2.283803 g / cm^3
# Si number density = 22.890132 Si / 1000 Ang^3
#
#
#
# Elastic Constant Matrix: (Units=GPa)
#
#
# Indices 1 2 3 4 5 6 
#
# 1 49.0772 8.4322 5.7923 -3.9379 -7.0191 0.0278
# 2 8.4322 116.9690 10.9206 0.6529 -13.4316 -17.5910
# 3 5.7923 10.9206 52.5074 -5.3990 6.4271 -2.3663
# 4 -3.9379 0.6529 -5.3990 40.8250 0.4555 -4.6784
# 5 -7.0191 -13.4316 6.4271 0.4555 41.0755 -3.3212
# 6 0.0278 -17.5910 -2.3663 -4.6784 -3.3212 43.6403
#
#
#
# Elastic Compliance Matrix: (Units=1/GPa)
#
#
# Indices 1 2 3 4 5 6 
#
# 1 0.021495 -0.000906 -0.002466 0.001715 0.003740 -0.000044
# 2 -0.000906 0.009878 -0.002240 -0.000110 0.003761 0.004135
# 3 -0.002466 -0.002240 0.020594 0.002589 -0.004392 0.000159
# 4 0.001715 -0.000110 0.002589 0.025327 -0.000203 0.002795
# 5 0.003740 0.003761 -0.004392 -0.000203 0.027173 0.003322
# 6 -0.000044 0.004135 0.000159 0.002795 0.003322 0.025143
#
#
# Mechanical properties :
#
#
# Convention : Reuss Voigt Hill
#
# Bulk Modulus (GPa) = 24.54410 29.87153 27.20781
# Shear Modulus (GPa) = 32.38037 38.00207 35.19122
#
# Velocity S-wave (km/s) = 3.76520 4.07897 3.92522
# Velocity P-wave (km/s) = 5.44501 5.93820 5.69695
#
# Compressibility (1/GPa) = 0.04074300
#
# Stress axis : x y z
#
# Youngs Moduli (GPa) = 46.52159 101.23343 48.55843
#
# Poissons Ratio (x) = 0.09172 0.11976
# Poissons Ratio (y) = 0.04215 0.10876
# Poissons Ratio (z) = 0.11473 0.22675
#
# Static dielectric constant tensor:
#      x y z
#    x 1.893710 0.059030 0.030580 
#    y 0.059030 1.803600 -0.006920 
#    z 0.030580 -0.006920 1.839580 
# 
# From -- ./inp_files/121585.got.cif
#   From: 2010.05.17/outbox.cif.g08.bks.cpg/sg2_61_cif.got.tgz:121585.got - 2010.06.03 11:33:40.
