data_PCOD9007816
_publ_section_title
;
Structure prediction by ZEFSAII (Michael W. Deem and Ramdas Pophale) SiO2 
 PCOD9007816
Probable space group: P -1
;
_chemical_formula_sum "Si O2"
_cell_formula_units_Z 16
_cell_length_a 5.731797
_cell_length_b 22.642493
_cell_length_c 8.089939
_cell_angle_alpha 62.616170
_cell_angle_beta 56.754922
_cell_angle_gamma 88.527778
_cell_volume 742.558601
_symmetry_space_group_name_H-M "P -1"
_symmetry_group_IT_number 2
_symmetry_cell_setting 'triclinic'
loop_
_space_group_symop_operation_xyz
x,y,z
-x,-y,-z
loop_
_atom_site_type_symbol
_atom_site_label
_atom_site_fract_x
_atom_site_fract_y
_atom_site_fract_z
Si Si1 0.772204 0.785832 0.033133
Si Si2 0.865094 0.075604 0.606911
Si Si3 0.483480 0.089242 0.042647
Si Si4 0.789221 0.323404 0.517538
Si Si5 0.529894 0.580355 0.374434
Si Si6 0.541766 0.082400 0.386943
Si Si7 0.888099 0.304017 0.889031
Si Si8 0.668620 0.682485 0.898500
O O1 0.061769 0.769249 0.998779
O O2 0.518275 0.736269 0.314190
O O3 0.709823 0.858598 0.963753
O O4 0.733803 0.747609 0.917352
O O5 0.737739 0.102509 0.453642
O O6 0.214319 0.093119 0.489644
O O7 0.731734 0.990568 0.766454
O O8 0.704611 0.099031 0.792372
O O9 0.658148 0.104106 0.127997
O O10 0.857233 0.308894 0.698950
O O11 0.050190 0.319227 0.306942
O O12 0.717408 0.396760 0.458268
O O13 0.500000 0.500000 0.500000
O O14 0.838388 0.630260 0.255925
O O15 0.538563 0.611079 0.146212
O O16 0.500000 0.000000 0.500000
O O17 0.613264 0.309673 0.095208
#
# Coordination Sequence:
#
# PCOD9007816 Si02
#       8
#     2   2   2   2   2   2   2   2
#     4   9  20  39  54  82 109 150 194 242 288 350
#     4  10  23  41  61  92 121 163 202 255 324 386
#     4  10  21  39  63  84 120 156 199 257 309 368
#     4   9  19  36  55  78 114 145 189 237 280 343
#     4   9  19  35  56  82 113 147 184 228 281 342
#     4  10  21  41  60  88 122 157 200 251 313 383
#     4   8  18  36  53  76 113 146 184 234 284 333
#     4   9  19  36  55  79 111 150 185 235 289 336
#
# _framework density 21.54712
#
# number of rings (size 3 to 8) (size 9 to 14) (size 15 to 20)
#    0.000    3.250    0.000    1.500    0.000   13.000 
#   20.250    1.250    0.000    0.000    0.000    0.000 
#    0.000    0.000    0.000    0.000    0.000    0.000 
#
# Total GULP energy -89106.604883 kJ/mol
# GULP energy per Si atom -5569.162805 kJ/mol
# Density = 2.149808 g / cm^3
# Si number density = 21.547120 Si / 1000 Ang^3
#
#
#
# Elastic Constant Matrix: (Units=GPa)
#
#
# Indices 1 2 3 4 5 6 
#
# 1 111.0811 51.9501 41.8213 17.4968 4.2541 -24.3417
# 2 51.9501 141.5591 65.7151 14.8526 -2.1750 -32.8419
# 3 41.8213 65.7151 95.9465 42.0729 -2.0651 -20.4702
# 4 17.4968 14.8526 42.0729 43.3979 -12.8318 -8.3940
# 5 4.2541 -2.1750 -2.0651 -12.8318 26.4953 5.8615
# 6 -24.3417 -32.8419 -20.4702 -8.3940 5.8615 33.8005
#
#
#
# Elastic Compliance Matrix: (Units=1/GPa)
#
#
# Indices 1 2 3 4 5 6 
#
# 1 0.012674 -0.002435 -0.001040 -0.003693 -0.005468 0.006163
# 2 -0.002435 0.013565 -0.010739 0.009087 0.003619 0.006552
# 3 -0.001040 -0.010739 0.031775 -0.030131 -0.013475 0.002915
# 4 -0.003693 0.009087 -0.030131 0.058388 0.027799 -0.002398
# 5 -0.005468 0.003619 -0.013475 0.027799 0.053764 -0.011002
# 6 0.006163 0.006552 0.002915 -0.002398 -0.011002 0.043468
#
#
# Mechanical properties :
#
#
# Convention : Reuss Voigt Hill
#
# Bulk Modulus (GPa) = 33.79848 74.17328 53.98588
# Shear Modulus (GPa) = 19.84713 33.34543 26.59628
#
# Velocity S-wave (km/s) = 3.03826 3.93817 3.51712
# Velocity P-wave (km/s) = 5.29414 7.42815 6.45001
#
# Compressibility (1/GPa) = 0.02958713
#
# Stress axis : x y z
#
# Youngs Moduli (GPa) = 78.89860 73.71721 31.47095
#
# Poissons Ratio (x) = 0.17953 0.03273
# Poissons Ratio (y) = 0.19214 0.33795
# Poissons Ratio (z) = 0.08207 0.79162
#
# Static dielectric constant tensor:
#      x y z
#    x 1.932230 -0.000060 -0.028000 
#    y -0.000060 1.768560 -0.019210 
#    z -0.028000 -0.019210 1.828870 
# 
# From -- ./inp_files/117515.got.cif
#   From: 2010.05.17/outbox.cif.g08.bks.cpg/sg2_59_cif.got.tgz:117515.got - 2010.06.03 11:33:40.
