data_PCOD9007383
_publ_section_title
;
Structure prediction by ZEFSAII (Michael W. Deem and Ramdas Pophale) SiO2 
 PCOD9007383
Probable space group: P -1
;
_chemical_formula_sum "Si O2"
_cell_formula_units_Z 16
_cell_length_a 19.285704
_cell_length_b 21.720044
_cell_length_c 13.634458
_cell_angle_alpha 33.309890
_cell_angle_beta 157.056054
_cell_angle_gamma 159.966140
_cell_volume 743.942631
_symmetry_space_group_name_H-M "P -1"
_symmetry_group_IT_number 2
_symmetry_cell_setting 'triclinic'
loop_
_space_group_symop_operation_xyz
x,y,z
-x,-y,-z
loop_
_atom_site_type_symbol
_atom_site_label
_atom_site_fract_x
_atom_site_fract_y
_atom_site_fract_z
Si Si1 0.169025 0.293723 0.358617
Si Si2 0.745336 0.268985 0.760084
Si Si3 0.873253 0.162958 0.470333
Si Si4 0.867978 0.249904 0.737069
Si Si5 0.125429 0.476597 0.270136
Si Si6 0.774007 0.756367 0.707880
Si Si7 0.343399 0.805264 0.671367
Si Si8 0.803453 0.838150 0.232496
O O1 0.500000 0.500000 0.500000
O O2 0.095487 0.184751 0.310298
O O3 0.156896 0.217427 0.544219
O O4 0.951747 0.289798 0.065661
O O5 0.836751 0.312693 0.707231
O O6 0.782815 0.410171 0.664008
O O7 0.420794 0.056492 0.625716
O O8 0.844527 0.225520 0.447778
O O9 0.895039 0.266482 0.275762
O O10 0.141917 0.213470 0.723744
O O11 0.834497 0.288317 0.537102
O O12 0.610331 0.027441 0.707782
O O13 0.153045 0.318592 0.036275
O O14 0.429270 0.587183 0.476096
O O15 0.000000 0.500000 0.000000
O O16 0.928930 0.939208 0.715945
O O17 0.510237 0.768944 0.952456
#
# Coordination Sequence:
#
# PCOD9007383 Si02
#       8
#     2   2   2   2   2   2   2   2
#     4  11  23  38  61  92 126 169 213 266 315 387
#     4  10  22  42  64  90 130 169 210 262 326 375
#     4  11  24  42  63  96 130 167 216 265 312 386
#     4   8  18  42  66  90 124 166 212 267 319 381
#     4  12  25  38  62  95 132 170 212 262 320 384
#     4  10  21  39  61  90 128 167 212 263 319 380
#     4   9  20  40  68  95 123 167 217 262 322 380
#     4  11  22  39  64  94 128 168 213 261 321 381
#
# _framework density 21.507035999999999
#
# number of rings (size 3 to 8) (size 9 to 14) (size 15 to 20)
#    0.000    1.750    1.250    3.375    5.250    1.000 
#    2.250    3.750    0.000    0.000    0.000    0.000 
#    0.000    0.000    0.000    0.000    0.000    0.000 
#
# Total GULP energy -89265.675376 kJ/mol
# GULP energy per Si atom -5579.104711 kJ/mol
# Density = 2.145809 g / cm^3
# Si number density = 21.507036 Si / 1000 Ang^3
#
#
#
# Elastic Constant Matrix: (Units=GPa)
#
#
# Indices 1 2 3 4 5 6 
#
# 1 143.2677 15.9107 72.7413 -12.5683 13.2044 -14.1629
# 2 15.9107 53.0939 -4.1967 -0.6805 4.8670 0.9307
# 3 72.7413 -4.1967 96.1992 0.6657 0.2404 0.6333
# 4 -12.5683 -0.6805 0.6657 20.6907 -1.6215 3.9356
# 5 13.2044 4.8670 0.2404 -1.6215 33.4816 -4.1514
# 6 -14.1629 0.9307 0.6333 3.9356 -4.1514 21.9034
#
#
#
# Elastic Compliance Matrix: (Units=1/GPa)
#
#
# Indices 1 2 3 4 5 6 
#
# 1 0.015624 -0.005338 -0.012147 0.007777 -0.003862 0.008551
# 2 -0.005338 0.021032 0.005001 -0.001995 -0.001635 -0.004441
# 3 -0.012147 0.005001 0.019881 -0.006309 0.002749 -0.006987
# 4 0.007777 -0.001995 -0.006309 0.054002 -0.000679 -0.004536
# 5 -0.003862 -0.001635 0.002749 -0.000679 0.032032 0.003686
# 6 0.008551 -0.004441 -0.006987 -0.004536 0.003686 0.053089
#
#
# Mechanical properties :
#
#
# Convention : Reuss Voigt Hill
#
# Bulk Modulus (GPa) = 31.67761 51.27460 41.47610
# Shear Modulus (GPa) = 21.63084 29.08883 25.35983
#
# Velocity S-wave (km/s) = 3.17481 3.68166 3.43759
# Velocity P-wave (km/s) = 5.31038 6.47807 5.92307
#
# Compressibility (1/GPa) = 0.03156804
#
# Stress axis : x y z
#
# Youngs Moduli (GPa) = 64.00473 47.54704 50.29843
#
# Poissons Ratio (x) = 0.25383 0.61099
# Poissons Ratio (y) = 0.34168 -0.25156
# Poissons Ratio (z) = 0.77749 -0.23780
#
# Static dielectric constant tensor:
#      x y z
#    x 1.911680 -0.076580 0.083470 
#    y -0.076580 1.802750 -0.036800 
#    z 0.083470 -0.036800 1.791430 
# 
# From -- ./inp_files/519971.got.cif
#   From: 2010.05.17/outbox.cif.g08.bks.cpg/sg2_260_cif.got.tgz:519971.got - 2010.06.03 11:33:40.
