data_PCOD9007083
_publ_section_title
;
Structure prediction by ZEFSAII (Michael W. Deem and Ramdas Pophale) SiO2 
 PCOD9007083
Probable space group: P -1
;
_chemical_formula_sum "Si O2"
_cell_formula_units_Z 14
_cell_length_a 7.915022
_cell_length_b 11.339989
_cell_length_c 15.662303
_cell_angle_alpha 140.105257
_cell_angle_beta 65.605491
_cell_angle_gamma 83.898582
_cell_volume 566.039595
_symmetry_space_group_name_H-M "P -1"
_symmetry_group_IT_number 2
_symmetry_cell_setting 'triclinic'
loop_
_space_group_symop_operation_xyz
x,y,z
-x,-y,-z
loop_
_atom_site_type_symbol
_atom_site_label
_atom_site_fract_x
_atom_site_fract_y
_atom_site_fract_z
Si Si1 0.426875 0.796591 0.596918
Si Si2 0.043511 0.032363 0.606991
Si Si3 0.077856 0.617714 0.966579
Si Si4 0.446329 0.942403 0.366379
Si Si5 0.551756 0.559052 0.790466
Si Si6 0.665684 0.618032 0.989183
Si Si7 0.677250 0.213650 0.197354
O O1 0.542974 0.512077 0.400931
O O2 0.401307 0.833025 0.725169
O O3 0.603927 0.815126 0.518348
O O4 0.131492 0.077908 0.783151
O O5 0.281446 0.008037 0.520407
O O6 0.185124 0.751646 0.461160
O O7 0.000000 0.000000 0.500000
O O8 0.796023 0.342537 0.852096
O O9 0.255293 0.347102 0.834482
O O10 0.308001 0.586434 0.863891
O O11 0.884319 0.627206 0.954276
O O12 0.416022 0.859299 0.234714
O O13 0.595973 0.619291 0.907014
O O14 0.459508 0.760735 0.846559
O O15 0.000000 0.000000 0.000000
#
# Coordination Sequence:
#
# PCOD9007083 Si02
#       7
#     2   2   2   2   2   2   2
#     4  10  22  39  63  92 119 168 216 255 313 370
#     4   9  21  36  57  95 125 164 199 250 323 373
#     4  10  21  39  66  95 125 168 200 260 327 369
#     4  10  22  38  63  95 128 162 206 261 317 380
#     4  10  22  38  62  92 124 169 210 253 315 371
#     4  10  21  39  59  94 132 159 203 259 317 373
#     4  11  23  41  63  88 126 171 219 258 301 375
#
# _framework density 24.733252
#
# number of rings (size 3 to 8) (size 9 to 14) (size 15 to 20)
#    0.000    2.000    1.429    1.714    6.000    6.286 
#    2.571    2.857    0.000    6.857    0.000    0.000 
#    0.000    0.000    0.000    0.000    0.000    0.000 
#
# Total GULP energy -78069.159419 kJ/mol
# GULP energy per Si atom -5576.368530 kJ/mol
# Density = 2.467696 g / cm^3
# Si number density = 24.733252 Si / 1000 Ang^3
#
#
#
# Elastic Constant Matrix: (Units=GPa)
#
#
# Indices 1 2 3 4 5 6 
#
# 1 92.2806 21.6952 14.9663 -0.9325 12.1544 -17.3770
# 2 21.6952 142.4605 20.7139 11.8690 1.1243 -32.9124
# 3 14.9663 20.7139 135.0491 7.7148 2.1235 -10.4571
# 4 -0.9325 11.8690 7.7148 47.5812 -0.9615 0.8629
# 5 12.1544 1.1243 2.1235 -0.9615 39.5113 0.6651
# 6 -17.3770 -32.9124 -10.4571 0.8629 0.6651 41.8148
#
#
#
# Elastic Compliance Matrix: (Units=1/GPa)
#
#
# Indices 1 2 3 4 5 6 
#
# 1 0.012503 -0.000756 -0.000890 0.000420 -0.003841 0.004431
# 2 -0.000756 0.008947 -0.000644 -0.002265 -0.000154 0.006616
# 3 -0.000890 -0.000644 0.007754 -0.001137 -0.000171 0.001088
# 4 0.000420 -0.002265 -0.001137 0.021828 0.000567 -0.002352
# 5 -0.003841 -0.000154 -0.000171 0.000567 0.026555 -0.002194
# 6 0.004431 0.006616 0.001088 -0.002352 -0.002194 0.031319
#
#
# Mechanical properties :
#
#
# Convention : Reuss Voigt Hill
#
# Bulk Modulus (GPa) = 40.61185 53.83789 47.22487
# Shear Modulus (GPa) = 41.08632 46.60911 43.84771
#
# Velocity S-wave (km/s) = 4.08018 4.34576 4.21506
# Velocity P-wave (km/s) = 6.21713 6.85533 6.54401
#
# Compressibility (1/GPa) = 0.02462335
#
# Stress axis : x y z
#
# Youngs Moduli (GPa) = 79.98030 111.77353 128.96389
#
# Poissons Ratio (x) = 0.08446 0.11480
# Poissons Ratio (y) = 0.06044 0.08310
# Poissons Ratio (z) = 0.07120 0.07203
#
# Static dielectric constant tensor:
#      x y z
#    x 2.498460 0.135490 -0.074490 
#    y 0.135490 2.112660 -0.133950 
#    z -0.074490 -0.133950 2.022670 
# 
# From -- ./inp_files/558676.got.cif
#   From: 2010.05.17/outbox.cif.g08.bks.cpg/sg2_280_cif.got.tgz:558676.got - 2010.06.03 11:33:40.
