data_PCOD9007086
_publ_section_title
;
Structure prediction by ZEFSAII (Michael W. Deem and Ramdas Pophale) SiO2 
 PCOD9007086
Probable space group: P -1
;
_chemical_formula_sum "Si O2"
_cell_formula_units_Z 16
_cell_length_a 12.215481
_cell_length_b 14.752184
_cell_length_c 9.078229
_cell_angle_alpha 34.943078
_cell_angle_beta 72.775103
_cell_angle_gamma 54.495244
_cell_volume 703.691303
_symmetry_space_group_name_H-M "P -1"
_symmetry_group_IT_number 2
_symmetry_cell_setting 'triclinic'
loop_
_space_group_symop_operation_xyz
x,y,z
-x,-y,-z
loop_
_atom_site_type_symbol
_atom_site_label
_atom_site_fract_x
_atom_site_fract_y
_atom_site_fract_z
Si Si1 0.624604 0.294481 0.140130
Si Si2 0.528820 0.619855 0.216540
Si Si3 0.041125 0.604239 0.458974
Si Si4 0.621057 0.081260 0.691099
Si Si5 0.641019 0.721099 0.274838
Si Si6 0.879913 0.989333 0.863760
Si Si7 0.084498 0.771975 0.821736
Si Si8 0.866093 0.362654 0.334522
O O1 0.644581 0.118183 0.465581
O O2 0.764002 0.288418 0.101057
O O3 0.500000 0.500000 0.000000
O O4 0.578757 0.297303 0.988240
O O5 0.500000 0.500000 0.500000
O O6 0.526422 0.769103 0.129891
O O7 0.692002 0.498499 0.247343
O O8 0.209629 0.504865 0.481298
O O9 0.065445 0.566692 0.676366
O O10 0.000000 0.500000 0.500000
O O11 0.919836 0.846149 0.175125
O O12 0.451039 0.220841 0.617285
O O13 0.715295 0.125356 0.689628
O O14 0.680972 0.863684 0.018453
O O15 0.979404 0.810871 0.942012
O O16 0.920738 0.138525 0.657072
O O17 0.103166 0.646831 0.838487
O O18 0.000000 0.000000 0.500000
#
# Coordination Sequence:
#
# PCOD9007086 Si02
#       8
#     2   2   2   2   2   2   2   2
#     4  12  22  38  65  90 124 166 211 259 323 373
#     4  11  23  39  64  96 128 161 218 267 314 381
#     4  11  23  40  64  93 125 169 211 258 325 383
#     4  11  22  43  64  88 132 170 211 265 319 383
#     4  10  24  42  63  90 130 171 211 262 321 381
#     4  11  21  40  64  92 129 165 215 262 322 374
#     4  10  21  39  59  95 125 163 205 268 320 373
#     4  10  21  40  61  92 127 160 210 268 310 379
#
# _framework density 22.737241999999998
#
# number of rings (size 3 to 8) (size 9 to 14) (size 15 to 20)
#    0.000    1.250    5.000    1.875    5.250    0.500 
#    4.500    0.625    2.750    0.000    0.000    0.000 
#    0.000    0.000    0.000    0.000    0.000    0.000 
#
# Total GULP energy -89175.531072 kJ/mol
# GULP energy per Si atom -5573.470692 kJ/mol
# Density = 2.268549 g / cm^3
# Si number density = 22.737242 Si / 1000 Ang^3
#
#
#
# Elastic Constant Matrix: (Units=GPa)
#
#
# Indices 1 2 3 4 5 6 
#
# 1 106.4102 29.5022 22.4513 22.3831 19.4294 24.6071
# 2 29.5022 73.7928 -3.1554 18.9496 7.4860 2.9590
# 3 22.4513 -3.1554 72.4978 14.9130 8.3649 1.7059
# 4 22.3831 18.9496 14.9130 32.6218 2.2989 7.6790
# 5 19.4294 7.4860 8.3649 2.2989 40.9898 2.4433
# 6 24.6071 2.9590 1.7059 7.6790 2.4433 46.5536
#
#
#
# Elastic Compliance Matrix: (Units=1/GPa)
#
#
# Indices 1 2 3 4 5 6 
#
# 1 0.014406 -0.004032 -0.003037 -0.004334 -0.004855 -0.006277
# 2 -0.004032 0.018033 0.004271 -0.010143 -0.001840 0.002598
# 3 -0.003037 0.004271 0.016893 -0.008475 -0.002446 0.002241
# 4 -0.004334 -0.010143 -0.008475 0.044146 0.003412 -0.004215
# 5 -0.004855 -0.001840 -0.002446 0.003412 0.027295 0.000778
# 6 -0.006277 0.002598 0.002241 -0.004215 0.000778 0.025206
#
#
# Mechanical properties :
#
#
# Convention : Reuss Voigt Hill
#
# Bulk Modulus (GPa) = 22.86480 38.92192 30.89336
# Shear Modulus (GPa) = 30.09242 37.62655 33.85949
#
# Velocity S-wave (km/s) = 3.64192 4.07239 3.86316
# Velocity P-wave (km/s) = 5.26903 6.26640 5.78923
#
# Compressibility (1/GPa) = 0.04373536
#
# Stress axis : x y z
#
# Youngs Moduli (GPa) = 69.41473 55.45281 59.19682
#
# Poissons Ratio (x) = 0.22360 0.17981
# Poissons Ratio (y) = 0.27990 -0.25284
# Poissons Ratio (z) = 0.21084 -0.23685
#
# Static dielectric constant tensor:
#      x y z
#    x 1.830630 0.056260 0.043920 
#    y 0.056260 1.845490 -0.004940 
#    z 0.043920 -0.004940 1.958920 
# 
# From -- ./inp_files/271525.got.cif
#   From: 2010.05.17/outbox.cif.g08.bks.cpg/sg2_136_cif.got.tgz:271525.got - 2010.06.03 11:33:40.
