data_PCOD9007542
_publ_section_title
;
Structure prediction by ZEFSAII (Michael W. Deem and Ramdas Pophale) SiO2 
 PCOD9007542
Probable space group: P -1
;
_chemical_formula_sum "Si O2"
_cell_formula_units_Z 16
_cell_length_a 26.234542
_cell_length_b 8.671300
_cell_length_c 6.758620
_cell_angle_alpha 93.549776
_cell_angle_beta 93.378192
_cell_angle_gamma 33.145018
_cell_volume 838.961073
_symmetry_space_group_name_H-M "P -1"
_symmetry_group_IT_number 2
_symmetry_cell_setting 'triclinic'
loop_
_space_group_symop_operation_xyz
x,y,z
-x,-y,-z
loop_
_atom_site_type_symbol
_atom_site_label
_atom_site_fract_x
_atom_site_fract_y
_atom_site_fract_z
Si Si1 0.844458 0.442887 0.000071
Si Si2 0.346860 0.565484 0.081631
Si Si3 0.014855 0.037585 0.292249
Si Si4 0.492788 0.362632 0.851852
Si Si5 0.647607 0.799069 0.088236
Si Si6 0.501334 0.173384 0.429756
Si Si7 0.988911 0.470537 0.278039
Si Si8 0.151382 0.202919 0.033879
O O1 0.747924 0.623323 0.075609
O O2 0.835594 0.647139 0.970391
O O3 0.884996 0.265392 0.795380
O O4 0.927674 0.198542 0.154353
O O5 0.413906 0.408830 0.276349
O O6 0.395451 0.539778 0.917145
O O7 0.343855 0.400149 0.986568
O O8 0.243512 0.890349 0.111290
O O9 0.008567 0.237755 0.275300
O O10 0.000000 0.000000 0.500000
O O11 0.497026 0.315689 0.612588
O O12 0.500000 0.500000 0.000000
O O13 0.578000 0.047478 0.931148
O O14 0.594257 0.954058 0.297744
O O15 0.500000 0.000000 0.500000
O O16 0.000000 0.500000 0.500000
O O17 0.886115 0.756622 0.186113
O O18 0.064351 0.375181 0.162684
#
# Coordination Sequence:
#
# PCOD9007542 Si02
#       8
#     2   2   2   2   2   2   2   2
#     4  10  22  40  60  89 126 160 206 261 314 374
#     4  11  22  38  63  91 122 163 214 260 322 386
#     4  10  21  39  62  88 123 164 206 257 313 374
#     4  11  23  41  63  90 125 163 206 271 324 375
#     4  11  22  38  63  91 120 166 213 260 325 383
#     4  11  21  43  65  88 127 168 212 265 319 387
#     4  10  21  39  62  87 123 167 207 254 315 373
#     4  10  22  40  60  89 126 161 206 261 312 378
#
# _framework density 19.071206
#
# number of rings (size 3 to 8) (size 9 to 14) (size 15 to 20)
#    0.000    1.500    2.500    3.000    0.000    7.000 
#    2.250    3.750    0.000    0.000    0.000    0.000 
#    0.000    0.000    0.000    0.000    0.000    0.000 
#
# Total GULP energy -89174.694599 kJ/mol
# GULP energy per Si atom -5573.418412 kJ/mol
# Density = 1.902780 g / cm^3
# Si number density = 19.071206 Si / 1000 Ang^3
#
#
#
# Elastic Constant Matrix: (Units=GPa)
#
#
# Indices 1 2 3 4 5 6 
#
# 1 117.4882 26.4112 38.6884 17.0208 -4.9066 -11.5775
# 2 26.4112 73.0200 20.1973 9.0253 2.3395 -12.2935
# 3 38.6884 20.1973 123.2126 14.6363 2.9727 -4.5798
# 4 17.0208 9.0253 14.6363 17.4269 3.7816 -4.7637
# 5 -4.9066 2.3395 2.9727 3.7816 24.5673 7.2486
# 6 -11.5775 -12.2935 -4.5798 -4.7637 7.2486 32.5373
#
#
#
# Elastic Compliance Matrix: (Units=1/GPa)
#
#
# Indices 1 2 3 4 5 6 
#
# 1 0.011239 -0.002415 -0.002186 -0.008544 0.003857 0.000669
# 2 -0.002415 0.016281 -0.001298 -0.002862 -0.003017 0.005362
# 3 -0.002186 -0.001298 0.009640 -0.005344 -0.000484 -0.000586
# 4 -0.008544 -0.002862 -0.005344 0.077853 -0.015730 0.010029
# 5 0.003857 -0.003017 -0.000484 -0.015730 0.048030 -0.012839
# 6 0.000669 0.005362 -0.000586 0.010029 -0.012839 0.037244
#
#
# Mechanical properties :
#
#
# Convention : Reuss Voigt Hill
#
# Bulk Modulus (GPa) = 39.43223 53.81272 46.62248
# Shear Modulus (GPa) = 22.67157 30.13457 26.40307
#
# Velocity S-wave (km/s) = 3.45162 3.97937 3.72485
# Velocity P-wave (km/s) = 6.05030 7.02793 6.55736
#
# Compressibility (1/GPa) = 0.02535996
#
# Stress axis : x y z
#
# Youngs Moduli (GPa) = 88.97387 61.42199 103.73372
#
# Poissons Ratio (x) = 0.14836 0.22680
# Poissons Ratio (y) = 0.21491 0.13468
# Poissons Ratio (z) = 0.19453 0.07974
#
# Static dielectric constant tensor:
#      x y z
#    x 1.646020 -0.001780 0.069670 
#    y -0.001780 1.647420 0.025420 
#    z 0.069670 0.025420 1.713610 
# 
# From -- ./inp_files/56439.got.cif
#   From: 2010.05.17/outbox.cif.g08.bks.cpg/sg2_29_cif.got.tgz:56439.got - 2010.06.03 11:33:40.
