data_PCOD9007227
_publ_section_title
;
Structure prediction by ZEFSAII (Michael W. Deem and Ramdas Pophale) SiO2 
 PCOD9007227
Probable space group: P -1
;
_chemical_formula_sum "Si O2"
_cell_formula_units_Z 14
_cell_length_a 7.238171
_cell_length_b 13.265449
_cell_length_c 18.079193
_cell_angle_alpha 154.040914
_cell_angle_beta 135.500053
_cell_angle_gamma 41.295797
_cell_volume 497.170984
_symmetry_space_group_name_H-M "P -1"
_symmetry_group_IT_number 2
_symmetry_cell_setting 'triclinic'
loop_
_space_group_symop_operation_xyz
x,y,z
-x,-y,-z
loop_
_atom_site_type_symbol
_atom_site_label
_atom_site_fract_x
_atom_site_fract_y
_atom_site_fract_z
Si Si1 0.245289 0.252453 0.254181
Si Si2 0.310344 0.009978 0.525734
Si Si3 0.593845 0.557913 0.787790
Si Si4 0.105730 0.998284 0.707895
Si Si5 0.139203 0.673601 0.612769
Si Si6 0.264312 0.755699 0.974877
Si Si7 0.797535 0.630412 0.129321
O O1 0.576075 0.121179 0.253176
O O2 0.208236 0.509148 0.449665
O O3 0.026466 0.287864 0.148564
O O4 0.187920 0.048625 0.157669
O O5 0.301437 0.175734 0.703346
O O6 0.000780 0.109527 0.464999
O O7 0.500000 0.000000 0.500000
O O8 0.374542 0.729859 0.385512
O O9 0.404833 0.662150 0.730933
O O10 0.408934 0.690657 0.892698
O O11 0.906393 0.570127 0.891457
O O12 0.958551 0.942941 0.703889
O O13 0.096949 0.251304 0.834111
O O14 0.000000 0.500000 0.500000
O O15 0.513057 0.598341 0.996556
#
# Coordination Sequence:
#
# PCOD9007227 Si02
#       7
#     2   2   2   2   2   2   2
#     4  10  21  39  60  91 134 172 217 265 324 382
#     4  11  23  42  69  96 127 166 225 280 331 385
#     4  11  21  40  67  98 126 175 220 269 326 386
#     4  10  22  39  67  97 125 168 218 275 322 379
#     4  12  22  38  67  98 129 167 226 272 321 379
#     4  10  21  39  65  91 136 178 214 262 328 398
#     4  10  22  44  68  93 132 174 215 276 329 391
#
# _framework density 28.159327999999999
#
# number of rings (size 3 to 8) (size 9 to 14) (size 15 to 20)
#    0.000    1.429    1.429    6.000    0.000    0.000 
#    0.000    3.571    3.143    0.000    0.000    0.000 
#    0.000    0.000    0.000    0.000    0.000    0.000 
#
# Total GULP energy -78237.994791 kJ/mol
# GULP energy per Si atom -5588.428199 kJ/mol
# Density = 2.809524 g / cm^3
# Si number density = 28.159328 Si / 1000 Ang^3
#
#
#
# Elastic Constant Matrix: (Units=GPa)
#
#
# Indices 1 2 3 4 5 6 
#
# 1 82.0322 58.2077 32.5903 -15.1684 2.3260 9.1816
# 2 58.2077 175.8683 64.5074 -56.3987 0.1784 15.0425
# 3 32.5903 64.5074 156.7861 -33.6726 4.0856 -1.4581
# 4 -15.1684 -56.3987 -33.6726 67.7400 -11.5924 6.1791
# 5 2.3260 0.1784 4.0856 -11.5924 26.9894 -11.0084
# 6 9.1816 15.0425 -1.4581 6.1791 -11.0084 67.6068
#
#
#
# Elastic Compliance Matrix: (Units=1/GPa)
#
#
# Indices 1 2 3 4 5 6 
#
# 1 0.016494 -0.005365 -0.001568 -0.001857 -0.002483 -0.001315
# 2 -0.005365 0.010674 -0.001761 0.007515 0.003127 -0.001862
# 3 -0.001568 -0.001761 0.007874 0.002056 0.000083 0.000600
# 4 -0.001857 0.007515 0.002056 0.023351 0.008995 -0.002045
# 5 -0.002483 0.003127 0.000083 0.008995 0.043504 0.005905
# 6 -0.001315 -0.001862 0.000600 -0.002045 0.005905 0.016546
#
#
# Mechanical properties :
#
#
# Convention : Reuss Voigt Hill
#
# Bulk Modulus (GPa) = 56.64500 80.58859 68.61679
# Shear Modulus (GPa) = 35.28238 49.75931 42.52084
#
# Velocity S-wave (km/s) = 3.54355 4.20821 3.89010
# Velocity P-wave (km/s) = 6.07469 7.23138 6.67813
#
# Compressibility (1/GPa) = 0.01765381
#
# Stress axis : x y z
#
# Youngs Moduli (GPa) = 60.62850 93.68862 127.00689
#
# Poissons Ratio (x) = 0.50261 0.19911
# Poissons Ratio (y) = 0.32525 0.22369
# Poissons Ratio (z) = 0.09505 0.16501
#
# Static dielectric constant tensor:
#      x y z
#    x 2.437750 0.023480 0.077820 
#    y 0.023480 2.151060 0.040110 
#    z 0.077820 0.040110 2.153590 
# 
# From -- ./inp_files/561439.got.cif
#   From: 2010.05.17/outbox.cif.g08.bks.cpg/sg2_281_cif.got.tgz:561439.got - 2010.06.03 11:33:40.
