data_PCOD9007635
_publ_section_title
;
Structure prediction by ZEFSAII (Michael W. Deem and Ramdas Pophale) SiO2 
 PCOD9007635
Probable space group: P -1
;
_chemical_formula_sum "Si O2"
_cell_formula_units_Z 15
_cell_length_a 11.503301
_cell_length_b 11.662072
_cell_length_c 15.102552
_cell_angle_alpha 150.849045
_cell_angle_beta 57.374817
_cell_angle_gamma 103.680006
_cell_volume 682.226450
_symmetry_space_group_name_H-M "P -1"
_symmetry_group_IT_number 2
_symmetry_cell_setting 'triclinic'
loop_
_space_group_symop_operation_xyz
x,y,z
-x,-y,-z
loop_
_atom_site_type_symbol
_atom_site_label
_atom_site_fract_x
_atom_site_fract_y
_atom_site_fract_z
Si Si1 0.438114 0.463623 0.733717
Si Si2 0.617543 0.582373 0.468016
Si Si3 0.248656 0.531957 0.378317
Si Si4 0.894739 0.367166 0.963252
Si Si5 0.013090 0.876636 0.040306
Si Si6 0.928580 0.489927 0.730128
Si Si7 0.289730 0.130140 0.243116
Si Si8 0.000000 0.000000 0.500000
O O1 0.437923 0.328480 0.549937
O O2 0.623504 0.371868 0.620886
O O3 0.309348 0.442084 0.833412
O O4 0.348063 0.806439 0.988945
O O5 0.500000 0.500000 0.500000
O O6 0.612236 0.825547 0.690174
O O7 0.807901 0.293756 0.197569
O O8 0.206250 0.473651 0.259980
O O9 0.310274 0.261682 0.234381
O O10 0.090850 0.787590 0.671927
O O11 0.935075 0.253690 0.970389
O O12 0.964834 0.119638 0.695902
O O13 0.000000 0.500000 0.000000
O O14 0.907767 0.778123 0.966716
O O15 0.100844 0.312134 0.481957
O O16 0.945478 0.315780 0.694140
#
# Coordination Sequence:
#
# PCOD9007635 Si02
#       8
#     2   2   2   2   2   2   2   1
#     4  11  24  42  64  98 131 170 218 269 329 389
#     4  10  21  39  62  90 125 175 217 254 313 384
#     4  12  24  40  61  99 141 166 210 271 329 389
#     4  11  22  42  73  90 118 169 222 275 321 390
#     4  10  23  40  62  96 130 168 218 262 324 387
#     4  11  23  39  68  94 124 173 219 266 323 384
#     4  11  23  42  64  94 131 179 217 259 321 398
#     4  12  20  42  74  90 116 166 234 266 316 390
#
# _framework density 21.986832
#
# number of rings (size 3 to 8) (size 9 to 14) (size 15 to 20)
#    0.000    1.067    5.333    1.600    0.000    4.267 
#    0.000    1.333    0.000    0.000    0.000    0.000 
#    0.000    0.000    0.000    0.000    0.000    0.000 
#
# Total GULP energy -83547.372784 kJ/mol
# GULP energy per Si atom -5569.824852 kJ/mol
# Density = 2.193679 g / cm^3
# Si number density = 21.986832 Si / 1000 Ang^3
#
#
#
# Elastic Constant Matrix: (Units=GPa)
#
#
# Indices 1 2 3 4 5 6 
#
# 1 149.4774 33.6110 20.3031 -14.9508 22.7333 2.2502
# 2 33.6110 79.4856 15.4065 -9.3255 3.9932 13.0548
# 3 20.3031 15.4065 64.0923 -10.4443 13.4301 -4.6085
# 4 -14.9508 -9.3255 -10.4443 18.6407 -1.9038 -1.1903
# 5 22.7333 3.9932 13.4301 -1.9038 35.7263 -12.3477
# 6 2.2502 13.0548 -4.6085 -1.1903 -12.3477 32.4925
#
#
#
# Elastic Compliance Matrix: (Units=1/GPa)
#
#
# Indices 1 2 3 4 5 6 
#
# 1 0.008614 -0.002499 -0.000329 0.004834 -0.005335 -0.001490
# 2 -0.002499 0.015800 -0.002582 0.003869 -0.001394 -0.006929
# 3 -0.000329 -0.002582 0.019039 0.008675 -0.005511 0.001984
# 4 0.004834 0.003869 0.008675 0.064023 -0.003195 0.000473
# 5 -0.005335 -0.001394 -0.005511 -0.003195 0.038512 0.014666
# 6 -0.001490 -0.006929 0.001984 0.000473 0.014666 0.039536
#
#
# Mechanical properties :
#
#
# Convention : Reuss Voigt Hill
#
# Bulk Modulus (GPa) = 30.64490 47.96629 39.30560
# Shear Modulus (GPa) = 24.12884 32.28756 28.20820
#
# Velocity S-wave (km/s) = 3.31633 3.83625 3.58573
# Velocity P-wave (km/s) = 5.35090 6.44094 5.92106
#
# Compressibility (1/GPa) = 0.03263186
#
# Stress axis : x y z
#
# Youngs Moduli (GPa) = 116.09077 63.29117 52.52487
#
# Poissons Ratio (x) = 0.15815 0.01730
# Poissons Ratio (y) = 0.29008 0.13563
# Poissons Ratio (z) = 0.03825 0.16343
#
# Static dielectric constant tensor:
#      x y z
#    x 1.879630 0.030220 -0.057430 
#    y 0.030220 1.817610 0.014280 
#    z -0.057430 0.014280 1.867990 
# 
# From -- ./inp_files/255434.got.cif
#   From: 2010.05.17/outbox.cif.g08.bks.cpg/sg2_128_cif.got.tgz:255434.got - 2010.06.03 11:33:40.
