data_PCOD9007095
_publ_section_title
;
Structure prediction by ZEFSAII (Michael W. Deem and Ramdas Pophale) SiO2 
 PCOD9007095
Probable space group: P -1
;
_chemical_formula_sum "Si O2"
_cell_formula_units_Z 16
_cell_length_a 5.124014
_cell_length_b 10.931262
_cell_length_c 12.531553
_cell_angle_alpha 91.528663
_cell_angle_beta 109.722835
_cell_angle_gamma 112.976061
_cell_volume 598.073832
_symmetry_space_group_name_H-M "P -1"
_symmetry_group_IT_number 2
_symmetry_cell_setting 'triclinic'
loop_
_space_group_symop_operation_xyz
x,y,z
-x,-y,-z
loop_
_atom_site_type_symbol
_atom_site_label
_atom_site_fract_x
_atom_site_fract_y
_atom_site_fract_z
Si Si1 0.308600 0.221951 0.080544
Si Si2 0.618835 0.501015 0.897472
Si Si3 0.553308 0.573744 0.620096
Si Si4 0.993403 0.874564 0.360175
Si Si5 0.671718 0.010893 0.799311
Si Si6 0.126623 0.548453 0.738947
Si Si7 0.464617 0.775463 0.121903
Si Si8 0.980110 0.151186 0.400506
O O1 0.193047 0.338179 0.094614
O O2 0.662984 0.314389 0.166985
O O3 0.190927 0.088554 0.134055
O O4 0.331402 0.199296 0.956960
O O5 0.283721 0.449782 0.791685
O O6 0.739489 0.385771 0.904995
O O7 0.500000 0.500000 0.000000
O O8 0.500000 0.500000 0.500000
O O9 0.252090 0.569931 0.635219
O O10 0.775006 0.514839 0.707901
O O11 0.189613 0.893143 0.281571
O O12 0.029976 0.810070 0.475045
O O13 0.658723 0.809940 0.259768
O O14 0.086105 0.030451 0.408324
O O15 0.666815 0.112400 0.893551
O O16 0.341583 0.909439 0.705605
O O17 0.780305 0.726778 0.630415
#
# Coordination Sequence:
#
# PCOD9007095 Si02
#       8
#     2   2   2   2   2   2   2   2
#     4   9  19  40  67  92 137 179 230 279 347 416
#     4   8  18  41  64  93 139 179 227 275 351 414
#     4  12  25  45  70 106 132 180 235 296 351 416
#     4  10  23  39  60  94 129 180 226 283 343 411
#     4  11  20  40  65  95 130 178 234 286 342 410
#     4  10  23  45  68 100 140 182 226 283 353 418
#     4  10  21  39  59  99 137 173 231 282 346 409
#     4  10  22  41  64  87 134 174 227 284 349 410
#
# _framework density 26.752548999999998
#
# number of rings (size 3 to 8) (size 9 to 14) (size 15 to 20)
#    0.750    1.250    1.250    1.875    1.750    0.500 
#    4.500    0.625    0.000    0.000    0.000    0.000 
#    0.000    0.000    0.000    0.000    0.000    0.000 
#
# Total GULP energy -89280.518373 kJ/mol
# GULP energy per Si atom -5580.032398 kJ/mol
# Density = 2.669166 g / cm^3
# Si number density = 26.752549 Si / 1000 Ang^3
#
#
#
# Elastic Constant Matrix: (Units=GPa)
#
#
# Indices 1 2 3 4 5 6 
#
# 1 101.5099 30.9615 22.2547 1.9383 -17.3467 -14.8344
# 2 30.9615 119.5971 24.6078 -3.6702 -7.9589 -24.5622
# 3 22.2547 24.6078 107.1400 6.8477 -21.4292 -14.2937
# 4 1.9383 -3.6702 6.8477 43.7806 -3.1122 3.0695
# 5 -17.3467 -7.9589 -21.4292 -3.1122 37.5167 -2.6409
# 6 -14.8344 -24.5622 -14.2937 3.0695 -2.6409 28.3656
#
#
#
# Elastic Compliance Matrix: (Units=1/GPa)
#
#
# Indices 1 2 3 4 5 6 
#
# 1 0.012136 -0.001640 -0.000310 -0.000616 0.005412 0.005341
# 2 -0.001640 0.010750 -0.000732 0.000638 0.001732 0.008174
# 3 -0.000310 -0.000732 0.011828 -0.001839 0.006727 0.005990
# 4 -0.000616 0.000638 -0.001839 0.023470 0.000522 -0.003187
# 5 0.005412 0.001732 0.006727 0.000522 0.034173 0.010845
# 6 0.005341 0.008174 0.005990 -0.003187 0.010845 0.049499
#
#
# Mechanical properties :
#
#
# Convention : Reuss Voigt Hill
#
# Bulk Modulus (GPa) = 34.07062 53.76610 43.91836
# Shear Modulus (GPa) = 31.84612 38.62743 35.23678
#
# Velocity S-wave (km/s) = 3.45395 3.80396 3.63318
# Velocity P-wave (km/s) = 5.35439 6.27971 5.83542
#
# Compressibility (1/GPa) = 0.02935080
#
# Stress axis : x y z
#
# Youngs Moduli (GPa) = 82.39608 93.02038 84.54399
#
# Poissons Ratio (x) = 0.15255 0.02620
# Poissons Ratio (y) = 0.13513 0.06190
# Poissons Ratio (z) = 0.02554 0.06811
#
# Static dielectric constant tensor:
#      x y z
#    x 2.136960 0.005900 0.006690 
#    y 0.005900 2.120230 -0.060030 
#    z 0.006690 -0.060030 2.277320 
# 
# From -- ./inp_files/364621.got.cif
#   From: 2010.05.17/outbox.cif.g08.bks.cpg/sg2_183_cif.got.tgz:364621.got - 2010.06.03 11:33:40.
