data_PCOD9007643
_publ_section_title
;
Structure prediction by ZEFSAII (Michael W. Deem and Ramdas Pophale) SiO2 
 PCOD9007643
Probable space group: P -1
;
_chemical_formula_sum "Si O2"
_cell_formula_units_Z 14
_cell_length_a 10.600668
_cell_length_b 9.218760
_cell_length_c 10.904473
_cell_angle_alpha 96.579972
_cell_angle_beta 141.078167
_cell_angle_gamma 106.653310
_cell_volume 531.062105
_symmetry_space_group_name_H-M "P -1"
_symmetry_group_IT_number 2
_symmetry_cell_setting 'triclinic'
loop_
_space_group_symop_operation_xyz
x,y,z
-x,-y,-z
loop_
_atom_site_type_symbol
_atom_site_label
_atom_site_fract_x
_atom_site_fract_y
_atom_site_fract_z
Si Si1 0.193694 0.695591 0.281287
Si Si2 0.303184 0.019346 0.786668
Si Si3 0.185362 0.208472 0.317623
Si Si4 0.585997 0.389796 0.119624
Si Si5 0.721023 0.562439 0.795533
Si Si6 0.004941 0.339588 0.372405
Si Si7 0.408015 0.046067 0.591224
O O1 0.206234 0.527722 0.263084
O O2 0.332299 0.810877 0.271116
O O3 0.340605 0.845943 0.510883
O O4 0.905455 0.615571 0.051147
O O5 0.379493 0.084560 0.711488
O O6 0.057294 0.810203 0.584146
O O7 0.336140 0.180019 0.905855
O O8 0.500000 0.000000 0.000000
O O9 0.438558 0.390439 0.586554
O O10 0.224990 0.259731 0.209912
O O11 0.207259 0.051684 0.358970
O O12 0.978278 0.219465 0.223955
O O13 0.805707 0.385360 0.220850
O O14 0.727433 0.477555 0.364548
O O15 0.500000 0.500000 0.000000
#
# Coordination Sequence:
#
# PCOD9007643 Si02
#       7
#     2   2   2   2   2   2   2
#     4   9  20  39  64  93 121 168 210 268 320 382
#     4  10  23  42  63  95 132 173 211 269 324 391
#     4  10  21  39  62  90 128 169 209 267 319 387
#     4  10  22  41  65  92 124 170 219 261 323 390
#     4   9  20  39  62  93 126 162 216 262 324 379
#     4  10  23  43  62  95 134 170 215 271 324 387
#     4  10  21  39  62  93 128 163 218 261 323 388
#
# _framework density 26.362266999999999
#
# number of rings (size 3 to 8) (size 9 to 14) (size 15 to 20)
#    0.000    2.286    0.000    0.857    4.000    6.286 
#   12.857    0.000    0.000    0.000    0.000    0.000 
#    0.000    0.000    0.000    0.000    0.000    0.000 
#
# Total GULP energy -78115.522919 kJ/mol
# GULP energy per Si atom -5579.680208 kJ/mol
# Density = 2.630227 g / cm^3
# Si number density = 26.362267 Si / 1000 Ang^3
#
#
#
# Elastic Constant Matrix: (Units=GPa)
#
#
# Indices 1 2 3 4 5 6 
#
# 1 43.7950 2.2497 -1.5999 -0.2477 -0.7011 -8.3228
# 2 2.2497 134.4751 20.4640 -0.7803 -5.5736 -7.5998
# 3 -1.5999 20.4640 65.4051 8.2126 2.8929 -4.0456
# 4 -0.2477 -0.7803 8.2126 31.2238 -10.7384 2.9283
# 5 -0.7011 -5.5736 2.8929 -10.7384 23.6971 -3.6087
# 6 -8.3228 -7.5998 -4.0456 2.9283 -3.6087 36.8356
#
#
#
# Elastic Compliance Matrix: (Units=1/GPa)
#
#
# Indices 1 2 3 4 5 6 
#
# 1 0.023967 -0.000171 0.000944 -0.000124 0.001354 0.005626
# 2 -0.000171 0.008108 -0.002844 0.001968 0.003368 0.001495
# 3 0.000944 -0.002844 0.017383 -0.006692 -0.005564 0.001522
# 4 -0.000124 0.001968 -0.006692 0.040684 0.019456 -0.001685
# 5 0.001354 0.003368 -0.005564 0.019456 0.053144 0.004050
# 6 0.005626 0.001495 0.001522 -0.001685 0.004050 0.029425
#
#
# Mechanical properties :
#
#
# Convention : Reuss Voigt Hill
#
# Bulk Modulus (GPa) = 22.06856 31.76698 26.91777
# Shear Modulus (GPa) = 26.04712 33.18871 29.61792
#
# Velocity S-wave (km/s) = 3.14673 3.55201 3.35550
# Velocity P-wave (km/s) = 4.64672 5.37575 5.02448
#
# Compressibility (1/GPa) = 0.04531334
#
# Stress axis : x y z
#
# Youngs Moduli (GPa) = 41.72393 123.34133 57.52764
#
# Poissons Ratio (x) = 0.02111 -0.05428
# Poissons Ratio (y) = 0.00714 0.16364
# Poissons Ratio (z) = -0.03937 0.35084
#
# Static dielectric constant tensor:
#      x y z
#    x 2.162930 0.010190 0.072270 
#    y 0.010190 2.071560 0.015990 
#    z 0.072270 0.015990 2.046780 
# 
# From -- ./inp_files/417703.got.cif
#   From: 2010.05.17/outbox.cif.g08.bks.cpg/sg2_209_cif.got.tgz:417703.got - 2010.06.03 11:33:40.
