data_PCOD9007482
_publ_section_title
;
Structure prediction by ZEFSAII (Michael W. Deem and Ramdas Pophale) SiO2 
 PCOD9007482
Probable space group: P -1
;
_chemical_formula_sum "Si O2"
_cell_formula_units_Z 15
_cell_length_a 5.242027
_cell_length_b 12.670145
_cell_length_c 10.823874
_cell_angle_alpha 59.001796
_cell_angle_beta 118.145664
_cell_angle_gamma 102.867946
_cell_volume 543.159930
_symmetry_space_group_name_H-M "P -1"
_symmetry_group_IT_number 2
_symmetry_cell_setting 'triclinic'
loop_
_space_group_symop_operation_xyz
x,y,z
-x,-y,-z
loop_
_atom_site_type_symbol
_atom_site_label
_atom_site_fract_x
_atom_site_fract_y
_atom_site_fract_z
Si Si1 0.799548 0.343317 0.064496
Si Si2 0.468179 0.140361 0.704620
Si Si3 0.062924 0.696290 0.269838
Si Si4 0.629331 0.868132 0.974950
Si Si5 0.500000 0.500000 0.500000
Si Si6 0.182069 0.889956 0.457432
Si Si7 0.993339 0.505762 0.790330
Si Si8 0.260436 0.157274 0.255660
O O1 0.620238 0.227296 0.051303
O O2 0.762451 0.412072 0.144899
O O3 0.120558 0.283061 0.192169
O O4 0.819584 0.441934 0.900789
O O5 0.642624 0.245259 0.753252
O O6 0.641317 0.134204 0.616013
O O7 0.133166 0.164088 0.585253
O O8 0.518739 0.009507 0.863841
O O9 0.234266 0.591591 0.450925
O O10 0.881942 0.612243 0.185581
O O11 0.843950 0.813903 0.162526
O O12 0.811849 0.861602 0.892868
O O13 0.747304 0.556444 0.611398
O O14 0.396723 0.847223 0.640023
O O15 0.147320 0.037646 0.371859
#
# Coordination Sequence:
#
# PCOD9007482 Si02
#       8
#     2   2   2   2   1   2   2   2
#     4  11  21  41  69  97 134 174 238 286 347 415
#     4  11  24  44  68 103 140 182 230 285 354 420
#     4  10  22  43  64  97 133 180 233 281 348 421
#     4  11  23  40  67  97 132 182 220 298 344 422
#     4   8  20  44  66  86 142 178 230 286 346 414
#     4  10  24  38  66 102 136 180 222 283 352 415
#     4   9  22  41  66  94 130 182 227 295 337 419
#     4  10  21  39  61  96 137 168 225 278 354 411
#
# _framework density 27.616177
#
# number of rings (size 3 to 8) (size 9 to 14) (size 15 to 20)
#    0.800    1.067    2.667    0.400    3.733    3.200 
#    0.000    3.333    0.000    0.000    0.000    0.000 
#    0.000    0.000    0.000    0.000    0.000    0.000 
#
# Total GULP energy -83511.260661 kJ/mol
# GULP energy per Si atom -5567.417377 kJ/mol
# Density = 2.755332 g / cm^3
# Si number density = 27.616177 Si / 1000 Ang^3
#
#
#
# Elastic Constant Matrix: (Units=GPa)
#
#
# Indices 1 2 3 4 5 6 
#
# 1 88.8129 15.9688 36.3579 1.1031 17.1067 20.1957
# 2 15.9688 82.2419 4.1888 0.3648 -15.1960 21.8746
# 3 36.3579 4.1888 104.7113 -1.9366 27.0952 0.0120
# 4 1.1031 0.3648 -1.9366 37.6162 0.1592 -2.2368
# 5 17.1067 -15.1960 27.0952 0.1592 32.9244 -2.5831
# 6 20.1957 21.8746 0.0120 -2.2368 -2.5831 44.9660
#
#
#
# Elastic Compliance Matrix: (Units=1/GPa)
#
#
# Indices 1 2 3 4 5 6 
#
# 1 0.016030 -0.002492 -0.003687 -0.000989 -0.006945 -0.006434
# 2 -0.002492 0.016366 -0.002495 -0.000631 0.010412 -0.006275
# 3 -0.003687 -0.002495 0.013601 0.001014 -0.010251 0.002327
# 4 -0.000989 -0.000631 0.001014 0.026796 -0.000581 0.002051
# 5 -0.006945 0.010412 -0.010251 -0.000581 0.047284 0.000744
# 6 -0.006434 -0.006275 0.002327 0.002051 0.000744 0.028326
#
#
# Mechanical properties :
#
#
# Convention : Reuss Voigt Hill
#
# Bulk Modulus (GPa) = 34.90392 43.19967 39.05180
# Shear Modulus (GPa) = 28.52258 37.71803 33.12031
#
# Velocity S-wave (km/s) = 3.21724 3.69968 3.46686
# Velocity P-wave (km/s) = 5.14463 5.82469 5.49519
#
# Compressibility (1/GPa) = 0.02865007
#
# Stress axis : x y z
#
# Youngs Moduli (GPa) = 62.38227 61.10295 73.52380
#
# Poissons Ratio (x) = 0.15228 0.27106
# Poissons Ratio (y) = 0.15547 0.18341
# Poissons Ratio (z) = 0.22999 0.15242
#
# Static dielectric constant tensor:
#      x y z
#    x 2.257640 -0.120820 -0.039330 
#    y -0.120820 2.379900 -0.056820 
#    z -0.039330 -0.056820 2.166830 
# 
# From -- ./inp_files/483564.got.cif
#   From: 2010.05.17/outbox.cif.g08.bks.cpg/sg2_242_cif.got.tgz:483564.got - 2010.06.03 11:33:40.
