data_PCOD9007412
_publ_section_title
;
Structure prediction by ZEFSAII (Michael W. Deem and Ramdas Pophale) SiO2 
 PCOD9007412
Probable space group: P -1
;
_chemical_formula_sum "Si O2"
_cell_formula_units_Z 16
_cell_length_a 9.204823
_cell_length_b 13.148384
_cell_length_c 5.481385
_cell_angle_alpha 98.456837
_cell_angle_beta 75.312127
_cell_angle_gamma 99.478487
_cell_volume 629.096471
_symmetry_space_group_name_H-M "P -1"
_symmetry_group_IT_number 2
_symmetry_cell_setting 'triclinic'
loop_
_space_group_symop_operation_xyz
x,y,z
-x,-y,-z
loop_
_atom_site_type_symbol
_atom_site_label
_atom_site_fract_x
_atom_site_fract_y
_atom_site_fract_z
Si Si1 0.344962 0.419675 0.513759
Si Si2 0.443824 0.738474 0.522514
Si Si3 0.813623 0.408074 0.133745
Si Si4 0.272416 0.834047 0.284523
Si Si5 0.372655 0.078128 0.317340
Si Si6 0.118203 0.462256 0.247546
Si Si7 0.210306 0.097193 0.902838
Si Si8 0.105402 0.850385 0.870699
O O1 0.500000 0.500000 0.500000
O O2 0.404356 0.314488 0.533024
O O3 0.227740 0.474978 0.743136
O O4 0.255723 0.411667 0.291061
O O5 0.311784 0.665531 0.692695
O O6 0.396776 0.760453 0.275407
O O7 0.467160 0.853793 0.672498
O O8 0.986530 0.394913 0.120427
O O9 0.808879 0.426684 0.855716
O O10 0.179274 0.808711 0.068503
O O11 0.355506 0.953275 0.276217
O O12 0.160977 0.823226 0.566665
O O13 0.276284 0.104284 0.604676
O O14 0.319851 0.116420 0.094408
O O15 0.000000 0.500000 0.500000
O O16 0.074626 0.164087 0.024924
O O17 0.150682 0.974836 0.911204
#
# Coordination Sequence:
#
# PCOD9007412 Si02
#       8
#     2   2   2   2   2   2   2   2
#     4   9  20  40  63  92 127 160 205 257 321 384
#     4  11  23  40  57  97 126 173 218 263 320 391
#     4   9  20  42  68  92 124 162 209 263 322 385
#     4  10  21  39  61  91 131 179 219 266 319 379
#     4  10  21  39  61  91 133 174 219 269 322 381
#     4   9  18  41  70  92 119 160 203 262 330 382
#     4   9  18  37  63  88 121 170 221 276 328 374
#     4   9  18  37  63  87 121 171 226 271 325 377
#
# _framework density 25.433298000000001
#
# number of rings (size 3 to 8) (size 9 to 14) (size 15 to 20)
#    0.000    2.500    0.000    1.125    0.000    6.000 
#   22.500    5.000    0.000    0.000    0.000    0.000 
#    0.000    0.000    0.000    0.000    0.000    0.000 
#
# Total GULP energy -89293.740653 kJ/mol
# GULP energy per Si atom -5580.858791 kJ/mol
# Density = 2.537541 g / cm^3
# Si number density = 25.433298 Si / 1000 Ang^3
#
#
#
# Elastic Constant Matrix: (Units=GPa)
#
#
# Indices 1 2 3 4 5 6 
#
# 1 160.6976 47.7398 57.6268 -14.2345 16.0484 -21.2471
# 2 47.7398 89.4434 31.6616 -16.4182 9.6594 -9.3512
# 3 57.6268 31.6616 117.8331 -8.0624 3.5169 -10.5794
# 4 -14.2345 -16.4182 -8.0624 33.5127 3.5308 7.2210
# 5 16.0484 9.6594 3.5169 3.5308 41.7293 -11.6340
# 6 -21.2471 -9.3512 -10.5794 7.2210 -11.6340 49.7064
#
#
#
# Elastic Compliance Matrix: (Units=1/GPa)
#
#
# Indices 1 2 3 4 5 6 
#
# 1 0.008804 -0.002900 -0.003206 0.001362 -0.002041 0.001860
# 2 -0.002900 0.014812 -0.002113 0.005892 -0.002746 -0.000401
# 3 -0.003206 -0.002113 0.010652 -0.000108 0.001045 0.000760
# 4 0.001362 0.005892 -0.000108 0.034979 -0.006194 -0.004864
# 5 -0.002041 -0.002746 0.001045 -0.006194 0.027544 0.006180
# 6 0.001860 -0.000401 0.000760 -0.004864 0.006180 0.023152
#
#
# Mechanical properties :
#
#
# Convention : Reuss Voigt Hill
#
# Bulk Modulus (GPa) = 56.07886 71.33674 63.70780
# Shear Modulus (GPa) = 35.13140 40.38607 37.75874
#
# Velocity S-wave (km/s) = 3.72064 3.98920 3.85725
# Velocity P-wave (km/s) = 6.36826 7.02337 6.70382
#
# Compressibility (1/GPa) = 0.01783203
#
# Stress axis : x y z
#
# Youngs Moduli (GPa) = 113.58202 67.51298 93.88263
#
# Poissons Ratio (x) = 0.19576 0.30094
# Poissons Ratio (y) = 0.32933 0.19836
# Poissons Ratio (z) = 0.36409 0.14264
#
# Static dielectric constant tensor:
#      x y z
#    x 2.116820 0.052580 0.099210 
#    y 0.052580 2.125310 0.045890 
#    z 0.099210 0.045890 2.249520 
# 
# From -- ./inp_files/37291.got.cif
#   From: 2010.05.17/outbox.cif.g08.bks.cpg/sg2_19_cif.got.tgz:37291.got - 2010.06.03 11:33:40.
