data_PCOD9007258
_publ_section_title
;
Structure prediction by ZEFSAII (Michael W. Deem and Ramdas Pophale) SiO2 
 PCOD9007258
Probable space group: P -1
;
_chemical_formula_sum "Si O2"
_cell_formula_units_Z 14
_cell_length_a 5.213728
_cell_length_b 22.477579
_cell_length_c 9.560331
_cell_angle_alpha 128.737780
_cell_angle_beta 123.048638
_cell_angle_gamma 71.004453
_cell_volume 732.320097
_symmetry_space_group_name_H-M "P -1"
_symmetry_group_IT_number 2
_symmetry_cell_setting 'triclinic'
loop_
_space_group_symop_operation_xyz
x,y,z
-x,-y,-z
loop_
_atom_site_type_symbol
_atom_site_label
_atom_site_fract_x
_atom_site_fract_y
_atom_site_fract_z
Si Si1 0.340395 0.432489 0.763714
Si Si2 0.636120 0.000000 0.886120
Si Si3 0.637434 0.306286 0.848835
Si Si4 0.389565 0.567511 0.466246
Si Si5 0.641376 0.693713 0.929975
Si Si6 0.398454 0.874505 0.419209
Si Si7 0.316450 0.125495 0.795694
O O1 0.454895 0.354911 0.754314
O O2 0.450184 0.437373 0.643606
O O3 0.500000 0.500000 0.000000
O O4 0.024911 0.562627 0.331488
O O5 0.517300 0.073612 0.877345
O O6 0.516553 0.926389 0.656509
O O7 0.500000 0.000000 0.000000
O O8 0.000000 0.000000 0.000000
O O9 0.587035 0.215700 0.677903
O O10 0.521133 0.324197 0.996950
O O11 0.999824 0.324197 0.975641
O O12 0.500000 0.500000 0.500000
O O13 0.488999 0.645089 0.689580
O O14 0.621668 0.784300 0.030801
O O15 0.595435 0.891052 0.363126
O O16 0.042340 0.891052 0.310030
#
# Coordination Sequence:
#
# PCOD9007258 Si02
#       7
#     2   2   2   2   2   2   2
#     4  12  24  39  60  85 116 151 187 231 279 333
#     4  12  24  36  56  86 118 146 186 240 280 322
#     4  10  21  39  61  85 112 146 189 234 279 333
#     4  12  24  39  60  85 116 151 187 231 279 333
#     4  10  21  39  61  85 112 146 189 234 279 333
#     4  10  21  39  61  81 111 153 190 225 278 344
#     4  10  21  39  61  81 111 153 190 225 278 344
#
# _framework density 19.117325000000001
#
# number of rings (size 3 to 8) (size 9 to 14) (size 15 to 20)
#    0.000    1.143    0.000    6.857    0.000    2.286 
#    0.000    0.000    0.000    0.000    0.000    0.000 
#    0.000    0.000    0.000    0.000    0.000    0.000 
#
# Total GULP energy -78342.980427 kJ/mol
# GULP energy per Si atom -5595.927173 kJ/mol
# Density = 1.907381 g / cm^3
# Si number density = 19.117325 Si / 1000 Ang^3
#
#
#
# Elastic Constant Matrix: (Units=GPa)
#
#
# Indices 1 2 3 4 5 6 
#
# 1 69.7051 8.4590 -1.4404 8.1808 -9.0663 -16.2773
# 2 8.4590 90.5667 16.9314 -21.2195 3.7110 -11.9395
# 3 -1.4404 16.9314 99.6253 14.5679 -10.5604 -0.9103
# 4 8.1808 -21.2195 14.5679 19.8513 -5.0595 1.3548
# 5 -9.0663 3.7110 -10.5604 -5.0595 36.2712 -11.0679
# 6 -16.2773 -11.9395 -0.9103 1.3548 -11.0679 22.8691
#
#
#
# Elastic Compliance Matrix: (Units=1/GPa)
#
#
# Indices 1 2 3 4 5 6 
#
# 1 0.023560 -0.004836 0.005117 -0.017030 0.011985 0.021257
# 2 -0.004836 0.020497 -0.007773 0.029278 0.000125 0.005275
# 3 0.005117 -0.007773 0.014953 -0.020445 0.004694 0.003662
# 4 -0.017030 0.029278 -0.020445 0.103989 0.000162 -0.003732
# 5 0.011985 0.000125 0.004694 0.000162 0.040618 0.028430
# 6 0.021257 0.005275 0.003662 -0.003732 0.028430 0.075737
#
#
# Mechanical properties :
#
#
# Convention : Reuss Voigt Hill
#
# Bulk Modulus (GPa) = 22.71361 34.19964 28.45663
# Shear Modulus (GPa) = 16.18055 31.52812 23.85434
#
# Velocity S-wave (km/s) = 2.91242 4.06543 3.53623
# Velocity P-wave (km/s) = 4.81835 6.32180 5.62057
#
# Compressibility (1/GPa) = 0.04402647
#
# Stress axis : x y z
#
# Youngs Moduli (GPa) = 42.44430 48.78848 66.87499
#
# Poissons Ratio (x) = 0.23595 -0.34223
# Poissons Ratio (y) = 0.20527 0.51983
# Poissons Ratio (z) = -0.21721 0.37924
#
# Static dielectric constant tensor:
#      x y z
#    x 1.642400 0.000860 -0.000020 
#    y 0.000860 1.653260 0.025540 
#    z -0.000020 0.025540 1.622510 
# 
# From -- ./inp_files/142707.got.cif
#   From: 2010.05.17/outbox.cif.g08.bks.cpg/sg2_72_cif.got.tgz:142707.got - 2010.06.03 11:33:40.
