data_PCOD9007425
_publ_section_title
;
Structure prediction by ZEFSAII (Michael W. Deem and Ramdas Pophale) SiO2 
 PCOD9007425
Probable space group: P -1
;
_chemical_formula_sum "Si O2"
_cell_formula_units_Z 16
_cell_length_a 9.455603
_cell_length_b 22.270801
_cell_length_c 6.477421
_cell_angle_alpha 54.169557
_cell_angle_beta 112.161683
_cell_angle_gamma 137.760026
_cell_volume 739.469279
_symmetry_space_group_name_H-M "P -1"
_symmetry_group_IT_number 2
_symmetry_cell_setting 'triclinic'
loop_
_space_group_symop_operation_xyz
x,y,z
-x,-y,-z
loop_
_atom_site_type_symbol
_atom_site_label
_atom_site_fract_x
_atom_site_fract_y
_atom_site_fract_z
Si Si1 0.561203 0.091328 0.713462
Si Si2 0.918589 0.283250 0.767065
Si Si3 0.604759 0.193652 0.158670
Si Si4 0.799027 0.852054 0.116912
Si Si5 0.330802 0.344219 0.768914
Si Si6 0.934687 0.393097 0.189173
Si Si7 0.638545 0.523934 0.834770
Si Si8 0.155389 0.049353 0.681496
O O1 0.791440 0.190380 0.720957
O O2 0.577064 0.107381 0.442775
O O3 0.381642 0.091927 0.666039
O O4 0.500000 0.000000 0.000000
O O5 0.949459 0.369525 0.481977
O O6 0.140532 0.316959 0.851218
O O7 0.764701 0.238691 0.965554
O O8 0.714393 0.291412 0.173941
O O9 0.379176 0.147890 0.048923
O O10 0.729942 0.753701 0.167398
O O11 0.813057 0.863725 0.349603
O O12 0.029370 0.952052 0.960175
O O13 0.534872 0.417811 0.878572
O O14 0.369373 0.412213 0.461948
O O15 0.117001 0.411201 0.124672
O O16 0.000000 0.500000 0.000000
O O17 0.500000 0.500000 0.000000
O O18 0.000000 0.000000 0.500000
#
# Coordination Sequence:
#
# PCOD9007425 Si02
#       8
#     2   2   2   2   2   2   2   2
#     4  11  23  42  65  92 131 169 219 277 331 388
#     4  10  22  41  60  92 131 162 220 269 316 396
#     4  11  22  40  66  94 126 173 217 271 325 395
#     4  11  23  40  66  94 126 173 220 264 338 387
#     4  10  22  40  62  92 130 168 212 273 323 386
#     4  10  22  38  61  92 130 167 212 270 327 381
#     4  10  21  39  61  92 128 166 218 265 320 392
#     4  11  23  43  65  94 133 166 217 280 322 395
#
# _framework density 21.637138
#
# number of rings (size 3 to 8) (size 9 to 14) (size 15 to 20)
#    0.000    1.500    2.500    2.250    0.000    3.000 
#    0.000    5.000    0.000    0.000    0.000    0.000 
#    0.000    0.000    0.000    0.000    0.000    0.000 
#
# Total GULP energy -89291.150122 kJ/mol
# GULP energy per Si atom -5580.696883 kJ/mol
# Density = 2.158789 g / cm^3
# Si number density = 21.637138 Si / 1000 Ang^3
#
#
#
# Elastic Constant Matrix: (Units=GPa)
#
#
# Indices 1 2 3 4 5 6 
#
# 1 63.1512 8.2240 41.2691 -0.4287 -23.5252 10.5620
# 2 8.2240 99.4689 7.8663 -1.4020 10.0153 0.9005
# 3 41.2691 7.8663 99.3912 -16.4994 -13.5439 -12.8699
# 4 -0.4287 -1.4020 -16.4994 32.8919 3.2105 1.5254
# 5 -23.5252 10.0153 -13.5439 3.2105 32.8774 -2.6518
# 6 10.5620 0.9005 -12.8699 1.5254 -2.6518 44.2160
#
#
#
# Elastic Compliance Matrix: (Units=1/GPa)
#
#
# Indices 1 2 3 4 5 6 
#
# 1 0.034951 -0.003819 -0.014248 -0.008323 0.020235 -0.010917
# 2 -0.003819 0.010989 0.000097 0.001050 -0.006117 0.000314
# 3 -0.014248 0.000097 0.018085 0.008801 -0.002974 0.008183
# 4 -0.008323 0.001050 0.008801 0.035187 -0.005847 0.002964
# 5 0.020235 -0.006117 -0.002974 -0.005847 0.045893 -0.002620
# 6 -0.010917 0.000314 0.008183 0.002964 -0.002620 0.027340
#
#
# Mechanical properties :
#
#
# Convention : Reuss Voigt Hill
#
# Bulk Modulus (GPa) = 35.60505 41.85890 38.73197
# Shear Modulus (GPa) = 22.96253 35.64051 29.30152
#
# Velocity S-wave (km/s) = 3.26123 4.06296 3.68397
# Velocity P-wave (km/s) = 5.53823 6.43413 6.00292
#
# Compressibility (1/GPa) = 0.02808590
#
# Stress axis : x y z
#
# Youngs Moduli (GPa) = 28.61183 90.99726 55.29445
#
# Poissons Ratio (x) = 0.34750 0.78783
# Poissons Ratio (y) = 0.10926 -0.00537
# Poissons Ratio (z) = 0.40766 -0.00884
#
# Static dielectric constant tensor:
#      x y z
#    x 1.759850 -0.027350 -0.009720 
#    y -0.027350 1.804400 0.015070 
#    z -0.009720 0.015070 1.840820 
# 
# From -- ./inp_files/52505.got.cif
#   From: 2010.05.17/outbox.cif.g08.bks.cpg/sg2_27_cif.got.tgz:52505.got - 2010.06.03 11:33:40.
