data_PCOD9007314
_publ_section_title
;
Structure prediction by ZEFSAII (Michael W. Deem and Ramdas Pophale) SiO2 
 PCOD9007314
Probable space group: P -1
;
_chemical_formula_sum "Si O2"
_cell_formula_units_Z 14
_cell_length_a 13.680610
_cell_length_b 11.981526
_cell_length_c 12.588919
_cell_angle_alpha 66.435212
_cell_angle_beta 114.377672
_cell_angle_gamma 159.216750
_cell_volume 666.305567
_symmetry_space_group_name_H-M "P -1"
_symmetry_group_IT_number 2
_symmetry_cell_setting 'triclinic'
loop_
_space_group_symop_operation_xyz
x,y,z
-x,-y,-z
loop_
_atom_site_type_symbol
_atom_site_label
_atom_site_fract_x
_atom_site_fract_y
_atom_site_fract_z
Si Si1 0.775549 0.359484 0.232419
Si Si2 0.100321 0.465802 0.550994
Si Si3 0.188213 0.066862 0.443007
Si Si4 0.256955 0.676616 0.312895
Si Si5 0.308393 0.270369 0.648786
Si Si6 0.514704 0.157853 0.979562
Si Si7 0.011102 0.264929 0.171802
O O1 0.763659 0.415135 0.319057
O O2 0.077109 0.614097 0.254445
O O3 0.560603 0.022363 0.274436
O O4 0.662742 0.317354 0.099219
O O5 0.276202 0.649020 0.452017
O O6 0.000000 0.500000 0.500000
O O7 0.862528 0.118611 0.555962
O O8 0.316140 0.202565 0.567280
O O9 0.384693 0.354211 0.347024
O O10 0.892666 0.823604 0.417914
O O11 0.094427 0.415452 0.262919
O O12 0.159878 0.034117 0.760969
O O13 0.702103 0.433949 0.878634
O O14 0.200829 0.875059 0.938192
O O15 0.500000 0.000000 0.000000
#
# Coordination Sequence:
#
# PCOD9007314 Si02
#       7
#     2   2   2   2   2   2   2
#     4  11  23  36  54  85 124 157 193 228 305 361
#     4  10  23  40  62  92 125 159 188 246 307 370
#     4  10  21  39  61  87 121 150 200 242 301 350
#     4  11  20  36  56  86 120 153 187 242 298 358
#     4  10  22  38  61  89 114 159 197 251 289 346
#     4  12  22  35  58  86 121 162 193 251 292 349
#     4  12  21  37  60  85 121 150 202 249 295 343
#
# _framework density 21.011379999999999
#
# number of rings (size 3 to 8) (size 9 to 14) (size 15 to 20)
#    0.000    1.143    4.286    2.571    0.000    4.571 
#    0.000    0.000    0.000    5.143    0.000    0.000 
#    0.000    0.000    0.000    0.000    0.000    0.000 
#
# Total GULP energy -78217.023219 kJ/mol
# GULP energy per Si atom -5586.930230 kJ/mol
# Density = 2.096356 g / cm^3
# Si number density = 21.011380 Si / 1000 Ang^3
#
#
#
# Elastic Constant Matrix: (Units=GPa)
#
#
# Indices 1 2 3 4 5 6 
#
# 1 42.6363 35.5088 18.3175 12.8517 -0.2261 -7.0412
# 2 35.5088 99.1652 12.6257 -14.0670 -4.7003 -9.2420
# 3 18.3175 12.6257 98.6536 2.6448 -21.5368 -15.6515
# 4 12.8517 -14.0670 2.6448 40.3606 0.5109 2.4371
# 5 -0.2261 -4.7003 -21.5368 0.5109 21.2100 -2.7180
# 6 -7.0412 -9.2420 -15.6515 2.4371 -2.7180 37.6298
#
#
#
# Elastic Compliance Matrix: (Units=1/GPa)
#
#
# Indices 1 2 3 4 5 6 
#
# 1 0.052297 -0.021380 -0.008807 -0.023461 -0.012366 0.001498
# 2 -0.021380 0.019749 0.002872 0.013313 0.006960 0.001685
# 3 -0.008807 0.002872 0.016410 0.002076 0.018059 0.007053
# 4 -0.023461 0.013313 0.002076 0.036849 0.003615 -0.002382
# 5 -0.012366 0.006960 0.018059 0.003615 0.068296 0.011606
# 6 0.001498 0.001685 0.007053 -0.002382 0.011606 0.031195
#
#
# Mechanical properties :
#
#
# Convention : Reuss Voigt Hill
#
# Bulk Modulus (GPa) = 29.56210 41.48435 35.52323
# Shear Modulus (GPa) = 17.19980 31.44030 24.32005
#
# Velocity S-wave (km/s) = 2.86421 3.87246 3.40585
# Velocity P-wave (km/s) = 5.00384 6.30724 5.69296
#
# Compressibility (1/GPa) = 0.03382710
#
# Stress axis : x y z
#
# Youngs Moduli (GPa) = 19.12159 50.63423 60.93878
#
# Poissons Ratio (x) = 1.08254 0.53669
# Poissons Ratio (y) = 0.40881 -0.17502
# Poissons Ratio (z) = 0.16841 -0.14542
#
# Static dielectric constant tensor:
#      x y z
#    x 1.758700 0.004790 0.007210 
#    y 0.004790 1.747090 -0.001990 
#    z 0.007210 -0.001990 1.805860 
# 
# From -- ./inp_files/65841.got.cif
#   From: 2010.05.17/outbox.cif.g08.bks.cpg/sg2_33_cif.got.tgz:65841.got - 2010.06.03 11:33:40.
