data_PCOD9007014
_publ_section_title
;
Structure prediction by ZEFSAII (Michael W. Deem and Ramdas Pophale) SiO2 
 PCOD9007014
Probable space group: P -1
;
_chemical_formula_sum "Si O2"
_cell_formula_units_Z 12
_cell_length_a 25.093843
_cell_length_b 5.439804
_cell_length_c 6.895610
_cell_angle_alpha 47.408255
_cell_angle_beta 46.985115
_cell_angle_gamma 43.674299
_cell_volume 442.829918
_symmetry_space_group_name_H-M "P -1"
_symmetry_group_IT_number 2
_symmetry_cell_setting 'triclinic'
loop_
_space_group_symop_operation_xyz
x,y,z
-x,-y,-z
loop_
_atom_site_type_symbol
_atom_site_label
_atom_site_fract_x
_atom_site_fract_y
_atom_site_fract_z
Si Si1 0.616588 0.576759 0.412481
Si Si2 0.289227 0.249557 0.238184
Si Si3 0.864105 0.502940 0.065197
Si Si4 0.169702 0.057646 0.739107
Si Si5 0.573401 0.981024 0.695473
Si Si6 0.986883 0.021461 0.749733
O O1 0.683937 0.191730 0.553840
O O2 0.567971 0.851689 0.562416
O O3 0.572647 0.384638 0.498404
O O4 0.662832 0.730387 0.077786
O O5 0.337359 0.317789 0.262611
O O6 0.192199 0.362453 0.417251
O O7 0.811719 0.898489 0.100683
O O8 0.805251 0.344716 0.213305
O O9 0.927889 0.198987 0.224670
O O10 0.926815 0.448854 0.761865
O O11 0.072171 0.165488 0.945808
O O12 0.500000 0.000000 0.000000
O O13 0.000000 0.000000 0.500000
#
# Coordination Sequence:
#
# PCOD9007014 Si02
#       6
#     2   2   2   2   2   2
#     4  10  25  42  68  97 134 172 220 266 323 390
#     4  10  26  43  66  97 136 171 224 262 333 385
#     4   9  21  38  54  84 117 156 206 264 315 372
#     4  10  21  39  59  82 127 162 205 269 315 377
#     4  10  24  44  70 100 134 173 219 269 323 387
#     4   9  20  37  59  85 115 160 213 256 324 373
#
# _framework density 27.098437000000001
#
# number of rings (size 3 to 8) (size 9 to 14) (size 15 to 20)
#    2.000    0.333    0.000    1.000    4.667    3.333 
#    3.000    0.000    0.000    0.000    0.000    0.000 
#    0.000    0.000    0.000    0.000    0.000    0.000 
#
# Total GULP energy -66857.394021 kJ/mol
# GULP energy per Si atom -5571.449502 kJ/mol
# Density = 2.703676 g / cm^3
# Si number density = 27.098437 Si / 1000 Ang^3
#
#
#
# Elastic Constant Matrix: (Units=GPa)
#
#
# Indices 1 2 3 4 5 6 
#
# 1 143.7852 -33.1782 27.2964 8.5387 20.3102 32.3955
# 2 -33.1782 -150.5821 -103.6234 23.6511 67.3623 26.4848
# 3 27.2964 -103.6234 137.6149 16.2756 27.2728 23.0665
# 4 8.5387 23.6511 16.2756 51.0649 17.5984 14.7721
# 5 20.3102 67.3623 27.2728 17.5984 45.5567 8.5879
# 6 32.3955 26.4848 23.0665 14.7721 8.5879 52.4695
#
#
#
# Elastic Compliance Matrix: (Units=1/GPa)
#
#
# Indices 1 2 3 4 5 6 
#
# 1 0.007870 -0.001142 -0.001840 0.001009 -0.000412 -0.003690
# 2 -0.001142 -0.002072 -0.002627 -0.000322 0.004856 0.002202
# 3 -0.001840 -0.002627 0.005391 -0.000819 0.001789 0.000030
# 4 0.001009 -0.000322 -0.000819 0.024119 -0.007740 -0.005624
# 5 -0.000412 0.004856 0.001789 -0.007740 0.017567 -0.003679
# 6 -0.003690 0.002202 0.000030 -0.005624 -0.003679 0.022398
#
#
# Mechanical properties :
#
#
# Convention : Reuss Voigt Hill
#
# Bulk Modulus (GPa) = -31739.57643 -9.79916 -15874.68779
# Shear Modulus (GPa) = 57.81570 45.83978 51.82774
#
# Velocity S-wave (km/s) = 4.62404 4.11737 4.37804
# Velocity P-wave (km/s) = 108.21097 4.35657 76.45468
#
# Compressibility (1/GPa) = -0.00003151
#
# Stress axis : x y z
#
# Youngs Moduli (GPa) = 127.06000 -482.54351 185.50456
#
# Poissons Ratio (x) = -0.55125 0.34142
# Poissons Ratio (y) = 0.14515 0.48736
# Poissons Ratio (z) = 0.23385 -1.26775
#
# Static dielectric constant tensor:
#      x y z
#    x 1.662810 0.295340 0.364960 
#    y 0.295340 2.131960 -0.140290 
#    z 0.364960 -0.140290 1.925550 
# 
# From -- ./inp_files/4988.got.cif
#   From: 2010.05.17/outbox.cif.g08.bks.cpg/sg2_3_cif.got.tgz:4988.got - 2010.06.03 11:33:40.
