data_PCOD9007328
_publ_section_title
;
Structure prediction by ZEFSAII (Michael W. Deem and Ramdas Pophale) SiO2 
 PCOD9007328
Probable space group: P -1
;
_chemical_formula_sum "Si O2"
_cell_formula_units_Z 14
_cell_length_a 4.997787
_cell_length_b 5.291688
_cell_length_c 22.905223
_cell_angle_alpha 79.087509
_cell_angle_beta 117.324500
_cell_angle_gamma 77.729217
_cell_volume 496.340639
_symmetry_space_group_name_H-M "P -1"
_symmetry_group_IT_number 2
_symmetry_cell_setting 'triclinic'
loop_
_space_group_symop_operation_xyz
x,y,z
-x,-y,-z
loop_
_atom_site_type_symbol
_atom_site_label
_atom_site_fract_x
_atom_site_fract_y
_atom_site_fract_z
Si Si1 0.145633 0.510147 0.413985
Si Si2 0.359584 0.188152 0.556114
Si Si3 0.648621 0.227311 0.986970
Si Si4 0.750575 0.368390 0.155671
Si Si5 0.467873 0.336921 0.726060
Si Si6 0.747563 0.796901 0.697182
Si Si7 0.733049 0.930209 0.871251
O O1 0.219775 0.242329 0.474593
O O2 0.453896 0.594055 0.428275
O O3 0.930815 0.735738 0.430431
O O4 0.908492 0.574283 0.331772
O O5 0.616289 0.899951 0.614982
O O6 0.508368 0.348877 0.904608
O O7 0.500000 0.500000 0.000000
O O8 0.021069 0.121451 0.047699
O O9 0.500000 0.000000 0.000000
O O10 0.575407 0.147194 0.140235
O O11 0.890801 0.334420 0.236354
O O12 0.050767 0.296456 0.144524
O O13 0.573448 0.591784 0.709841
O O14 0.629012 0.084000 0.708483
O O15 0.619989 0.199093 0.808101
#
# Coordination Sequence:
#
# PCOD9007328 Si02
#       7
#     2   2   2   2   2   2   2
#     4   9  18  35  58  85 117 154 196 243 295 352
#     4   9  18  35  58  85 117 154 196 243 295 352
#     4  10  21  40  62  90 122 158 200 246 298 354
#     4  10  21  40  62  89 121 158 200 246 298 354
#     4  10  21  39  61  88 120 157 199 246 298 354
#     4  10  21  39  61  88 120 157 199 246 298 354
#     4  10  21  40  62  89 121 158 200 246 298 354
#
# _framework density 28.206439
#
# number of rings (size 3 to 8) (size 9 to 14) (size 15 to 20)
#    0.000    2.286    0.000    2.143    0.000    0.571 
#    0.000   45.714    0.000   15.429    0.000    0.000 
#    0.000    0.000    0.000    0.000    0.000    0.000 
#
# Total GULP energy -78481.239044 kJ/mol
# GULP energy per Si atom -5605.802789 kJ/mol
# Density = 2.814224 g / cm^3
# Si number density = 28.206439 Si / 1000 Ang^3
#
#
#
# Elastic Constant Matrix: (Units=GPa)
#
#
# Indices 1 2 3 4 5 6 
#
# 1 54.2410 19.3505 40.9271 7.9811 13.9616 10.2064
# 2 19.3505 103.6990 57.0798 -2.8393 -10.2033 28.6014
# 3 40.9271 57.0798 321.9484 -4.3417 -8.9198 -10.4527
# 4 7.9811 -2.8393 -4.3417 74.4497 -12.7092 9.3681
# 5 13.9616 -10.2033 -8.9198 -12.7092 73.1088 -9.0232
# 6 10.2064 28.6014 -10.4527 9.3681 -9.0232 53.3943
#
#
#
# Elastic Compliance Matrix: (Units=1/GPa)
#
#
# Indices 1 2 3 4 5 6 
#
# 1 0.024685 -0.002395 -0.003090 -0.003471 -0.006590 -0.004545
# 2 -0.002395 0.013553 -0.002270 0.001815 0.001485 -0.007314
# 3 -0.003090 -0.002270 0.004027 0.000334 0.001160 0.002733
# 4 -0.003471 0.001815 0.000334 0.014732 0.003236 -0.002281
# 5 -0.006590 0.001485 0.001160 0.003236 0.016201 0.002861
# 6 -0.004545 -0.007314 0.002733 -0.002281 0.002861 0.024934
#
#
# Mechanical properties :
#
#
# Convention : Reuss Voigt Hill
#
# Bulk Modulus (GPa) = 37.37880 79.40038 58.38959
# Shear Modulus (GPa) = 40.79628 64.35931 52.57780
#
# Velocity S-wave (km/s) = 3.80721 4.78192 4.32213
# Velocity P-wave (km/s) = 5.71026 7.66158 6.75674
#
# Compressibility (1/GPa) = 0.02675313
#
# Stress axis : x y z
#
# Youngs Moduli (GPa) = 40.51124 73.78503 248.33651
#
# Poissons Ratio (x) = 0.17671 0.76743
# Poissons Ratio (y) = 0.09702 0.56379
# Poissons Ratio (z) = 0.12519 0.16751
#
# Static dielectric constant tensor:
#      x y z
#    x 2.285510 -0.305360 -0.085360 
#    y -0.305360 2.266630 0.105290 
#    z -0.085360 0.105290 2.250000 
# 
# From -- ./inp_files/9617.got.cif
#   From: 2010.05.17/outbox.cif.g08.bks.cpg/sg2_5_cif.got.tgz:9617.got - 2010.06.03 11:33:40.
