data_PCOD9007517
_publ_section_title
;
Structure prediction by ZEFSAII (Michael W. Deem and Ramdas Pophale) SiO2 
 PCOD9007517
Probable space group: P -1
;
_chemical_formula_sum "Si O2"
_cell_formula_units_Z 16
_cell_length_a 7.231384
_cell_length_b 16.229060
_cell_length_c 7.938819
_cell_angle_alpha 70.533495
_cell_angle_beta 74.432374
_cell_angle_gamma 120.336191
_cell_volume 639.732458
_symmetry_space_group_name_H-M "P -1"
_symmetry_group_IT_number 2
_symmetry_cell_setting 'triclinic'
loop_
_space_group_symop_operation_xyz
x,y,z
-x,-y,-z
loop_
_atom_site_type_symbol
_atom_site_label
_atom_site_fract_x
_atom_site_fract_y
_atom_site_fract_z
Si Si1 0.854314 0.012099 0.667869
Si Si2 0.298639 0.263605 0.359477
Si Si3 0.448285 0.231613 0.996583
Si Si4 0.398623 0.507131 0.696926
Si Si5 0.904074 0.255239 0.042023
Si Si6 0.630700 0.205457 0.477327
Si Si7 0.220786 0.609324 0.474854
Si Si8 0.392134 0.975150 0.852824
O O1 0.592092 0.976233 0.694998
O O2 0.027034 0.147582 0.571361
O O3 0.751558 0.907011 0.892056
O O4 0.000000 0.000000 0.500000
O O5 0.336142 0.258053 0.154798
O O6 0.383747 0.385888 0.311049
O O7 0.476348 0.239696 0.410749
O O8 0.710653 0.263999 0.982001
O O9 0.531613 0.309107 0.759573
O O10 0.500000 0.500000 0.500000
O O11 0.247893 0.550462 0.659930
O O12 0.184868 0.377498 0.899696
O O13 0.801540 0.215811 0.283460
O O14 0.871019 0.152832 0.024466
O O15 0.810046 0.302579 0.508120
O O16 0.429597 0.081496 0.697045
O O17 0.000000 0.500000 0.500000
O O18 0.500000 0.000000 0.000000
#
# Coordination Sequence:
#
# PCOD9007517 Si02
#       8
#     2   2   2   2   2   2   2   2
#     4   9  19  38  61  89 123 154 193 249 301 353
#     4   9  21  39  64  85 123 157 194 250 302 364
#     4   9  18  38  63  90 110 156 205 240 296 349
#     4  11  25  41  55  86 126 159 196 244 312 353
#     4  10  21  39  62  85 123 157 196 247 293 365
#     4  10  22  39  62  94 114 159 204 242 306 352
#     4  11  22  38  64  85 118 154 205 250 287 365
#     4  11  23  39  66  93 120 158 207 253 294 356
#
# _framework density 25.010455
#
# number of rings (size 3 to 8) (size 9 to 14) (size 15 to 20)
#    0.000    2.000    1.250    2.625    3.500    1.500 
#    6.750    2.500    0.000    0.000    0.000    0.000 
#    0.000    0.000    0.000    0.000    0.000    0.000 
#
# Total GULP energy -89361.458178 kJ/mol
# GULP energy per Si atom -5585.091136 kJ/mol
# Density = 2.495353 g / cm^3
# Si number density = 25.010455 Si / 1000 Ang^3
#
#
#
# Elastic Constant Matrix: (Units=GPa)
#
#
# Indices 1 2 3 4 5 6 
#
# 1 40.1502 6.8490 9.7643 -10.6288 1.7701 -7.4524
# 2 6.8490 216.9375 90.9078 -38.4825 -1.1653 16.3570
# 3 9.7643 90.9078 146.9224 -32.7801 5.6920 10.3896
# 4 -10.6288 -38.4825 -32.7801 54.5441 -0.5225 -5.5623
# 5 1.7701 -1.1653 5.6920 -0.5225 32.5642 -6.7740
# 6 -7.4524 16.3570 10.3896 -5.5623 -6.7740 26.2609
#
#
#
# Elastic Compliance Matrix: (Units=1/GPa)
#
#
# Indices 1 2 3 4 5 6 
#
# 1 0.028611 -0.000092 -0.001309 0.005766 0.000872 0.010141
# 2 -0.000092 0.006642 -0.003433 0.002386 0.000425 -0.002190
# 3 -0.001309 -0.003433 0.009930 0.003059 -0.002170 -0.002074
# 4 0.005766 0.002386 0.003059 0.023392 0.000447 0.004010
# 5 0.000872 0.000425 -0.002170 0.000447 0.033030 0.009456
# 6 0.010141 -0.002190 -0.002074 0.004010 0.009456 0.046430
#
#
# Mechanical properties :
#
#
# Convention : Reuss Voigt Hill
#
# Bulk Modulus (GPa) = 28.15649 68.78359 48.47004
# Shear Modulus (GPa) = 29.49152 42.43978 35.96565
#
# Velocity S-wave (km/s) = 3.43763 4.12379 3.79624
# Velocity P-wave (km/s) = 5.19987 7.08772 6.21589
#
# Compressibility (1/GPa) = 0.03551579
#
# Stress axis : x y z
#
# Youngs Moduli (GPa) = 34.95194 150.56611 100.70013
#
# Poissons Ratio (x) = 0.01382 0.13182
# Poissons Ratio (y) = 0.00321 0.34568
# Poissons Ratio (z) = 0.04575 0.51685
#
# Static dielectric constant tensor:
#      x y z
#    x 2.096640 0.039000 -0.010310 
#    y 0.039000 2.139010 -0.003690 
#    z -0.010310 -0.003690 1.972670 
# 
# From -- ./inp_files/206786.got.cif
#   From: 2010.05.17/outbox.cif.g08.bks.cpg/sg2_104_cif.got.tgz:206786.got - 2010.06.03 11:33:40.
