data_PCOD9007125
_publ_section_title
;
Structure prediction by ZEFSAII (Michael W. Deem and Ramdas Pophale) SiO2 
 PCOD9007125
Probable space group: P -1
;
_chemical_formula_sum "Si O2"
_cell_formula_units_Z 16
_cell_length_a 8.185717
_cell_length_b 20.952320
_cell_length_c 11.644678
_cell_angle_alpha 32.531659
_cell_angle_beta 39.772604
_cell_angle_gamma 51.473776
_cell_volume 685.256996
_symmetry_space_group_name_H-M "P -1"
_symmetry_group_IT_number 2
_symmetry_cell_setting 'triclinic'
loop_
_space_group_symop_operation_xyz
x,y,z
-x,-y,-z
loop_
_atom_site_type_symbol
_atom_site_label
_atom_site_fract_x
_atom_site_fract_y
_atom_site_fract_z
Si Si1 0.096033 0.530310 0.668050
Si Si2 0.989929 0.137862 0.772464
Si Si3 0.579450 0.278623 0.684633
Si Si4 0.213872 0.115256 0.440888
Si Si5 0.110780 0.355143 0.721586
Si Si6 0.851144 0.296540 0.266845
Si Si7 0.197098 0.842679 0.917442
Si Si8 0.370456 0.376216 0.304974
O O1 0.352123 0.608071 0.443215
O O2 0.096578 0.469320 0.635786
O O3 0.879919 0.627912 0.636873
O O4 0.015822 0.419210 0.961618
O O5 0.711117 0.168251 0.832496
O O6 0.170058 0.156382 0.534908
O O7 0.005060 0.180042 0.833857
O O8 0.000000 0.000000 0.000000
O O9 0.283784 0.267382 0.832470
O O10 0.729895 0.308116 0.440456
O O11 0.513385 0.146085 0.210213
O O12 0.030218 0.187022 0.349503
O O13 0.158393 0.971423 0.686577
O O14 0.267235 0.389245 0.470301
O O15 0.854514 0.275391 0.951609
O O16 0.604680 0.290019 0.322881
O O17 0.500000 0.500000 0.000000
#
# Coordination Sequence:
#
# PCOD9007125 Si02
#       8
#     2   2   2   2   2   2   2   2
#     4  11  21  38  60  88 125 168 205 253 314 372
#     4   9  19  39  67  90 118 163 209 255 320 375
#     4  10  21  39  60  85 127 164 209 254 308 378
#     4   9  20  42  69  93 122 165 208 256 327 373
#     4  11  23  39  58  96 124 161 213 257 312 368
#     4   9  20  40  61  89 119 160 213 254 308 376
#     4  10  21  41  67  92 128 160 208 267 309 379
#     4   9  20  40  60  83 124 159 203 253 304 369
#
# _framework density 23.348904999999998
#
# number of rings (size 3 to 8) (size 9 to 14) (size 15 to 20)
#    0.000    2.250    0.000    1.875    1.750    0.000 
#   27.000   11.875    0.000    0.000    0.000    0.000 
#    0.000    0.000    0.000    0.000    0.000    0.000 
#
# Total GULP energy -89176.110329 kJ/mol
# GULP energy per Si atom -5573.506896 kJ/mol
# Density = 2.329576 g / cm^3
# Si number density = 23.348905 Si / 1000 Ang^3
#
#
#
# Elastic Constant Matrix: (Units=GPa)
#
#
# Indices 1 2 3 4 5 6 
#
# 1 83.4839 21.2711 29.5309 -12.7880 19.7049 -25.8726
# 2 21.2711 77.4628 22.5543 -5.7835 18.8801 -9.5328
# 3 29.5309 22.5543 94.0384 1.9934 19.8163 -7.4395
# 4 -12.7880 -5.7835 1.9934 27.2199 -2.1232 18.7547
# 5 19.7049 18.8801 19.8163 -2.1232 33.7222 -11.4621
# 6 -25.8726 -9.5328 -7.4395 18.7547 -11.4621 51.2474
#
#
#
# Elastic Compliance Matrix: (Units=1/GPa)
#
#
# Indices 1 2 3 4 5 6 
#
# 1 0.017038 -0.001472 -0.003618 0.003957 -0.004975 0.005242
# 2 -0.001472 0.015667 -0.001969 0.002674 -0.006794 -0.000613
# 3 -0.003618 -0.001969 0.013332 -0.003405 -0.004866 -0.000100
# 4 0.003957 0.002674 -0.003405 0.051332 -0.004633 -0.017821
# 5 -0.004975 -0.006794 -0.004866 -0.004633 0.041111 0.006409
# 6 0.005242 -0.000613 -0.000100 -0.017821 0.006409 0.029987
#
#
# Mechanical properties :
#
#
# Convention : Reuss Voigt Hill
#
# Bulk Modulus (GPa) = 31.32926 44.63307 37.98117
# Shear Modulus (GPa) = 25.87659 34.54650 30.21154
#
# Velocity S-wave (km/s) = 3.33266 3.85070 3.60101
# Velocity P-wave (km/s) = 5.31562 6.23921 5.79584
#
# Compressibility (1/GPa) = 0.03191904
#
# Stress axis : x y z
#
# Youngs Moduli (GPa) = 58.69162 63.82807 75.00684
#
# Poissons Ratio (x) = 0.09396 0.27140
# Poissons Ratio (y) = 0.08640 0.14767
# Poissons Ratio (z) = 0.21237 0.12566
#
# Static dielectric constant tensor:
#      x y z
#    x 1.948670 0.030440 -0.028130 
#    y 0.030440 2.093580 0.016920 
#    z -0.028130 0.016920 1.948830 
# 
# From -- ./inp_files/185880.got.cif
#   From: 2010.05.17/outbox.cif.g08.bks.cpg/sg2_93_cif.got.tgz:185880.got - 2010.06.03 11:33:40.
