data_PCOD9007146
_publ_section_title
;
Structure prediction by ZEFSAII (Michael W. Deem and Ramdas Pophale) SiO2 
 PCOD9007146
Probable space group: P -1
;
_chemical_formula_sum "Si O2"
_cell_formula_units_Z 16
_cell_length_a 15.213574
_cell_length_b 8.961426
_cell_length_c 21.594030
_cell_angle_alpha 116.165128
_cell_angle_beta 18.486072
_cell_angle_gamma 110.165557
_cell_volume 809.415345
_symmetry_space_group_name_H-M "P -1"
_symmetry_group_IT_number 2
_symmetry_cell_setting 'triclinic'
loop_
_space_group_symop_operation_xyz
x,y,z
-x,-y,-z
loop_
_atom_site_type_symbol
_atom_site_label
_atom_site_fract_x
_atom_site_fract_y
_atom_site_fract_z
Si Si1 0.583923 0.466003 0.865938
Si Si2 0.775740 0.334796 0.504890
Si Si3 0.978142 0.601700 0.779420
Si Si4 0.865691 0.183879 0.179936
Si Si5 0.254711 0.286798 0.381981
Si Si6 0.334923 0.178623 0.174472
Si Si7 0.599493 0.908567 0.282114
Si Si8 0.651747 0.772210 0.551938
O O1 0.562905 0.652259 0.883865
O O2 0.907968 0.351109 0.623385
O O3 0.500000 0.500000 0.000000
O O4 0.355141 0.368438 0.976175
O O5 0.955822 0.339502 0.322502
O O6 0.660544 0.530602 0.641241
O O7 0.518695 0.248333 0.646953
O O8 0.002176 0.231358 0.384644
O O9 0.138680 0.689194 0.737932
O O10 0.101710 0.396162 0.658176
O O11 0.639877 0.257504 0.289008
O O12 0.767880 0.011772 0.233183
O O13 0.177907 0.138317 0.932082
O O14 0.359246 0.173118 0.231408
O O15 0.357301 0.202270 0.363922
O O16 0.500000 0.000000 0.000000
O O17 0.328901 0.057472 0.465610
#
# Coordination Sequence:
#
# PCOD9007146 Si02
#       8
#     2   2   2   2   2   2   2   2
#     4  11  20  41  62  89 124 162 201 239 301 370
#     4  10  21  39  60  87 120 159 197 245 305 352
#     4  11  21  36  66  86 119 162 200 243 297 359
#     4   9  21  38  62  87 117 159 205 244 300 356
#     4  10  22  41  63  85 125 160 198 244 302 369
#     4  11  25  39  58  95 123 152 202 254 300 356
#     4   9  21  39  60  83 122 155 203 249 296 351
#     4   9  19  40  60  86 121 151 205 242 296 350
#
# _framework density 19.767355999999999
#
# number of rings (size 3 to 8) (size 9 to 14) (size 15 to 20)
#    0.750    1.250    3.750    1.875    5.250    1.500 
#    0.000    3.750    2.750    0.000    0.000    0.000 
#    0.000    0.000    0.000    0.000    0.000    0.000 
#
# Total GULP energy -89136.652653 kJ/mol
# GULP energy per Si atom -5571.040791 kJ/mol
# Density = 1.972236 g / cm^3
# Si number density = 19.767356 Si / 1000 Ang^3
#
#
#
# Elastic Constant Matrix: (Units=GPa)
#
#
# Indices 1 2 3 4 5 6 
#
# 1 98.7687 14.9969 19.1847 6.6549 15.0149 24.3170
# 2 14.9969 69.0515 27.0092 -25.6026 -0.1590 20.1274
# 3 19.1847 27.0092 27.9717 -8.6762 6.6432 21.2776
# 4 6.6549 -25.6026 -8.6762 26.9137 9.0120 -5.6653
# 5 15.0149 -0.1590 6.6432 9.0120 27.9939 5.6110
# 6 24.3170 20.1274 21.2776 -5.6653 5.6110 10.4680
#
#
#
# Elastic Compliance Matrix: (Units=1/GPa)
#
#
# Indices 1 2 3 4 5 6 
#
# 1 0.010898 -0.001967 -0.020277 -0.006651 -0.002383 0.017359
# 2 -0.001967 0.032978 -0.020934 0.025258 -0.001565 -0.001780
# 3 -0.020277 -0.020934 -0.000399 0.010371 -0.012641 0.100553
# 4 -0.006651 0.025258 0.010371 0.072647 -0.021461 -0.003376
# 5 -0.002383 -0.001565 -0.012641 -0.021461 0.047465 -0.002817
# 6 0.017359 -0.001780 0.100553 -0.003376 -0.002817 -0.146078
#
#
# Mechanical properties :
#
#
# Convention : Reuss Voigt Hill
#
# Bulk Modulus (GPa) = -23.32171 35.35261 6.01545
# Shear Modulus (GPa) = 55.81947 22.04854 38.93401
#
# Velocity S-wave (km/s) = 5.31973 3.34339 4.44284
# Velocity P-wave (km/s) = 5.09009 5.72953 5.41925
#
# Compressibility (1/GPa) = -0.04287850
#
# Stress axis : x y z
#
# Youngs Moduli (GPa) = 91.75582 30.32356 -2507.98248
#
# Poissons Ratio (x) = 0.05964 -50.85544
# Poissons Ratio (y) = 0.18047 -52.50117
# Poissons Ratio (z) = 1.86057 0.63478
#
# Static dielectric constant tensor:
#      x y z
#    x 1.709340 0.011940 -0.016260 
#    y 0.011940 1.721380 -0.000580 
#    z -0.016260 -0.000580 1.708620 
# 
# From -- ./inp_files/597408.got.cif
#   From: 2010.05.17/outbox.cif.g08.bks.cpg/sg2_299_cif.got.tgz:597408.got - 2010.06.03 11:33:40.
