data_PCOD9007998
_publ_section_title
;
Structure prediction by ZEFSAII (Michael W. Deem and Ramdas Pophale) SiO2 
 PCOD9007998
Probable space group: P -1
;
_chemical_formula_sum "Si O2"
_cell_formula_units_Z 16
_cell_length_a 9.901854
_cell_length_b 12.126367
_cell_length_c 18.488159
_cell_angle_alpha 26.985337
_cell_angle_beta 55.327441
_cell_angle_gamma 54.706215
_cell_volume 813.385082
_symmetry_space_group_name_H-M "P -1"
_symmetry_group_IT_number 2
_symmetry_cell_setting 'triclinic'
loop_
_space_group_symop_operation_xyz
x,y,z
-x,-y,-z
loop_
_atom_site_type_symbol
_atom_site_label
_atom_site_fract_x
_atom_site_fract_y
_atom_site_fract_z
Si Si1 0.710954 0.737546 0.611977
Si Si2 0.699928 0.689306 0.166638
Si Si3 0.681994 0.527195 0.900469
Si Si4 0.341586 0.712518 0.694365
Si Si5 0.352989 0.913294 0.180506
Si Si6 0.184658 0.371512 0.047188
Si Si7 0.974760 0.123246 0.012877
Si Si8 0.112943 0.638439 0.336068
O O1 0.682785 0.691248 0.732434
O O2 0.534557 0.733202 0.629214
O O3 0.834593 0.520267 0.659770
O O4 0.757754 0.007204 0.431454
O O5 0.691150 0.425216 0.288930
O O6 0.547520 0.796494 0.204685
O O7 0.660820 0.884954 0.997909
O O8 0.886322 0.703046 0.125876
O O9 0.786072 0.607647 0.888848
O O10 0.500000 0.500000 0.000000
O O11 0.787946 0.264398 0.997691
O O12 0.300773 0.537252 0.873935
O O13 0.246407 0.084608 0.173463
O O14 0.269261 0.693526 0.302928
O O15 0.000000 0.500000 0.000000
O O16 0.017759 0.909899 0.183929
O O17 0.000000 0.000000 0.000000
O O18 0.000000 0.500000 0.500000
#
# Coordination Sequence:
#
# PCOD9007998 Si02
#       8
#     2   2   2   2   2   2   2   2
#     4  11  23  40  64  97 131 171 214 272 331 391
#     4   9  18  37  63  88 121 168 217 265 311 391
#     4  12  25  42  65  99 133 171 216 269 334 393
#     4  10  21  39  63  93 128 170 217 266 328 387
#     4   9  19  35  65  88 117 167 215 262 317 379
#     4  11  23  40  64  95 129 170 224 268 320 393
#     4  11  24  41  65  94 127 169 221 271 328 384
#     4  11  23  40  66  96 127 165 221 269 327 383
#
# _framework density 19.670878999999999
#
# number of rings (size 3 to 8) (size 9 to 14) (size 15 to 20)
#    0.000    1.500    3.750    2.250    7.000    0.000 
#    0.000    3.750    0.000    1.500    0.000    0.000 
#    0.000    0.000    0.000    0.000    0.000    0.000 
#
# Total GULP energy -89228.754988 kJ/mol
# GULP energy per Si atom -5576.797187 kJ/mol
# Density = 1.962611 g / cm^3
# Si number density = 19.670879 Si / 1000 Ang^3
#
#
#
# Elastic Constant Matrix: (Units=GPa)
#
#
# Indices 1 2 3 4 5 6 
#
# 1 74.7786 38.1864 20.0897 -4.0635 -10.5371 5.3987
# 2 38.1864 126.4363 24.6131 -8.3370 -9.5135 5.9792
# 3 20.0897 24.6131 65.6948 -9.0815 -14.8824 7.6871
# 4 -4.0635 -8.3370 -9.0815 28.9672 6.0877 1.0017
# 5 -10.5371 -9.5135 -14.8824 6.0877 20.7197 0.3756
# 6 5.3987 5.9792 7.6871 1.0017 0.3756 38.0426
#
#
#
# Elastic Compliance Matrix: (Units=1/GPa)
#
#
# Indices 1 2 3 4 5 6 
#
# 1 0.016970 -0.004256 -0.002353 -0.000629 0.005194 -0.001299
# 2 -0.004256 0.009739 -0.001967 0.001512 0.000460 -0.000574
# 3 -0.002353 -0.001967 0.020143 0.003124 0.011516 -0.003623
# 4 -0.000629 0.001512 0.003124 0.037676 -0.008421 -0.001689
# 5 0.005194 0.000460 0.011516 -0.008421 0.061926 -0.003526
# 6 -0.001299 -0.000574 -0.003623 -0.001689 -0.003526 0.027372
#
#
# Mechanical properties :
#
#
# Convention : Reuss Voigt Hill
#
# Bulk Modulus (GPa) = 33.67056 48.07646 40.87351
# Shear Modulus (GPa) = 24.89064 29.81395 27.35229
#
# Velocity S-wave (km/s) = 3.56104 3.89734 3.73298
# Velocity P-wave (km/s) = 5.83628 6.68924 6.27726
#
# Compressibility (1/GPa) = 0.02969953
#
# Stress axis : x y z
#
# Youngs Moduli (GPa) = 58.92731 102.67987 49.64508
#
# Poissons Ratio (x) = 0.43706 0.11682
# Poissons Ratio (y) = 0.25082 0.09763
# Poissons Ratio (z) = 0.13866 0.20193
#
# Static dielectric constant tensor:
#      x y z
#    x 1.720620 -0.009150 -0.001770 
#    y -0.009150 1.745740 -0.011330 
#    z -0.001770 -0.011330 1.687500 
# 
# From -- ./inp_files/558820.got.cif
#   From: 2010.05.17/outbox.cif.g08.bks.cpg/sg2_280_cif.got.tgz:558820.got - 2010.06.03 11:33:40.
