data_PCOD9007862
_publ_section_title
;
Structure prediction by ZEFSAII (Michael W. Deem and Ramdas Pophale) SiO2 
 PCOD9007862
Probable space group: P -1
;
_chemical_formula_sum "Si O2"
_cell_formula_units_Z 16
_cell_length_a 12.293053
_cell_length_b 9.559985
_cell_length_c 6.859510
_cell_angle_alpha 95.262036
_cell_angle_beta 114.887921
_cell_angle_gamma 115.894504
_cell_volume 619.232274
_symmetry_space_group_name_H-M "P -1"
_symmetry_group_IT_number 2
_symmetry_cell_setting 'triclinic'
loop_
_space_group_symop_operation_xyz
x,y,z
-x,-y,-z
loop_
_atom_site_type_symbol
_atom_site_label
_atom_site_fract_x
_atom_site_fract_y
_atom_site_fract_z
Si Si1 0.022026 0.809051 0.660432
Si Si2 0.241938 0.844902 0.398715
Si Si3 0.205623 0.526864 0.454566
Si Si4 0.539706 0.732184 0.689205
Si Si5 0.978362 0.077894 0.744749
Si Si6 0.259777 0.400219 0.097683
Si Si7 0.668589 0.053169 0.096017
Si Si8 0.421946 0.773222 0.219615
O O1 0.896468 0.623069 0.503571
O O2 0.065452 0.917868 0.510984
O O3 0.166868 0.823734 0.826694
O O4 0.970891 0.909132 0.766531
O O5 0.161859 0.661081 0.410153
O O6 0.327808 0.954515 0.665500
O O7 0.340381 0.830791 0.312843
O O8 0.136858 0.893926 0.237107
O O9 0.375152 0.621810 0.616619
O O10 0.184077 0.434203 0.221900
O O11 0.619946 0.634338 0.748819
O O12 0.535739 0.784651 0.467530
O O13 0.617335 0.887061 0.913508
O O14 0.137150 0.231861 0.891874
O O15 0.337949 0.578272 0.075282
O O16 0.586010 0.139909 0.971950
#
# Coordination Sequence:
#
# PCOD9007862 Si02
#       8
#     2   2   2   2   2   2   2   2
#     4  10  23  39  60  96 122 161 211 256 306 374
#     4   9  23  40  60  98 128 157 207 267 303 371
#     4  10  23  39  63  90 126 157 208 262 302 368
#     4  10  21  45  62  89 128 166 206 258 306 373
#     4  10  21  39  63  88 131 159 203 259 316 364
#     4  10  21  39  67  86 126 167 202 257 315 364
#     4  11  22  40  69  90 127 168 205 257 318 362
#     4  10  23  38  66  94 123 165 213 251 312 376
#
# _framework density 25.838445
#
# number of rings (size 3 to 8) (size 9 to 14) (size 15 to 20)
#    0.000    2.250    1.250    1.875    5.250    5.500 
#    0.000    3.125    5.500    0.750    0.000    0.000 
#    0.000    0.000    0.000    0.000    0.000    0.000 
#
# Total GULP energy -89384.076089 kJ/mol
# GULP energy per Si atom -5586.504756 kJ/mol
# Density = 2.577964 g / cm^3
# Si number density = 25.838445 Si / 1000 Ang^3
#
#
#
# Elastic Constant Matrix: (Units=GPa)
#
#
# Indices 1 2 3 4 5 6 
#
# 1 53.4940 6.5522 23.8792 -18.2658 14.7066 -18.2597
# 2 6.5522 113.1355 52.3935 -5.3813 16.2533 -17.6251
# 3 23.8792 52.3935 118.4781 5.2657 15.0401 -2.5558
# 4 -18.2658 -5.3813 5.2657 45.1515 -0.2630 1.5867
# 5 14.7066 16.2533 15.0401 -0.2630 50.9394 -7.6416
# 6 -18.2597 -17.6251 -2.5558 1.5867 -7.6416 37.6374
#
#
#
# Elastic Compliance Matrix: (Units=1/GPa)
#
#
# Indices 1 2 3 4 5 6 
#
# 1 0.035393 0.006888 -0.009623 0.015600 -0.006840 0.017697
# 2 0.006888 0.013715 -0.007113 0.004936 -0.002968 0.008471
# 3 -0.009623 -0.007113 0.013654 -0.006093 -0.000039 -0.006823
# 4 0.015600 0.004936 -0.006093 0.029472 -0.002985 0.007617
# 5 -0.006840 -0.002968 -0.000039 -0.002985 0.022548 -0.000007
# 6 0.017697 0.008471 -0.006823 0.007617 -0.000007 0.038336
#
#
# Mechanical properties :
#
#
# Convention : Reuss Voigt Hill
#
# Bulk Modulus (GPa) = 23.22008 50.08417 36.65213
# Shear Modulus (GPa) = 26.71386 40.23118 33.47252
#
# Velocity S-wave (km/s) = 3.21889 3.95020 3.60315
# Velocity P-wave (km/s) = 4.77715 6.34280 5.61481
#
# Compressibility (1/GPa) = 0.04306617
#
# Stress axis : x y z
#
# Youngs Moduli (GPa) = 28.25418 72.91297 73.23874
#
# Poissons Ratio (x) = -0.50223 0.70476
# Poissons Ratio (y) = -0.19462 0.52096
# Poissons Ratio (z) = 0.27188 0.51864
#
# Static dielectric constant tensor:
#      x y z
#    x 2.287200 0.117370 -0.010970 
#    y 0.117370 2.068520 0.028670 
#    z -0.010970 0.028670 2.057030 
# 
# From -- ./inp_files/295873.got.cif
#   From: 2010.05.17/outbox.cif.g08.bks.cpg/sg2_148_cif.got.tgz:295873.got - 2010.06.03 11:33:40.
