data_PCOD9007725
_publ_section_title
;
Structure prediction by ZEFSAII (Michael W. Deem and Ramdas Pophale) SiO2 
 PCOD9007725
Probable space group: P -1
;
_chemical_formula_sum "Si O2"
_cell_formula_units_Z 14
_cell_length_a 5.638281
_cell_length_b 11.851138
_cell_length_c 9.305751
_cell_angle_alpha 86.589159
_cell_angle_beta 106.996515
_cell_angle_gamma 115.465434
_cell_volume 535.298220
_symmetry_space_group_name_H-M "P -1"
_symmetry_group_IT_number 2
_symmetry_cell_setting 'triclinic'
loop_
_space_group_symop_operation_xyz
x,y,z
-x,-y,-z
loop_
_atom_site_type_symbol
_atom_site_label
_atom_site_fract_x
_atom_site_fract_y
_atom_site_fract_z
Si Si1 0.333114 0.064377 0.048614
Si Si2 0.598364 0.696885 0.856550
Si Si3 0.129374 0.157684 0.376718
Si Si4 0.772449 0.493590 0.842485
Si Si5 0.268131 0.960502 0.342871
Si Si6 0.046512 0.642854 0.599045
Si Si7 0.705060 0.285663 0.644241
O O1 0.413760 0.211531 0.027192
O O2 0.406829 0.048566 0.226026
O O3 0.500000 0.000000 0.000000
O O4 0.000000 0.000000 0.000000
O O5 0.836500 0.787370 0.783447
O O6 0.635903 0.572135 0.894347
O O7 0.319907 0.655125 0.722915
O O8 0.421892 0.219746 0.508288
O O9 0.959137 0.221007 0.419592
O O10 0.045166 0.009580 0.353758
O O11 0.655598 0.353606 0.768381
O O12 0.825993 0.562613 0.686671
O O13 0.000000 0.500000 0.000000
O O14 0.191138 0.819726 0.291669
O O15 0.500000 0.000000 0.500000
O O16 0.070016 0.617842 0.435891
#
# Coordination Sequence:
#
# PCOD9007725 Si02
#       7
#     2   2   2   2   2   2   2
#     4  11  26  45  74 105 142 187 233 285 356 424
#     4   9  22  41  63  91 128 172 217 276 339 409
#     4   8  18  38  64  92 125 160 217 278 341 402
#     4  11  25  40  60  88 133 173 224 279 335 416
#     4   9  20  43  65 101 135 174 230 288 347 412
#     4  10  21  40  66  89 122 170 222 275 348 398
#     4  10  21  39  62  93 127 168 226 276 337 404
#
# _framework density 26.153645999999998
#
# number of rings (size 3 to 8) (size 9 to 14) (size 15 to 20)
#    0.000    2.286    0.000    1.286    8.000    7.429 
#    5.143    0.000    0.000    0.000    0.000    0.000 
#    0.000    0.000    0.000    0.000    0.000    0.000 
#
# Total GULP energy -78029.001624 kJ/mol
# GULP energy per Si atom -5573.500116 kJ/mol
# Density = 2.609412 g / cm^3
# Si number density = 26.153646 Si / 1000 Ang^3
#
#
#
# Elastic Constant Matrix: (Units=GPa)
#
#
# Indices 1 2 3 4 5 6 
#
# 1 86.4796 55.2538 32.7384 5.5363 -12.9226 -48.4482
# 2 55.2538 175.5217 60.0739 24.6138 -21.6323 -62.1110
# 3 32.7384 60.0739 100.5060 14.7314 -16.6626 -17.3101
# 4 5.5363 24.6138 14.7314 44.2366 -2.1776 -13.1984
# 5 -12.9226 -21.6323 -16.6626 -2.1776 41.3782 -1.2313
# 6 -48.4482 -62.1110 -17.3101 -13.1984 -1.2313 68.3154
#
#
#
# Elastic Compliance Matrix: (Units=1/GPa)
#
#
# Indices 1 2 3 4 5 6 
#
# 1 0.022702 0.000263 -0.004283 0.003530 0.006166 0.016047
# 2 0.000263 0.010931 -0.004112 -0.001911 0.004302 0.008791
# 3 -0.004283 -0.004112 0.013872 -0.002832 0.001837 -0.003775
# 4 0.003530 -0.001911 -0.002832 0.025691 0.000465 0.005020
# 5 0.006166 0.004302 0.001837 0.000465 0.029385 0.009369
# 6 0.016047 0.008791 -0.003775 0.005020 0.009369 0.034193
#
#
# Mechanical properties :
#
#
# Convention : Reuss Voigt Hill
#
# Bulk Modulus (GPa) = 32.01003 73.18214 52.59609
# Shear Modulus (GPa) = 30.58990 45.08212 37.83601
#
# Velocity S-wave (km/s) = 3.42368 4.15630 3.80765
# Velocity P-wave (km/s) = 5.28154 7.14671 6.28371
#
# Compressibility (1/GPa) = 0.03124021
#
# Stress axis : x y z
#
# Youngs Moduli (GPa) = 44.04827 91.48412 72.08745
#
# Poissons Ratio (x) = -0.02403 0.30878
# Poissons Ratio (y) = -0.01157 0.29640
# Poissons Ratio (z) = 0.18868 0.37616
#
# Static dielectric constant tensor:
#      x y z
#    x 2.128320 0.009350 -0.119090 
#    y 0.009350 2.240770 0.050800 
#    z -0.119090 0.050800 2.129170 
# 
# From -- ./inp_files/131850.got.cif
#   From: 2010.05.17/outbox.cif.g08.bks.cpg/sg2_66_cif.got.tgz:131850.got - 2010.06.03 11:33:40.
