data_PCOD9007990
_publ_section_title
;
Structure prediction by ZEFSAII (Michael W. Deem and Ramdas Pophale) SiO2 
 PCOD9007990
Probable space group: P -1
;
_chemical_formula_sum "Si O2"
_cell_formula_units_Z 12
_cell_length_a 10.616295
_cell_length_b 9.165995
_cell_length_c 8.070270
_cell_angle_alpha 62.788322
_cell_angle_beta 54.513550
_cell_angle_gamma 95.718483
_cell_volume 491.100720
_symmetry_space_group_name_H-M "P -1"
_symmetry_group_IT_number 2
_symmetry_cell_setting 'triclinic'
loop_
_space_group_symop_operation_xyz
x,y,z
-x,-y,-z
loop_
_atom_site_type_symbol
_atom_site_label
_atom_site_fract_x
_atom_site_fract_y
_atom_site_fract_z
Si Si1 0.435566 0.781427 0.181359
Si Si2 0.830284 0.794621 0.203143
Si Si3 0.532862 0.825628 0.577686
Si Si4 0.198800 0.534348 0.803017
Si Si5 0.158476 0.458347 0.372962
Si Si6 0.659822 0.701605 0.844927
O O1 0.307888 0.678383 0.490037
O O2 0.321104 0.672189 0.162147
O O3 0.601919 0.747083 0.039774
O O4 0.500000 0.000000 0.000000
O O5 0.656071 0.815371 0.343151
O O6 0.830000 0.671345 0.113371
O O7 0.826954 0.659158 0.423704
O O8 0.000000 0.000000 0.000000
O O9 0.337636 0.640746 0.791671
O O10 0.650541 0.841949 0.641902
O O11 0.500000 0.000000 0.500000
O O12 0.000000 0.500000 0.000000
O O13 0.168880 0.327109 0.287986
O O14 0.000000 0.500000 0.500000
O O15 0.500000 0.500000 0.000000
#
# Coordination Sequence:
#
# PCOD9007990 Si02
#       6
#     2   2   2   2   2   2
#     4  10  21  39  63  93 125 164 215 269 322 389
#     4  10  22  39  61  94 130 167 215 266 322 390
#     4  11  22  40  66  93 126 173 215 264 329 392
#     4  11  24  41  62  96 134 171 218 273 328 392
#     4   9  20  39  61  89 124 164 208 261 320 385
#     4   9  20  38  61  87 121 163 210 255 314 384
#
# _framework density 24.434906000000002
#
# number of rings (size 3 to 8) (size 9 to 14) (size 15 to 20)
#    0.000    2.000    0.000    3.500    0.000   10.667 
#    0.000    0.833    0.000    0.000    0.000    3.500 
#    0.000    0.000    0.000    0.000    0.000    0.000 
#
# Total GULP energy -66919.718478 kJ/mol
# GULP energy per Si atom -5576.643207 kJ/mol
# Density = 2.437929 g / cm^3
# Si number density = 24.434906 Si / 1000 Ang^3
#
#
#
# Elastic Constant Matrix: (Units=GPa)
#
#
# Indices 1 2 3 4 5 6 
#
# 1 107.2003 84.2041 53.9300 21.8480 -30.9137 -35.1045
# 2 84.2041 203.8901 82.3407 3.8922 -16.0846 -45.8649
# 3 53.9300 82.3407 104.6659 13.7639 -13.7408 -15.2734
# 4 21.8480 3.8922 13.7639 63.3049 -3.6886 -10.1620
# 5 -30.9137 -16.0846 -13.7408 -3.6886 45.0923 15.1415
# 6 -35.1045 -45.8649 -15.2734 -10.1620 15.1415 56.5074
#
#
#
# Elastic Compliance Matrix: (Units=1/GPa)
#
#
# Indices 1 2 3 4 5 6 
#
# 1 0.020182 -0.004929 -0.004123 -0.004568 0.009045 0.004177
# 2 -0.004929 0.009870 -0.005272 0.002845 -0.002843 0.004797
# 3 -0.004123 -0.005272 0.015769 -0.002142 0.001008 -0.003234
# 4 -0.004568 0.002845 -0.002142 0.017971 -0.002212 0.002717
# 5 0.009045 -0.002843 0.001008 -0.002212 0.029032 -0.004593
# 6 0.004177 0.004797 -0.003234 0.002717 -0.004593 0.025031
#
#
# Mechanical properties :
#
#
# Convention : Reuss Voigt Hill
#
# Bulk Modulus (GPa) = 58.23884 95.18954 76.71419
# Shear Modulus (GPa) = 32.84557 45.99969 39.42263
#
# Velocity S-wave (km/s) = 3.67032 4.34353 4.02104
# Velocity P-wave (km/s) = 6.46898 8.01224 7.28161
#
# Compressibility (1/GPa) = 0.01717067
#
# Stress axis : x y z
#
# Youngs Moduli (GPa) = 49.55015 101.31629 63.41722
#
# Poissons Ratio (x) = 0.49941 0.26149
# Poissons Ratio (y) = 0.24424 0.33436
# Poissons Ratio (z) = 0.20431 0.53417
#
# Static dielectric constant tensor:
#      x y z
#    x 2.105830 0.024880 -0.033920 
#    y 0.024880 1.972890 0.164250 
#    z -0.033920 0.164250 2.133810 
# 
# From -- ./inp_files/237433.got.cif
#   From: 2010.05.17/outbox.cif.g08.bks.cpg/sg2_119_cif.got.tgz:237433.got - 2010.06.03 11:33:40.
