data_PCOD9007726
_publ_section_title
;
Structure prediction by ZEFSAII (Michael W. Deem and Ramdas Pophale) SiO2 
 PCOD9007726
Probable space group: P -1
;
_chemical_formula_sum "Si O2"
_cell_formula_units_Z 16
_cell_length_a 21.004278
_cell_length_b 8.200157
_cell_length_c 5.283635
_cell_angle_alpha 57.513166
_cell_angle_beta 74.765782
_cell_angle_gamma 97.986766
_cell_volume 695.423590
_symmetry_space_group_name_H-M "P -1"
_symmetry_group_IT_number 2
_symmetry_cell_setting 'triclinic'
loop_
_space_group_symop_operation_xyz
x,y,z
-x,-y,-z
loop_
_atom_site_type_symbol
_atom_site_label
_atom_site_fract_x
_atom_site_fract_y
_atom_site_fract_z
Si Si1 0.154604 0.859187 0.019292
Si Si2 0.548287 0.873100 0.139523
Si Si3 0.069252 0.512432 0.064596
Si Si4 0.307023 0.967028 0.305206
Si Si5 0.015938 0.894950 0.317987
Si Si6 0.721872 0.747046 0.319028
Si Si7 0.409857 0.243516 0.310396
Si Si8 0.801401 0.431093 0.419919
O O1 0.108762 0.742119 0.929110
O O2 0.096370 0.901902 0.222866
O O3 0.182501 0.690289 0.258036
O O4 0.220277 0.067682 0.740611
O O5 0.627866 0.036305 0.934391
O O6 0.551988 0.716902 0.037258
O O7 0.500000 0.000000 0.000000
O O8 0.537980 0.773328 0.510731
O O9 0.038019 0.339486 0.450996
O O10 0.124933 0.452973 0.887166
O O11 0.000000 0.500000 0.000000
O O12 0.245109 0.754978 0.554088
O O13 0.348182 0.030175 0.472497
O O14 0.285808 0.144424 0.032335
O O15 0.000000 0.000000 0.500000
O O16 0.000000 0.000000 0.000000
O O17 0.643609 0.652271 0.603339
O O18 0.757062 0.575704 0.397530
#
# Coordination Sequence:
#
# PCOD9007726 Si02
#       8
#     2   2   2   2   2   2   2   2
#     4  11  25  42  66  92 126 162 223 273 334 406
#     4   9  17  33  66  99 130 175 216 257 320 377
#     4  12  25  44  65  91 132 167 222 285 343 398
#     4   8  20  37  61  93 131 164 218 263 317 387
#     4  12  27  45  69  94 126 167 214 274 344 407
#     4  10  21  39  62  93 127 169 215 273 330 387
#     4   9  18  36  60  92 133 166 216 261 310 377
#     4  11  23  42  67  94 123 173 218 274 337 396
#
# _framework density 23.007560000000002
#
# number of rings (size 3 to 8) (size 9 to 14) (size 15 to 20)
#    0.750    1.000    1.250    3.000    3.500    1.000 
#    0.000    0.000    0.000    3.750    0.000    0.000 
#    0.000    0.000    0.000    0.000    0.000    0.000 
#
# Total GULP energy -89217.146892 kJ/mol
# GULP energy per Si atom -5576.071681 kJ/mol
# Density = 2.295519 g / cm^3
# Si number density = 23.007560 Si / 1000 Ang^3
#
#
#
# Elastic Constant Matrix: (Units=GPa)
#
#
# Indices 1 2 3 4 5 6 
#
# 1 106.1171 41.8427 27.0152 -4.3485 35.8024 -12.3790
# 2 41.8427 85.4519 33.2623 9.9481 27.9063 -14.9803
# 3 27.0152 33.2623 72.2099 7.0316 22.1203 4.4265
# 4 -4.3485 9.9481 7.0316 35.9549 4.2801 6.6380
# 5 35.8024 27.9063 22.1203 4.2801 32.8018 -0.4634
# 6 -12.3790 -14.9803 4.4265 6.6380 -0.4634 36.0727
#
#
#
# Elastic Compliance Matrix: (Units=1/GPa)
#
#
# Indices 1 2 3 4 5 6 
#
# 1 0.016578 -0.002354 -0.000848 0.004011 -0.015988 0.003872
# 2 -0.002354 0.020672 -0.005472 -0.005404 -0.010490 0.009308
# 3 -0.000848 -0.005472 0.019325 -0.000572 -0.007446 -0.004925
# 4 0.004011 -0.005404 -0.000572 0.031562 -0.003607 -0.006652
# 5 -0.015988 -0.010490 -0.007446 -0.003607 0.062248 -0.007466
# 6 0.003872 0.009308 -0.004925 -0.006652 -0.007466 0.034648
#
#
# Mechanical properties :
#
#
# Convention : Reuss Voigt Hill
#
# Bulk Modulus (GPa) = 25.49318 52.00215 38.74766
# Shear Modulus (GPa) = 23.20633 31.74312 27.47472
#
# Velocity S-wave (km/s) = 3.17935 3.71844 3.45941
# Velocity P-wave (km/s) = 4.95804 6.40991 5.73014
#
# Compressibility (1/GPa) = 0.03922618
#
# Stress axis : x y z
#
# Youngs Moduli (GPa) = 60.32067 48.37432 51.74644
#
# Poissons Ratio (x) = 0.11389 0.04387
# Poissons Ratio (y) = 0.14202 0.28317
# Poissons Ratio (z) = 0.05114 0.26472
#
# Static dielectric constant tensor:
#      x y z
#    x 1.890440 -0.020620 -0.024020 
#    y -0.020620 1.980970 0.083050 
#    z -0.024020 0.083050 2.014240 
# 
# From -- ./inp_files/116534.got.cif
#   From: 2010.05.17/outbox.cif.g08.bks.cpg/sg2_59_cif.got.tgz:116534.got - 2010.06.03 11:33:40.
