data_PCOD9007721
_publ_section_title
;
Structure prediction by ZEFSAII (Michael W. Deem and Ramdas Pophale) SiO2 
 PCOD9007721
Probable space group: P -1
;
_chemical_formula_sum "Si O2"
_cell_formula_units_Z 16
_cell_length_a 17.919255
_cell_length_b 24.866410
_cell_length_c 12.864681
_cell_angle_alpha 25.916466
_cell_angle_beta 144.495913
_cell_angle_gamma 162.865881
_cell_volume 690.620985
_symmetry_space_group_name_H-M "P -1"
_symmetry_group_IT_number 2
_symmetry_cell_setting 'triclinic'
loop_
_space_group_symop_operation_xyz
x,y,z
-x,-y,-z
loop_
_atom_site_type_symbol
_atom_site_label
_atom_site_fract_x
_atom_site_fract_y
_atom_site_fract_z
Si Si1 0.770589 0.690370 0.754378
Si Si2 0.204609 0.505483 0.742979
Si Si3 0.237971 0.769485 0.440445
Si Si4 0.771066 0.656807 0.574714
Si Si5 0.188506 0.066789 0.160734
Si Si6 0.941773 0.653886 0.472134
Si Si7 0.481112 0.600775 0.725365
Si Si8 0.259747 0.629426 0.061964
O O1 0.832370 0.744758 0.609116
O O2 0.718717 0.775196 0.608071
O O3 0.912386 0.713804 0.951351
O O4 0.472361 0.371422 0.968377
O O5 0.299036 0.682063 0.629265
O O6 0.444306 0.679432 0.629543
O O7 0.964467 0.355185 0.662157
O O8 0.081279 0.658077 0.564164
O O9 0.491921 0.072905 0.197539
O O10 0.500000 0.500000 0.500000
O O11 0.742066 0.485460 0.821675
O O12 0.026927 0.909275 0.356974
O O13 0.167894 0.924994 0.316146
O O14 0.000000 0.000000 0.000000
O O15 0.783027 0.601009 0.297330
O O16 0.736454 0.435120 0.708697
O O17 0.500000 0.500000 0.000000
O O18 0.000000 0.500000 0.000000
#
# Coordination Sequence:
#
# PCOD9007721 Si02
#       8
#     2   2   2   2   2   2   2   2
#     4  11  20  37  63  89 127 159 206 262 313 376
#     4   9  22  39  65  90 116 173 216 256 307 371
#     4  10  22  44  64  85 127 166 214 255 310 376
#     4  11  23  38  61  98 129 162 212 254 322 386
#     4  11  20  35  61  96 124 164 194 261 328 366
#     4  10  21  39  62  93 126 164 207 254 323 374
#     4   9  18  38  62  89 122 160 211 261 308 370
#     4  11  26  41  63  98 131 164 207 263 323 384
#
# _framework density 23.167555
#
# number of rings (size 3 to 8) (size 9 to 14) (size 15 to 20)
#    0.000    1.750    2.500    1.500    5.250    0.500 
#    0.000    9.375    0.000    6.750    0.000    0.000 
#    0.000    0.000    0.000    0.000    0.000    0.000 
#
# Total GULP energy -89383.239843 kJ/mol
# GULP energy per Si atom -5586.452490 kJ/mol
# Density = 2.311482 g / cm^3
# Si number density = 23.167555 Si / 1000 Ang^3
#
#
#
# Elastic Constant Matrix: (Units=GPa)
#
#
# Indices 1 2 3 4 5 6 
#
# 1 205.7504 23.7075 31.4821 10.0345 6.1755 -19.8154
# 2 23.7075 70.5552 5.5262 12.7847 4.5788 -7.9586
# 3 31.4821 5.5262 59.3748 4.3844 3.4626 -11.4560
# 4 10.0345 12.7847 4.3844 30.5036 -0.6275 0.9140
# 5 6.1755 4.5788 3.4626 -0.6275 42.7664 12.4457
# 6 -19.8154 -7.9586 -11.4560 0.9140 12.4457 24.3612
#
#
#
# Elastic Compliance Matrix: (Units=1/GPa)
#
#
# Indices 1 2 3 4 5 6 
#
# 1 0.005827 -0.000901 -0.001897 -0.001445 -0.001953 0.004605
# 2 -0.000901 0.016830 0.001169 -0.007240 -0.004109 0.007686
# 3 -0.001897 0.001169 0.020367 -0.003219 -0.004736 0.010957
# 4 -0.001445 -0.007240 -0.003219 0.037103 0.004305 -0.008645
# 5 -0.001953 -0.004109 -0.004736 0.004305 0.030657 -0.020982
# 6 0.004605 0.007686 0.010957 -0.008645 -0.020982 0.063502
#
#
# Mechanical properties :
#
#
# Convention : Reuss Voigt Hill
#
# Bulk Modulus (GPa) = 25.14749 50.79024 37.96886
# Shear Modulus (GPa) = 26.20540 37.85720 32.03130
#
# Velocity S-wave (km/s) = 3.36687 4.04674 3.72236
# Velocity P-wave (km/s) = 5.09829 6.61856 5.90754
#
# Compressibility (1/GPa) = 0.03976540
#
# Stress axis : x y z
#
# Youngs Moduli (GPa) = 171.61828 59.41702 49.09880
#
# Poissons Ratio (x) = 0.05356 0.09312
# Poissons Ratio (y) = 0.15471 -0.05738
# Poissons Ratio (z) = 0.32550 -0.06944
#
# Static dielectric constant tensor:
#      x y z
#    x 1.911070 0.007920 0.022800 
#    y 0.007920 1.911590 -0.014260 
#    z 0.022800 -0.014260 1.915950 
# 
# From -- ./inp_files/467333.got.cif
#   From: 2010.05.17/outbox.cif.g08.bks.cpg/sg2_234_cif.got.tgz:467333.got - 2010.06.03 11:33:40.
