data_PCOD9007023
_publ_section_title
;
Structure prediction by ZEFSAII (Michael W. Deem and Ramdas Pophale) SiO2 
 PCOD9007023
Probable space group: P -1
;
_chemical_formula_sum "Si O2"
_cell_formula_units_Z 14
_cell_length_a 9.224803
_cell_length_b 27.052623
_cell_length_c 21.917597
_cell_angle_alpha 168.918986
_cell_angle_beta 40.357731
_cell_angle_gamma 141.659650
_cell_volume 650.761216
_symmetry_space_group_name_H-M "P -1"
_symmetry_group_IT_number 2
_symmetry_cell_setting 'triclinic'
loop_
_space_group_symop_operation_xyz
x,y,z
-x,-y,-z
loop_
_atom_site_type_symbol
_atom_site_label
_atom_site_fract_x
_atom_site_fract_y
_atom_site_fract_z
Si Si1 0.803849 0.944448 0.669654
Si Si2 0.664519 0.822680 0.427451
Si Si3 0.547435 0.174334 0.135576
Si Si4 0.158022 0.649040 0.211478
Si Si5 0.763599 0.547855 0.830690
Si Si6 0.461095 0.858310 0.249808
Si Si7 0.891009 0.727208 0.668588
O O1 0.708798 0.903822 0.582355
O O2 0.907893 0.703214 0.364337
O O3 0.633558 0.020480 0.865659
O O4 0.037135 0.196937 0.900083
O O5 0.417160 0.588375 0.224364
O O6 0.637654 0.059293 0.680493
O O7 0.838648 0.655275 0.147330
O O8 0.750214 0.456743 0.422482
O O9 0.307974 0.234463 0.266437
O O10 0.500000 0.000000 0.000000
O O11 0.355249 0.864086 0.448186
O O12 0.744402 0.262150 0.780946
O O13 0.894119 0.341919 0.516037
O O14 0.617079 0.651108 0.950689
O O15 0.000000 0.000000 0.000000
#
# Coordination Sequence:
#
# PCOD9007023 Si02
#       7
#     2   2   2   2   2   2   2
#     4  10  21  39  59  85 122 157 198 251 303 362
#     4  11  20  36  62  88 118 159 199 241 298 362
#     4  10  23  43  64  91 125 162 208 261 313 369
#     4   9  19  36  55  86 125 155 195 245 294 360
#     4   9  21  39  57  84 120 154 195 248 302 362
#     4   9  19  36  58  85 120 158 198 242 293 361
#     4  10  21  41  64  89 121 158 206 261 312 367
#
# _framework density 21.513266999999999
#
# number of rings (size 3 to 8) (size 9 to 14) (size 15 to 20)
#    0.000    2.286    0.000    2.571    0.000    4.571 
#    0.000   24.286    0.000    0.000    0.000    0.000 
#    0.000    0.000    0.000    0.000    0.000    0.000 
#
# Total GULP energy -78234.779344 kJ/mol
# GULP energy per Si atom -5588.198525 kJ/mol
# Density = 2.146430 g / cm^3
# Si number density = 21.513267 Si / 1000 Ang^3
#
#
#
# Elastic Constant Matrix: (Units=GPa)
#
#
# Indices 1 2 3 4 5 6 
#
# 1 88.9818 48.5342 48.6110 -1.5861 -18.7570 -6.2799
# 2 48.5342 62.0900 33.4737 -13.9552 -23.0724 8.5621
# 3 48.6110 33.4737 123.2467 -26.3091 -17.2730 1.0721
# 4 -1.5861 -13.9552 -26.3091 32.7611 5.4853 -11.8030
# 5 -18.7570 -23.0724 -17.2730 5.4853 38.5927 0.4898
# 6 -6.2799 8.5621 1.0721 -11.8030 0.4898 24.1218
#
#
#
# Elastic Compliance Matrix: (Units=1/GPa)
#
#
# Indices 1 2 3 4 5 6 
#
# 1 0.027149 -0.021538 -0.007250 -0.009678 -0.001682 0.010334
# 2 -0.021538 0.041810 0.001303 0.009700 0.013936 -0.016042
# 3 -0.007250 0.001303 0.013283 0.011589 0.001519 0.002700
# 4 -0.009678 0.009700 0.011589 0.050199 -0.001082 0.018107
# 5 -0.001682 0.013936 0.001519 -0.001082 0.034344 -0.006679
# 6 0.010334 -0.016042 0.002700 0.018107 -0.006679 0.058717
#
#
# Mechanical properties :
#
#
# Convention : Reuss Voigt Hill
#
# Bulk Modulus (GPa) = 36.66843 59.50626 48.08735
# Shear Modulus (GPa) = 17.26743 28.67508 22.97125
#
# Velocity S-wave (km/s) = 2.83617 3.65485 3.27122
# Velocity P-wave (km/s) = 5.27320 6.74766 6.05548
#
# Compressibility (1/GPa) = 0.02727142
#
# Stress axis : x y z
#
# Youngs Moduli (GPa) = 36.83372 23.91760 75.28613
#
# Poissons Ratio (x) = 0.51515 0.54581
# Poissons Ratio (y) = 0.79334 -0.09810
# Poissons Ratio (z) = 0.26704 -0.03116
#
# Static dielectric constant tensor:
#      x y z
#    x 1.795370 0.057320 0.021260 
#    y 0.057320 1.809850 -0.006260 
#    z 0.021260 -0.006260 1.872150 
# 
# From -- ./inp_files/608848.got.cif
#   From: 2010.05.17/outbox.cif.g08.bks.cpg/sg2_305_cif.got.tgz:608848.got - 2010.06.03 11:33:40.
