data_PCOD9007468
_publ_section_title
;
Structure prediction by ZEFSAII (Michael W. Deem and Ramdas Pophale) SiO2 
 PCOD9007468
Probable space group: P -1
;
_chemical_formula_sum "Si O2"
_cell_formula_units_Z 14
_cell_length_a 11.909519
_cell_length_b 6.022830
_cell_length_c 11.918419
_cell_angle_alpha 113.951419
_cell_angle_beta 56.185763
_cell_angle_gamma 103.767818
_cell_volume 649.042559
_symmetry_space_group_name_H-M "P -1"
_symmetry_group_IT_number 2
_symmetry_cell_setting 'triclinic'
loop_
_space_group_symop_operation_xyz
x,y,z
-x,-y,-z
loop_
_atom_site_type_symbol
_atom_site_label
_atom_site_fract_x
_atom_site_fract_y
_atom_site_fract_z
Si Si1 0.787075 0.424821 0.163964
Si Si2 0.422725 0.447389 0.880911
Si Si3 0.548343 0.126434 0.887383
Si Si4 0.970465 0.256334 0.627166
Si Si5 0.987624 0.149027 0.850508
Si Si6 0.830905 0.306606 0.357499
Si Si7 0.711102 0.277919 0.650282
O O1 0.666701 0.499772 0.164775
O O2 0.751752 0.349802 0.294911
O O3 0.890484 0.655420 0.159009
O O4 0.871214 0.210295 0.015295
O O5 0.419976 0.186751 0.891679
O O6 0.582409 0.455471 0.760012
O O7 0.391823 0.629516 0.036622
O O8 0.659589 0.060860 0.719023
O O9 0.500000 0.000000 0.000000
O O10 0.935520 0.199422 0.764154
O O11 0.847843 0.373940 0.651175
O O12 0.097832 0.439503 0.595114
O O13 0.000000 0.000000 0.500000
O O14 0.049997 0.883803 0.770659
O O15 0.744644 0.209253 0.490683
#
# Coordination Sequence:
#
# PCOD9007468 Si02
#       7
#     2   2   2   2   2   2   2
#     4  10  22  42  63  88 132 176 220 261 315 386
#     4   9  21  41  60  92 127 163 220 259 317 397
#     4   9  20  40  61  90 124 166 209 264 323 377
#     4  11  22  39  64  95 130 168 213 270 327 382
#     4  10  22  40  63  92 125 172 227 266 311 384
#     4  11  23  40  63  97 131 172 215 266 325 376
#     4  10  21  39  61  95 129 158 215 265 321 388
#
# _framework density 21.570236000000001
#
# number of rings (size 3 to 8) (size 9 to 14) (size 15 to 20)
#    0.857    1.143    1.429    1.714    0.000    2.857 
#    2.571    0.714    0.000    0.000    0.000    0.000 
#    0.000    0.000    0.000    0.000    0.000    0.000 
#
# Total GULP energy -77970.624892 kJ/mol
# GULP energy per Si atom -5569.330349 kJ/mol
# Density = 2.152114 g / cm^3
# Si number density = 21.570236 Si / 1000 Ang^3
#
#
#
# Elastic Constant Matrix: (Units=GPa)
#
#
# Indices 1 2 3 4 5 6 
#
# 1 145.6807 14.1313 66.9453 -13.2359 23.5153 -38.8884
# 2 14.1313 56.8172 44.7026 -14.9667 9.5490 -11.9340
# 3 66.9453 44.7026 138.9067 -23.9423 18.5863 -10.1165
# 4 -13.2359 -14.9667 -23.9423 48.7390 -13.0684 11.9429
# 5 23.5153 9.5490 18.5863 -13.0684 31.7228 -10.3076
# 6 -38.8884 -11.9340 -10.1165 11.9429 -10.3076 23.8382
#
#
#
# Elastic Compliance Matrix: (Units=1/GPa)
#
#
# Indices 1 2 3 4 5 6 
#
# 1 0.020337 0.009945 -0.011155 -0.006287 -0.002606 0.035444
# 2 0.009945 0.030588 -0.012748 -0.000829 -0.000963 0.026126
# 3 -0.011155 -0.012748 0.016395 0.005805 -0.002070 -0.021426
# 4 -0.006287 -0.000829 0.005805 0.027944 0.006754 -0.019288
# 5 -0.002606 -0.000963 -0.002070 0.006754 0.040508 0.008520
# 6 0.035444 0.026126 -0.021426 -0.019288 0.008520 0.117106
#
#
# Mechanical properties :
#
#
# Convention : Reuss Voigt Hill
#
# Bulk Modulus (GPa) = 25.37836 65.88477 45.63156
# Shear Modulus (GPa) = 17.01095 35.23503 26.12299
#
# Velocity S-wave (km/s) = 2.81130 4.04605 3.48381
# Velocity P-wave (km/s) = 4.72535 7.24140 6.11420
#
# Compressibility (1/GPa) = 0.03940365
#
# Stress axis : x y z
#
# Youngs Moduli (GPa) = 49.17141 32.69275 60.99430
#
# Poissons Ratio (x) = -0.32514 0.68042
# Poissons Ratio (y) = -0.48903 0.77756
# Poissons Ratio (z) = 0.54853 0.41677
#
# Static dielectric constant tensor:
#      x y z
#    x 1.794340 -0.009540 -0.017110 
#    y -0.009540 1.946620 -0.037290 
#    z -0.017110 -0.037290 1.784500 
# 
# From -- ./inp_files/411019.got.cif
#   From: 2010.05.17/outbox.cif.g08.bks.cpg/sg2_206_cif.got.tgz:411019.got - 2010.06.03 11:33:40.
