data_PCOD9007466
_publ_section_title
;
Structure prediction by ZEFSAII (Michael W. Deem and Ramdas Pophale) SiO2 
 PCOD9007466
Probable space group: P -1
;
_chemical_formula_sum "Si O2"
_cell_formula_units_Z 16
_cell_length_a 6.089411
_cell_length_b 11.666879
_cell_length_c 20.236122
_cell_angle_alpha 41.233337
_cell_angle_beta 61.391714
_cell_angle_gamma 51.736893
_cell_volume 743.795913
_symmetry_space_group_name_H-M "P -1"
_symmetry_group_IT_number 2
_symmetry_cell_setting 'triclinic'
loop_
_space_group_symop_operation_xyz
x,y,z
-x,-y,-z
loop_
_atom_site_type_symbol
_atom_site_label
_atom_site_fract_x
_atom_site_fract_y
_atom_site_fract_z
Si Si1 0.109549 0.925080 0.778407
Si Si2 0.171872 0.123572 0.913567
Si Si3 0.183507 0.549780 0.851707
Si Si4 0.276747 0.179615 0.296874
Si Si5 0.241576 0.492032 0.268365
Si Si6 0.766655 0.843543 0.956247
Si Si7 0.097683 0.486900 0.567241
Si Si8 0.266929 0.823951 0.393445
O O1 0.159408 0.718962 0.830590
O O2 0.408373 0.919957 0.733060
O O3 0.986769 0.921236 0.869205
O O4 0.887926 0.084808 0.692769
O O5 0.997158 0.322310 0.814663
O O6 0.477673 0.986568 0.901000
O O7 0.238024 0.163307 0.961057
O O8 0.000000 0.000000 0.000000
O O9 0.468834 0.495843 0.792428
O O10 0.921952 0.648152 0.797639
O O11 0.184439 0.373982 0.969622
O O12 0.270964 0.290644 0.317808
O O13 0.191988 0.003364 0.377640
O O14 0.138930 0.510299 0.350423
O O15 0.153005 0.671424 0.497388
O O16 0.399988 0.300613 0.610698
O O17 0.000000 0.500000 0.500000
#
# Coordination Sequence:
#
# PCOD9007466 Si02
#       8
#     2   2   2   2   2   2   2   2
#     4  10  22  39  66  90 131 168 208 265 310 374
#     4  11  23  38  60  92 131 170 214 257 318 377
#     4  10  21  39  61  95 127 168 216 252 317 380
#     4  10  22  43  64  93 134 171 216 261 325 374
#     4  11  23  43  66  93 133 171 207 275 321 382
#     4  11  22  38  60  94 128 171 217 255 307 380
#     4  11  25  44  71  98 126 162 216 267 332 389
#     4  10  23  45  66  99 126 163 220 263 321 394
#
# _framework density 21.511279999999999
#
# number of rings (size 3 to 8) (size 9 to 14) (size 15 to 20)
#    0.000    1.500    2.500    1.875    0.000    7.000 
#    0.000    8.750    0.000    0.000    0.000    0.000 
#    0.000    0.000    0.000    0.000    0.000    0.000 
#
# Total GULP energy -89330.786233 kJ/mol
# GULP energy per Si atom -5583.174140 kJ/mol
# Density = 2.146232 g / cm^3
# Si number density = 21.511280 Si / 1000 Ang^3
#
#
#
# Elastic Constant Matrix: (Units=GPa)
#
#
# Indices 1 2 3 4 5 6 
#
# 1 84.1866 31.3997 29.4423 -5.3037 10.1912 -19.2975
# 2 31.3997 71.1285 59.0888 -10.1139 7.3694 -15.3831
# 3 29.4423 59.0888 91.2764 -7.4092 6.3527 -8.9466
# 4 -5.3037 -10.1139 -7.4092 41.5636 2.2360 -2.4263
# 5 10.1912 7.3694 6.3527 2.2360 24.0153 -14.1495
# 6 -19.2975 -15.3831 -8.9466 -2.4263 -14.1495 35.9840
#
#
#
# Elastic Compliance Matrix: (Units=1/GPa)
#
#
# Indices 1 2 3 4 5 6 
#
# 1 0.015491 -0.003811 -0.001763 0.001157 -0.001722 0.005641
# 2 -0.003811 0.035049 -0.020283 0.004882 0.000806 0.008543
# 3 -0.001763 -0.020283 0.024278 -0.000985 -0.001961 -0.004418
# 4 0.001157 0.004882 -0.000985 0.025530 -0.002135 0.003345
# 5 -0.001722 0.000806 -0.001961 -0.002135 0.054831 0.020350
# 6 0.005641 0.008543 -0.004418 0.003345 0.020350 0.041596
#
#
# Mechanical properties :
#
#
# Convention : Reuss Voigt Hill
#
# Bulk Modulus (GPa) = 43.28096 54.05035 48.66565
# Shear Modulus (GPa) = 19.51675 28.75663 24.13669
#
# Velocity S-wave (km/s) = 3.01538 3.66022 3.35333
# Velocity P-wave (km/s) = 5.68218 6.56079 6.13723
#
# Compressibility (1/GPa) = 0.02310485
#
# Stress axis : x y z
#
# Youngs Moduli (GPa) = 64.55503 28.53126 41.18922
#
# Poissons Ratio (x) = 0.10873 0.07262
# Poissons Ratio (y) = 0.24601 0.83543
# Poissons Ratio (z) = 0.11381 0.57869
#
# Static dielectric constant tensor:
#      x y z
#    x 1.783370 0.021030 -0.034740 
#    y 0.021030 1.882050 -0.017020 
#    z -0.034740 -0.017020 1.758360 
# 
# From -- ./inp_files/93079.got.cif
#   From: 2010.05.17/outbox.cif.g08.bks.cpg/sg2_47_cif.got.tgz:93079.got - 2010.06.03 11:33:40.
