data_PCOD9007277
_publ_section_title
;
Structure prediction by ZEFSAII (Michael W. Deem and Ramdas Pophale) SiO2 
 PCOD9007277
Probable space group: P -1
;
_chemical_formula_sum "Si O2"
_cell_formula_units_Z 12
_cell_length_a 16.763141
_cell_length_b 5.021603
_cell_length_c 14.781024
_cell_angle_alpha 73.636964
_cell_angle_beta 154.435443
_cell_angle_gamma 93.747303
_cell_volume 458.507987
_symmetry_space_group_name_H-M "P -1"
_symmetry_group_IT_number 2
_symmetry_cell_setting 'triclinic'
loop_
_space_group_symop_operation_xyz
x,y,z
-x,-y,-z
loop_
_atom_site_type_symbol
_atom_site_label
_atom_site_fract_x
_atom_site_fract_y
_atom_site_fract_z
Si Si1 0.065215 0.711642 0.951161
Si Si2 0.767255 0.842755 0.970364
Si Si3 0.744935 0.338980 0.119739
Si Si4 0.816248 0.235571 0.411547
Si Si5 0.403013 0.150885 0.788809
Si Si6 0.639402 0.785452 0.581291
O O1 0.834938 0.836000 0.743403
O O2 0.127540 0.414303 0.977867
O O3 0.237396 0.569766 0.221608
O O4 0.096513 0.973749 0.904796
O O5 0.534007 0.109161 0.683220
O O6 0.748818 0.637211 0.051639
O O7 0.733142 0.368651 0.213327
O O8 0.564729 0.262103 0.905045
O O9 0.956529 0.033439 0.345571
O O10 0.795700 0.523167 0.422225
O O11 0.675951 0.073426 0.317751
O O12 0.500000 0.000000 0.000000
O O13 0.500000 0.000000 0.500000
#
# Coordination Sequence:
#
# PCOD9007277 Si02
#       6
#     2   2   2   2   2   2
#     4  10  23  41  62  90 121 152 193 242 295 355
#     4  11  24  38  60  92 121 154 196 243 294 351
#     4  10  23  39  60  86 121 159 199 244 297 347
#     4  10  23  39  59  85 118 160 203 247 291 343
#     4  10  21  39  61  85 113 156 207 247 290 346
#     4   9  21  42  66  88 118 156 194 238 295 355
#
# _framework density 26.171848000000001
#
# number of rings (size 3 to 8) (size 9 to 14) (size 15 to 20)
#    0.000    2.000    0.000    2.500    0.000   24.000 
#    0.000    0.000    0.000    0.000    0.000    0.000 
#    0.000    0.000    0.000    0.000    0.000    0.000 
#
# Total GULP energy -67242.332662 kJ/mol
# GULP energy per Si atom -5603.527722 kJ/mol
# Density = 2.611228 g / cm^3
# Si number density = 26.171848 Si / 1000 Ang^3
#
#
#
# Elastic Constant Matrix: (Units=GPa)
#
#
# Indices 1 2 3 4 5 6 
#
# 1 93.8678 60.3879 55.5884 3.7859 10.6273 25.4423
# 2 60.3879 136.0390 28.9858 -2.5116 13.5348 15.4760
# 3 55.5884 28.9858 109.6711 -0.5877 36.9690 12.6814
# 4 3.7859 -2.5116 -0.5877 32.3300 5.5785 6.1765
# 5 10.6273 13.5348 36.9690 5.5785 43.3981 1.4881
# 6 25.4423 15.4760 12.6814 6.1765 1.4881 52.4821
#
#
#
# Elastic Compliance Matrix: (Units=1/GPa)
#
#
# Indices 1 2 3 4 5 6 
#
# 1 0.023826 -0.008193 -0.011723 -0.003757 0.007398 -0.006069
# 2 -0.008193 0.010874 0.002631 0.002545 -0.003952 -0.000058
# 3 -0.011723 0.002631 0.019476 0.004523 -0.015126 0.000098
# 4 -0.003757 0.002545 0.004523 0.033740 -0.007934 -0.003768
# 5 0.007398 -0.003952 -0.015126 -0.007934 0.036329 0.001137
# 6 -0.006069 -0.000058 0.000098 -0.003768 0.001137 0.022401
#
#
# Mechanical properties :
#
#
# Convention : Reuss Voigt Hill
#
# Bulk Modulus (GPa) = 51.00581 69.94469 60.47525
# Shear Modulus (GPa) = 26.63096 38.61643 32.62370
#
# Velocity S-wave (km/s) = 3.19335 3.84538 3.53444
# Velocity P-wave (km/s) = 5.75568 6.81903 6.30979
#
# Compressibility (1/GPa) = 0.01960561
#
# Stress axis : x y z
#
# Youngs Moduli (GPa) = 41.97145 91.96286 51.34413
#
# Poissons Ratio (x) = 0.75349 0.60192
# Poissons Ratio (y) = 0.34389 -0.13511
# Poissons Ratio (z) = 0.49204 -0.24199
#
# Static dielectric constant tensor:
#      x y z
#    x 2.151510 -0.017060 -0.044960 
#    y -0.017060 1.989450 0.026320 
#    z -0.044960 0.026320 2.090590 
# 
# From -- ./inp_files/600737.got.cif
#   From: 2010.05.17/outbox.cif.g08.bks.cpg/sg2_301_cif.got.tgz:600737.got - 2010.06.03 11:33:40.
