data_PCOD9007010
_publ_section_title
;
Structure prediction by ZEFSAII (Michael W. Deem and Ramdas Pophale) SiO2 
 PCOD9007010
Probable space group: P -1
;
_chemical_formula_sum "Si O2"
_cell_formula_units_Z 16
_cell_length_a 10.503197
_cell_length_b 10.249364
_cell_length_c 10.124930
_cell_angle_alpha 71.754662
_cell_angle_beta 133.012044
_cell_angle_gamma 86.875279
_cell_volume 698.247070
_symmetry_space_group_name_H-M "P -1"
_symmetry_group_IT_number 2
_symmetry_cell_setting 'triclinic'
loop_
_space_group_symop_operation_xyz
x,y,z
-x,-y,-z
loop_
_atom_site_type_symbol
_atom_site_label
_atom_site_fract_x
_atom_site_fract_y
_atom_site_fract_z
Si Si1 0.887574 0.409800 0.211910
Si Si2 0.670198 0.139085 0.810179
Si Si3 0.642178 0.254579 0.483052
Si Si4 0.155313 0.035294 0.773657
Si Si5 0.286014 0.238248 0.647560
Si Si6 0.864026 0.446091 0.610184
Si Si7 0.744023 0.193538 0.305380
Si Si8 0.715037 0.450903 0.792731
O O1 0.751974 0.349420 0.214565
O O2 0.095155 0.275559 0.413298
O O3 0.932436 0.544914 0.263988
O O4 0.828358 0.438740 0.010705
O O5 0.678348 0.130873 0.660187
O O6 0.471021 0.148745 0.724312
O O7 0.684455 0.297441 0.802799
O O8 0.827234 0.015013 0.046981
O O9 0.819827 0.305987 0.582628
O O10 0.601327 0.216859 0.318304
O O11 0.475064 0.403289 0.370834
O O12 0.273923 0.892165 0.811020
O O13 0.249317 0.153231 0.772646
O O14 0.945152 0.093118 0.547269
O O15 0.275287 0.405313 0.610144
O O16 0.816150 0.468723 0.724899
#
# Coordination Sequence:
#
# PCOD9007010 Si02
#       8
#     2   2   2   2   2   2   2   2
#     4   9  18  33  53  82 110 146 180 215 271 325
#     4  11  19  36  61  85 106 147 182 229 273 323
#     4  11  21  35  58  84 119 135 181 231 278 326
#     4  10  21  39  59  76 109 147 200 213 267 332
#     4   9  18  35  58  83 105 148 183 230 261 327
#     4   9  18  33  55  86 108 144 173 226 278 321
#     4  10  22  38  55  83 108 153 180 231 269 317
#     4  11  17  33  59  85 114 141 182 221 278 336
#
# _framework density 22.914525000000001
#
# number of rings (size 3 to 8) (size 9 to 14) (size 15 to 20)
#    0.750    1.250    3.750    1.500    0.000    1.500 
#    0.000    0.625    2.750    0.000    0.000    0.000 
#    0.000    0.000    0.000    0.000    0.000    0.000 
#
# Total GULP energy -89274.107391 kJ/mol
# GULP energy per Si atom -5579.631712 kJ/mol
# Density = 2.286237 g / cm^3
# Si number density = 22.914525 Si / 1000 Ang^3
#
#
#
# Elastic Constant Matrix: (Units=GPa)
#
#
# Indices 1 2 3 4 5 6 
#
# 1 46.0288 20.7197 21.9868 -7.0248 -23.4722 4.5176
# 2 20.7197 34.0075 24.5491 -2.7805 -17.7417 -7.0778
# 3 21.9868 24.5491 78.9011 -12.8303 -19.7988 4.6781
# 4 -7.0248 -2.7805 -12.8303 24.2225 6.6147 -12.2032
# 5 -23.4722 -17.7417 -19.7988 6.6147 35.9333 2.3330
# 6 4.5176 -7.0778 4.6781 -12.2032 2.3330 20.5573
#
#
#
# Elastic Compliance Matrix: (Units=1/GPa)
#
#
# Indices 1 2 3 4 5 6 
#
# 1 0.042655 -0.020607 -0.000163 -0.007290 0.020439 -0.023078
# 2 -0.020607 0.062063 -0.012371 0.009941 0.006335 0.033894
# 3 -0.000163 -0.012371 0.018537 0.004124 0.003656 -0.006408
# 4 -0.007290 0.009941 0.004124 0.069931 -0.013514 0.047132
# 5 0.020439 0.006335 0.003656 -0.013514 0.049903 -0.016828
# 6 -0.023078 0.033894 -0.006408 0.047132 -0.016828 0.096732
#
#
# Mechanical properties :
#
#
# Convention : Reuss Voigt Hill
#
# Bulk Modulus (GPa) = 17.55242 32.60541 25.07891
# Shear Modulus (GPa) = 11.76214 22.25473 17.00844
#
# Velocity S-wave (km/s) = 2.26808 3.11980 2.72739
# Velocity P-wave (km/s) = 3.81255 5.21896 4.57018
#
# Compressibility (1/GPa) = 0.05697222
#
# Stress axis : x y z
#
# Youngs Moduli (GPa) = 23.44404 16.11274 53.94723
#
# Poissons Ratio (x) = 0.33203 0.00879
# Poissons Ratio (y) = 0.48311 0.66739
# Poissons Ratio (z) = 0.00382 0.19933
#
# Static dielectric constant tensor:
#      x y z
#    x 1.891480 -0.001970 0.021520 
#    y -0.001970 1.893700 -0.013580 
#    z 0.021520 -0.013580 1.865340 
# 
# From -- ./inp_files/257667.got.cif
#   From: 2010.05.17/outbox.cif.g08.bks.cpg/sg2_129_cif.got.tgz:257667.got - 2010.06.03 11:33:40.
