data_PCOD9007506
_publ_section_title
;
Structure prediction by ZEFSAII (Michael W. Deem and Ramdas Pophale) SiO2 
 PCOD9007506
Probable space group: P -1
;
_chemical_formula_sum "Si O2"
_cell_formula_units_Z 16
_cell_length_a 8.016693
_cell_length_b 8.986967
_cell_length_c 13.898671
_cell_angle_alpha 75.349300
_cell_angle_beta 97.981017
_cell_angle_gamma 47.237507
_cell_volume 639.664544
_symmetry_space_group_name_H-M "P -1"
_symmetry_group_IT_number 2
_symmetry_cell_setting 'triclinic'
loop_
_space_group_symop_operation_xyz
x,y,z
-x,-y,-z
loop_
_atom_site_type_symbol
_atom_site_label
_atom_site_fract_x
_atom_site_fract_y
_atom_site_fract_z
Si Si1 0.335240 0.167148 0.866705
Si Si2 0.834042 0.932637 0.898637
Si Si3 0.454094 0.935358 0.408645
Si Si4 0.425236 0.444010 0.249840
Si Si5 0.936370 0.944270 0.125699
Si Si6 0.169299 0.346948 0.172671
Si Si7 0.004551 0.989641 0.616645
Si Si8 0.288913 0.521710 0.443919
O O1 0.529876 0.134340 0.824772
O O2 0.220192 0.084453 0.830880
O O3 0.093030 0.432283 0.832419
O O4 0.500000 0.000000 0.000000
O O5 0.051764 0.886308 0.871228
O O6 0.888759 0.718400 0.912525
O O7 0.864249 0.962379 0.006535
O O8 0.366127 0.117164 0.292356
O O9 0.500000 0.000000 0.500000
O O10 0.685654 0.654152 0.465568
O O11 0.214647 0.981600 0.380882
O O12 0.240488 0.714185 0.190849
O O13 0.311089 0.412073 0.163918
O O14 0.361294 0.426861 0.355871
O O15 0.720185 0.257885 0.293142
O O16 0.950649 0.201418 0.613237
O O17 0.000000 0.000000 0.500000
O O18 0.500000 0.500000 0.500000
#
# Coordination Sequence:
#
# PCOD9007506 Si02
#       8
#     2   2   2   2   2   2   2   2
#     4   9  21  43  65  92 129 166 209 266 321 382
#     4  10  22  44  65  95 128 169 214 267 332 376
#     4  11  22  43  62  90 132 162 207 275 308 375
#     4  11  22  41  61  92 125 165 215 259 324 384
#     4   9  22  41  67  93 131 166 214 273 318 390
#     4  11  24  41  64  95 128 165 217 268 317 384
#     4  11  22  39  65  90 120 173 215 251 326 384
#     4  10  21  39  62  82 125 163 203 260 314 367
#
# _framework density 25.013109
#
# number of rings (size 3 to 8) (size 9 to 14) (size 15 to 20)
#    0.000    1.750    3.750    0.000    5.250    6.500 
#    0.000    8.125    0.000    0.000    0.000    0.000 
#    0.000    0.000    0.000    0.000    0.000    0.000 
#
# Total GULP energy -89159.929814 kJ/mol
# GULP energy per Si atom -5572.495613 kJ/mol
# Density = 2.495618 g / cm^3
# Si number density = 25.013109 Si / 1000 Ang^3
#
#
#
# Elastic Constant Matrix: (Units=GPa)
#
#
# Indices 1 2 3 4 5 6 
#
# 1 117.5409 19.8272 8.0548 11.5745 29.4508 15.4579
# 2 19.8272 78.2412 16.3655 14.5284 20.6460 9.3882
# 3 8.0548 16.3655 91.9020 3.2590 25.6245 -0.0609
# 4 11.5745 14.5284 3.2590 40.0322 3.9626 10.5482
# 5 29.4508 20.6460 25.6245 3.9626 37.5478 -1.5831
# 6 15.4579 9.3882 -0.0609 10.5482 -1.5831 40.9665
#
#
#
# Elastic Compliance Matrix: (Units=1/GPa)
#
#
# Indices 1 2 3 4 5 6 
#
# 1 0.011759 0.000248 0.001968 -0.001388 -0.010748 -0.004549
# 2 0.000248 0.016205 -0.000382 -0.004279 -0.008521 -0.003036
# 3 0.001968 -0.000382 0.013784 -0.000226 -0.010758 -0.000992
# 4 -0.001388 -0.004279 -0.000226 0.028448 0.000348 -0.005808
# 5 -0.010748 -0.008521 -0.010758 0.000348 0.047380 0.007734
# 6 -0.004549 -0.003036 -0.000992 -0.005808 0.007734 0.028615
#
#
# Mechanical properties :
#
#
# Convention : Reuss Voigt Hill
#
# Bulk Modulus (GPa) = 22.01830 41.79767 31.90799
# Shear Modulus (GPa) = 31.71367 39.93842 35.82604
#
# Velocity S-wave (km/s) = 3.56460 4.00021 3.78867
# Velocity P-wave (km/s) = 5.07579 6.17107 5.65003
#
# Compressibility (1/GPa) = 0.04541677
#
# Stress axis : x y z
#
# Youngs Moduli (GPa) = 85.04236 61.70857 72.54918
#
# Poissons Ratio (x) = -0.01531 -0.14279
# Poissons Ratio (y) = -0.02110 0.02771
# Poissons Ratio (z) = -0.16738 0.02357
#
# Static dielectric constant tensor:
#      x y z
#    x 2.219630 0.059160 -0.161600 
#    y 0.059160 2.102970 -0.028350 
#    z -0.161600 -0.028350 2.109010 
# 
# From -- ./inp_files/202700.got.cif
#   From: 2010.05.17/outbox.cif.g08.bks.cpg/sg2_102_cif.got.tgz:202700.got - 2010.06.03 11:33:40.
