data_PCOD9007967
_publ_section_title
;
Structure prediction by ZEFSAII (Michael W. Deem and Ramdas Pophale) SiO2 
 PCOD9007967
Probable space group: P -1
;
_chemical_formula_sum "Si O2"
_cell_formula_units_Z 16
_cell_length_a 7.207448
_cell_length_b 12.984462
_cell_length_c 7.803191
_cell_angle_alpha 68.717170
_cell_angle_beta 96.789353
_cell_angle_gamma 108.774986
_cell_volume 644.248619
_symmetry_space_group_name_H-M "P -1"
_symmetry_group_IT_number 2
_symmetry_cell_setting 'triclinic'
loop_
_space_group_symop_operation_xyz
x,y,z
-x,-y,-z
loop_
_atom_site_type_symbol
_atom_site_label
_atom_site_fract_x
_atom_site_fract_y
_atom_site_fract_z
Si Si1 0.091321 0.108226 0.068490
Si Si2 0.833377 0.572804 0.026259
Si Si3 0.388206 0.334120 0.524188
Si Si4 0.554639 0.438330 0.829465
Si Si5 0.123569 0.796959 0.773668
Si Si6 0.494765 0.067059 0.132890
Si Si7 0.373477 0.825065 0.440909
Si Si8 0.010142 0.309588 0.713579
O O1 0.315574 0.117266 0.103386
O O2 0.988104 0.110091 0.239000
O O3 0.056061 0.214314 0.898566
O O4 0.000000 0.000000 0.000000
O O5 0.633746 0.599698 0.045208
O O6 0.938825 0.577909 0.221751
O O7 0.255377 0.538126 0.040696
O O8 0.969983 0.672413 0.861956
O O9 0.510246 0.360241 0.701456
O O10 0.444213 0.439274 0.332314
O O11 0.445821 0.228510 0.508364
O O12 0.167609 0.323237 0.569157
O O13 0.307092 0.828815 0.902847
O O14 0.239951 0.812691 0.601414
O O15 0.458696 0.960500 0.325177
O O16 0.500000 0.000000 0.000000
O O17 0.208903 0.746351 0.341225
#
# Coordination Sequence:
#
# PCOD9007967 Si02
#       8
#     2   2   2   2   2   2   2   2
#     4  11  21  42  66  89 126 175 213 256 306 371
#     4   9  19  41  66  91 124 158 214 267 308 383
#     4  10  22  40  67  94 129 165 206 270 325 377
#     4   9  19  42  71  94 119 167 217 264 330 382
#     4  11  25  40  62  98 129 167 214 260 318 383
#     4  12  23  41  66  92 130 174 216 256 310 380
#     4  12  25  40  60  96 137 165 212 262 316 382
#     4  10  21  39  63  92 127 169 210 258 317 377
#
# _framework density 24.835135000000001
#
# number of rings (size 3 to 8) (size 9 to 14) (size 15 to 20)
#    0.000    1.500    2.500    2.625    0.000    3.500 
#    0.000   17.500    0.000    0.000    0.000    0.000 
#    0.000    0.000    0.000    0.000    0.000    0.000 
#
# Total GULP energy -89374.094579 kJ/mol
# GULP energy per Si atom -5585.880911 kJ/mol
# Density = 2.477861 g / cm^3
# Si number density = 24.835135 Si / 1000 Ang^3
#
#
#
# Elastic Constant Matrix: (Units=GPa)
#
#
# Indices 1 2 3 4 5 6 
#
# 1 125.5703 49.7430 28.2022 -2.1893 -29.6887 -10.5829
# 2 49.7430 54.8035 18.8296 17.3622 -8.8922 13.6920
# 3 28.2022 18.8296 100.5532 9.9999 -43.6540 -10.4846
# 4 -2.1893 17.3622 9.9999 38.1280 9.2050 -1.7581
# 5 -29.6887 -8.8922 -43.6540 9.2050 40.3546 6.8072
# 6 -10.5829 13.6920 -10.4846 -1.7581 6.8072 59.9935
#
#
#
# Elastic Compliance Matrix: (Units=1/GPa)
#
#
# Indices 1 2 3 4 5 6 
#
# 1 0.018361 -0.020613 0.002289 0.008193 0.008283 0.007643
# 2 -0.020613 0.049840 -0.001838 -0.024683 0.002211 -0.016306
# 3 0.002289 -0.001838 0.023976 -0.012467 0.029846 0.001261
# 4 0.008193 -0.024683 -0.012467 0.047747 -0.025337 0.009174
# 5 0.008283 0.002211 0.029846 -0.025337 0.069848 -0.002495
# 6 0.007643 -0.016306 0.001261 0.009174 -0.002495 0.022511
#
#
# Mechanical properties :
#
#
# Convention : Reuss Voigt Hill
#
# Bulk Modulus (GPa) = 19.28530 52.71962 36.00246
# Shear Modulus (GPa) = 17.24792 39.97202 28.60997
#
# Velocity S-wave (km/s) = 2.63819 4.01620 3.39779
# Velocity P-wave (km/s) = 4.13065 6.54068 5.47004
#
# Compressibility (1/GPa) = 0.05185296
#
# Stress axis : x y z
#
# Youngs Moduli (GPa) = 54.46459 20.06423 41.70852
#
# Poissons Ratio (x) = 0.41358 -0.09545
# Poissons Ratio (y) = 1.12266 0.07665
# Poissons Ratio (z) = -0.12465 0.03687
#
# Static dielectric constant tensor:
#      x y z
#    x 1.927510 0.065760 0.038770 
#    y 0.065760 2.045550 0.097110 
#    z 0.038770 0.097110 2.003190 
# 
# From -- ./inp_files/134995.got.cif
#   From: 2010.05.17/outbox.cif.g08.bks.cpg/sg2_68_cif.got.tgz:134995.got - 2010.06.03 11:33:40.
