data_PCOD9007646
_publ_section_title
;
Structure prediction by ZEFSAII (Michael W. Deem and Ramdas Pophale) SiO2 
 PCOD9007646
Probable space group: P -1
;
_chemical_formula_sum "Si O2"
_cell_formula_units_Z 16
_cell_length_a 9.290944
_cell_length_b 9.495882
_cell_length_c 11.617173
_cell_angle_alpha 58.549372
_cell_angle_beta 106.334122
_cell_angle_gamma 116.362780
_cell_volume 781.779683
_symmetry_space_group_name_H-M "P -1"
_symmetry_group_IT_number 2
_symmetry_cell_setting 'triclinic'
loop_
_space_group_symop_operation_xyz
x,y,z
-x,-y,-z
loop_
_atom_site_type_symbol
_atom_site_label
_atom_site_fract_x
_atom_site_fract_y
_atom_site_fract_z
Si Si1 0.812551 0.493234 0.794982
Si Si2 0.592837 0.301285 0.616861
Si Si3 0.996050 0.185864 0.465616
Si Si4 0.296331 0.326429 0.633487
Si Si5 0.329067 0.951483 0.421464
Si Si6 0.062309 0.813201 0.014657
Si Si7 0.761140 0.797888 0.076164
Si Si8 0.755014 0.743793 0.844988
O O1 0.681887 0.383748 0.719190
O O2 0.732619 0.566040 0.847665
O O3 0.934950 0.662266 0.680747
O O4 0.895088 0.359634 0.915211
O O5 0.403258 0.234427 0.628109
O O6 0.631552 0.465930 0.468243
O O7 0.661900 0.162773 0.638762
O O8 0.117679 0.248370 0.574831
O O9 0.817710 0.155886 0.482403
O O10 0.000000 0.000000 0.500000
O O11 0.310291 0.300763 0.782238
O O12 0.299974 0.126172 0.299274
O O13 0.500000 0.000000 0.500000
O O14 0.941267 0.792210 0.104081
O O15 0.948104 0.829576 0.877995
O O16 0.210262 0.995137 0.989013
O O17 0.683214 0.726734 0.965355
#
# Coordination Sequence:
#
# PCOD9007646 Si02
#       8
#     2   2   2   2   2   2   2   2
#     4  11  22  39  66  97 133 167 221 266 331 378
#     4  10  25  40  67  93 138 165 214 277 328 374
#     4  11  23  38  68  97 129 169 220 274 320 390
#     4  10  22  43  65  97 128 176 218 267 325 386
#     4  12  25  42  66  98 132 167 216 273 332 384
#     4   9  20  37  62  95 126 172 212 269 314 384
#     4   9  20  37  67  87 130 168 222 257 323 384
#     4  10  21  39  62  90 131 167 212 266 321 385
#
# _framework density 20.466124000000001
#
# number of rings (size 3 to 8) (size 9 to 14) (size 15 to 20)
#    0.750    1.000    1.250    2.625    7.000    1.000 
#    0.000    3.125    2.750    0.000    0.000    0.000 
#    0.000    0.000    0.000    0.000    0.000    0.000 
#
# Total GULP energy -89307.521530 kJ/mol
# GULP energy per Si atom -5581.720096 kJ/mol
# Density = 2.041954 g / cm^3
# Si number density = 20.466124 Si / 1000 Ang^3
#
#
#
# Elastic Constant Matrix: (Units=GPa)
#
#
# Indices 1 2 3 4 5 6 
#
# 1 94.4009 38.7516 36.0840 -3.4942 12.4731 0.0848
# 2 38.7516 97.8083 31.7344 14.0269 5.2248 -22.0810
# 3 36.0840 31.7344 97.8950 9.3515 11.6497 -3.5176
# 4 -3.4942 14.0269 9.3515 20.4192 -13.5489 5.7881
# 5 12.4731 5.2248 11.6497 -13.5489 26.9723 -8.5580
# 6 0.0848 -22.0810 -3.5176 5.7881 -8.5580 38.8293
#
#
#
# Elastic Compliance Matrix: (Units=1/GPa)
#
#
# Indices 1 2 3 4 5 6 
#
# 1 0.016331 -0.008414 -0.004873 0.013187 0.000552 -0.007106
# 2 -0.008414 0.020634 0.000369 -0.025432 -0.008707 0.013658
# 3 -0.004873 0.000369 0.014924 -0.016275 -0.012010 0.001351
# 4 0.013187 -0.025432 -0.016275 0.122335 0.060703 -0.020823
# 5 0.000552 -0.008707 -0.012010 0.060703 0.074617 0.001356
# 6 -0.007106 0.013658 0.001351 -0.020823 0.001356 0.037061
#
#
# Mechanical properties :
#
#
# Convention : Reuss Voigt Hill
#
# Bulk Modulus (GPa) = 38.38341 55.91603 47.14972
# Shear Modulus (GPa) = 15.60435 29.47977 22.54206
#
# Velocity S-wave (km/s) = 2.76424 3.79940 3.32238
# Velocity P-wave (km/s) = 5.38362 6.82846 6.14863
#
# Compressibility (1/GPa) = 0.02605292
#
# Stress axis : x y z
#
# Youngs Moduli (GPa) = 61.23150 48.46404 67.00625
#
# Poissons Ratio (x) = 0.40780 0.32651
# Poissons Ratio (y) = 0.51523 -0.02473
# Poissons Ratio (z) = 0.29837 -0.01789
#
# Static dielectric constant tensor:
#      x y z
#    x 1.742010 0.005260 0.002130 
#    y 0.005260 1.738250 0.020130 
#    z 0.002130 0.020130 1.731220 
# 
# From -- ./inp_files/381375.got.cif
#   From: 2010.05.17/outbox.cif.g08.bks.cpg/sg2_191_cif.got.tgz:381375.got - 2010.06.03 11:33:40.
