data_PCOD9007715
_publ_section_title
;
Structure prediction by ZEFSAII (Michael W. Deem and Ramdas Pophale) SiO2 
 PCOD9007715
Probable space group: P -1
;
_chemical_formula_sum "Si O2"
_cell_formula_units_Z 15
_cell_length_a 12.960091
_cell_length_b 8.734653
_cell_length_c 17.104183
_cell_angle_alpha 125.350828
_cell_angle_beta 154.305303
_cell_angle_gamma 70.550456
_cell_volume 579.464899
_symmetry_space_group_name_H-M "P -1"
_symmetry_group_IT_number 2
_symmetry_cell_setting 'triclinic'
loop_
_space_group_symop_operation_xyz
x,y,z
-x,-y,-z
loop_
_atom_site_type_symbol
_atom_site_label
_atom_site_fract_x
_atom_site_fract_y
_atom_site_fract_z
Si Si1 0.269301 0.475957 0.271559
Si Si2 0.132128 0.827494 0.339518
Si Si3 0.952256 0.775594 0.367468
Si Si4 0.654802 0.358115 0.119837
Si Si5 0.283695 0.960500 0.042130
Si Si6 0.506993 0.307966 0.166796
Si Si7 0.668908 0.740167 0.481285
Si Si8 0.000000 0.000000 0.000000
O O1 0.500000 0.500000 0.500000
O O2 0.146965 0.621317 0.259689
O O3 0.419807 0.586787 0.325767
O O4 0.056485 0.214034 0.048172
O O5 0.157833 0.834444 0.452800
O O6 0.335346 0.059164 0.502832
O O7 0.822256 0.781620 0.098505
O O8 0.922118 0.603070 0.360929
O O9 0.633723 0.644807 0.077793
O O10 0.000000 0.000000 0.500000
O O11 0.638311 0.263002 0.166832
O O12 0.649435 0.214580 0.000694
O O13 0.480031 0.178895 0.189681
O O14 0.252017 0.995741 0.121540
O O15 0.953386 0.846798 0.757685
O O16 0.666046 0.571636 0.366661
#
# Coordination Sequence:
#
# PCOD9007715 Si02
#       8
#     2   2   2   2   2   2   2   1
#     4  12  25  42  65  94 127 168 217 263 316 381
#     4  10  24  42  65  92 129 166 212 266 315 382
#     4  10  21  39  62  93 122 166 212 261 320 376
#     4  10  22  39  63  92 128 164 211 265 314 374
#     4  11  23  40  62  93 130 167 213 265 313 380
#     4  10  22  42  64  93 127 167 211 258 323 378
#     4  11  23  42  65  94 130 169 213 257 319 386
#     4  12  24  42  62  92 132 166 212 264 318 370
#
# _framework density 25.885950999999999
#
# number of rings (size 3 to 8) (size 9 to 14) (size 15 to 20)
#    0.000    1.333    2.667    2.400    0.000    4.267 
#    0.000    0.000    0.000    0.000    0.000    0.000 
#    0.000    0.000    0.000    0.000    0.000    0.000 
#
# Total GULP energy -83704.856619 kJ/mol
# GULP energy per Si atom -5580.323775 kJ/mol
# Density = 2.582703 g / cm^3
# Si number density = 25.885951 Si / 1000 Ang^3
#
#
#
# Elastic Constant Matrix: (Units=GPa)
#
#
# Indices 1 2 3 4 5 6 
#
# 1 172.5773 63.3713 39.9043 24.6310 53.4039 -4.7620
# 2 63.3713 135.8023 34.5820 41.2692 24.2257 10.0080
# 3 39.9043 34.5820 77.9482 24.5436 26.6041 15.1087
# 4 24.6310 41.2692 24.5436 54.7519 4.8468 -2.9612
# 5 53.4039 24.2257 26.6041 4.8468 44.3182 6.6678
# 6 -4.7620 10.0080 15.1087 -2.9612 6.6678 46.9256
#
#
#
# Elastic Compliance Matrix: (Units=1/GPa)
#
#
# Indices 1 2 3 4 5 6 
#
# 1 0.010761 -0.002646 -0.000645 -0.001355 -0.011499 0.003412
# 2 -0.002646 0.011381 -0.000305 -0.007260 -0.001632 -0.002824
# 3 -0.000645 -0.000305 0.020106 -0.007965 -0.009406 -0.005640
# 4 -0.001355 -0.007260 -0.007965 0.027586 0.006648 0.004772
# 5 -0.011499 -0.001632 -0.009406 0.006648 0.042750 -0.003445
# 6 0.003412 -0.002824 -0.005640 0.004772 -0.003445 0.024866
#
#
# Mechanical properties :
#
#
# Convention : Reuss Voigt Hill
#
# Bulk Modulus (GPa) = 28.52490 73.56031 51.04261
# Shear Modulus (GPa) = 31.98418 45.76383 38.87401
#
# Velocity S-wave (km/s) = 3.51890 4.20920 3.87944
# Velocity P-wave (km/s) = 5.24915 7.21817 6.31092
#
# Compressibility (1/GPa) = 0.03505709
#
# Stress axis : x y z
#
# Youngs Moduli (GPa) = 92.92730 87.86352 49.73609
#
# Poissons Ratio (x) = 0.23246 0.03210
# Poissons Ratio (y) = 0.24585 0.01515
# Poissons Ratio (z) = 0.05997 0.02677
#
# Static dielectric constant tensor:
#      x y z
#    x 2.072680 0.040300 -0.075790 
#    y 0.040300 2.060800 -0.068770 
#    z -0.075790 -0.068770 2.151490 
# 
# From -- ./inp_files/109797.got.cif
#   From: 2010.05.17/outbox.cif.g08.bks.cpg/sg2_55_cif.got.tgz:109797.got - 2010.06.03 11:33:40.
