data_PCOD9007272
_publ_section_title
;
Structure prediction by ZEFSAII (Michael W. Deem and Ramdas Pophale) SiO2 
 PCOD9007272
Probable space group: P -1
;
_chemical_formula_sum "Si O2"
_cell_formula_units_Z 16
_cell_length_a 21.744828
_cell_length_b 4.990748
_cell_length_c 5.753545
_cell_angle_alpha 84.995971
_cell_angle_beta 86.188848
_cell_angle_gamma 94.719647
_cell_volume 618.194952
_symmetry_space_group_name_H-M "P -1"
_symmetry_group_IT_number 2
_symmetry_cell_setting 'triclinic'
loop_
_space_group_symop_operation_xyz
x,y,z
-x,-y,-z
loop_
_atom_site_type_symbol
_atom_site_label
_atom_site_fract_x
_atom_site_fract_y
_atom_site_fract_z
Si Si1 0.571380 0.634855 0.968646
Si Si2 0.045729 0.215752 0.252089
Si Si3 0.170325 0.413061 0.975298
Si Si4 0.687985 0.216768 0.525534
Si Si5 0.297743 0.313479 0.192461
Si Si6 0.808861 0.057351 0.279760
Si Si7 0.567518 0.915527 0.447929
Si Si8 0.927131 0.297994 0.469117
O O1 0.642410 0.544901 0.971787
O O2 0.576009 0.733703 0.689387
O O3 0.500000 0.500000 0.000000
O O4 0.570991 0.809476 0.192520
O O5 0.100743 0.299444 0.057746
O O6 0.067096 0.402777 0.455699
O O7 0.974012 0.273634 0.241347
O O8 0.047295 0.902435 0.332807
O O9 0.228963 0.337797 0.115039
O O10 0.172498 0.736185 0.950617
O O11 0.183931 0.252579 0.747836
O O12 0.699789 0.521488 0.580271
O O13 0.740179 0.123420 0.350709
O O14 0.693049 0.002819 0.753389
O O15 0.619987 0.159172 0.445440
O O16 0.857968 0.176184 0.447888
O O17 0.500000 0.000000 0.500000
#
# Coordination Sequence:
#
# PCOD9007272 Si02
#       8
#     2   2   2   2   2   2   2   2
#     4  11  24  43  69 103 140 183 231 285 345 410
#     4  10  21  39  61  84 117 164 213 263 325 401
#     4  12  24  38  61  93 127 164 209 271 334 400
#     4  11  24  44  67  94 129 175 222 273 332 402
#     4  11  24  44  67  94 129 175 222 273 332 402
#     4  12  24  38  61  93 127 164 209 271 334 400
#     4  11  24  43  69 103 140 183 231 285 345 410
#     4  10  21  39  61  84 117 164 213 263 325 401
#
# _framework density 25.881800999999999
#
# number of rings (size 3 to 8) (size 9 to 14) (size 15 to 20)
#    0.000    1.000    0.000    6.750    0.000    6.000 
#    0.000    0.000    0.000    0.000    0.000    0.000 
#    0.000    0.000    0.000    0.000    0.000    0.000 
#
# Total GULP energy -89330.728915 kJ/mol
# GULP energy per Si atom -5583.170557 kJ/mol
# Density = 2.582289 g / cm^3
# Si number density = 25.881801 Si / 1000 Ang^3
#
#
#
# Elastic Constant Matrix: (Units=GPa)
#
#
# Indices 1 2 3 4 5 6 
#
# 1 117.4576 18.6954 31.3981 2.0941 -24.7409 6.0362
# 2 18.6954 86.4639 32.3679 9.5733 1.3793 10.6851
# 3 31.3981 32.3679 77.8396 12.6308 -15.1749 -0.3146
# 4 2.0941 9.5733 12.6308 39.0330 7.0486 -3.8635
# 5 -24.7409 1.3793 -15.1749 7.0486 56.9977 3.4351
# 6 6.0362 10.6851 -0.3146 -3.8635 3.4351 45.2232
#
#
#
# Elastic Compliance Matrix: (Units=1/GPa)
#
#
# Indices 1 2 3 4 5 6 
#
# 1 0.010358 -0.000974 -0.003002 -0.000184 0.003832 -0.001480
# 2 -0.000974 0.014567 -0.005786 -0.001634 -0.001912 -0.003346
# 3 -0.003002 -0.005786 0.018082 -0.004913 0.004189 0.001156
# 4 -0.000184 -0.001634 -0.004913 0.028863 -0.005112 0.003231
# 5 0.003832 -0.001912 0.004189 -0.005112 0.021127 -0.002072
# 6 -0.001480 -0.003346 0.001156 0.003231 -0.002072 0.023542
#
#
# Mechanical properties :
#
#
# Convention : Reuss Voigt Hill
#
# Bulk Modulus (GPa) = 42.58183 49.63156 46.10670
# Shear Modulus (GPa) = 34.74885 41.53743 38.14314
#
# Velocity S-wave (km/s) = 3.66812 4.01045 3.84310
# Velocity P-wave (km/s) = 5.86756 6.37674 6.12744
#
# Compressibility (1/GPa) = 0.02348419
#
# Stress axis : x y z
#
# Youngs Moduli (GPa) = 96.54607 68.64890 55.30254
#
# Poissons Ratio (x) = 0.06683 0.16603
# Poissons Ratio (y) = 0.09399 0.31996
# Poissons Ratio (z) = 0.28985 0.39718
#
# Static dielectric constant tensor:
#      x y z
#    x 2.065360 -0.024980 0.031820 
#    y -0.024980 2.002530 -0.087520 
#    z 0.031820 -0.087520 2.155190 
# 
# From -- ./inp_files/10837.got.cif
#   From: 2010.05.17/outbox.cif.g08.bks.cpg/sg2_6_cif.got.tgz:10837.got - 2010.06.03 11:33:40.
