data_PCOD9007039
_publ_section_title
;
Structure prediction by ZEFSAII (Michael W. Deem and Ramdas Pophale) SiO2 
 PCOD9007039
Probable space group: P -1
;
_chemical_formula_sum "Si O2"
_cell_formula_units_Z 14
_cell_length_a 8.564810
_cell_length_b 24.809684
_cell_length_c 12.452563
_cell_angle_alpha 155.603846
_cell_angle_beta 34.541861
_cell_angle_gamma 147.228073
_cell_volume 571.377753
_symmetry_space_group_name_H-M "P -1"
_symmetry_group_IT_number 2
_symmetry_cell_setting 'triclinic'
loop_
_space_group_symop_operation_xyz
x,y,z
-x,-y,-z
loop_
_atom_site_type_symbol
_atom_site_label
_atom_site_fract_x
_atom_site_fract_y
_atom_site_fract_z
Si Si1 0.407160 0.880310 0.991061
Si Si2 0.849981 0.631836 0.949001
Si Si3 0.282696 0.142490 0.442052
Si Si4 0.314567 0.705956 0.141162
Si Si5 0.356403 0.426610 0.713090
Si Si6 0.416360 0.624735 0.723722
Si Si7 0.569861 0.002259 0.590946
O O1 0.081015 0.752263 0.957743
O O2 0.386835 0.028001 0.232619
O O3 0.528542 0.918521 0.114203
O O4 0.586523 0.841267 0.723441
O O5 0.665747 0.710865 0.259507
O O6 0.370351 0.505085 0.236900
O O7 0.071132 0.588889 0.822476
O O8 0.925530 0.067603 0.511622
O O9 0.434939 0.835476 0.388147
O O10 0.972592 0.670466 0.238832
O O11 0.330471 0.568613 0.937628
O O12 0.491453 0.731704 0.975064
O O13 0.426018 0.346793 0.428412
O O14 0.500000 0.500000 0.500000
O O15 0.500000 0.000000 0.500000
#
# Coordination Sequence:
#
# PCOD9007039 Si02
#       7
#     2   2   2   2   2   2   2
#     4  10  22  40  65  95 126 163 208 260 318 381
#     4  11  21  39  64  91 126 165 210 261 315 380
#     4  10  22  40  64  95 127 163 208 260 318 378
#     4  10  21  39  59  87 126 162 206 258 310 372
#     4  10  22  38  61  88 120 166 209 256 313 371
#     4  10  23  40  58  87 123 162 211 261 311 369
#     4  11  22  38  62  93 127 164 207 258 312 374
#
# _framework density 24.502181
#
# number of rings (size 3 to 8) (size 9 to 14) (size 15 to 20)
#    0.000    1.714    0.000    5.571    0.000    5.714 
#    0.000    5.714    0.000    0.000    0.000    0.000 
#    0.000    0.000    0.000    0.000    0.000    0.000 
#
# Total GULP energy -78225.978727 kJ/mol
# GULP energy per Si atom -5587.569909 kJ/mol
# Density = 2.444641 g / cm^3
# Si number density = 24.502181 Si / 1000 Ang^3
#
#
#
# Elastic Constant Matrix: (Units=GPa)
#
#
# Indices 1 2 3 4 5 6 
#
# 1 77.5449 15.3663 30.9435 -1.2783 -1.1702 -18.3748
# 2 15.3663 102.4636 55.6453 -8.9112 21.7831 -16.0024
# 3 30.9435 55.6453 190.9525 -8.1826 22.0160 -7.3658
# 4 -1.2783 -8.9112 -8.1826 39.4544 -3.3991 7.6350
# 5 -1.1702 21.7831 22.0160 -3.3991 44.3139 7.4779
# 6 -18.3748 -16.0024 -7.3658 7.6350 7.4779 32.9254
#
#
#
# Elastic Compliance Matrix: (Units=1/GPa)
#
#
# Indices 1 2 3 4 5 6 
#
# 1 0.015854 0.000141 -0.002329 -0.001650 -0.000105 0.008802
# 2 0.000141 0.014025 -0.003031 0.000501 -0.006630 0.007607
# 3 -0.002329 -0.003031 0.006677 0.000688 -0.001657 -0.001062
# 4 -0.001650 0.000501 0.000688 0.027224 0.002715 -0.007453
# 5 -0.000105 -0.006630 -0.001657 0.002715 0.028676 -0.010794
# 6 0.008802 0.007607 -0.001062 -0.007453 -0.010794 0.042923
#
#
# Mechanical properties :
#
#
# Convention : Reuss Voigt Hill
#
# Bulk Modulus (GPa) = 38.28712 63.87457 51.08085
# Shear Modulus (GPa) = 32.35755 41.27247 36.81501
#
# Velocity S-wave (km/s) = 3.63795 4.10865 3.88044
# Velocity P-wave (km/s) = 5.77115 6.97377 6.40077
#
# Compressibility (1/GPa) = 0.02611844
#
# Stress axis : x y z
#
# Youngs Moduli (GPa) = 63.07513 71.29912 149.76676
#
# Poissons Ratio (x) = -0.01004 0.34884
# Poissons Ratio (y) = -0.00888 0.45389
# Poissons Ratio (z) = 0.14692 0.21608
#
# Static dielectric constant tensor:
#      x y z
#    x 2.028240 -0.144860 -0.096190 
#    y -0.144860 2.002550 0.079480 
#    z -0.096190 0.079480 2.044930 
# 
# From -- ./inp_files/406366.got.cif
#   From: 2010.05.17/outbox.cif.g08.bks.cpg/sg2_204_cif.got.tgz:406366.got - 2010.06.03 11:33:40.
