data_PCOD9007488
_publ_section_title
;
Structure prediction by ZEFSAII (Michael W. Deem and Ramdas Pophale) SiO2 
 PCOD9007488
Probable space group: P -1
;
_chemical_formula_sum "Si O2"
_cell_formula_units_Z 15
_cell_length_a 7.301423
_cell_length_b 8.890515
_cell_length_c 21.680392
_cell_angle_alpha 49.647917
_cell_angle_beta 36.550552
_cell_angle_gamma 65.047953
_cell_volume 623.557960
_symmetry_space_group_name_H-M "P -1"
_symmetry_group_IT_number 2
_symmetry_cell_setting 'triclinic'
loop_
_space_group_symop_operation_xyz
x,y,z
-x,-y,-z
loop_
_atom_site_type_symbol
_atom_site_label
_atom_site_fract_x
_atom_site_fract_y
_atom_site_fract_z
Si Si1 0.969228 0.255506 0.876415
Si Si2 0.500000 0.000000 0.500000
Si Si3 0.315204 0.006975 0.794129
Si Si4 0.241377 0.847814 0.476782
Si Si5 0.124375 0.685053 0.770827
Si Si6 0.650522 0.391927 0.141265
Si Si7 0.751451 0.960548 0.863092
Si Si8 0.895870 0.409833 0.728411
O O1 0.075801 0.354881 0.754270
O O2 0.224056 0.115413 0.851023
O O3 0.987971 0.445916 0.864573
O O4 0.615441 0.125611 0.003231
O O5 0.546566 0.083015 0.538406
O O6 0.691572 0.218582 0.364412
O O7 0.563863 0.128296 0.645879
O O8 0.437629 0.802693 0.826911
O O9 0.980179 0.944938 0.864212
O O10 0.066642 0.613319 0.594401
O O11 0.000000 0.000000 0.500000
O O12 0.347428 0.697053 0.766865
O O13 0.869518 0.816327 0.820559
O O14 0.415305 0.539542 0.169397
O O15 0.000000 0.500000 0.000000
O O16 0.820503 0.200707 0.766239
#
# Coordination Sequence:
#
# PCOD9007488 Si02
#       8
#     2   1   2   2   2   2   2   2
#     4  11  22  39  65  97 130 172 230 278 337 416
#     4  12  22  44  68  98 138 176 236 280 330 416
#     4  10  21  39  64  93 131 175 222 275 338 407
#     4  12  23  43  69 101 138 180 238 279 342 415
#     4  11  23  41  64  96 135 176 223 283 344 398
#     4  11  21  40  63  91 132 176 218 277 344 406
#     4  10  21  39  61  98 129 169 231 274 331 418
#     4  11  21  37  66  91 122 176 221 272 337 400
#
# _framework density 24.055503000000002
#
# number of rings (size 3 to 8) (size 9 to 14) (size 15 to 20)
#    0.000    1.067    5.333    4.400    0.000    3.200 
#    0.000    5.333    0.000    3.200    0.000    0.000 
#    0.000    0.000    0.000    0.000    0.000    0.000 
#
# Total GULP energy -83567.242422 kJ/mol
# GULP energy per Si atom -5571.149495 kJ/mol
# Density = 2.400075 g / cm^3
# Si number density = 24.055503 Si / 1000 Ang^3
#
#
#
# Elastic Constant Matrix: (Units=GPa)
#
#
# Indices 1 2 3 4 5 6 
#
# 1 40.7666 20.6586 9.0482 6.1745 1.7713 3.2807
# 2 20.6586 207.0289 36.4586 -6.6377 -16.7254 10.4745
# 3 9.0482 36.4586 109.0076 -11.5434 0.4227 1.7282
# 4 6.1745 -6.6377 -11.5434 41.1555 -0.3266 -12.5767
# 5 1.7713 -16.7254 0.4227 -0.3266 30.0498 -6.7241
# 6 3.2807 10.4745 1.7282 -12.5767 -6.7241 22.8148
#
#
#
# Elastic Compliance Matrix: (Units=1/GPa)
#
#
# Indices 1 2 3 4 5 6 
#
# 1 0.028507 -0.002703 -0.002152 -0.007993 -0.005172 -0.008626
# 2 -0.002703 0.005703 -0.001614 0.000650 0.003182 -0.000811
# 3 -0.002152 -0.001614 0.010239 0.003583 -0.000399 0.002132
# 4 -0.007993 0.000650 0.003583 0.032882 0.005702 0.020386
# 5 -0.005172 0.003182 -0.000399 0.005702 0.038511 0.013806
# 6 -0.008626 -0.000811 0.002132 0.020386 0.013806 0.060590
#
#
# Mechanical properties :
#
#
# Convention : Reuss Voigt Hill
#
# Bulk Modulus (GPa) = 31.73427 54.34821 43.04124
# Shear Modulus (GPa) = 25.01583 38.17987 31.59785
#
# Velocity S-wave (km/s) = 3.22828 3.98824 3.62821
# Velocity P-wave (km/s) = 5.20735 6.62193 5.95678
#
# Compressibility (1/GPa) = 0.03151168
#
# Stress axis : x y z
#
# Youngs Moduli (GPa) = 35.07912 175.34250 97.66436
#
# Poissons Ratio (x) = 0.47401 0.21015
# Poissons Ratio (y) = 0.09483 0.15760
# Poissons Ratio (z) = 0.07548 0.28295
#
# Static dielectric constant tensor:
#      x y z
#    x 1.961140 0.000380 -0.003930 
#    y 0.000380 2.134070 -0.038360 
#    z -0.003930 -0.038360 1.930670 
# 
# From -- ./inp_files/237016.got.cif
#   From: 2010.05.17/outbox.cif.g08.bks.cpg/sg2_119_cif.got.tgz:237016.got - 2010.06.03 11:33:40.
