data_PCOD9007000
_publ_section_title
;
Structure prediction by ZEFSAII (Michael W. Deem and Ramdas Pophale) SiO2 
 PCOD9007000
Probable space group: P -1
;
_chemical_formula_sum "Si O2"
_cell_formula_units_Z 16
_cell_length_a 14.016508
_cell_length_b 7.712303
_cell_length_c 10.503319
_cell_angle_alpha 132.763526
_cell_angle_beta 73.144699
_cell_angle_gamma 84.872430
_cell_volume 728.556112
_symmetry_space_group_name_H-M "P -1"
_symmetry_group_IT_number 2
_symmetry_cell_setting 'triclinic'
loop_
_space_group_symop_operation_xyz
x,y,z
-x,-y,-z
loop_
_atom_site_type_symbol
_atom_site_label
_atom_site_fract_x
_atom_site_fract_y
_atom_site_fract_z
Si Si1 0.462082 0.647467 0.395333
Si Si2 0.072751 0.207712 0.285685
Si Si3 0.919926 0.693811 0.944318
Si Si4 0.735026 0.245298 0.649341
Si Si5 0.277786 0.189407 0.075527
Si Si6 0.027653 0.132388 0.717702
Si Si7 0.516441 0.848162 0.721973
Si Si8 0.405770 0.701236 0.046318
O O1 0.357990 0.797396 0.420175
O O2 0.495341 0.820882 0.566759
O O3 0.432050 0.443002 0.389025
O O4 0.564420 0.461353 0.176692
O O5 0.039979 0.208554 0.149079
O O6 0.201579 0.142016 0.188421
O O7 0.000000 0.500000 0.500000
O O8 0.044723 0.024109 0.298701
O O9 0.791004 0.795814 0.019173
O O10 0.968794 0.383052 0.778461
O O11 0.948841 0.782572 0.109553
O O12 0.723981 0.530854 0.761286
O O13 0.703453 0.253286 0.813339
O O14 0.855795 0.045421 0.473595
O O15 0.399215 0.990321 0.905564
O O16 0.577779 0.031391 0.823076
O O17 0.500000 0.500000 0.000000
#
# Coordination Sequence:
#
# PCOD9007000 Si02
#       8
#     2   2   2   2   2   2   2   2
#     4  10  23  40  63  88 123 163 200 255 306 360
#     4  10  21  39  61  89 119 161 201 250 309 361
#     4   9  23  39  62  93 118 164 203 253 307 367
#     4  11  22  39  61  90 119 162 200 248 310 360
#     4  10  21  39  58  91 118 156 207 244 305 370
#     4  11  20  44  62  85 132 156 203 259 302 366
#     4  11  21  43  61  88 125 159 203 254 305 363
#     4  10  21  39  60  91 119 159 205 249 305 361
#
# _framework density 21.961245000000002
#
# number of rings (size 3 to 8) (size 9 to 14) (size 15 to 20)
#    0.750    1.000    3.750    1.500    0.000    4.000 
#    9.000    2.500    0.000    0.000    0.000    0.000 
#    0.000    0.000    0.000    0.000    0.000    0.000 
#
# Total GULP energy -89323.462569 kJ/mol
# GULP energy per Si atom -5582.716411 kJ/mol
# Density = 2.191126 g / cm^3
# Si number density = 21.961245 Si / 1000 Ang^3
#
#
#
# Elastic Constant Matrix: (Units=GPa)
#
#
# Indices 1 2 3 4 5 6 
#
# 1 68.7529 28.6903 26.3875 -6.0428 -9.0126 20.0267
# 2 28.6903 76.7091 33.6605 -7.6232 -15.0695 8.3325
# 3 26.3875 33.6605 98.1596 -15.1573 -5.9606 31.7012
# 4 -6.0428 -7.6232 -15.1573 35.6657 1.8619 -4.1234
# 5 -9.0126 -15.0695 -5.9606 1.8619 36.8460 -8.9915
# 6 20.0267 8.3325 31.7012 -4.1234 -8.9915 28.8419
#
#
#
# Elastic Compliance Matrix: (Units=1/GPa)
#
#
# Indices 1 2 3 4 5 6 
#
# 1 0.021080 -0.007092 0.001538 0.001094 -0.001079 -0.014459
# 2 -0.007092 0.019355 -0.007362 0.000555 0.007353 0.009796
# 3 0.001538 -0.007362 0.019650 0.004823 -0.004918 -0.021383
# 4 0.001094 0.000555 0.004823 0.030184 -0.000774 -0.002147
# 5 -0.001079 0.007353 -0.004918 -0.000774 0.032560 0.014070
# 6 -0.014459 0.009796 -0.021383 -0.002147 0.014070 0.069464
#
#
# Mechanical properties :
#
#
# Convention : Reuss Voigt Hill
#
# Bulk Modulus (GPa) = 29.19391 46.78871 37.99131
# Shear Modulus (GPa) = 21.78235 30.59628 26.18932
#
# Velocity S-wave (km/s) = 3.15279 3.73660 3.45704
# Velocity P-wave (km/s) = 5.15516 6.32200 5.76816
#
# Compressibility (1/GPa) = 0.03425371
#
# Stress axis : x y z
#
# Youngs Moduli (GPa) = 47.43755 51.66675 50.88929
#
# Poissons Ratio (x) = 0.36642 -0.07827
# Poissons Ratio (y) = 0.33642 0.37465
# Poissons Ratio (z) = -0.07296 0.38038
#
# Static dielectric constant tensor:
#      x y z
#    x 1.827800 -0.024700 0.030970 
#    y -0.024700 1.847110 -0.024880 
#    z 0.030970 -0.024880 1.785680 
# 
# From -- ./inp_files/448327.got.cif
#   From: 2010.05.17/outbox.cif.g08.bks.cpg/sg2_225_cif.got.tgz:448327.got - 2010.06.03 11:33:40.
