data_PCOD9007694
_publ_section_title
;
Structure prediction by ZEFSAII (Michael W. Deem and Ramdas Pophale) SiO2 
 PCOD9007694
Probable space group: P -1
;
_chemical_formula_sum "Si O2"
_cell_formula_units_Z 16
_cell_length_a 9.448316
_cell_length_b 27.279312
_cell_length_c 9.164101
_cell_angle_alpha 137.364745
_cell_angle_beta 66.217769
_cell_angle_gamma 147.014054
_cell_volume 709.622331
_symmetry_space_group_name_H-M "P -1"
_symmetry_group_IT_number 2
_symmetry_cell_setting 'triclinic'
loop_
_space_group_symop_operation_xyz
x,y,z
-x,-y,-z
loop_
_atom_site_type_symbol
_atom_site_label
_atom_site_fract_x
_atom_site_fract_y
_atom_site_fract_z
Si Si1 0.186645 0.527934 0.664039
Si Si2 0.466243 0.616856 0.024569
Si Si3 0.507896 0.754226 0.804644
Si Si4 0.915897 0.049209 0.611166
Si Si5 0.290890 0.288796 0.571845
Si Si6 0.639629 0.970457 0.257667
Si Si7 0.588838 0.567579 0.426292
Si Si8 0.244078 0.886500 0.989220
O O1 0.405174 0.683281 0.852061
O O2 0.351287 0.524886 0.514407
O O3 0.832012 0.385281 0.440252
O O4 0.185985 0.525110 0.832257
O O5 0.442437 0.609236 0.190971
O O6 0.761142 0.787872 0.236027
O O7 0.539710 0.565682 0.827056
O O8 0.710655 0.777134 0.687604
O O9 0.664257 0.896283 0.040003
O O10 0.846577 0.069413 0.825800
O O11 0.640818 0.958629 0.407463
O O12 0.000000 0.000000 0.500000
O O13 0.359125 0.385563 0.658151
O O14 0.948777 0.145437 0.476484
O O15 0.372311 0.896514 0.102163
O O16 0.932950 0.717776 0.688395
O O17 0.500000 0.000000 0.000000
#
# Coordination Sequence:
#
# PCOD9007694 Si02
#       8
#     2   2   2   2   2   2   2   2
#     4  10  21  39  62  92 125 172 223 272 321 399
#     4  11  22  39  67  93 126 174 217 271 339 384
#     4  10  22  39  64  95 129 176 222 269 335 396
#     4  11  26  45  69 100 138 179 222 274 336 400
#     4  10  23  40  61  95 136 171 216 280 333 391
#     4  11  23  41  67  98 134 176 223 272 331 399
#     4  11  22  42  66  89 134 170 223 276 331 394
#     4  12  25  44  70 103 134 176 225 275 336 395
#
# _framework density 22.547204000000001
#
# number of rings (size 3 to 8) (size 9 to 14) (size 15 to 20)
#    0.000    1.250    2.500    3.000    3.500    2.500 
#    0.000    3.750    0.000    0.000    0.000    0.000 
#    0.000    0.000    0.000    0.000    0.000    0.000 
#
# Total GULP energy -89327.722498 kJ/mol
# GULP energy per Si atom -5582.982656 kJ/mol
# Density = 2.249589 g / cm^3
# Si number density = 22.547204 Si / 1000 Ang^3
#
#
#
# Elastic Constant Matrix: (Units=GPa)
#
#
# Indices 1 2 3 4 5 6 
#
# 1 97.3696 15.8162 35.4381 -4.4064 1.9939 -37.3510
# 2 15.8162 40.8510 7.4823 -4.6451 6.4386 -28.7086
# 3 35.4381 7.4823 70.5245 -11.4734 6.8877 -27.6740
# 4 -4.4064 -4.6451 -11.4734 29.2015 -11.6018 4.1279
# 5 1.9939 6.4386 6.8877 -11.6018 53.0115 -0.7701
# 6 -37.3510 -28.7086 -27.6740 4.1279 -0.7701 34.8422
#
#
#
# Elastic Compliance Matrix: (Units=1/GPa)
#
#
# Indices 1 2 3 4 5 6 
#
# 1 0.024404 0.029084 0.007089 0.001575 -0.004221 0.055476
# 2 0.029084 0.125606 0.040073 0.010061 -0.016958 0.164934
# 3 0.007089 0.040073 0.034786 0.008967 -0.006717 0.067036
# 4 0.001575 0.010061 0.008967 0.040464 0.006590 0.012452
# 5 -0.004221 -0.016958 -0.006717 0.006590 0.023047 -0.024104
# 6 0.055476 0.164934 0.067036 0.012452 -0.024104 0.275308
#
#
# Mechanical properties :
#
#
# Convention : Reuss Voigt Hill
#
# Bulk Modulus (GPa) = 2.96483 36.24646 19.60564
# Shear Modulus (GPa) = 10.34014 33.41161 21.87587
#
# Velocity S-wave (km/s) = 2.14382 3.85366 3.11822
# Velocity P-wave (km/s) = 2.72869 5.99263 4.65604
#
# Compressibility (1/GPa) = 0.33728762
#
# Stress axis : x y z
#
# Youngs Moduli (GPa) = 40.97647 7.96141 28.74730
#
# Poissons Ratio (x) = -0.23155 -0.20378
# Poissons Ratio (y) = -1.19176 -1.15199
# Poissons Ratio (z) = -0.29047 -0.31904
#
# Static dielectric constant tensor:
#      x y z
#    x 1.891620 -0.037700 0.042240 
#    y -0.037700 1.821890 -0.031750 
#    z 0.042240 -0.031750 1.847690 
# 
# From -- ./inp_files/227735.got.cif
#   From: 2010.05.17/outbox.cif.g08.bks.cpg/sg2_114_cif.got.tgz:227735.got - 2010.06.03 11:33:40.
